AV-unprocessed.smi:2628|AV-procd|sdf|10243|dock1
  -GOLD-   2272014253D 1   1.00000     0.00000
 Structure written by MMmdl.
 38 38  0  0  0  0  0  0  0  0  1 V2000
  152.3212  144.6819  158.4692 C   0  0  0  0  0  0  0  0  0  0  0  0
  152.3275  143.1839  158.7919 C   0  0  0  0  0  0  0  0  0  0  0  0
  151.1168  142.4476  158.1954 C   0  0  0  0  0  0  0  0  0  0  0  0
  151.0131  142.5267  156.6583 C   0  0  0  0  0  0  0  0  0  0  0  0
  150.6037  141.2837  156.0274 N   0  0  0  0  0  0  0  0  0  0  0  0
  149.4638  141.1730  155.2261 C   0  0  0  0  0  0  0  0  0  0  0  0
  148.6920  142.3107  155.0372 N   0  0  0  0  0  0  0  0  0  0  0  0
  149.0901  139.9972  154.6407 C   0  0  0  0  0  0  0  0  0  0  0  0
  147.9406  139.9327  153.8515 N   0  0  0  0  0  0  0  0  0  0  0  0
  147.3383  138.8209  153.1310 C   0  0  0  0  0  0  0  0  0  0  0  0
  146.9398  139.2306  151.7092 C   0  0  0  0  0  0  0  0  0  0  0  0
  146.9008  138.0783  150.8833 O   0  0  0  0  0  0  0  0  0  0  0  0
  146.0043  137.0940  151.3675 C   0  0  0  0  0  0  0  0  0  0  0  0
  149.8997  138.7844  154.8524 C   0  0  0  0  0  0  0  0  0  0  0  0
  149.6821  137.6642  154.3935 O   0  0  0  0  0  0  0  0  0  0  0  0
  151.0165  138.9571  155.6663 N   0  0  0  0  0  0  0  0  0  0  0  0
  151.4082  140.1451  156.2698 C   0  0  0  0  0  0  0  0  0  0  0  0
  152.4130  140.1548  156.9818 O   0  0  0  0  0  0  0  0  0  0  0  0
  151.5896  138.1437  155.8371 H   0  0  0  0  0  0  0  0  0  0  0  0
  153.1899  145.1759  158.9049 H   0  0  0  0  0  0  0  0  0  0  0  0
  151.4290  145.1664  158.8668 H   0  0  0  0  0  0  0  0  0  0  0  0
  152.3454  144.8537  157.3929 H   0  0  0  0  0  0  0  0  0  0  0  0
  153.2487  142.7382  158.4151 H   0  0  0  0  0  0  0  0  0  0  0  0
  152.3422  143.0588  159.8747 H   0  0  0  0  0  0  0  0  0  0  0  0
  151.1401  141.4037  158.5095 H   0  0  0  0  0  0  0  0  0  0  0  0
  150.2049  142.8670  158.6217 H   0  0  0  0  0  0  0  0  0  0  0  0
  150.2734  143.2693  156.3583 H   0  0  0  0  0  0  0  0  0  0  0  0
  151.9458  142.8685  156.2078 H   0  0  0  0  0  0  0  0  0  0  0  0
  148.9355  143.1949  155.4594 H   0  0  0  0  0  0  0  0  0  0  0  0
  147.9071  142.3197  154.4020 H   0  0  0  0  0  0  0  0  0  0  0  0
  147.4352  140.8001  153.7466 H   0  0  0  0  0  0  0  0  0  0  0  0
  148.0614  138.0070  153.0718 H   0  0  0  0  0  0  0  0  0  0  0  0
  146.4697  138.4502  153.6764 H   0  0  0  0  0  0  0  0  0  0  0  0
  145.9731  139.7371  151.7146 H   0  0  0  0  0  0  0  0  0  0  0  0
  147.6744  139.9337  151.3135 H   0  0  0  0  0  0  0  0  0  0  0  0
  146.0144  136.2299  150.7030 H   0  0  0  0  0  0  0  0  0  0  0  0
  144.9836  137.4764  151.4077 H   0  0  0  0  0  0  0  0  0  0  0  0
  146.2914  136.7554  152.3639 H   0  0  0  0  0  0  0  0  0  0  0  0
  1  2  1  0  0  0  0
  1 20  1  0  0  0  0
  1 21  1  0  0  0  0
  1 22  1  0  0  0  0
  2  3  1  0  0  0  0
  2 23  1  0  0  0  0
  2 24  1  0  0  0  0
  3  4  1  0  0  0  0
  3 25  1  0  0  0  0
  3 26  1  0  0  0  0
  4  5  1  0  0  0  0
  4 27  1  0  0  0  0
  4 28  1  0  0  0  0
  5 17  1  0  0  0  0
  5  6  1  0  0  0  0
  6  7  1  0  0  0  0
  6  8  2  0  0  0  0
  7 29  1  0  0  0  0
  7 30  1  0  0  0  0
  8  9  1  0  0  0  0
  8 14  1  0  0  0  0
  9 10  1  0  0  0  0
  9 31  1  0  0  0  0
 10 11  1  0  0  0  0
 10 32  1  0  0  0  0
 10 33  1  0  0  0  0
 11 12  1  0  0  0  0
 11 34  1  0  0  0  0
 11 35  1  0  0  0  0
 12 13  1  0  0  0  0
 13 36  1  0  0  0  0
 13 37  1  0  0  0  0
 13 38  1  0  0  0  0
 14 15  2  0  0  0  0
 14 16  1  0  0  0  0
 16 19  1  0  0  0  0
 16 17  1  0  0  0  0
 17 18  2  0  0  0  0
M  END
> <s_m_source_file>
AV-unprocessed.smi

> <i_m_source_file_index>
2628

> <i_lp_mmshare_version>
43012

> <i_f3d_flags>
0

> <s_epik_input>
W0NIM11bQ0gyXVtDSDJdW0NIMl1uMWMoW05IMl0pYyhjKD1PKVtuSF1jMT1PKVtOSF1bQ0gyXVtDSDJdT1tDSDNd

> <s_epik_cmdline>
J2VwaWtfcHl0aG9uJywgJy1waCcsICc3LjAnLCAnLXRuJywgJzgnLCAnLW1hJywgJzIwMCcsICctbWV0YWxfYmluZGluZycsICctaW1hZScsICc8aW5maWxlLm1hZT4nLCAnLW9tYWUnLCAnPG91dGZpbGUubWFlPic=

> <r_lp_tautomer_probability>
1

> <r_epik_Ionization_Penalty>
1.09794e-05

> <r_epik_Ionization_Penalty_Charging>
2.75876e-06

> <r_epik_Ionization_Penalty_Neutral>
8.2206e-06

> <r_epik_State_Penalty>
-0

> <r_epik_Charging_Adjusted_Penalty>
2.75876e-06

> <i_epik_Tot_Q>
0

> <i_epik_Tot_abs_Q>
0

> <r_epik_Metal_State_Penalty>
-0

> <b_epik_Metal_Only>
0

> <s_epik_Chemistry_Notes>
This compound has an imine and may undergo hydrolysis.

> <s_lp_Force_Field>
OPLS_2005

> <r_lp_Energy>
18.1798

> <b_lp_Chiralities_Consistent>
1

> <s_lp_Variant>
AV-unprocessed.smi:2628-1

> <Gold.Version>
5.8.1

> <Gold.Id.Protein>
6NUR|6NUR_protein|mol2

> <Gold.PLP.Fitness>
42.0609

> <Gold.PLP.PLP>
-34.0080

> <Gold.PLP.part.hbond>
-3.4176

> <Gold.PLP.part.metal>
0.0000

> <Gold.PLP.part.buried>
1.1302

> <Gold.PLP.part.nonpolar>
-34.7451

> <Gold.PLP.part.repulsive>
3.5157

> <Gold.PLP.ligand.clash>
0.0000

> <Gold.PLP.ligand.torsion>
0.5104

> <Gold.PLP.Chemscore.Hbond>
3.0000

> <Gold.PLP.Chemscore.CHOScore>
0.0000

> <Gold.PLP.Chemscore.Metal>
0.0000

> <Gold.Chemscore.Hbonds>
donor molecule, donor type, donor heavy atom, donor atom, acceptor molecule, acceptor atom, score
      L1  H     7    29       P1  8028  1.00
      P1  H  7954  7966       L1    12  1.00
      P1  H  7997  8009       L1    18  1.00

> <Gold.PLP.Chemscore.Internal.Correction>
0.0738

> <Gold.Rescore>
     Score         DG    S(hbond)    S(metal)    S(lipo)     H(rot)  DE(clash)    DE(int)     intcor
     12.15     -16.27       2.57        0.00      70.23       2.35       2.27       1.86       ----

> <Gold.Chemscore.Fitness>
12.1452

> <Gold.Chemscore.DG>
-16.2697

> <Gold.Chemscore.ZeroCoef>
-5.4800

> <Gold.Chemscore.Hbond>
2.5702

> <Gold.Chemscore.Metal>
0.0000

> <Gold.Chemscore.Lipo>
70.2318

> <Gold.Chemscore.Internal_Hbond>
0.0000

> <Gold.Chemscore.DEClash>
2.2675

> <Gold.Chemscore.DEInternal>
1.8570

> <Gold.Chemscore.Rot>
2.3484

> <Gold.Chemscore.Internal.Correction>
   9.000000E+99

> <Gold.Chemscore.Hbonds>
donor molecule, donor type, donor heavy atom, donor atom, acceptor molecule, acceptor atom, score
      L1  H     7    29       P1  8028  0.92
      P1  H  7954  7966       L1    12  0.91
      P1  H  7997  8009       L1    18  0.90

> <Gold.Chemscore.Hbond.Weighted>
-8.5846

> <Gold.Chemscore.Metal.Weighted>
-0.0000

> <Gold.Chemscore.Lipo.Weighted>
-8.2171

> <Gold.Chemscore.Internal_Hbond.Weighted>
0.0000

> <Gold.Chemscore.DEClash.Weighted>
2.2675

> <Gold.Chemscore.DEInternal.Weighted>
1.8570

> <Gold.Chemscore.Rot.Weighted>
6.0120

> <Gold.Chemscore.Internal.Correction.Weighted>
   9.000000E+99

> <Gold.Protein.RotatedTorsions>
[ 6907 6896 6895 6894 ] final   43.11 input  -60.11 | X-H torsion
[ 7974 7965 7964 7962 ] final  -39.22 input  175.53 | X-H torsion
[ 8008 7997 7996 7995 ] final -164.69 input   59.86 | X-H torsion
[ 10167 10162 10161 10158 ] final  137.24 input  -65.29 | X-H torsion
[ 10718 10713 10712 10709 ] final  119.77 input   66.30 | X-H torsion
[ 10763 10752 10751 10750 ] final -112.60 input  -60.55 | X-H torsion
[ 11005 11000 10999 10996 ] final  103.68 input  -57.11 | X-H torsion

> <Gold.Protein.ActiveResidues>
 VAL166  LYS551  ARG553  GLY616  TRP617  ASP618  TYR619  PRO620  LYS621  CYS622 
 ASP623  PHE694  ASN695  SER759  ASP760  ASP761  ALA762  ILE779  LEU786  VAL792 
 PHE793  MET794  SER795  GLU796  ALA797  LYS798  CYS799  TRP800  GLU811  SER814 

> <Gold.Protein.RotatedAtoms>
  152.2162  134.8456  160.0491 H   0  0  0  0  0  0  0  0  0  0  0  0  # atno 6907 bound_to 6896
  151.9256  133.3592  159.3920 H   0  0  0  0  0  0  0  0  0  0  0  0  # atno 6908 bound_to 6896
  150.6988  134.4515  159.5382 H   0  0  0  0  0  0  0  0  0  0  0  0  # atno 6909 bound_to 6896
  146.0416  140.6601  142.9084 H   0  0  0  0  0  0  0  0  0  0  0  0  # atno 7974 bound_to 7965
  155.8392  140.0945  157.1745 H   0  0  0  0  0  0  0  0  0  0  0  0  # atno 8008 bound_to 7997
  154.3981  140.1404  156.3769 H   0  0  0  0  0  0  0  0  0  0  0  0  # atno 8009 bound_to 7997
  155.8083  140.3450  155.5445 H   0  0  0  0  0  0  0  0  0  0  0  0  # atno 8010 bound_to 7997
  139.5151  144.6421  151.5541 H   0  0  0  0  0  0  0  0  0  0  0  0  # atno 10167 bound_to 10162
  157.5938  131.1061  150.7943 H   0  0  0  0  0  0  0  0  0  0  0  0  # atno 10718 bound_to 10713
  154.8357  135.4485  154.1219 H   0  0  0  0  0  0  0  0  0  0  0  0  # atno 10763 bound_to 10752
  153.2453  135.6921  153.7744 H   0  0  0  0  0  0  0  0  0  0  0  0  # atno 10764 bound_to 10752
  153.7077  135.3361  155.3215 H   0  0  0  0  0  0  0  0  0  0  0  0  # atno 10765 bound_to 10752
  139.8785  134.9272  156.5247 H   0  0  0  0  0  0  0  0  0  0  0  0  # atno 11005 bound_to 11000
  144.7077  140.3918  143.7105 LP  0  0  0  0  0  0  0  0  0  0  0  0  # atno 17320 bound_to 7965
  145.6875  139.1632  143.2665 LP  0  0  0  0  0  0  0  0  0  0  0  0  # atno 17321 bound_to 7965
  140.6191  143.9292  150.6512 LP  0  0  0  0  0  0  0  0  0  0  0  0  # atno 17342 bound_to 10162
  140.2559  143.3559  152.1365 LP  0  0  0  0  0  0  0  0  0  0  0  0  # atno 17343 bound_to 10162
  156.8358  130.5031  149.5326 LP  0  0  0  0  0  0  0  0  0  0  0  0  # atno 17370 bound_to 10713
  156.0997  130.5959  150.9873 LP  0  0  0  0  0  0  0  0  0  0  0  0  # atno 17371 bound_to 10713
  140.8425  133.8194  155.9089 LP  0  0  0  0  0  0  0  0  0  0  0  0  # atno 17394 bound_to 11000
  140.9223  134.2125  157.4918 LP  0  0  0  0  0  0  0  0  0  0  0  0  # atno 17395 bound_to 11000

$$$$
