AV-unprocessed.smi:1774|AV-procd|sdf|7167|dock9
  -GOLD-   22720 8403D 1   1.00000     0.00000
 Structure written by MMmdl.
 46 47  0  0  0  0  0  0  0  0  2 V2000
  153.0867  140.6743  159.9155 C   0  0  0  0  0  0  0  0  0  0  0  0
  152.4212  141.8445  159.2095 C   0  0  0  0  0  0  0  0  0  0  0  0
  152.5620  143.1432  159.7434 C   0  0  0  0  0  0  0  0  0  0  0  0
  151.9487  144.2244  159.0879 C   0  0  0  0  0  0  0  0  0  0  0  0
  151.2168  143.9594  157.9179 C   0  0  0  0  0  0  0  0  0  0  0  0
  151.0771  142.7219  157.4007 N   0  0  0  0  0  0  0  0  0  0  0  0
  151.6631  141.6672  158.0210 C   0  0  0  0  0  0  0  0  0  0  0  0
  151.5535  140.3337  157.5344 N   0  0  0  0  0  0  0  0  0  0  0  0
  151.2465  139.9199  156.2921 C   0  0  0  0  0  0  0  0  0  0  0  0
  151.0231  140.6533  155.3285 O   0  0  0  0  0  0  0  0  0  0  0  0
  151.2173  138.5812  156.2183 N   0  0  0  0  0  0  0  0  0  0  0  0
  150.9501  137.8189  155.0038 C   0  0  0  0  0  0  0  0  0  0  0  0
  149.7605  136.8549  155.1828 C   0  0  0  0  0  0  0  0  0  0  0  0
  148.5686  137.2737  154.4040 N   0  3  1  0  0  0  0  0  0  0  0  0
  147.3108  136.7170  154.9557 C   0  0  0  0  0  0  0  0  0  0  0  0
  146.1098  137.1215  154.0799 C   0  0  1  0  0  0  0  0  0  0  0  0
  144.7787  136.6297  154.6583 C   0  0  0  0  0  0  0  0  0  0  0  0
  146.0571  138.5410  153.9911 O   0  0  0  0  0  0  0  0  0  0  0  0
  147.2192  139.0946  153.3839 C   0  0  1  0  0  0  0  0  0  0  0  0
  147.0163  140.6081  153.2532 C   0  0  0  0  0  0  0  0  0  0  0  0
  148.4511  138.7440  154.2398 C   0  0  0  0  0  0  0  0  0  0  0  0
  153.6188  141.0001  160.8098 H   0  0  0  0  0  0  0  0  0  0  0  0
  153.8068  140.1909  159.2545 H   0  0  0  0  0  0  0  0  0  0  0  0
  152.3428  139.9368  160.2183 H   0  0  0  0  0  0  0  0  0  0  0  0
  153.1326  143.3126  160.6448 H   0  0  0  0  0  0  0  0  0  0  0  0
  152.0371  145.2299  159.4717 H   0  0  0  0  0  0  0  0  0  0  0  0
  150.7302  144.7613  157.3828 H   0  0  0  0  0  0  0  0  0  0  0  0
  151.7355  139.6113  158.2152 H   0  0  0  0  0  0  0  0  0  0  0  0
  151.4136  138.0530  157.0561 H   0  0  0  0  0  0  0  0  0  0  0  0
  150.7808  138.5152  154.1823 H   0  0  0  0  0  0  0  0  0  0  0  0
  151.8498  137.2559  154.7538 H   0  0  0  0  0  0  0  0  0  0  0  0
  150.0742  135.8648  154.8484 H   0  0  0  0  0  0  0  0  0  0  0  0
  149.4882  136.7530  156.2344 H   0  0  0  0  0  0  0  0  0  0  0  0
  147.3794  135.6294  155.0033 H   0  0  0  0  0  0  0  0  0  0  0  0
  147.1721  137.0744  155.9778 H   0  0  0  0  0  0  0  0  0  0  0  0
  146.2282  136.7030  153.0789 H   0  0  0  0  0  0  0  0  0  0  0  0
  144.7649  135.5430  154.7456 H   0  0  0  0  0  0  0  0  0  0  0  0
  143.9455  136.9219  154.0186 H   0  0  0  0  0  0  0  0  0  0  0  0
  144.5994  137.0479  155.6491 H   0  0  0  0  0  0  0  0  0  0  0  0
  147.3353  138.6740  152.3832 H   0  0  0  0  0  0  0  0  0  0  0  0
  147.8790  141.0811  152.7834 H   0  0  0  0  0  0  0  0  0  0  0  0
  146.8689  141.0731  154.2284 H   0  0  0  0  0  0  0  0  0  0  0  0
  146.1418  140.8324  152.6419 H   0  0  0  0  0  0  0  0  0  0  0  0
  148.3746  139.2154  155.2213 H   0  0  0  0  0  0  0  0  0  0  0  0
  149.3436  139.1461  153.7621 H   0  0  0  0  0  0  0  0  0  0  0  0
  148.6729  136.8783  153.4806 H   0  0  0  0  0  0  0  0  0  0  0  0
  1  2  1  0  0  0  0
  1 22  1  0  0  0  0
  1 23  1  0  0  0  0
  1 24  1  0  0  0  0
  2  7  1  0  0  0  0
  2  3  2  0  0  0  0
  3  4  1  0  0  0  0
  3 25  1  0  0  0  0
  4  5  2  0  0  0  0
  4 26  1  0  0  0  0
  5  6  1  0  0  0  0
  5 27  1  0  0  0  0
  6  7  2  0  0  0  0
  7  8  1  0  0  0  0
  8  9  1  0  0  0  0
  8 28  1  0  0  0  0
  9 10  2  0  0  0  0
  9 11  1  0  0  0  0
 11 12  1  0  0  0  0
 11 29  1  0  0  0  0
 12 13  1  0  0  0  0
 12 30  1  0  0  0  0
 12 31  1  0  0  0  0
 13 14  1  0  0  0  0
 13 32  1  0  0  0  0
 13 33  1  0  0  0  0
 14 21  1  0  0  0  0
 14 15  1  0  0  0  0
 14 46  1  0  0  0  0
 15 16  1  0  0  0  0
 15 34  1  0  0  0  0
 15 35  1  0  0  0  0
 16 17  1  0  0  0  0
 16 18  1  0  0  0  0
 16 36  1  0  0  0  0
 17 37  1  0  0  0  0
 17 38  1  0  0  0  0
 17 39  1  0  0  0  0
 18 19  1  0  0  0  0
 19 20  1  0  0  0  0
 19 21  1  0  0  0  0
 19 40  1  0  0  0  0
 20 41  1  0  0  0  0
 20 42  1  0  0  0  0
 20 43  1  0  0  0  0
 21 44  1  0  0  0  0
 21 45  1  0  0  0  0
M  CHG  1  14   1
M  END
> <s_m_source_file>
AV-unprocessed.smi

> <i_m_source_file_index>
1774

> <i_lp_mmshare_version>
43012

> <i_f3d_flags>
0

> <s_epik_input>
W0NIM11jMVtjSF1bY0hdW2NIXW5jMVtOSF1DKD1PKVtOSF1bQ0gyXVtDSDJdTjJbQ0gyXVtDQEBIXShbQ0gzXSlPW0NAQEhdKFtDSDNdKVtDSDJdMg==

> <s_epik_cmdline>
J2VwaWtfcHl0aG9uJywgJy1waCcsICc3LjAnLCAnLXRuJywgJzgnLCAnLW1hJywgJzIwMCcsICctbWV0YWxfYmluZGluZycsICctaW1hZScsICc8aW5maWxlLm1hZT4nLCAnLW9tYWUnLCAnPG91dGZpbGUubWFlPic=

> <r_epik_Ionization_Penalty>
0.602573

> <r_epik_Ionization_Penalty_Charging>
0.602531

> <r_epik_Ionization_Penalty_Neutral>
4.21996e-05

> <r_epik_State_Penalty>
0.617039

> <r_epik_Charging_Adjusted_Penalty>
1.21957

> <i_epik_Tot_Q>
1

> <i_epik_Tot_abs_Q>
1

> <r_epik_Metal_State_Penalty>
0.617042

> <b_epik_Metal_Only>
0

> <s_lp_Force_Field>
OPLS_2005

> <r_lp_Energy>
15.6229

> <b_lp_Chiralities_Consistent>
1

> <s_lp_Variant>
AV-unprocessed.smi:1774-4

> <Gold.Version>
5.8.1

> <Gold.Id.Protein>
6NUR|6NUR_protein|mol2

> <Gold.PLP.Fitness>
44.1299

> <Gold.PLP.PLP>
-33.9675

> <Gold.PLP.part.hbond>
-2.0000

> <Gold.PLP.part.metal>
0.0000

> <Gold.PLP.part.buried>
-5.0083

> <Gold.PLP.part.nonpolar>
-28.9575

> <Gold.PLP.part.repulsive>
0.4321

> <Gold.PLP.ligand.clash>
0.0000

> <Gold.PLP.ligand.torsion>
0.7455

> <Gold.PLP.Chemscore.Hbond>
2.8800

> <Gold.PLP.Chemscore.CHOScore>
1.0000

> <Gold.PLP.Chemscore.Metal>
0.0000

> <Gold.Chemscore.Hbonds>
donor molecule, donor type, donor heavy atom, donor atom, acceptor molecule, acceptor atom, score
      L1  H    14    46       P1  7948  2.00
      P1  H  7989  7998       L1    10  0.88
      L1  C     5    27       P1  8028  1.00

> <Gold.PLP.Chemscore.Internal.Correction>
0.0133

> <Gold.Rescore>
     Score         DG    S(hbond)    S(metal)    S(lipo)     H(rot)  DE(clash)    DE(int)     intcor
     16.66     -18.57       1.88        0.00      90.97       1.49       0.01       1.90       ----

> <Gold.Chemscore.Fitness>
16.6600

> <Gold.Chemscore.DG>
-18.5730

> <Gold.Chemscore.ZeroCoef>
-5.4800

> <Gold.Chemscore.Hbond>
1.8790

> <Gold.Chemscore.Metal>
0.0000

> <Gold.Chemscore.Lipo>
90.9686

> <Gold.Chemscore.Internal_Hbond>
0.0000

> <Gold.Chemscore.DEClash>
0.0126

> <Gold.Chemscore.DEInternal>
1.9004

> <Gold.Chemscore.Rot>
1.4946

> <Gold.Chemscore.Internal.Correction>
   9.000000E+99

> <Gold.Chemscore.Hbonds>
donor molecule, donor type, donor heavy atom, donor atom, acceptor molecule, acceptor atom, score
      L1  H    14    46       P1  7948  1.00
      P1  H  7989  7998       L1    10  0.86

> <Gold.Chemscore.Hbond.Weighted>
-6.2757

> <Gold.Chemscore.Metal.Weighted>
-0.0000

> <Gold.Chemscore.Lipo.Weighted>
-10.6433

> <Gold.Chemscore.Internal_Hbond.Weighted>
0.0000

> <Gold.Chemscore.DEClash.Weighted>
0.0126

> <Gold.Chemscore.DEInternal.Weighted>
1.9004

> <Gold.Chemscore.Rot.Weighted>
3.8261

> <Gold.Chemscore.Internal.Correction.Weighted>
   9.000000E+99

> <Gold.Protein.RotatedTorsions>
[ 6907 6896 6895 6894 ] final  -25.57 input  -60.11 | X-H torsion
[ 7974 7965 7964 7962 ] final  178.92 input  175.53 | X-H torsion
[ 8008 7997 7996 7995 ] final   -7.01 input   59.86 | X-H torsion
[ 10167 10162 10161 10158 ] final   -7.70 input  -65.29 | X-H torsion
[ 10718 10713 10712 10709 ] final  149.58 input   66.30 | X-H torsion
[ 10763 10752 10751 10750 ] final  -43.87 input  -60.55 | X-H torsion
[ 11005 11000 10999 10996 ] final   51.74 input  -57.11 | X-H torsion

> <Gold.Protein.ActiveResidues>
 VAL166  LYS551  ARG553  GLY616  TRP617  ASP618  TYR619  PRO620  LYS621  CYS622 
 ASP623  PHE694  ASN695  SER759  ASP760  ASP761  ALA762  ILE779  LEU786  VAL792 
 PHE793  MET794  SER795  GLU796  ALA797  LYS798  CYS799  TRP800  GLU811  SER814 

> <Gold.Protein.RotatedAtoms>
  151.1732  135.0327  159.8760 H   0  0  0  0  0  0  0  0  0  0  0  0  # atno 6907 bound_to 6896
  152.5448  134.1147  159.8383 H   0  0  0  0  0  0  0  0  0  0  0  0  # atno 6908 bound_to 6896
  151.1255  133.5027  159.2633 H   0  0  0  0  0  0  0  0  0  0  0  0  # atno 6909 bound_to 6896
  144.7151  140.0469  143.6436 H   0  0  0  0  0  0  0  0  0  0  0  0  # atno 7974 bound_to 7965
  154.5880  140.2418  155.7960 H   0  0  0  0  0  0  0  0  0  0  0  0  # atno 8008 bound_to 7997
  156.2227  140.2992  155.9947 H   0  0  0  0  0  0  0  0  0  0  0  0  # atno 8009 bound_to 7997
  155.2423  140.0407  157.2967 H   0  0  0  0  0  0  0  0  0  0  0  0  # atno 8010 bound_to 7997
  140.7037  143.6051  150.8759 H   0  0  0  0  0  0  0  0  0  0  0  0  # atno 10167 bound_to 10162
  157.2943  131.0859  151.1438 H   0  0  0  0  0  0  0  0  0  0  0  0  # atno 10718 bound_to 10713
  154.0027  135.6691  153.4760 H   0  0  0  0  0  0  0  0  0  0  0  0  # atno 10763 bound_to 10752
  153.0655  135.5003  154.8186 H   0  0  0  0  0  0  0  0  0  0  0  0  # atno 10764 bound_to 10752
  154.7043  135.3085  154.9258 H   0  0  0  0  0  0  0  0  0  0  0  0  # atno 10765 bound_to 10752
  140.0907  134.5213  155.8855 H   0  0  0  0  0  0  0  0  0  0  0  0  # atno 11005 bound_to 11000
  145.9976  139.3065  143.0947 LP  0  0  0  0  0  0  0  0  0  0  0  0  # atno 17320 bound_to 7965
  145.8830  140.9351  143.0591 LP  0  0  0  0  0  0  0  0  0  0  0  0  # atno 17321 bound_to 7965
  139.9775  143.5988  152.2954 LP  0  0  0  0  0  0  0  0  0  0  0  0  # atno 17342 bound_to 10162
  139.6597  144.7662  151.1987 LP  0  0  0  0  0  0  0  0  0  0  0  0  # atno 17343 bound_to 10162
  157.2823  130.6756  149.6072 LP  0  0  0  0  0  0  0  0  0  0  0  0  # atno 17370 bound_to 10713
  155.9668  130.4446  150.5468 LP  0  0  0  0  0  0  0  0  0  0  0  0  # atno 17371 bound_to 10713
  141.2077  133.6666  156.6322 LP  0  0  0  0  0  0  0  0  0  0  0  0  # atno 17394 bound_to 11000
  140.3356  134.7892  157.4359 LP  0  0  0  0  0  0  0  0  0  0  0  0  # atno 17395 bound_to 11000

$$$$
