AV-unprocessed.smi:57|AV-procd|sdf|581|dock4
  -GOLD-   2262016483D 1   1.00000     0.00000
 Structure written by MMmdl.
 27 28  0  0  0  0  0  0  0  0  1 V2000
  150.1433  136.2546  154.4323 N   0  0  0  0  0  0  0  0  0  0  0  0
  150.4160  137.5094  154.8137 C   0  0  0  0  0  0  0  0  0  0  0  0
  151.5781  137.7016  155.5578 N   0  0  0  0  0  0  0  0  0  0  0  0
  152.0106  138.9462  156.0343 C   0  0  0  0  0  0  0  0  0  0  0  0
  153.0513  139.0184  156.6843 O   0  0  0  0  0  0  0  0  0  0  0  0
  151.1162  140.0070  155.6656 C   0  0  0  0  0  0  0  0  0  0  0  0
  151.1813  141.3721  155.9323 N   0  0  0  0  0  0  0  0  0  0  0  0
  150.1185  141.8619  155.3563 C   0  0  0  0  0  0  0  0  0  0  0  0
  149.3430  140.9199  154.7275 N   0  0  0  0  0  0  0  0  0  0  0  0
  148.1091  141.0988  153.9888 C   0  0  0  0  0  0  0  0  0  0  0  0
  147.6089  139.8352  153.7033 O   0  0  0  0  0  0  0  0  0  0  0  0
  147.0429  139.7346  152.4073 C   0  0  0  0  0  0  0  0  0  0  0  0
  146.1971  138.4590  152.3442 C   0  0  0  0  0  0  0  0  0  0  0  0
  146.2148  137.9342  151.0347 O   0  0  0  0  0  0  0  0  0  0  0  0
  149.9866  139.7183  154.9253 C   0  0  0  0  0  0  0  0  0  0  0  0
  149.5929  138.4864  154.4761 N   0  0  0  0  0  0  0  0  0  0  0  0
  150.7645  135.4989  154.6821 H   0  0  0  0  0  0  0  0  0  0  0  0
  149.3119  136.0663  153.8906 H   0  0  0  0  0  0  0  0  0  0  0  0
  152.1574  136.9038  155.7751 H   0  0  0  0  0  0  0  0  0  0  0  0
  149.8761  142.9146  155.3732 H   0  0  0  0  0  0  0  0  0  0  0  0
  148.3160  141.6455  153.0674 H   0  0  0  0  0  0  0  0  0  0  0  0
  147.4170  141.6757  154.6052 H   0  0  0  0  0  0  0  0  0  0  0  0
  146.4207  140.6071  152.1998 H   0  0  0  0  0  0  0  0  0  0  0  0
  147.8334  139.7027  151.6554 H   0  0  0  0  0  0  0  0  0  0  0  0
  146.5826  137.7088  153.0350 H   0  0  0  0  0  0  0  0  0  0  0  0
  145.1665  138.6700  152.6312 H   0  0  0  0  0  0  0  0  0  0  0  0
  145.4630  138.2673  150.5686 H   0  0  0  0  0  0  0  0  0  0  0  0
  1  2  1  0  0  0  0
  1 18  1  0  0  0  0
  1 17  1  0  0  0  0
  2 16  2  0  0  0  0
  2  3  1  0  0  0  0
  3 19  1  0  0  0  0
  3  4  1  0  0  0  0
  4  5  2  0  0  0  0
  4  6  1  0  0  0  0
  6 15  2  0  0  0  0
  6  7  1  0  0  0  0
  7  8  2  0  0  0  0
  8 20  1  0  0  0  0
  8  9  1  0  0  0  0
  9 10  1  0  0  0  0
  9 15  1  0  0  0  0
 10 11  1  0  0  0  0
 10 21  1  0  0  0  0
 10 22  1  0  0  0  0
 11 12  1  0  0  0  0
 12 13  1  0  0  0  0
 12 23  1  0  0  0  0
 12 24  1  0  0  0  0
 13 14  1  0  0  0  0
 13 25  1  0  0  0  0
 13 26  1  0  0  0  0
 14 27  1  0  0  0  0
 15 16  1  0  0  0  0
M  END
> <s_m_source_file>
AV-unprocessed.smi

> <i_m_source_file_index>
57

> <i_lp_mmshare_version>
43012

> <i_f3d_flags>
0

> <s_epik_input>
Tz1jMW5jKFtOSDJdKVtuSF1jKGMxMiluKFtjSF1uMilbQ0gyXU9bQ0gyXVtDSDJdW09IXQ==

> <s_epik_cmdline>
J2VwaWtfcHl0aG9uJywgJy1waCcsICc3LjAnLCAnLXRuJywgJzgnLCAnLW1hJywgJzIwMCcsICctbWV0YWxfYmluZGluZycsICctaW1hZScsICc8aW5maWxlLm1hZT4nLCAnLW9tYWUnLCAnPG91dGZpbGUubWFlPic=

> <r_lp_tautomer_probability>
1

> <r_epik_Ionization_Penalty>
0.00151458

> <r_epik_Ionization_Penalty_Charging>
0.0014384

> <r_epik_Ionization_Penalty_Neutral>
7.61793e-05

> <r_epik_State_Penalty>
-0

> <r_epik_Charging_Adjusted_Penalty>
0.0014384

> <i_epik_Tot_Q>
0

> <i_epik_Tot_abs_Q>
0

> <r_epik_Metal_State_Penalty>
0.317918

> <b_epik_Metal_Only>
0

> <s_epik_Chemistry_Notes>
This compound contains an acetal/aminal-like group ( X-CH(R)-Y where X, Y are N, S, or O) that may be acid/base labile, releasing an aldehyde.

> <s_lp_Force_Field>
OPLS_2005

> <r_lp_Energy>
2.65481

> <b_lp_Chiralities_Consistent>
1

> <s_lp_Variant>
AV-unprocessed.smi:57-1

> <Gold.Version>
5.8.1

> <Gold.Id.Protein>
6NUR|6NUR_protein|mol2

> <Gold.PLP.Fitness>
42.1323

> <Gold.PLP.PLP>
-28.4440

> <Gold.PLP.part.hbond>
-5.5559

> <Gold.PLP.part.metal>
0.0000

> <Gold.PLP.part.buried>
0.2122

> <Gold.PLP.part.nonpolar>
-25.3557

> <Gold.PLP.part.repulsive>
1.0248

> <Gold.PLP.ligand.clash>
0.0000

> <Gold.PLP.ligand.torsion>
0.5995

> <Gold.PLP.Chemscore.Hbond>
3.9600

> <Gold.PLP.Chemscore.CHOScore>
1.0000

> <Gold.PLP.Chemscore.Metal>
0.0000

> <Gold.Chemscore.Hbonds>
donor molecule, donor type, donor heavy atom, donor atom, acceptor molecule, acceptor atom, score
      L1  H     1    18       P1  7948  0.58
      L1  H    14    27       P1 10171  1.00
      P1  H  7954  7966       L1    14  0.44
      P1  H  7997  8009       L1     5  1.00
      L1  C     8    20       P1  8028  1.00

> <Gold.PLP.Chemscore.Internal.Correction>
0.0072

> <Gold.Rescore>
     Score         DG    S(hbond)    S(metal)    S(lipo)     H(rot)  DE(clash)    DE(int)     intcor
      4.35      -8.30       2.92        0.00      22.71       3.74       1.54       2.42       ----

> <Gold.Chemscore.Fitness>
4.3543

> <Gold.Chemscore.DG>
-8.3049

> <Gold.Chemscore.ZeroCoef>
-5.4800

> <Gold.Chemscore.Hbond>
2.9157

> <Gold.Chemscore.Metal>
0.0000

> <Gold.Chemscore.Lipo>
22.7120

> <Gold.Chemscore.Internal_Hbond>
0.0000

> <Gold.Chemscore.DEClash>
1.5351

> <Gold.Chemscore.DEInternal>
2.4155

> <Gold.Chemscore.Rot>
3.7387

> <Gold.Chemscore.Internal.Correction>
   9.000000E+99

> <Gold.Chemscore.Hbonds>
donor molecule, donor type, donor heavy atom, donor atom, acceptor molecule, acceptor atom, score
      L1  H     1    18       P1  7948  0.45
      L1  H    14    27       P1 10171  1.00
      P1  H  7954  7966       L1    14  0.39
      P1  H  7997  8009       L1     5  1.00

> <Gold.Chemscore.Hbond.Weighted>
-9.7386

> <Gold.Chemscore.Metal.Weighted>
-0.0000

> <Gold.Chemscore.Lipo.Weighted>
-2.6573

> <Gold.Chemscore.Internal_Hbond.Weighted>
0.0000

> <Gold.Chemscore.DEClash.Weighted>
1.5351

> <Gold.Chemscore.DEInternal.Weighted>
2.4155

> <Gold.Chemscore.Rot.Weighted>
9.5710

> <Gold.Chemscore.Internal.Correction.Weighted>
   9.000000E+99

> <Gold.Protein.RotatedTorsions>
[ 6907 6896 6895 6894 ] final   69.38 input  -60.11 | X-H torsion
[ 7974 7965 7964 7962 ] final  109.18 input  175.53 | X-H torsion
[ 8008 7997 7996 7995 ] final -172.30 input   59.86 | X-H torsion
[ 10167 10162 10161 10158 ] final  -73.76 input  -65.29 | X-H torsion
[ 10718 10713 10712 10709 ] final -176.95 input   66.30 | X-H torsion
[ 10763 10752 10751 10750 ] final -168.18 input  -60.55 | X-H torsion
[ 11005 11000 10999 10996 ] final  125.05 input  -57.11 | X-H torsion

> <Gold.Protein.ActiveResidues>
 VAL166  LYS551  ARG553  GLY616  TRP617  ASP618  TYR619  PRO620  LYS621  CYS622 
 ASP623  PHE694  ASN695  SER759  ASP760  ASP761  ALA762  ILE779  LEU786  VAL792 
 PHE793  MET794  SER795  GLU796  ALA797  LYS798  CYS799  TRP800  GLU811  SER814 

> <Gold.Protein.RotatedAtoms>
  152.4682  134.5024  159.9728 H   0  0  0  0  0  0  0  0  0  0  0  0  # atno 6907 bound_to 6896
  151.5057  133.3489  159.2884 H   0  0  0  0  0  0  0  0  0  0  0  0  # atno 6908 bound_to 6896
  150.8678  134.8073  159.7193 H   0  0  0  0  0  0  0  0  0  0  0  0  # atno 6909 bound_to 6896
  145.2712  139.2666  143.3965 H   0  0  0  0  0  0  0  0  0  0  0  0  # atno 7974 bound_to 7965
  155.9427  140.1111  157.1042 H   0  0  0  0  0  0  0  0  0  0  0  0  # atno 8008 bound_to 7997
  154.4093  140.1216  156.5015 H   0  0  0  0  0  0  0  0  0  0  0  0  # atno 8009 bound_to 7997
  155.6941  140.3472  155.4908 H   0  0  0  0  0  0  0  0  0  0  0  0  # atno 8010 bound_to 7997
  140.5084  143.2349  151.7635 H   0  0  0  0  0  0  0  0  0  0  0  0  # atno 10167 bound_to 10162
  156.8222  130.9624  151.3111 H   0  0  0  0  0  0  0  0  0  0  0  0  # atno 10718 bound_to 10713
  154.6656  135.2931  154.9810 H   0  0  0  0  0  0  0  0  0  0  0  0  # atno 10763 bound_to 10752
  154.0855  135.6598  153.4848 H   0  0  0  0  0  0  0  0  0  0  0  0  # atno 10764 bound_to 10752
  153.0455  135.5207  154.7627 H   0  0  0  0  0  0  0  0  0  0  0  0  # atno 10765 bound_to 10752
  139.9388  134.9637  156.8501 H   0  0  0  0  0  0  0  0  0  0  0  0  # atno 11005 bound_to 11000
  146.3246  140.3155  142.8629 LP  0  0  0  0  0  0  0  0  0  0  0  0  # atno 17320 bound_to 7965
  144.9334  140.7999  143.5675 LP  0  0  0  0  0  0  0  0  0  0  0  0  # atno 17321 bound_to 7965
  139.4889  144.4425  151.9748 LP  0  0  0  0  0  0  0  0  0  0  0  0  # atno 17342 bound_to 10162
  140.3517  144.3081  150.5948 LP  0  0  0  0  0  0  0  0  0  0  0  0  # atno 17343 bound_to 10162
  157.6451  130.8837  149.9522 LP  0  0  0  0  0  0  0  0  0  0  0  0  # atno 17370 bound_to 10713
  156.0982  130.3658  150.0267 LP  0  0  0  0  0  0  0  0  0  0  0  0  # atno 17371 bound_to 10713
  140.6006  134.0176  155.7535 LP  0  0  0  0  0  0  0  0  0  0  0  0  # atno 17394 bound_to 11000
  141.1014  133.9763  157.3073 LP  0  0  0  0  0  0  0  0  0  0  0  0  # atno 17395 bound_to 11000

$$$$
