AV-unprocessed.smi:13|AV-procd|sdf|75|dock2
  -GOLD-   2262015203D 1   1.00000     0.00000
 Structure written by MMmdl.
 54 58  0  0  0  0  0  0  0  0  1 V2000
  147.8053  141.0560  153.0403 C   0  0  0  0  0  0  0  0  0  0  0  0
  147.6938  140.1838  154.2906 C   0  0  0  0  0  0  0  0  0  0  0  0
  147.9884  141.0949  155.4901 C   0  0  0  0  0  0  0  0  0  0  0  0
  146.4203  139.3323  154.4007 C   0  0  0  0  0  0  0  0  0  0  0  0
  147.2695  138.2587  154.8960 N   0  0  0  0  0  0  0  0  0  0  0  0
  146.9206  136.9490  154.4685 C   0  0  0  0  0  0  0  0  0  0  0  0
  147.6076  135.8538  154.8940 N   0  0  0  0  0  0  0  0  0  0  0  0
  147.2584  134.6282  154.4924 C   0  0  0  0  0  0  0  0  0  0  0  0
  146.2632  134.2694  153.6804 N   0  0  0  0  0  0  0  0  0  0  0  0
  145.5641  135.3582  153.2512 C   0  0  0  0  0  0  0  0  0  0  0  0
  145.8284  136.7148  153.5910 C   0  0  0  0  0  0  0  0  0  0  0  0
  144.9130  137.5490  152.9624 N   0  0  0  0  0  0  0  0  0  0  0  0
  144.1524  136.7326  152.2858 C   0  0  0  0  0  0  0  0  0  0  0  0
  144.4629  135.3969  152.4131 N   0  0  0  0  0  0  0  0  0  0  0  0
  143.7797  134.2796  151.7784 C   0  0  0  0  0  0  0  0  0  0  0  0
  144.4992  133.7501  150.5153 C   0  0  1  0  0  0  0  0  0  0  0  0
  144.7862  134.8406  149.6560 O   0  0  0  0  0  0  0  0  0  0  0  0
  145.8077  133.0375  150.8335 C   0  0  0  0  0  0  0  0  0  0  0  0
  145.9341  132.0415  149.6890 C   0  0  0  0  0  0  0  0  0  0  0  0
  144.6012  131.5923  149.5130 O   0  0  0  0  0  0  0  0  0  0  0  0
  143.7147  132.6893  149.7145 C   0  0  0  0  0  0  0  0  0  0  0  0
  148.4328  138.8298  154.2275 C   0  0  2  0  0  0  0  0  0  0  0  0
  149.7218  138.5832  155.0138 C   0  0  1  0  0  0  0  0  0  0  0  0
  150.2580  137.1563  154.9157 C   0  0  0  0  0  0  0  0  0  0  0  0
  151.7363  137.3227  155.2210 C   0  0  0  0  0  0  0  0  0  0  0  0
  152.0092  138.8011  154.9277 C   0  0  0  0  0  0  0  0  0  0  0  0
  150.7830  139.3259  154.4354 O   0  0  0  0  0  0  0  0  0  0  0  0
  147.0838  141.8735  153.0562 H   0  0  0  0  0  0  0  0  0  0  0  0
  147.6189  140.4796  152.1338 H   0  0  0  0  0  0  0  0  0  0  0  0
  148.8002  141.4924  152.9452 H   0  0  0  0  0  0  0  0  0  0  0  0
  147.9022  140.5590  156.4357 H   0  0  0  0  0  0  0  0  0  0  0  0
  147.2929  141.9334  155.5356 H   0  0  0  0  0  0  0  0  0  0  0  0
  148.9974  141.5062  155.4432 H   0  0  0  0  0  0  0  0  0  0  0  0
  145.6997  139.6929  155.1353 H   0  0  0  0  0  0  0  0  0  0  0  0
  145.9526  139.1325  153.4353 H   0  0  0  0  0  0  0  0  0  0  0  0
  147.8612  133.8198  154.8795 H   0  0  0  0  0  0  0  0  0  0  0  0
  143.3338  137.0849  151.6747 H   0  0  0  0  0  0  0  0  0  0  0  0
  143.6754  133.4816  152.5147 H   0  0  0  0  0  0  0  0  0  0  0  0
  142.7663  134.5961  151.5280 H   0  0  0  0  0  0  0  0  0  0  0  0
  145.4318  134.5616  149.0249 H   0  0  0  0  0  0  0  0  0  0  0  0
  146.6647  133.7072  150.9170 H   0  0  0  0  0  0  0  0  0  0  0  0
  145.7223  132.4886  151.7726 H   0  0  0  0  0  0  0  0  0  0  0  0
  146.2804  132.5321  148.7778 H   0  0  0  0  0  0  0  0  0  0  0  0
  146.6104  131.2177  149.9176 H   0  0  0  0  0  0  0  0  0  0  0  0
  142.8444  132.3206  150.2557 H   0  0  0  0  0  0  0  0  0  0  0  0
  143.3637  133.0709  148.7545 H   0  0  0  0  0  0  0  0  0  0  0  0
  148.5048  138.4938  153.1911 H   0  0  0  0  0  0  0  0  0  0  0  0
  149.6192  138.8743  156.0610 H   0  0  0  0  0  0  0  0  0  0  0  0
  149.7612  136.4682  155.5997 H   0  0  0  0  0  0  0  0  0  0  0  0
  150.1317  136.7744  153.9018 H   0  0  0  0  0  0  0  0  0  0  0  0
  151.9436  137.1022  156.2686 H   0  0  0  0  0  0  0  0  0  0  0  0
  152.3489  136.6594  154.6098 H   0  0  0  0  0  0  0  0  0  0  0  0
  152.2883  139.3291  155.8403 H   0  0  0  0  0  0  0  0  0  0  0  0
  152.8065  138.9405  154.1973 H   0  0  0  0  0  0  0  0  0  0  0  0
  1  2  1  0  0  0  0
  1 28  1  0  0  0  0
  1 29  1  0  0  0  0
  1 30  1  0  0  0  0
  2 22  1  0  0  0  0
  2  3  1  0  0  0  0
  2  4  1  0  0  0  0
  3 31  1  0  0  0  0
  3 32  1  0  0  0  0
  3 33  1  0  0  0  0
  4  5  1  0  0  0  0
  4 34  1  0  0  0  0
  4 35  1  0  0  0  0
  5  6  1  0  0  0  0
  5 22  1  0  0  0  0
  6 11  1  0  0  0  0
  6  7  2  0  0  0  0
  7  8  1  0  0  0  0
  8  9  2  0  0  0  0
  8 36  1  0  0  0  0
  9 10  1  0  0  0  0
 10 14  1  0  0  0  0
 10 11  2  0  0  0  0
 11 12  1  0  0  0  0
 12 13  2  0  0  0  0
 13 14  1  0  0  0  0
 13 37  1  0  0  0  0
 14 15  1  0  0  0  0
 15 16  1  0  0  0  0
 15 38  1  0  0  0  0
 15 39  1  0  0  0  0
 16 21  1  0  0  0  0
 16 17  1  0  0  0  0
 16 18  1  0  0  0  0
 17 40  1  0  0  0  0
 18 19  1  0  0  0  0
 18 41  1  0  0  0  0
 18 42  1  0  0  0  0
 19 20  1  0  0  0  0
 19 43  1  0  0  0  0
 19 44  1  0  0  0  0
 20 21  1  0  0  0  0
 21 45  1  0  0  0  0
 21 46  1  0  0  0  0
 22 23  1  0  0  0  0
 22 47  1  0  0  0  0
 23 27  1  0  0  0  0
 23 24  1  0  0  0  0
 23 48  1  0  0  0  0
 24 25  1  0  0  0  0
 24 49  1  0  0  0  0
 24 50  1  0  0  0  0
 25 26  1  0  0  0  0
 25 51  1  0  0  0  0
 25 52  1  0  0  0  0
 26 27  1  0  0  0  0
 26 53  1  0  0  0  0
 26 54  1  0  0  0  0
M  END
> <s_m_source_file>
AV-unprocessed.smi

> <i_m_source_file_index>
13

> <i_lp_mmshare_version>
43012

> <i_f3d_flags>
0

> <s_epik_input>
TzFbQ0gyXVtDSDJdW0NIMl1bQ0BIXTFbQ0BASF0yTihbQ0gyXUMyKFtDSDNdKVtDSDNdKWMobltjSF1uMyljKGMzNCluW2NIXW40W0NIMl1bQ0BAXTUoW09IXSlbQ0gyXVtDSDJdT1tDSDJdNQ==

> <s_epik_cmdline>
J2VwaWtfcHl0aG9uJywgJy1waCcsICc3LjAnLCAnLXRuJywgJzgnLCAnLW1hJywgJzIwMCcsICctbWV0YWxfYmluZGluZycsICctaW1hZScsICc8aW5maWxlLm1hZT4nLCAnLW9tYWUnLCAnPG91dGZpbGUubWFlPic=

> <r_lp_tautomer_probability>
1

> <r_epik_Ionization_Penalty>
0.00202764

> <r_epik_Ionization_Penalty_Charging>
0

> <r_epik_Ionization_Penalty_Neutral>
0.00202764

> <r_epik_State_Penalty>
0.00134017

> <r_epik_Charging_Adjusted_Penalty>
0.00134017

> <i_epik_Tot_Q>
0

> <i_epik_Tot_abs_Q>
0

> <r_epik_Metal_State_Penalty>
-0

> <b_epik_Metal_Only>
0

> <s_lp_Force_Field>
OPLS_2005

> <r_lp_Energy>
60.8326

> <b_lp_Chiralities_Consistent>
1

> <s_lp_Variant>
AV-unprocessed.smi:13-7

> <Gold.Version>
5.8.1

> <Gold.Id.Protein>
6NUR|6NUR_protein|mol2

> <Gold.PLP.Fitness>
40.5142

> <Gold.PLP.PLP>
-34.2357

> <Gold.PLP.part.hbond>
-2.7575

> <Gold.PLP.part.metal>
0.0000

> <Gold.PLP.part.buried>
-2.0205

> <Gold.PLP.part.nonpolar>
-30.5356

> <Gold.PLP.part.repulsive>
0.7615

> <Gold.PLP.ligand.clash>
0.2744

> <Gold.PLP.ligand.torsion>
0.6941

> <Gold.PLP.Chemscore.Hbond>
1.7730

> <Gold.PLP.Chemscore.CHOScore>
0.7136

> <Gold.PLP.Chemscore.Metal>
0.0000

> <Gold.Chemscore.Hbonds>
donor molecule, donor type, donor heavy atom, donor atom, acceptor molecule, acceptor atom, score
      L1  H    17    40       P1  7921  0.96
      P1  H  7989  7998       L1    27  0.75
      P1  H 10785 10796       L1    20  0.29
      L1  C    13    37       P1 10171  0.77

> <Gold.PLP.Chemscore.Internal.Correction>
0.4815

> <Gold.Rescore>
     Score         DG    S(hbond)    S(metal)    S(lipo)     H(rot)  DE(clash)    DE(int)     intcor
     10.72     -14.63       1.22        0.00      93.83       2.30       0.54       3.37       ----

> <Gold.Chemscore.Fitness>
10.7178

> <Gold.Chemscore.DG>
-14.6324

> <Gold.Chemscore.ZeroCoef>
-5.4800

> <Gold.Chemscore.Hbond>
1.2160

> <Gold.Chemscore.Metal>
0.0000

> <Gold.Chemscore.Lipo>
93.8287

> <Gold.Chemscore.Internal_Hbond>
0.0000

> <Gold.Chemscore.DEClash>
0.5417

> <Gold.Chemscore.DEInternal>
3.3729

> <Gold.Chemscore.Rot>
2.2996

> <Gold.Chemscore.Internal.Correction>
   9.000000E+99

> <Gold.Chemscore.Hbonds>
donor molecule, donor type, donor heavy atom, donor atom, acceptor molecule, acceptor atom, score
      L1  H    17    40       P1  7921  0.89
      P1  H  7989  7998       L1    27  0.09
      P1  H 10785 10796       L1    20  0.08

> <Gold.Chemscore.Hbond.Weighted>
-4.0614

> <Gold.Chemscore.Metal.Weighted>
-0.0000

> <Gold.Chemscore.Lipo.Weighted>
-10.9780

> <Gold.Chemscore.Internal_Hbond.Weighted>
0.0000

> <Gold.Chemscore.DEClash.Weighted>
0.5417

> <Gold.Chemscore.DEInternal.Weighted>
3.3729

> <Gold.Chemscore.Rot.Weighted>
5.8869

> <Gold.Chemscore.Internal.Correction.Weighted>
   9.000000E+99

> <Gold.Protein.RotatedTorsions>
[ 6907 6896 6895 6894 ] final  124.62 input  -60.11 | X-H torsion
[ 7974 7965 7964 7962 ] final -167.31 input  175.53 | X-H torsion
[ 8008 7997 7996 7995 ] final  109.10 input   59.86 | X-H torsion
[ 10167 10162 10161 10158 ] final   53.88 input  -65.29 | X-H torsion
[ 10718 10713 10712 10709 ] final  -72.52 input   66.30 | X-H torsion
[ 10763 10752 10751 10750 ] final  -19.69 input  -60.55 | X-H torsion
[ 11005 11000 10999 10996 ] final   62.67 input  -57.11 | X-H torsion

> <Gold.Protein.ActiveResidues>
 VAL166  LYS551  ARG553  GLY616  TRP617  ASP618  TYR619  PRO620  LYS621  CYS622 
 ASP623  PHE694  ASN695  SER759  ASP760  ASP761  ALA762  ILE779  LEU786  VAL792 
 PHE793  MET794  SER795  GLU796  ALA797  LYS798  CYS799  TRP800  GLU811  SER814 

> <Gold.Protein.RotatedAtoms>
  152.4062  133.6893  159.6358 H   0  0  0  0  0  0  0  0  0  0  0  0  # atno 6907 bound_to 6896
  150.7947  133.8705  159.3266 H   0  0  0  0  0  0  0  0  0  0  0  0  # atno 6908 bound_to 6896
  151.6458  135.1009  160.0202 H   0  0  0  0  0  0  0  0  0  0  0  0  # atno 6909 bound_to 6896
  144.7226  140.2537  143.6275 H   0  0  0  0  0  0  0  0  0  0  0  0  # atno 7974 bound_to 7965
  156.1954  140.3064  155.9416 H   0  0  0  0  0  0  0  0  0  0  0  0  # atno 8008 bound_to 7997
  155.3079  140.0449  157.3050 H   0  0  0  0  0  0  0  0  0  0  0  0  # atno 8009 bound_to 7997
  154.5503  140.2289  155.8505 H   0  0  0  0  0  0  0  0  0  0  0  0  # atno 8010 bound_to 7997
  140.2360  144.3635  150.6397 H   0  0  0  0  0  0  0  0  0  0  0  0  # atno 10167 bound_to 10162
  156.0317  130.4374  150.2606 H   0  0  0  0  0  0  0  0  0  0  0  0  # atno 10718 bound_to 10713
  153.6087  135.6997  153.5355 H   0  0  0  0  0  0  0  0  0  0  0  0  # atno 10763 bound_to 10752
  153.3035  135.4122  155.1273 H   0  0  0  0  0  0  0  0  0  0  0  0  # atno 10764 bound_to 10752
  154.8568  135.3654  154.5625 H   0  0  0  0  0  0  0  0  0  0  0  0  # atno 10765 bound_to 10752
  140.0077  134.6345  155.9830 H   0  0  0  0  0  0  0  0  0  0  0  0  # atno 11005 bound_to 11000
  145.8203  139.2041  143.1941 LP  0  0  0  0  0  0  0  0  0  0  0  0  # atno 17320 bound_to 7965
  146.0519  140.8060  142.9777 LP  0  0  0  0  0  0  0  0  0  0  0  0  # atno 17321 bound_to 7965
  140.6149  143.2171  151.6811 LP  0  0  0  0  0  0  0  0  0  0  0  0  # atno 17342 bound_to 10162
  139.5093  144.3580  152.0589 LP  0  0  0  0  0  0  0  0  0  0  0  0  # atno 17343 bound_to 10162
  157.0708  131.0116  151.3191 LP  0  0  0  0  0  0  0  0  0  0  0  0  # atno 17370 bound_to 10713
  157.5001  130.7875  149.7596 LP  0  0  0  0  0  0  0  0  0  0  0  0  # atno 17371 bound_to 10713
  141.1688  133.6537  156.4577 LP  0  0  0  0  0  0  0  0  0  0  0  0  # atno 17394 bound_to 11000
  140.4612  134.6840  157.5086 LP  0  0  0  0  0  0  0  0  0  0  0  0  # atno 17395 bound_to 11000

$$$$
