AV-unprocessed.smi:508|AV-procd|sdf|2758|dock3
  -GOLD-   2262023223D 1   1.00000     0.00000
 Structure written by MMmdl.
 49 51  0  0  0  0  0  0  0  0  1 V2000
  153.2612  137.5028  161.8994 C   0  0  0  0  0  0  0  0  0  0  0  0
  153.6570  137.0751  160.4844 C   0  0  0  0  0  0  0  0  0  0  0  0
  152.4891  136.9989  159.6849 O   0  0  0  0  0  0  0  0  0  0  0  0
  151.8320  138.2475  159.5505 C   0  0  0  0  0  0  0  0  0  0  0  0
  152.7484  139.1958  158.7602 C   0  0  0  0  0  0  0  0  0  0  0  0
  152.2266  140.5575  158.6955 N   0  0  0  0  0  0  0  0  0  0  0  0
  151.6200  141.2174  157.6620 C   0  0  0  0  0  0  0  0  0  0  0  0
  151.3448  140.6433  156.4079 N   0  0  0  0  0  0  0  0  0  0  0  0
  150.2901  141.0224  155.4659 C   0  0  0  0  0  0  0  0  0  0  0  0
  149.3024  139.8890  155.1172 C   0  0  0  0  0  0  0  0  0  0  0  0
  149.8830  138.8628  154.1333 C   0  0  0  0  0  0  0  0  0  0  0  0
  150.7593  137.7737  154.7771 C   0  0  0  0  0  0  0  0  0  0  0  0
  151.6844  138.2301  155.9203 C   0  0  0  0  0  0  0  0  0  0  0  0
  152.2345  139.6594  155.7851 C   0  0  0  0  0  0  0  0  0  0  0  0
  151.3274  142.4938  157.9375 N   0  0  0  0  0  0  0  0  0  0  0  0
  151.7604  142.6602  159.2408 C   0  0  0  0  0  0  0  0  0  0  0  0
  152.3072  141.5133  159.7124 C   0  0  0  0  0  0  0  0  0  0  0  0
  152.8748  141.4153  161.0659 C   0  0  0  0  0  0  0  0  0  0  0  0
  153.3958  140.3959  161.5126 O   0  0  0  0  0  0  0  0  0  0  0  0
  152.7669  142.5658  161.7741 N   0  0  0  0  0  0  0  0  0  0  0  0
  152.2201  143.7489  161.3598 C   0  0  0  0  0  0  0  0  0  0  0  0
  152.1877  144.7131  162.1242 O   0  0  0  0  0  0  0  0  0  0  0  0
  151.7228  143.8074  160.0834 N   0  0  0  0  0  0  0  0  0  0  0  0
  151.1330  145.0503  159.5818 C   0  0  0  0  0  0  0  0  0  0  0  0
  153.1345  142.5483  162.7142 H   0  0  0  0  0  0  0  0  0  0  0  0
  154.1368  137.5726  162.5448 H   0  0  0  0  0  0  0  0  0  0  0  0
  152.5721  136.7857  162.3462 H   0  0  0  0  0  0  0  0  0  0  0  0
  152.7731  138.4778  161.8914 H   0  0  0  0  0  0  0  0  0  0  0  0
  154.3571  137.7967  160.0608 H   0  0  0  0  0  0  0  0  0  0  0  0
  154.1570  136.1059  160.5136 H   0  0  0  0  0  0  0  0  0  0  0  0
  150.8765  138.1132  159.0438 H   0  0  0  0  0  0  0  0  0  0  0  0
  151.6107  138.6585  160.5357 H   0  0  0  0  0  0  0  0  0  0  0  0
  153.7382  139.2222  159.2153 H   0  0  0  0  0  0  0  0  0  0  0  0
  152.9196  138.8206  157.7564 H   0  0  0  0  0  0  0  0  0  0  0  0
  149.7387  141.8683  155.8632 H   0  0  0  0  0  0  0  0  0  0  0  0
  150.7493  141.4050  154.5534 H   0  0  0  0  0  0  0  0  0  0  0  0
  148.9234  139.3902  156.0088 H   0  0  0  0  0  0  0  0  0  0  0  0
  148.4350  140.3486  154.6429 H   0  0  0  0  0  0  0  0  0  0  0  0
  149.0652  138.3712  153.6056 H   0  0  0  0  0  0  0  0  0  0  0  0
  150.4517  139.3845  153.3623 H   0  0  0  0  0  0  0  0  0  0  0  0
  150.1202  136.9750  155.1555 H   0  0  0  0  0  0  0  0  0  0  0  0
  151.3611  137.3166  153.9906 H   0  0  0  0  0  0  0  0  0  0  0  0
  151.1696  138.1290  156.8771 H   0  0  0  0  0  0  0  0  0  0  0  0
  152.5209  137.5323  155.9715 H   0  0  0  0  0  0  0  0  0  0  0  0
  152.4302  139.9061  154.7407 H   0  0  0  0  0  0  0  0  0  0  0  0
  153.2089  139.6965  156.2717 H   0  0  0  0  0  0  0  0  0  0  0  0
  150.2016  145.2647  160.1069 H   0  0  0  0  0  0  0  0  0  0  0  0
  150.9084  145.0064  158.5160 H   0  0  0  0  0  0  0  0  0  0  0  0
  151.8110  145.8918  159.7316 H   0  0  0  0  0  0  0  0  0  0  0  0
  1  2  1  0  0  0  0
  1 26  1  0  0  0  0
  1 27  1  0  0  0  0
  1 28  1  0  0  0  0
  2  3  1  0  0  0  0
  2 29  1  0  0  0  0
  2 30  1  0  0  0  0
  3  4  1  0  0  0  0
  4  5  1  0  0  0  0
  4 31  1  0  0  0  0
  4 32  1  0  0  0  0
  5  6  1  0  0  0  0
  5 33  1  0  0  0  0
  5 34  1  0  0  0  0
  6 17  1  0  0  0  0
  6  7  1  0  0  0  0
  7  8  1  0  0  0  0
  7 15  2  0  0  0  0
  8 14  1  0  0  0  0
  8  9  1  0  0  0  0
  9 10  1  0  0  0  0
  9 35  1  0  0  0  0
  9 36  1  0  0  0  0
 10 11  1  0  0  0  0
 10 37  1  0  0  0  0
 10 38  1  0  0  0  0
 11 12  1  0  0  0  0
 11 39  1  0  0  0  0
 11 40  1  0  0  0  0
 12 13  1  0  0  0  0
 12 41  1  0  0  0  0
 12 42  1  0  0  0  0
 13 14  1  0  0  0  0
 13 43  1  0  0  0  0
 13 44  1  0  0  0  0
 14 45  1  0  0  0  0
 14 46  1  0  0  0  0
 15 16  1  0  0  0  0
 16 23  1  0  0  0  0
 16 17  2  0  0  0  0
 17 18  1  0  0  0  0
 18 19  2  0  0  0  0
 18 20  1  0  0  0  0
 20 25  1  0  0  0  0
 20 21  1  0  0  0  0
 21 22  2  0  0  0  0
 21 23  1  0  0  0  0
 23 24  1  0  0  0  0
 24 47  1  0  0  0  0
 24 48  1  0  0  0  0
 24 49  1  0  0  0  0
M  END
> <s_m_source_file>
AV-unprocessed.smi

> <i_m_source_file_index>
508

> <i_lp_mmshare_version>
43012

> <i_f3d_flags>
0

> <s_epik_input>
W0NIM11uMWMoPU8pW25IXWMoPU8pYyhjMTIpbihbQ0gyXVtDSDJdT1tDSDJdW0NIM10pYyhuMilOM1tDSDJdW0NIMl1bQ0gyXVtDSDJdW0NIMl1bQ0gyXTM=

> <s_epik_cmdline>
J2VwaWtfcHl0aG9uJywgJy1waCcsICc3LjAnLCAnLXRuJywgJzgnLCAnLW1hJywgJzIwMCcsICctbWV0YWxfYmluZGluZycsICctaW1hZScsICc8aW5maWxlLm1hZT4nLCAnLW9tYWUnLCAnPG91dGZpbGUubWFlPic=

> <r_lp_tautomer_probability>
1

> <r_epik_Ionization_Penalty>
0.000193589

> <r_epik_Ionization_Penalty_Charging>
2.00901e-05

> <r_epik_Ionization_Penalty_Neutral>
0.000173499

> <r_epik_State_Penalty>
-0

> <r_epik_Charging_Adjusted_Penalty>
2.00901e-05

> <i_epik_Tot_Q>
0

> <i_epik_Tot_abs_Q>
0

> <r_epik_Metal_State_Penalty>
0.0191145

> <b_epik_Metal_Only>
0

> <s_lp_Force_Field>
OPLS_2005

> <r_lp_Energy>
44.1417

> <b_lp_Chiralities_Consistent>
1

> <s_lp_Variant>
AV-unprocessed.smi:508-1

> <Gold.Version>
5.8.1

> <Gold.Id.Protein>
6NUR|6NUR_protein|mol2

> <Gold.PLP.Fitness>
46.8606

> <Gold.PLP.PLP>
-45.1750

> <Gold.PLP.part.hbond>
-1.0000

> <Gold.PLP.part.metal>
0.0000

> <Gold.PLP.part.buried>
-3.9046

> <Gold.PLP.part.nonpolar>
-41.2835

> <Gold.PLP.part.repulsive>
0.3277

> <Gold.PLP.ligand.clash>
0.0000

> <Gold.PLP.ligand.torsion>
0.6646

> <Gold.PLP.Chemscore.Hbond>
0.9588

> <Gold.PLP.Chemscore.CHOScore>
0.0000

> <Gold.PLP.Chemscore.Metal>
0.0000

> <Gold.Chemscore.Hbonds>
donor molecule, donor type, donor heavy atom, donor atom, acceptor molecule, acceptor atom, score
      P1  H  6896  6908       L1     3  0.90

> <Gold.PLP.Chemscore.Internal.Correction>
0.1386

> <Gold.Rescore>
     Score         DG    S(hbond)    S(metal)    S(lipo)     H(rot)  DE(clash)    DE(int)     intcor
     12.08     -13.65       0.89        0.00      78.98       1.58       0.06       1.51       ----

> <Gold.Chemscore.Fitness>
12.0802

> <Gold.Chemscore.DG>
-13.6547

> <Gold.Chemscore.ZeroCoef>
-5.4800

> <Gold.Chemscore.Hbond>
0.8925

> <Gold.Chemscore.Metal>
0.0000

> <Gold.Chemscore.Lipo>
78.9755

> <Gold.Chemscore.Internal_Hbond>
0.0000

> <Gold.Chemscore.DEClash>
0.0617

> <Gold.Chemscore.DEInternal>
1.5127

> <Gold.Chemscore.Rot>
1.5806

> <Gold.Chemscore.Internal.Correction>
   9.000000E+99

> <Gold.Chemscore.Hbonds>
donor molecule, donor type, donor heavy atom, donor atom, acceptor molecule, acceptor atom, score
      P1  H  6896  6908       L1     3  0.17

> <Gold.Chemscore.Hbond.Weighted>
-2.9808

> <Gold.Chemscore.Metal.Weighted>
-0.0000

> <Gold.Chemscore.Lipo.Weighted>
-9.2401

> <Gold.Chemscore.Internal_Hbond.Weighted>
0.0000

> <Gold.Chemscore.DEClash.Weighted>
0.0617

> <Gold.Chemscore.DEInternal.Weighted>
1.5127

> <Gold.Chemscore.Rot.Weighted>
4.0463

> <Gold.Chemscore.Internal.Correction.Weighted>
   9.000000E+99

> <Gold.Protein.RotatedTorsions>
[ 6907 6896 6895 6894 ] final  -93.15 input  -60.11 | X-H torsion
[ 7974 7965 7964 7962 ] final -176.77 input  175.53 | X-H torsion
[ 8008 7997 7996 7995 ] final -176.30 input   59.86 | X-H torsion
[ 10167 10162 10161 10158 ] final   35.07 input  -65.29 | X-H torsion
[ 10718 10713 10712 10709 ] final  162.07 input   66.30 | X-H torsion
[ 10763 10752 10751 10750 ] final   58.25 input  -60.55 | X-H torsion
[ 11005 11000 10999 10996 ] final   65.85 input  -57.11 | X-H torsion

> <Gold.Protein.ActiveResidues>
 VAL166  LYS551  ARG553  GLY616  TRP617  ASP618  TYR619  PRO620  LYS621  CYS622 
 ASP623  PHE694  ASN695  SER759  ASP760  ASP761  ALA762  ILE779  LEU786  VAL792 
 PHE793  MET794  SER795  GLU796  ALA797  LYS798  CYS799  TRP800  GLU811  SER814 

> <Gold.Protein.RotatedAtoms>
  150.6918  134.2011  159.4322 H   0  0  0  0  0  0  0  0  0  0  0  0  # atno 6907 bound_to 6896
  151.9978  134.9942  160.0573 H   0  0  0  0  0  0  0  0  0  0  0  0  # atno 6908 bound_to 6896
  152.1607  133.4545  159.4896 H   0  0  0  0  0  0  0  0  0  0  0  0  # atno 6909 bound_to 6896
  144.7127  140.1119  143.6410 H   0  0  0  0  0  0  0  0  0  0  0  0  # atno 7974 bound_to 7965
  155.9932  140.1205  157.0618 H   0  0  0  0  0  0  0  0  0  0  0  0  # atno 8008 bound_to 7997
  154.4218  140.1121  156.5663 H   0  0  0  0  0  0  0  0  0  0  0  0  # atno 8009 bound_to 7997
  155.6314  140.3473  155.4686 H   0  0  0  0  0  0  0  0  0  0  0  0  # atno 8010 bound_to 7997
  140.4256  144.1398  150.6153 H   0  0  0  0  0  0  0  0  0  0  0  0  # atno 10167 bound_to 10162
  157.1277  131.0508  151.2386 H   0  0  0  0  0  0  0  0  0  0  0  0  # atno 10718 bound_to 10713
  152.9867  135.5613  154.5523 H   0  0  0  0  0  0  0  0  0  0  0  0  # atno 10763 bound_to 10752
  154.4957  135.2795  155.1463 H   0  0  0  0  0  0  0  0  0  0  0  0  # atno 10764 bound_to 10752
  154.2914  135.6325  153.5440 H   0  0  0  0  0  0  0  0  0  0  0  0  # atno 10765 bound_to 10752
  139.9868  134.6654  156.0161 H   0  0  0  0  0  0  0  0  0  0  0  0  # atno 11005 bound_to 11000
  145.9447  139.2692  143.1248 LP  0  0  0  0  0  0  0  0  0  0  0  0  # atno 17320 bound_to 7965
  145.9387  140.8996  143.0319 LP  0  0  0  0  0  0  0  0  0  0  0  0  # atno 17321 bound_to 7965
  140.4485  143.2496  151.9379 LP  0  0  0  0  0  0  0  0  0  0  0  0  # atno 17342 bound_to 10162
  139.4783  144.5585  151.8276 LP  0  0  0  0  0  0  0  0  0  0  0  0  # atno 17343 bound_to 10162
  157.4420  130.7550  149.7078 LP  0  0  0  0  0  0  0  0  0  0  0  0  # atno 17370 bound_to 10713
  155.9815  130.4019  150.3470 LP  0  0  0  0  0  0  0  0  0  0  0  0  # atno 17371 bound_to 10713
  141.1532  133.6546  156.4078 LP  0  0  0  0  0  0  0  0  0  0  0  0  # atno 17394 bound_to 11000
  140.4986  134.6507  157.5239 LP  0  0  0  0  0  0  0  0  0  0  0  0  # atno 17395 bound_to 11000

$$$$
