AV-unprocessed.smi:967|AV-procd|sdf|4288|dock5
  -GOLD-   22720 2193D 1   1.00000     0.00000
 Structure written by MMmdl.
 42 43  0  0  0  0  0  0  0  0  1 V2000
  151.7813  139.5148  155.8095 C   0  0  0  0  0  0  0  0  0  0  0  0
  150.9627  140.6924  155.5655 N   0  0  0  0  0  0  0  0  0  0  0  0
  150.7941  141.6001  156.6898 C   0  0  0  0  0  0  0  0  0  0  0  0
  149.7552  140.3968  154.9190 C   0  0  0  0  0  0  0  0  0  0  0  0
  148.8142  141.4083  154.6206 C   0  0  0  0  0  0  0  0  0  0  0  0
  147.6192  141.0516  153.9670 C   0  0  0  0  0  0  0  0  0  0  0  0
  147.4059  139.6953  153.6247 C   0  0  0  0  0  0  0  0  0  0  0  0
  146.2359  139.2081  152.9824 N   0  0  0  0  0  0  0  0  0  0  0  0
  145.8423  137.9336  152.8182 C   0  0  0  0  0  0  0  0  0  0  0  0
  146.4416  136.9456  153.2420 O   0  0  0  0  0  0  0  0  0  0  0  0
  144.6858  137.8704  152.1426 N   0  0  0  0  0  0  0  0  0  0  0  0
  143.9581  136.6509  151.8011 C   0  0  2  0  0  0  0  0  0  0  0  0
  143.2865  136.0772  153.0619 C   0  0  0  0  0  0  0  0  0  0  0  0
  142.5659  134.7504  152.7644 C   0  0  0  0  0  0  0  0  0  0  0  0
  143.4992  133.7133  152.1111 C   0  0  2  0  0  0  0  0  0  0  0  0
  144.4522  133.2584  153.0515 O   0  0  0  0  0  0  0  0  0  0  0  0
  144.2115  134.2935  150.8742 C   0  0  0  0  0  0  0  0  0  0  0  0
  144.9223  135.6242  151.1787 C   0  0  0  0  0  0  0  0  0  0  0  0
  148.4022  138.7637  153.9825 C   0  0  0  0  0  0  0  0  0  0  0  0
  149.5505  139.0987  154.6078 N   0  0  0  0  0  0  0  0  0  0  0  0
  151.8465  138.8944  154.9148 H   0  0  0  0  0  0  0  0  0  0  0  0
  151.3683  138.9120  156.6190 H   0  0  0  0  0  0  0  0  0  0  0  0
  152.7929  139.8116  156.0873 H   0  0  0  0  0  0  0  0  0  0  0  0
  150.1729  142.4526  156.4118 H   0  0  0  0  0  0  0  0  0  0  0  0
  151.7629  141.9810  157.0136 H   0  0  0  0  0  0  0  0  0  0  0  0
  150.3272  141.0930  157.5350 H   0  0  0  0  0  0  0  0  0  0  0  0
  148.9990  142.4381  154.8891 H   0  0  0  0  0  0  0  0  0  0  0  0
  146.8898  141.8182  153.7565 H   0  0  0  0  0  0  0  0  0  0  0  0
  145.5937  139.9164  152.6584 H   0  0  0  0  0  0  0  0  0  0  0  0
  144.2683  138.7396  151.8436 H   0  0  0  0  0  0  0  0  0  0  0  0
  143.1749  136.8690  151.0729 H   0  0  0  0  0  0  0  0  0  0  0  0
  144.0341  135.9185  153.8404 H   0  0  0  0  0  0  0  0  0  0  0  0
  142.5730  136.7974  153.4641 H   0  0  0  0  0  0  0  0  0  0  0  0
  142.1309  134.3461  153.6791 H   0  0  0  0  0  0  0  0  0  0  0  0
  141.7293  134.9468  152.0925 H   0  0  0  0  0  0  0  0  0  0  0  0
  142.9125  132.8451  151.8093 H   0  0  0  0  0  0  0  0  0  0  0  0
  144.0125  132.7102  153.6834 H   0  0  0  0  0  0  0  0  0  0  0  0
  144.9233  133.5710  150.4736 H   0  0  0  0  0  0  0  0  0  0  0  0
  143.4747  134.4610  150.0876 H   0  0  0  0  0  0  0  0  0  0  0  0
  145.3529  136.0262  150.2609 H   0  0  0  0  0  0  0  0  0  0  0  0
  145.7581  135.4430  151.8562 H   0  0  0  0  0  0  0  0  0  0  0  0
  148.2784  137.7148  153.7555 H   0  0  0  0  0  0  0  0  0  0  0  0
  1  2  1  0  0  0  0
  1 21  1  0  0  0  0
  1 22  1  0  0  0  0
  1 23  1  0  0  0  0
  2  3  1  0  0  0  0
  2  4  1  0  0  0  0
  3 24  1  0  0  0  0
  3 25  1  0  0  0  0
  3 26  1  0  0  0  0
  4 20  1  0  0  0  0
  4  5  2  0  0  0  0
  5  6  1  0  0  0  0
  5 27  1  0  0  0  0
  6  7  2  0  0  0  0
  6 28  1  0  0  0  0
  7  8  1  0  0  0  0
  7 19  1  0  0  0  0
  8  9  1  0  0  0  0
  8 29  1  0  0  0  0
  9 10  2  0  0  0  0
  9 11  1  0  0  0  0
 11 12  1  0  0  0  0
 11 30  1  0  0  0  0
 12 18  1  0  0  0  0
 12 13  1  0  0  0  0
 12 31  1  0  0  0  0
 13 14  1  0  0  0  0
 13 32  1  0  0  0  0
 13 33  1  0  0  0  0
 14 15  1  0  0  0  0
 14 34  1  0  0  0  0
 14 35  1  0  0  0  0
 15 16  1  0  0  0  0
 15 17  1  0  0  0  0
 15 36  1  0  0  0  0
 16 37  1  0  0  0  0
 17 18  1  0  0  0  0
 17 38  1  0  0  0  0
 17 39  1  0  0  0  0
 18 40  1  0  0  0  0
 18 41  1  0  0  0  0
 19 20  2  0  0  0  0
 19 42  1  0  0  0  0
M  END
> <s_m_source_file>
AV-unprocessed.smi

> <i_m_source_file_index>
967

> <i_lp_mmshare_version>
43012

> <i_f3d_flags>
0

> <s_epik_input>
W0NIM11OKFtDSDNdKWMxW2NIXVtjSF1jKFtjSF1uMSlbTkhdQyg9TylbTkhdW0NAQEhdMltDSDJdW0NIMl1bQ0BASF0oW09IXSlbQ0gyXVtDSDJdMg==

> <s_epik_cmdline>
J2VwaWtfcHl0aG9uJywgJy1waCcsICc3LjAnLCAnLXRuJywgJzgnLCAnLW1hJywgJzIwMCcsICctbWV0YWxfYmluZGluZycsICctaW1hZScsICc8aW5maWxlLm1hZT4nLCAnLW9tYWUnLCAnPG91dGZpbGUubWFlPic=

> <r_lp_tautomer_probability>
1

> <r_epik_Ionization_Penalty>
0.629464

> <r_epik_Ionization_Penalty_Charging>
0

> <r_epik_Ionization_Penalty_Neutral>
0.629464

> <r_epik_State_Penalty>
0.645019

> <r_epik_Charging_Adjusted_Penalty>
0.645019

> <i_epik_Tot_Q>
0

> <i_epik_Tot_abs_Q>
0

> <r_epik_Metal_State_Penalty>
0.308581

> <b_epik_Metal_Only>
0

> <s_lp_Force_Field>
OPLS_2005

> <r_lp_Energy>
18.5045

> <b_lp_Chiralities_Consistent>
1

> <s_lp_Variant>
AV-unprocessed.smi:967-4

> <Gold.Version>
5.8.1

> <Gold.Id.Protein>
6NUR|6NUR_protein|mol2

> <Gold.PLP.Fitness>
46.0700

> <Gold.PLP.PLP>
-35.2279

> <Gold.PLP.part.hbond>
-4.8593

> <Gold.PLP.part.metal>
0.0000

> <Gold.PLP.part.buried>
-0.0174

> <Gold.PLP.part.nonpolar>
-31.7551

> <Gold.PLP.part.repulsive>
1.5672

> <Gold.PLP.ligand.clash>
0.0000

> <Gold.PLP.ligand.torsion>
0.3638

> <Gold.PLP.Chemscore.Hbond>
2.7882

> <Gold.PLP.Chemscore.CHOScore>
1.0000

> <Gold.PLP.Chemscore.Metal>
0.0000

> <Gold.Chemscore.Hbonds>
donor molecule, donor type, donor heavy atom, donor atom, acceptor molecule, acceptor atom, score
      L1  H     8    29       P1 10175  0.94
      L1  H    11    30       P1 10175  0.90
      L1  H    16    37       P1 10957  1.00
      P1  H  7989  7998       L1     2  0.04
      L1  C    19    42       P1  7948  1.00

> <Gold.PLP.Chemscore.Internal.Correction>
0.2052

> <Gold.Rescore>
     Score         DG    S(hbond)    S(metal)    S(lipo)     H(rot)  DE(clash)    DE(int)     intcor
     14.95     -18.17       2.72        0.00      68.10       1.71       0.28       2.94       ----

> <Gold.Chemscore.Fitness>
14.9497

> <Gold.Chemscore.DG>
-18.1715

> <Gold.Chemscore.ZeroCoef>
-5.4800

> <Gold.Chemscore.Hbond>
2.7237

> <Gold.Chemscore.Metal>
0.0000

> <Gold.Chemscore.Lipo>
68.1009

> <Gold.Chemscore.Internal_Hbond>
0.0000

> <Gold.Chemscore.DEClash>
0.2782

> <Gold.Chemscore.DEInternal>
2.9436

> <Gold.Chemscore.Rot>
1.7084

> <Gold.Chemscore.Internal.Correction>
   9.000000E+99

> <Gold.Chemscore.Hbonds>
donor molecule, donor type, donor heavy atom, donor atom, acceptor molecule, acceptor atom, score
      L1  H     8    29       P1 10175  0.87
      L1  H    11    30       P1 10175  0.88
      L1  H    16    37       P1 10957  0.64

> <Gold.Chemscore.Hbond.Weighted>
-9.0972

> <Gold.Chemscore.Metal.Weighted>
-0.0000

> <Gold.Chemscore.Lipo.Weighted>
-7.9678

> <Gold.Chemscore.Internal_Hbond.Weighted>
0.0000

> <Gold.Chemscore.DEClash.Weighted>
0.2782

> <Gold.Chemscore.DEInternal.Weighted>
2.9436

> <Gold.Chemscore.Rot.Weighted>
4.3735

> <Gold.Chemscore.Internal.Correction.Weighted>
   9.000000E+99

> <Gold.Protein.RotatedTorsions>
[ 6907 6896 6895 6894 ] final   81.37 input  -60.11 | X-H torsion
[ 7974 7965 7964 7962 ] final  132.36 input  175.53 | X-H torsion
[ 8008 7997 7996 7995 ] final -129.26 input   59.86 | X-H torsion
[ 10167 10162 10161 10158 ] final   23.65 input  -65.29 | X-H torsion
[ 10718 10713 10712 10709 ] final    6.39 input   66.30 | X-H torsion
[ 10763 10752 10751 10750 ] final -168.45 input  -60.55 | X-H torsion
[ 11005 11000 10999 10996 ] final  140.51 input  -57.11 | X-H torsion

> <Gold.Protein.ActiveResidues>
 VAL166  LYS551  ARG553  GLY616  TRP617  ASP618  TYR619  PRO620  LYS621  CYS622 
 ASP623  PHE694  ASN695  SER759  ASP760  ASP761  ALA762  ILE779  LEU786  VAL792 
 PHE793  MET794  SER795  GLU796  ALA797  LYS798  CYS799  TRP800  GLU811  SER814 

> <Gold.Protein.RotatedAtoms>
  152.5266  134.3214  159.9149 H   0  0  0  0  0  0  0  0  0  0  0  0  # atno 6907 bound_to 6896
  151.3163  133.4052  159.2658 H   0  0  0  0  0  0  0  0  0  0  0  0  # atno 6908 bound_to 6896
  150.9996  134.9328  159.8003 H   0  0  0  0  0  0  0  0  0  0  0  0  # atno 6909 bound_to 6896
  144.9977  139.4343  143.5308 H   0  0  0  0  0  0  0  0  0  0  0  0  # atno 7974 bound_to 7965
  155.2763  140.0442  157.3011 H   0  0  0  0  0  0  0  0  0  0  0  0  # atno 8008 bound_to 7997
  154.5623  140.2350  155.8284 H   0  0  0  0  0  0  0  0  0  0  0  0  # atno 8009 bound_to 7997
  156.2057  140.3013  155.9630 H   0  0  0  0  0  0  0  0  0  0  0  0  # atno 8010 bound_to 7997
  140.5252  143.9935  150.6437 H   0  0  0  0  0  0  0  0  0  0  0  0  # atno 10167 bound_to 10162
  156.9214  130.5792  149.5648 H   0  0  0  0  0  0  0  0  0  0  0  0  # atno 10718 bound_to 10713
  154.6627  135.2927  154.9845 H   0  0  0  0  0  0  0  0  0  0  0  0  # atno 10763 bound_to 10752
  154.0900  135.6592  153.4855 H   0  0  0  0  0  0  0  0  0  0  0  0  # atno 10764 bound_to 10752
  153.0439  135.5217  154.7586 H   0  0  0  0  0  0  0  0  0  0  0  0  # atno 10765 bound_to 10752
  140.0333  134.9341  157.0704 H   0  0  0  0  0  0  0  0  0  0  0  0  # atno 11005 bound_to 11000
  146.3445  139.9346  142.8749 LP  0  0  0  0  0  0  0  0  0  0  0  0  # atno 17320 bound_to 7965
  145.2197  140.9930  143.4053 LP  0  0  0  0  0  0  0  0  0  0  0  0  # atno 17321 bound_to 7965
  140.3295  143.3086  152.0702 LP  0  0  0  0  0  0  0  0  0  0  0  0  # atno 17342 bound_to 10162
  139.4936  144.6519  151.6658 LP  0  0  0  0  0  0  0  0  0  0  0  0  # atno 17343 bound_to 10162
  156.0489  130.5561  150.8944 LP  0  0  0  0  0  0  0  0  0  0  0  0  # atno 17370 bound_to 10713
  157.5905  131.0944  150.9126 LP  0  0  0  0  0  0  0  0  0  0  0  0  # atno 17371 bound_to 10713
  140.4190  134.1901  155.7164 LP  0  0  0  0  0  0  0  0  0  0  0  0  # atno 17394 bound_to 11000
  141.1843  133.8347  157.1144 LP  0  0  0  0  0  0  0  0  0  0  0  0  # atno 17395 bound_to 11000

$$$$
