#       Name:                AV-unprocessed.smi:1522
#       Creating user name   scv26
#       Creation time:       Fri Mar 27 06:28:10 2020


#       File generated by GOLD software.
#

@<TRIPOS>MOLECULE
AV-unprocessed.smi:1522
    39    40     1
SMALL
NO_CHARGES


@<TRIPOS>ATOM
      1 ****        -1.6104   1.5670  -0.0348 C.3            1 S1                 0.0000
      2 ****        -1.0740   0.1402   0.2230 C.3            1 S1                 0.0000
      3 ****         0.4676   0.1033   0.0980 C.3            1 S1                 0.0000
      4 ****         0.9131   0.5350  -1.2210 N.am           1 S1                 0.0000
      5 ****         2.1886   0.5981  -1.6227 C.2            1 S1                 0.0000
      6 ****         3.0921   0.2729  -0.8491 O.2            1 S1                 0.0000
      7 ****         2.3355   1.0352  -2.8934 N.pl3          1 S1                -1.0000
      8 ****         3.5626   1.1451  -3.4285 C.2            1 S1                 0.0000
      9 ****         4.0829   0.2025  -4.2308 N.2            1 S1                 0.0000
     10 ****         5.3591   0.5127  -4.6808 N.2            1 S1                 0.0000
     11 ****         5.7675   1.6908  -4.2099 C.2            1 S1                 0.0000
     12 ****         4.6292   2.5301  -3.1779 S.3            1 S1                 0.0000
     13 ****        -1.5077  -0.3652   1.5577 N.4            1 S1                 1.0000
     14 ****        -2.9606  -0.2965   1.8286 C.3            1 S1                 0.0000
     15 ****        -3.1982  -1.2804   2.9680 C.3            1 S1                 0.0000
     16 ****        -2.2363  -2.4175   2.6445 C.3            1 S1                 0.0000
     17 ****        -1.0831  -1.7518   1.8806 C.3            1 S1                 0.0000
     18 ****        -1.2934   1.9492  -1.0052 H              1 S1                 0.0000
     19 ****        -1.2554   2.2649   0.7242 H              1 S1                 0.0000
     20 ****        -2.6995   1.6014  -0.0380 H              1 S1                 0.0000
     21 ****        -1.4968  -0.5209  -0.5355 H              1 S1                 0.0000
     22 ****         0.9196   0.7454   0.8559 H              1 S1                 0.0000
     23 ****         0.8524  -0.9033   0.2646 H              1 S1                 0.0000
     24 ****         0.2023   0.8096  -1.8831 H              1 S1                 0.0000
     25 ****         6.7429   2.0699  -4.4755 H              1 S1                 0.0000
     26 ****        -3.2822   0.7123   2.0893 H              1 S1                 0.0000
     27 ****        -3.5160  -0.6160   0.9449 H              1 S1                 0.0000
     28 ****        -2.9245  -0.8200   3.9184 H              1 S1                 0.0000
     29 ****        -4.2358  -1.6084   3.0376 H              1 S1                 0.0000
     30 ****        -1.8998  -2.9450   3.5376 H              1 S1                 0.0000
     31 ****        -2.7317  -3.1440   1.9989 H              1 S1                 0.0000
     32 ****        -0.8625  -2.3271   0.9803 H              1 S1                 0.0000
     33 ****        -0.1752  -1.7165   2.4837 H              1 S1                 0.0000
     34 ****        -1.0712   0.2257   2.2509 H              1 S1                 0.0000
     35 ****         2.8711  -0.0369   0.0756 LP             1 S1                 0.0000
     36 ****         4.0457   0.3191  -1.1465 LP             1 S1                 0.0000
     37 ****         1.5304   1.2768  -3.4352 LP             1 S1                 0.0000
     38 ****         3.6002  -0.6374  -4.4789 LP             1 S1                 0.0000
     39 ****         5.9027  -0.0732  -5.2818 LP             1 S1                 0.0000
@<TRIPOS>BOND
    1    1    2 1     
    2    1   18 1     
    3    1   19 1     
    4    1   20 1     
    5    2    3 1     
    6    2   13 1     
    7    2   21 1     
    8    3    4 1     
    9    3   22 1     
   10    3   23 1     
   11    4    5 am    
   12    4   24 1     
   13    5    6 2     
   14    5    7 1     
   15    7    8 1     
   16    8   12 1     
   17    8    9 2     
   18    9   10 1     
   19   10   11 2     
   20   11   12 1     
   21   11   25 1     
   22   13   17 1     
   23   13   14 1     
   24   13   34 1     
   25   14   15 1     
   26   14   26 1     
   27   14   27 1     
   28   15   16 1     
   29   15   28 1     
   30   15   29 1     
   31   16   17 1     
   32   16   30 1     
   33   16   31 1     
   34   17   32 1     
   35   17   33 1     
   36    6   35 1     
   37    6   36 1     
   38    7   37 1     
   39    9   38 1     
   40   10   39 1     
@<TRIPOS>SUBSTRUCTURE
      1 S1             1
@<TRIPOS>SET
LONE_PAIRS      STATIC     ATOMS    <user>   **** ""
5 35 36 37 38 39
DONOR_HYDROGENS      STATIC     ATOMS    <user>   **** ""
2 24 34
ATOM$BLUE        STATIC     ATOMS    COLORGROUP SYSTEM
5 35 36 37 38 39
ATOM$RED        STATIC     ATOMS    COLORGROUP SYSTEM
2 24 34
