AV-unprocessed.smi:1285|AV-procd|sdf|5374|dock3
  -GOLD-   22720 4523D 1   1.00000     0.00000
 Structure written by MMmdl.
 47 48  0  0  0  0  0  0  0  0  2 V2000
  146.8086  138.8544  151.7057 C   0  0  0  0  0  0  0  0  0  0  0  0
  146.2410  138.8469  153.1361 C   0  0  0  0  0  0  0  0  0  0  0  0
  146.7053  137.6641  154.0420 C   0  0  2  0  0  0  0  0  0  0  0  0
  145.7441  137.6158  155.2598 C   0  0  0  0  0  0  0  0  0  0  0  0
  148.1555  137.9274  154.5572 C   0  0  0  0  0  0  0  0  0  0  0  0
  148.2670  139.1485  155.3528 N   0  0  0  0  0  0  0  0  0  0  0  0
  149.1786  140.1194  155.1798 C   0  0  0  0  0  0  0  0  0  0  0  0
  150.0984  140.0417  154.3646 O   0  0  0  0  0  0  0  0  0  0  0  0
  148.9910  141.3787  156.0416 C   0  0  1  0  0  0  0  0  0  0  0  0
  147.6249  141.4263  156.7555 C   0  0  0  0  0  0  0  0  0  0  0  0
  150.1001  141.5084  156.9797 N   0  0  0  0  0  0  0  0  0  0  0  0
  150.9551  142.5167  157.1640 C   0  0  0  0  0  0  0  0  0  0  0  0
  151.8880  142.2726  158.0734 N   0  0  0  0  0  0  0  0  0  0  0  0
  151.5281  141.0054  158.4351 C   0  0  0  0  0  0  0  0  0  0  0  0
  150.4717  140.4957  157.8026 N   0  0  0  0  0  0  0  0  0  0  0  0
  146.6407  136.3692  153.2702 N   0  3  0  0  0  0  0  0  0  0  0  0
  146.8103  135.1240  154.0724 C   0  0  0  0  0  0  0  0  0  0  0  0
  146.9421  133.9032  153.1483 C   0  0  0  0  0  0  0  0  0  0  0  0
  145.7870  133.8064  152.3272 O   0  0  0  0  0  0  0  0  0  0  0  0
  145.6406  134.9446  151.4896 C   0  0  0  0  0  0  0  0  0  0  0  0
  145.4801  136.2112  152.3485 C   0  0  0  0  0  0  0  0  0  0  0  0
  146.4275  139.7130  151.1527 H   0  0  0  0  0  0  0  0  0  0  0  0
  146.5215  137.9618  151.1507 H   0  0  0  0  0  0  0  0  0  0  0  0
  147.8963  138.9218  151.6973 H   0  0  0  0  0  0  0  0  0  0  0  0
  146.4643  139.8017  153.6114 H   0  0  0  0  0  0  0  0  0  0  0  0
  145.1544  138.8372  153.0485 H   0  0  0  0  0  0  0  0  0  0  0  0
  145.5999  138.6034  155.7002 H   0  0  0  0  0  0  0  0  0  0  0  0
  146.1257  136.9798  156.0587 H   0  0  0  0  0  0  0  0  0  0  0  0
  144.7578  137.2421  154.9840 H   0  0  0  0  0  0  0  0  0  0  0  0
  148.4865  137.1112  155.1987 H   0  0  0  0  0  0  0  0  0  0  0  0
  148.8667  137.9630  153.7318 H   0  0  0  0  0  0  0  0  0  0  0  0
  147.5542  139.2962  156.0525 H   0  0  0  0  0  0  0  0  0  0  0  0
  149.0360  142.2368  155.3690 H   0  0  0  0  0  0  0  0  0  0  0  0
  146.8041  141.3914  156.0384 H   0  0  0  0  0  0  0  0  0  0  0  0
  147.5187  142.3492  157.3265 H   0  0  0  0  0  0  0  0  0  0  0  0
  147.4954  140.5936  157.4481 H   0  0  0  0  0  0  0  0  0  0  0  0
  150.9006  143.4446  156.6138 H   0  0  0  0  0  0  0  0  0  0  0  0
  152.0662  140.4384  159.1804 H   0  0  0  0  0  0  0  0  0  0  0  0
  147.6969  135.1678  154.7015 H   0  0  0  0  0  0  0  0  0  0  0  0
  145.9550  134.9774  154.7320 H   0  0  0  0  0  0  0  0  0  0  0  0
  147.8410  133.9724  152.5333 H   0  0  0  0  0  0  0  0  0  0  0  0
  147.0305  132.9921  153.7404 H   0  0  0  0  0  0  0  0  0  0  0  0
  146.4995  135.0325  150.8222 H   0  0  0  0  0  0  0  0  0  0  0  0
  144.7621  134.8056  150.8593 H   0  0  0  0  0  0  0  0  0  0  0  0
  144.5519  136.1500  152.9172 H   0  0  0  0  0  0  0  0  0  0  0  0
  145.3868  137.0571  151.6699 H   0  0  0  0  0  0  0  0  0  0  0  0
  147.4485  136.4024  152.6644 H   0  0  0  0  0  0  0  0  0  0  0  0
  1  2  1  0  0  0  0
  1 22  1  0  0  0  0
  1 23  1  0  0  0  0
  1 24  1  0  0  0  0
  2  3  1  0  0  0  0
  2 25  1  0  0  0  0
  2 26  1  0  0  0  0
  3  4  1  0  0  0  0
  3  5  1  0  0  0  0
  3 16  1  0  0  0  0
  4 27  1  0  0  0  0
  4 28  1  0  0  0  0
  4 29  1  0  0  0  0
  5  6  1  0  0  0  0
  5 30  1  0  0  0  0
  5 31  1  0  0  0  0
  6  7  1  0  0  0  0
  6 32  1  0  0  0  0
  7  8  2  0  0  0  0
  7  9  1  0  0  0  0
  9 10  1  0  0  0  0
  9 11  1  0  0  0  0
  9 33  1  0  0  0  0
 10 34  1  0  0  0  0
 10 35  1  0  0  0  0
 10 36  1  0  0  0  0
 11 15  1  0  0  0  0
 11 12  1  0  0  0  0
 12 13  2  0  0  0  0
 12 37  1  0  0  0  0
 13 14  1  0  0  0  0
 14 15  2  0  0  0  0
 14 38  1  0  0  0  0
 16 21  1  0  0  0  0
 16 17  1  0  0  0  0
 16 47  1  0  0  0  0
 17 18  1  0  0  0  0
 17 39  1  0  0  0  0
 17 40  1  0  0  0  0
 18 19  1  0  0  0  0
 18 41  1  0  0  0  0
 18 42  1  0  0  0  0
 19 20  1  0  0  0  0
 20 21  1  0  0  0  0
 20 43  1  0  0  0  0
 20 44  1  0  0  0  0
 21 45  1  0  0  0  0
 21 46  1  0  0  0  0
M  CHG  1  16   1
M  END
> <s_m_source_file>
AV-unprocessed.smi

> <i_m_source_file_index>
1285

> <i_lp_mmshare_version>
43012

> <i_f3d_flags>
0

> <s_epik_input>
W0NIMl0xW0NIMl1PW0NIMl1bQ0gyXU4xW0NAQF0oW0NIM10pKFtDSDJdW0NIM10pW0NIMl1bTkhdQyg9TylbQ0BIXShbQ0gzXSluMltjSF1uW2NIXW4y

> <s_epik_cmdline>
J2VwaWtfcHl0aG9uJywgJy1waCcsICc3LjAnLCAnLXRuJywgJzgnLCAnLW1hJywgJzIwMCcsICctbWV0YWxfYmluZGluZycsICctaW1hZScsICc8aW5maWxlLm1hZT4nLCAnLW9tYWUnLCAnPG91dGZpbGUubWFlPic=

> <r_lp_tautomer_probability>
1

> <r_epik_Ionization_Penalty>
0.569304

> <r_epik_Ionization_Penalty_Charging>
0.569295

> <r_epik_Ionization_Penalty_Neutral>
8.22697e-06

> <r_epik_State_Penalty>
0.581114

> <r_epik_Charging_Adjusted_Penalty>
1.15041

> <i_epik_Tot_Q>
1

> <i_epik_Tot_abs_Q>
1

> <r_epik_Metal_State_Penalty>
0.581117

> <b_epik_Metal_Only>
0

> <s_lp_Force_Field>
OPLS_2005

> <r_lp_Energy>
34.4039

> <b_lp_Chiralities_Consistent>
1

> <s_lp_Variant>
AV-unprocessed.smi:1285-8

> <Gold.Version>
5.8.1

> <Gold.Id.Protein>
6NUR|6NUR_protein|mol2

> <Gold.PLP.Fitness>
34.3835

> <Gold.PLP.PLP>
-23.9230

> <Gold.PLP.part.hbond>
-2.0000

> <Gold.PLP.part.metal>
0.0000

> <Gold.PLP.part.buried>
-1.4151

> <Gold.PLP.part.nonpolar>
-21.1708

> <Gold.PLP.part.repulsive>
0.2312

> <Gold.PLP.ligand.clash>
0.0000

> <Gold.PLP.ligand.torsion>
0.9476

> <Gold.PLP.Chemscore.Hbond>
3.0000

> <Gold.PLP.Chemscore.CHOScore>
1.0000

> <Gold.PLP.Chemscore.Metal>
0.0000

> <Gold.Chemscore.Hbonds>
donor molecule, donor type, donor heavy atom, donor atom, acceptor molecule, acceptor atom, score
      L1  H    16    47       P1  7948  2.00
      P1  H  7989  7998       L1     8  1.00
      L1  C    12    37       P1  8028  0.94

> <Gold.PLP.Chemscore.Internal.Correction>
0.3556

> <Gold.Rescore>
     Score         DG    S(hbond)    S(metal)    S(lipo)     H(rot)  DE(clash)    DE(int)     intcor
      9.03     -10.41       1.97        0.00      46.20       2.76       0.68       0.71       ----

> <Gold.Chemscore.Fitness>
9.0258

> <Gold.Chemscore.DG>
-10.4127

> <Gold.Chemscore.ZeroCoef>
-5.4800

> <Gold.Chemscore.Hbond>
1.9731

> <Gold.Chemscore.Metal>
0.0000

> <Gold.Chemscore.Lipo>
46.1996

> <Gold.Chemscore.Internal_Hbond>
0.0000

> <Gold.Chemscore.DEClash>
0.6752

> <Gold.Chemscore.DEInternal>
0.7116

> <Gold.Chemscore.Rot>
2.7589

> <Gold.Chemscore.Internal.Correction>
   9.000000E+99

> <Gold.Chemscore.Hbonds>
donor molecule, donor type, donor heavy atom, donor atom, acceptor molecule, acceptor atom, score
      L1  H    16    47       P1  7948  1.00
      P1  H  7989  7998       L1     8  0.96

> <Gold.Chemscore.Hbond.Weighted>
-6.5900

> <Gold.Chemscore.Metal.Weighted>
-0.0000

> <Gold.Chemscore.Lipo.Weighted>
-5.4054

> <Gold.Chemscore.Internal_Hbond.Weighted>
0.0000

> <Gold.Chemscore.DEClash.Weighted>
0.6752

> <Gold.Chemscore.DEInternal.Weighted>
0.7116

> <Gold.Chemscore.Rot.Weighted>
7.0627

> <Gold.Chemscore.Internal.Correction.Weighted>
   9.000000E+99

> <Gold.Protein.RotatedTorsions>
[ 6907 6896 6895 6894 ] final  -54.10 input  -60.11 | X-H torsion
[ 7974 7965 7964 7962 ] final  154.45 input  175.53 | X-H torsion
[ 8008 7997 7996 7995 ] final   67.63 input   59.86 | X-H torsion
[ 10167 10162 10161 10158 ] final  154.57 input  -65.29 | X-H torsion
[ 10718 10713 10712 10709 ] final  102.13 input   66.30 | X-H torsion
[ 10763 10752 10751 10750 ] final   92.63 input  -60.55 | X-H torsion
[ 11005 11000 10999 10996 ] final   54.73 input  -57.11 | X-H torsion

> <Gold.Protein.ActiveResidues>
 VAL166  LYS551  ARG553  GLY616  TRP617  ASP618  TYR619  PRO620  LYS621  CYS622 
 ASP623  PHE694  ASN695  SER759  ASP760  ASP761  ALA762  ILE779  LEU786  VAL792 
 PHE793  MET794  SER795  GLU796  ALA797  LYS798  CYS799  TRP800  GLU811  SER814 

> <Gold.Protein.RotatedAtoms>
  150.8367  134.7644  159.6898 H   0  0  0  0  0  0  0  0  0  0  0  0  # atno 6907 bound_to 6896
  152.4463  134.5485  159.9869 H   0  0  0  0  0  0  0  0  0  0  0  0  # atno 6908 bound_to 6896
  151.5633  133.3362  159.3011 H   0  0  0  0  0  0  0  0  0  0  0  0  # atno 6909 bound_to 6896
  144.8088  139.6935  143.6150 H   0  0  0  0  0  0  0  0  0  0  0  0  # atno 7974 bound_to 7965
  155.6958  140.3495  155.4912 H   0  0  0  0  0  0  0  0  0  0  0  0  # atno 8008 bound_to 7997
  155.9484  140.1114  157.1020 H   0  0  0  0  0  0  0  0  0  0  0  0  # atno 8009 bound_to 7997
  154.4117  140.1199  156.5006 H   0  0  0  0  0  0  0  0  0  0  0  0  # atno 8010 bound_to 7997
  139.4823  144.5175  151.7929 H   0  0  0  0  0  0  0  0  0  0  0  0  # atno 10167 bound_to 10162
  157.6810  131.0745  150.5358 H   0  0  0  0  0  0  0  0  0  0  0  0  # atno 10718 bound_to 10713
  153.2213  135.4354  155.0492 H   0  0  0  0  0  0  0  0  0  0  0  0  # atno 10763 bound_to 10752
  154.8251  135.3357  154.6923 H   0  0  0  0  0  0  0  0  0  0  0  0  # atno 10764 bound_to 10752
  153.7355  135.7008  153.5035 H   0  0  0  0  0  0  0  0  0  0  0  0  # atno 10765 bound_to 10752
  140.0663  134.5532  155.9095 H   0  0  0  0  0  0  0  0  0  0  0  0  # atno 11005 bound_to 11000
  146.2384  139.5951  142.9508 LP  0  0  0  0  0  0  0  0  0  0  0  0  # atno 17320 bound_to 7965
  145.5373  141.0423  143.2350 LP  0  0  0  0  0  0  0  0  0  0  0  0  # atno 17321 bound_to 7965
  140.4685  144.1621  150.5915 LP  0  0  0  0  0  0  0  0  0  0  0  0  # atno 17342 bound_to 10162
  140.4408  143.2527  151.9475 LP  0  0  0  0  0  0  0  0  0  0  0  0  # atno 17343 bound_to 10162
  156.5666  130.4269  149.6038 LP  0  0  0  0  0  0  0  0  0  0  0  0  # atno 17370 bound_to 10713
  156.2776  130.7052  151.1867 LP  0  0  0  0  0  0  0  0  0  0  0  0  # atno 17371 bound_to 10713
  141.1994  133.6606  156.5842 LP  0  0  0  0  0  0  0  0  0  0  0  0  # atno 17394 bound_to 11000
  140.3694  134.7619  157.4588 LP  0  0  0  0  0  0  0  0  0  0  0  0  # atno 17395 bound_to 11000

$$$$
