AV-unprocessed.smi:2826|AV-procd|sdf|10893|dock4
  -GOLD-   2272015343D 1   1.00000     0.00000
 Structure written by MMmdl.
 50 51  0  0  0  0  0  0  0  0  1 V2000
  148.4732  127.9966  152.8727 C   0  0  0  0  0  0  0  0  0  0  0  0
  148.9534  128.6667  154.0329 O   0  0  0  0  0  0  0  0  0  0  0  0
  149.0412  130.0434  154.0053 C   0  0  0  0  0  0  0  0  0  0  0  0
  150.0328  130.6717  154.7825 C   0  0  0  0  0  0  0  0  0  0  0  0
  150.1267  132.0755  154.7593 C   0  0  0  0  0  0  0  0  0  0  0  0
  149.2173  132.8143  153.9646 C   0  0  0  0  0  0  0  0  0  0  0  0
  149.2502  134.2333  153.8618 N   0  0  0  0  0  0  0  0  0  0  0  0
  149.8044  135.1154  154.7108 C   0  0  0  0  0  0  0  0  0  0  0  0
  150.3780  134.8269  155.7611 O   0  0  0  0  0  0  0  0  0  0  0  0
  149.6344  136.3746  154.2826 N   0  0  0  0  0  0  0  0  0  0  0  0
  150.0987  137.5685  154.9833 C   0  0  1  0  0  0  0  0  0  0  0  0
  151.5959  137.7831  154.7208 C   0  0  0  0  0  0  0  0  0  0  0  0
  152.0654  139.1120  155.3331 C   0  0  0  0  0  0  0  0  0  0  0  0
  151.2839  140.1853  154.8196 O   0  0  0  0  0  0  0  0  0  0  0  0
  149.9020  140.0905  155.1579 C   0  0  1  0  0  0  0  0  0  0  0  0
  149.1839  141.3554  154.6515 C   0  0  0  0  0  0  0  0  0  0  0  0
  147.6625  141.3870  154.9147 C   0  0  0  0  0  0  0  0  0  0  0  0
  146.9290  142.4034  154.0231 C   0  0  0  0  0  0  0  0  0  0  0  0
  147.3772  141.6756  156.3964 C   0  0  0  0  0  0  0  0  0  0  0  0
  149.3188  138.8126  154.5247 C   0  0  0  0  0  0  0  0  0  0  0  0
  148.2664  132.0885  153.2071 C   0  0  0  0  0  0  0  0  0  0  0  0
  147.2633  132.7929  152.3104 C   0  0  0  0  0  0  0  0  0  0  0  0
  148.1761  130.7404  153.2288 N   0  0  0  0  0  0  0  0  0  0  0  0
  148.4597  126.9225  153.0563 H   0  0  0  0  0  0  0  0  0  0  0  0
  149.1188  128.1768  152.0122 H   0  0  0  0  0  0  0  0  0  0  0  0
  147.4554  128.3026  152.6274 H   0  0  0  0  0  0  0  0  0  0  0  0
  150.7141  130.0868  155.3826 H   0  0  0  0  0  0  0  0  0  0  0  0
  150.9015  132.5556  155.3369 H   0  0  0  0  0  0  0  0  0  0  0  0
  148.7295  134.6244  153.0906 H   0  0  0  0  0  0  0  0  0  0  0  0
  149.1459  136.5200  153.4112 H   0  0  0  0  0  0  0  0  0  0  0  0
  149.9562  137.4341  156.0576 H   0  0  0  0  0  0  0  0  0  0  0  0
  152.1765  136.9564  155.1322 H   0  0  0  0  0  0  0  0  0  0  0  0
  151.7874  137.7973  153.6467 H   0  0  0  0  0  0  0  0  0  0  0  0
  151.9968  139.0856  156.4218 H   0  0  0  0  0  0  0  0  0  0  0  0
  153.1120  139.2894  155.0854 H   0  0  0  0  0  0  0  0  0  0  0  0
  149.7987  140.0218  156.2412 H   0  0  0  0  0  0  0  0  0  0  0  0
  149.6458  142.2235  155.1240 H   0  0  0  0  0  0  0  0  0  0  0  0
  149.3624  141.4690  153.5813 H   0  0  0  0  0  0  0  0  0  0  0  0
  147.2564  140.3982  154.6982 H   0  0  0  0  0  0  0  0  0  0  0  0
  147.3276  143.4092  154.1580 H   0  0  0  0  0  0  0  0  0  0  0  0
  145.8651  142.4349  154.2598 H   0  0  0  0  0  0  0  0  0  0  0  0
  147.0116  142.1493  152.9669 H   0  0  0  0  0  0  0  0  0  0  0  0
  147.7561  142.6554  156.6892 H   0  0  0  0  0  0  0  0  0  0  0  0
  147.8461  140.9312  157.0406 H   0  0  0  0  0  0  0  0  0  0  0  0
  146.3066  141.6572  156.6024 H   0  0  0  0  0  0  0  0  0  0  0  0
  149.3610  138.8937  153.4373 H   0  0  0  0  0  0  0  0  0  0  0  0
  148.2650  138.7145  154.7887 H   0  0  0  0  0  0  0  0  0  0  0  0
  146.6701  133.5027  152.8876 H   0  0  0  0  0  0  0  0  0  0  0  0
  146.5778  132.0853  151.8415 H   0  0  0  0  0  0  0  0  0  0  0  0
  147.7797  133.3368  151.5191 H   0  0  0  0  0  0  0  0  0  0  0  0
  1  2  1  0  0  0  0
  1 24  1  0  0  0  0
  1 25  1  0  0  0  0
  1 26  1  0  0  0  0
  2  3  1  0  0  0  0
  3 23  1  0  0  0  0
  3  4  2  0  0  0  0
  4  5  1  0  0  0  0
  4 27  1  0  0  0  0
  5  6  2  0  0  0  0
  5 28  1  0  0  0  0
  6  7  1  0  0  0  0
  6 21  1  0  0  0  0
  7  8  1  0  0  0  0
  7 29  1  0  0  0  0
  8  9  2  0  0  0  0
  8 10  1  0  0  0  0
 10 11  1  0  0  0  0
 10 30  1  0  0  0  0
 11 20  1  0  0  0  0
 11 12  1  0  0  0  0
 11 31  1  0  0  0  0
 12 13  1  0  0  0  0
 12 32  1  0  0  0  0
 12 33  1  0  0  0  0
 13 14  1  0  0  0  0
 13 34  1  0  0  0  0
 13 35  1  0  0  0  0
 14 15  1  0  0  0  0
 15 16  1  0  0  0  0
 15 20  1  0  0  0  0
 15 36  1  0  0  0  0
 16 17  1  0  0  0  0
 16 37  1  0  0  0  0
 16 38  1  0  0  0  0
 17 18  1  0  0  0  0
 17 19  1  0  0  0  0
 17 39  1  0  0  0  0
 18 40  1  0  0  0  0
 18 41  1  0  0  0  0
 18 42  1  0  0  0  0
 19 43  1  0  0  0  0
 19 44  1  0  0  0  0
 19 45  1  0  0  0  0
 20 46  1  0  0  0  0
 20 47  1  0  0  0  0
 21 22  1  0  0  0  0
 21 23  2  0  0  0  0
 22 48  1  0  0  0  0
 22 49  1  0  0  0  0
 22 50  1  0  0  0  0
M  END
> <s_m_source_file>
AV-unprocessed.smi

> <i_m_source_file_index>
2826

> <i_lp_mmshare_version>
43012

> <i_f3d_flags>
0

> <s_epik_input>
W0NIM11PYzFbY0hdW2NIXWMoYyhuMSlbQ0gzXSlbTkhdQyg9TylbTkhdW0NAQEhdMltDSDJdW0NIMl1PW0NASF0oW0NIMl0yKVtDSDJdW0NIXShbQ0gzXSlbQ0gzXQ==

> <s_epik_cmdline>
J2VwaWtfcHl0aG9uJywgJy1waCcsICc3LjAnLCAnLXRuJywgJzgnLCAnLW1hJywgJzIwMCcsICctbWV0YWxfYmluZGluZycsICctaW1hZScsICc8aW5maWxlLm1hZT4nLCAnLW9tYWUnLCAnPG91dGZpbGUubWFlPic=

> <r_lp_tautomer_probability>
1

> <r_epik_Ionization_Penalty>
0.000249977

> <r_epik_Ionization_Penalty_Charging>
0

> <r_epik_Ionization_Penalty_Neutral>
0.000249977

> <r_epik_State_Penalty>
-0

> <r_epik_Charging_Adjusted_Penalty>
0

> <i_epik_Tot_Q>
0

> <i_epik_Tot_abs_Q>
0

> <r_epik_Metal_State_Penalty>
-0

> <b_epik_Metal_Only>
0

> <s_lp_Force_Field>
OPLS_2005

> <r_lp_Energy>
13.3691

> <b_lp_Chiralities_Consistent>
1

> <s_lp_Variant>
AV-unprocessed.smi:2826-2

> <Gold.Version>
5.8.1

> <Gold.Id.Protein>
6NUR|6NUR_protein|mol2

> <Gold.PLP.Fitness>
49.0589

> <Gold.PLP.PLP>
-42.7842

> <Gold.PLP.part.hbond>
-3.2044

> <Gold.PLP.part.metal>
0.0000

> <Gold.PLP.part.buried>
-4.2151

> <Gold.PLP.part.nonpolar>
-36.4084

> <Gold.PLP.part.repulsive>
0.6618

> <Gold.PLP.ligand.clash>
0.0000

> <Gold.PLP.ligand.torsion>
0.8854

> <Gold.PLP.Chemscore.Hbond>
2.6640

> <Gold.PLP.Chemscore.CHOScore>
0.0000

> <Gold.PLP.Chemscore.Metal>
0.0000

> <Gold.Chemscore.Hbonds>
donor molecule, donor type, donor heavy atom, donor atom, acceptor molecule, acceptor atom, score
      L1  H     7    29       P1  7948  0.63
      L1  H    10    30       P1  7948  0.99
      P1  H  7989  7998       L1    14  0.99

> <Gold.PLP.Chemscore.Internal.Correction>
0.0535

> <Gold.Rescore>
     Score         DG    S(hbond)    S(metal)    S(lipo)     H(rot)  DE(clash)    DE(int)     intcor
     16.39     -18.79       2.05        0.00      88.30       1.51       0.11       2.30       ----

> <Gold.Chemscore.Fitness>
16.3858

> <Gold.Chemscore.DG>
-18.7932

> <Gold.Chemscore.ZeroCoef>
-5.4800

> <Gold.Chemscore.Hbond>
2.0469

> <Gold.Chemscore.Metal>
0.0000

> <Gold.Chemscore.Lipo>
88.3014

> <Gold.Chemscore.Internal_Hbond>
0.0000

> <Gold.Chemscore.DEClash>
0.1116

> <Gold.Chemscore.DEInternal>
2.2958

> <Gold.Chemscore.Rot>
1.5057

> <Gold.Chemscore.Internal.Correction>
   9.000000E+99

> <Gold.Chemscore.Hbonds>
donor molecule, donor type, donor heavy atom, donor atom, acceptor molecule, acceptor atom, score
      L1  H     7    29       P1  7948  0.12
      L1  H    10    30       P1  7948  0.89
      P1  H  7989  7998       L1    14  0.87

> <Gold.Chemscore.Hbond.Weighted>
-6.8366

> <Gold.Chemscore.Metal.Weighted>
-0.0000

> <Gold.Chemscore.Lipo.Weighted>
-10.3313

> <Gold.Chemscore.Internal_Hbond.Weighted>
0.0000

> <Gold.Chemscore.DEClash.Weighted>
0.1116

> <Gold.Chemscore.DEInternal.Weighted>
2.2958

> <Gold.Chemscore.Rot.Weighted>
3.8547

> <Gold.Chemscore.Internal.Correction.Weighted>
   9.000000E+99

> <Gold.Protein.RotatedTorsions>
[ 6907 6896 6895 6894 ] final   60.36 input  -60.11 | X-H torsion
[ 7974 7965 7964 7962 ] final   39.71 input  175.53 | X-H torsion
[ 8008 7997 7996 7995 ] final -108.55 input   59.86 | X-H torsion
[ 10167 10162 10161 10158 ] final  -26.59 input  -65.29 | X-H torsion
[ 10718 10713 10712 10709 ] final  -66.30 input   66.30 | X-H torsion
[ 10763 10752 10751 10750 ] final  122.01 input  -60.55 | X-H torsion
[ 11005 11000 10999 10996 ] final   76.74 input  -57.11 | X-H torsion

> <Gold.Protein.ActiveResidues>
 VAL166  LYS551  ARG553  GLY616  TRP617  ASP618  TYR619  PRO620  LYS621  CYS622 
 ASP623  PHE694  ASN695  SER759  ASP760  ASP761  ALA762  ILE779  LEU786  VAL792 
 PHE793  MET794  SER795  GLU796  ALA797  LYS798  CYS799  TRP800  GLU811  SER814 

> <Gold.Protein.RotatedAtoms>
  152.3996  134.6308  160.0074 H   0  0  0  0  0  0  0  0  0  0  0  0  # atno 6907 bound_to 6896
  151.6517  133.3315  159.3161 H   0  0  0  0  0  0  0  0  0  0  0  0  # atno 6908 bound_to 6896
  150.7898  134.6956  159.6566 H   0  0  0  0  0  0  0  0  0  0  0  0  # atno 6909 bound_to 6896
  146.0963  139.5619  142.9443 H   0  0  0  0  0  0  0  0  0  0  0  0  # atno 7974 bound_to 7965
  154.9459  140.0402  157.2120 H   0  0  0  0  0  0  0  0  0  0  0  0  # atno 8008 bound_to 7997
  154.8024  140.2854  155.5889 H   0  0  0  0  0  0  0  0  0  0  0  0  # atno 8009 bound_to 7997
  156.2963  140.2552  156.2896 H   0  0  0  0  0  0  0  0  0  0  0  0  # atno 8010 bound_to 7997
  140.7282  143.4165  151.1020 H   0  0  0  0  0  0  0  0  0  0  0  0  # atno 10167 bound_to 10162
  156.0620  130.4260  150.1689 H   0  0  0  0  0  0  0  0  0  0  0  0  # atno 10718 bound_to 10713
  153.6231  135.3409  155.3017 H   0  0  0  0  0  0  0  0  0  0  0  0  # atno 10763 bound_to 10752
  154.8596  135.4278  154.2186 H   0  0  0  0  0  0  0  0  0  0  0  0  # atno 10764 bound_to 10752
  153.3063  135.7028  153.7229 H   0  0  0  0  0  0  0  0  0  0  0  0  # atno 10765 bound_to 10752
  139.9285  134.7626  156.1434 H   0  0  0  0  0  0  0  0  0  0  0  0  # atno 11005 bound_to 11000
  145.5942  141.0365  143.2053 LP  0  0  0  0  0  0  0  0  0  0  0  0  # atno 17320 bound_to 7965
  144.7398  139.7482  143.7315 LP  0  0  0  0  0  0  0  0  0  0  0  0  # atno 17321 bound_to 7965
  139.7806  143.8361  152.3137 LP  0  0  0  0  0  0  0  0  0  0  0  0  # atno 17342 bound_to 10162
  139.8311  144.7253  150.9449 LP  0  0  0  0  0  0  0  0  0  0  0  0  # atno 17343 bound_to 10162
  156.9756  130.9848  151.3449 LP  0  0  0  0  0  0  0  0  0  0  0  0  # atno 17370 bound_to 10713
  157.5635  130.8262  149.8297 LP  0  0  0  0  0  0  0  0  0  0  0  0  # atno 17371 bound_to 10713
  141.0858  133.6735  156.2433 LP  0  0  0  0  0  0  0  0  0  0  0  0  # atno 17394 bound_to 11000
  140.6269  134.5304  157.5555 LP  0  0  0  0  0  0  0  0  0  0  0  0  # atno 17395 bound_to 11000

$$$$
