#       Name:                AV-unprocessed.smi:2281
#       Creating user name   scv26
#       Creation time:       Fri Mar 27 12:41:14 2020


#       File generated by GOLD software.
#

@<TRIPOS>MOLECULE
AV-unprocessed.smi:2281
    45    46     1
SMALL
NO_CHARGES


@<TRIPOS>ATOM
      1 ****        -2.7344   3.4223   0.1704 C.3            1 S1                 0.0000
      2 ****        -2.1757   2.0585   0.5354 C.2            1 S1                 0.0000
      3 ****        -2.2960   1.0734  -0.4482 N.2            1 S1                 0.0000
      4 ****        -1.8278  -0.1122  -0.2338 C.2            1 S1                 0.0000
      5 ****        -1.1888  -0.4498   0.9738 N.am           1 S1                 0.0000
      6 ****        -0.6701  -1.8293   1.0988 C.3            1 S1                 0.0000
      7 ****         0.8580  -1.9830   0.8284 C.3            1 S1                 0.0000
      8 ****         1.1913  -3.4573   0.5156 C.3            1 S1                 0.0000
      9 ****         1.5216  -1.7762   2.0630 O.3            1 S1                 0.0000
     10 ****         1.3713  -1.0495  -0.2789 C.ar           1 S1                 0.0000
     11 ****         2.1056   0.1194   0.0326 C.ar           1 S1                 0.0000
     12 ****         2.5436   0.9824  -0.9890 C.ar           1 S1                 0.0000
     13 ****         2.2534   0.6911  -2.3343 C.ar           1 S1                 0.0000
     14 ****         1.5200  -0.4682  -2.6648 C.ar           1 S1                 0.0000
     15 ****         1.1791  -0.8005  -4.1095 C.3            1 S1                 0.0000
     16 ****         1.5454  -2.0530  -4.3816 F              1 S1                 0.0000
     17 ****        -0.1370  -0.6899  -4.2876 F              1 S1                 0.0000
     18 ****         1.7952   0.0138  -4.9671 F              1 S1                 0.0000
     19 ****         1.0822  -1.3270  -1.6352 C.ar           1 S1                 0.0000
     20 ****        -1.0751   0.4397   2.0026 C.2            1 S1                 0.0000
     21 ****        -0.5682   0.1230   3.0801 O.2            1 S1                 0.0000
     22 ****        -1.5919   1.7915   1.7352 C.2            1 S1                 0.0000
     23 ****        -1.4264   2.8260   2.8417 C.3            1 S1                 0.0000
     24 ****        -3.5168   3.7148   0.8712 H              1 S1                 0.0000
     25 ****        -3.1675   3.4194  -0.8307 H              1 S1                 0.0000
     26 ****        -1.9465   4.1755   0.1917 H              1 S1                 0.0000
     27 ****        -1.8916  -0.9114  -0.9742 H              1 S1                 0.0000
     28 ****        -0.9356  -2.2532   2.0696 H              1 S1                 0.0000
     29 ****        -1.2040  -2.4672   0.3914 H              1 S1                 0.0000
     30 ****         0.6872  -3.8140  -0.3822 H              1 S1                 0.0000
     31 ****         0.8832  -4.1160   1.3291 H              1 S1                 0.0000
     32 ****         2.2629  -3.5988   0.3670 H              1 S1                 0.0000
     33 ****         1.1594  -2.3693   2.7034 H              1 S1                 0.0000
     34 ****         2.3313   0.3761   1.0569 H              1 S1                 0.0000
     35 ****         3.1005   1.8733  -0.7386 H              1 S1                 0.0000
     36 ****         2.5934   1.3670  -3.1048 H              1 S1                 0.0000
     37 ****         0.5024  -2.1982  -1.8995 H              1 S1                 0.0000
     38 ****        -0.3688   2.9682   3.0665 H              1 S1                 0.0000
     39 ****        -1.9236   2.4876   3.7515 H              1 S1                 0.0000
     40 ****        -1.8406   3.7999   2.5858 H              1 S1                 0.0000
     41 ****        -2.7437   1.2854  -1.3169 LP             1 S1                 0.0000
     42 ****         1.3866  -0.8321   2.3639 LP             1 S1                 0.0000
     43 ****         2.4995  -1.9546   1.9538 LP             1 S1                 0.0000
     44 ****        -0.2270  -0.8068   3.2180 LP             1 S1                 0.0000
     45 ****        -0.4980   0.7958   3.8166 LP             1 S1                 0.0000
@<TRIPOS>BOND
    1    1    2 1     
    2    1   24 1     
    3    1   25 1     
    4    1   26 1     
    5    2   22 2     
    6    2    3 1     
    7    3    4 2     
    8    4    5 1     
    9    4   27 1     
   10    5    6 1     
   11    5   20 am    
   12    6    7 1     
   13    6   28 1     
   14    6   29 1     
   15    7    8 1     
   16    7    9 1     
   17    7   10 1     
   18    8   30 1     
   19    8   31 1     
   20    8   32 1     
   21    9   33 1     
   22   10   19 ar    
   23   10   11 ar    
   24   11   12 ar    
   25   11   34 1     
   26   12   13 ar    
   27   12   35 1     
   28   13   14 ar    
   29   13   36 1     
   30   14   15 1     
   31   14   19 ar    
   32   15   16 1     
   33   15   17 1     
   34   15   18 1     
   35   19   37 1     
   36   20   21 2     
   37   20   22 1     
   38   22   23 1     
   39   23   38 1     
   40   23   39 1     
   41   23   40 1     
   42    3   41 1     
   43    9   42 1     
   44    9   43 1     
   45   21   44 1     
   46   21   45 1     
@<TRIPOS>SUBSTRUCTURE
      1 S1             1
@<TRIPOS>SET
LONE_PAIRS      STATIC     ATOMS    <user>   **** ""
5 41 42 43 44 45
DONOR_HYDROGENS      STATIC     ATOMS    <user>   **** ""
1 33
ATOM$BLUE        STATIC     ATOMS    COLORGROUP SYSTEM
5 41 42 43 44 45
ATOM$RED        STATIC     ATOMS    COLORGROUP SYSTEM
1 33
