AV-unprocessed.smi:196|AV-procd|sdf|1537|dock3
  -GOLD-   2262019393D 1   1.00000     0.00000
 Structure written by MMmdl.
 47 50  0  0  0  0  0  0  0  0  1 V2000
  147.8518  141.0035  154.6648 C   0  0  0  0  0  0  0  0  0  0  0  0
  149.0917  140.1178  154.8657 C   0  0  1  0  0  0  0  0  0  0  0  0
  150.2858  140.8973  154.8066 O   0  0  0  0  0  0  0  0  0  0  0  0
  151.0581  140.7019  155.9834 C   0  0  0  0  0  0  0  0  0  0  0  0
  150.6411  139.3273  156.4891 C   0  0  0  0  0  0  0  0  0  0  0  0
  149.1522  139.2983  156.1750 C   0  0  1  0  0  0  0  0  0  0  0  0
  148.4615  139.9629  157.2219 O   0  0  0  0  0  0  0  0  0  0  0  0
  148.5646  137.8753  156.0245 C   0  0  0  0  0  0  0  0  0  0  0  0
  148.6668  137.0754  157.2348 N   0  0  0  0  0  0  0  0  0  0  0  0
  149.8135  136.8022  157.9463 C   0  0  0  0  0  0  0  0  0  0  0  0
  149.6486  136.0553  159.0040 N   0  0  0  0  0  0  0  0  0  0  0  0
  148.2828  135.8038  159.0280 C   0  0  0  0  0  0  0  0  0  0  0  0
  147.4314  135.0740  159.8993 C   0  0  0  0  0  0  0  0  0  0  0  0
  147.9298  134.4158  160.9795 N   0  0  0  0  0  0  0  0  0  0  0  0
  147.4855  133.0263  161.0079 C   0  0  0  0  0  0  0  0  0  0  0  0
  146.3377  132.9566  162.0287 C   0  0  2  0  0  0  0  0  0  0  0  0
  145.1617  132.7964  161.4208 F   0  0  0  0  0  0  0  0  0  0  0  0
  146.3763  134.2975  162.7728 C   0  0  0  0  0  0  0  0  0  0  0  0
  147.7219  134.9090  162.3488 C   0  0  2  0  0  0  0  0  0  0  0  0
  147.8749  136.4262  162.5894 C   0  0  0  0  0  0  0  0  0  0  0  0
  148.0032  136.8310  163.8557 N   0  0  0  0  0  0  0  0  0  0  0  0
  147.9236  137.2212  161.6520 O   0  0  0  0  0  0  0  0  0  0  0  0
  146.1075  135.0269  159.5912 N   0  0  0  0  0  0  0  0  0  0  0  0
  145.6435  135.6744  158.5186 C   0  0  0  0  0  0  0  0  0  0  0  0
  146.3181  136.4058  157.6291 N   0  0  0  0  0  0  0  0  0  0  0  0
  147.6493  136.4385  157.9236 C   0  0  0  0  0  0  0  0  0  0  0  0
  146.4681  132.1113  162.7051 H   0  0  0  0  0  0  0  0  0  0  0  0
  148.5061  134.4455  162.9504 H   0  0  0  0  0  0  0  0  0  0  0  0
  146.9360  140.4152  154.7242 H   0  0  0  0  0  0  0  0  0  0  0  0
  147.8755  141.4832  153.6864 H   0  0  0  0  0  0  0  0  0  0  0  0
  147.7964  141.7934  155.4142 H   0  0  0  0  0  0  0  0  0  0  0  0
  149.1558  139.4304  154.0210 H   0  0  0  0  0  0  0  0  0  0  0  0
  152.1262  140.7691  155.7768 H   0  0  0  0  0  0  0  0  0  0  0  0
  150.8017  141.4733  156.7108 H   0  0  0  0  0  0  0  0  0  0  0  0
  151.1628  138.5641  155.9103 H   0  0  0  0  0  0  0  0  0  0  0  0
  150.8741  139.1667  157.5427 H   0  0  0  0  0  0  0  0  0  0  0  0
  147.8364  140.5575  156.8366 H   0  0  0  0  0  0  0  0  0  0  0  0
  147.5137  137.9306  155.7372 H   0  0  0  0  0  0  0  0  0  0  0  0
  149.0710  137.3391  155.2209 H   0  0  0  0  0  0  0  0  0  0  0  0
  150.7839  137.1738  157.6506 H   0  0  0  0  0  0  0  0  0  0  0  0
  147.1833  132.6428  160.0307 H   0  0  0  0  0  0  0  0  0  0  0  0
  148.3235  132.4124  161.3405 H   0  0  0  0  0  0  0  0  0  0  0  0
  145.5429  134.9306  162.4648 H   0  0  0  0  0  0  0  0  0  0  0  0
  146.3058  134.1648  163.8529 H   0  0  0  0  0  0  0  0  0  0  0  0
  148.1111  137.8128  164.0638 H   0  0  0  0  0  0  0  0  0  0  0  0
  147.9966  136.1498  164.6011 H   0  0  0  0  0  0  0  0  0  0  0  0
  144.5801  135.5943  158.3481 H   0  0  0  0  0  0  0  0  0  0  0  0
  1  2  1  0  0  0  0
  1 29  1  0  0  0  0
  1 30  1  0  0  0  0
  1 31  1  0  0  0  0
  2  6  1  0  0  0  0
  2  3  1  0  0  0  0
  2 32  1  0  0  0  0
  3  4  1  0  0  0  0
  4  5  1  0  0  0  0
  4 33  1  0  0  0  0
  4 34  1  0  0  0  0
  5  6  1  0  0  0  0
  5 35  1  0  0  0  0
  5 36  1  0  0  0  0
  6  7  1  0  0  0  0
  6  8  1  0  0  0  0
  7 37  1  0  0  0  0
  8  9  1  0  0  0  0
  8 38  1  0  0  0  0
  8 39  1  0  0  0  0
  9 26  1  0  0  0  0
  9 10  1  0  0  0  0
 10 11  2  0  0  0  0
 10 40  1  0  0  0  0
 11 12  1  0  0  0  0
 12 26  2  0  0  0  0
 12 13  1  0  0  0  0
 13 14  1  0  0  0  0
 13 23  2  0  0  0  0
 14 19  1  0  0  0  0
 14 15  1  0  0  0  0
 15 16  1  0  0  0  0
 15 41  1  0  0  0  0
 15 42  1  0  0  0  0
 16 27  1  0  0  0  0
 16 17  1  0  0  0  0
 16 18  1  0  0  0  0
 18 19  1  0  0  0  0
 18 43  1  0  0  0  0
 18 44  1  0  0  0  0
 19 28  1  0  0  0  0
 19 20  1  0  0  0  0
 20 21  1  0  0  0  0
 20 22  2  0  0  0  0
 21 45  1  0  0  0  0
 21 46  1  0  0  0  0
 23 24  1  0  0  0  0
 24 25  2  0  0  0  0
 24 47  1  0  0  0  0
 25 26  1  0  0  0  0
M  END
> <s_m_source_file>
AV-unprocessed.smi

> <i_m_source_file_index>
196

> <i_lp_mmshare_version>
43012

> <i_f3d_flags>
0

> <s_epik_input>
W0NIMl0xW0NIMl1PW0NAQEhdKFtDSDNdKVtDQEBdMShbT0hdKVtDSDJdbihbY0hdbjIpYyhjMjMpbltjSF1uYzNONFtDSDJdW0NASF0oRilbQ0gyXVtDQEhdNEMoPU8pW05IMl0=

> <s_epik_cmdline>
J2VwaWtfcHl0aG9uJywgJy1waCcsICc3LjAnLCAnLXRuJywgJzgnLCAnLW1hJywgJzIwMCcsICctbWV0YWxfYmluZGluZycsICctaW1hZScsICc8aW5maWxlLm1hZT4nLCAnLW9tYWUnLCAnPG91dGZpbGUubWFlPic=

> <r_lp_tautomer_probability>
1

> <r_epik_Ionization_Penalty>
0.000857933

> <r_epik_Ionization_Penalty_Charging>
0

> <r_epik_Ionization_Penalty_Neutral>
0.000857933

> <r_epik_State_Penalty>
0.000462053

> <r_epik_Charging_Adjusted_Penalty>
0.000462053

> <i_epik_Tot_Q>
0

> <i_epik_Tot_abs_Q>
0

> <r_epik_Metal_State_Penalty>
-0

> <b_epik_Metal_Only>
0

> <s_lp_Force_Field>
OPLS_2005

> <r_lp_Energy>
51.2848

> <b_lp_Chiralities_Consistent>
1

> <s_lp_Variant>
AV-unprocessed.smi:196-10

> <Gold.Version>
5.8.1

> <Gold.Id.Protein>
6NUR|6NUR_protein|mol2

> <Gold.PLP.Fitness>
41.7973

> <Gold.PLP.PLP>
-31.3595

> <Gold.PLP.part.hbond>
-3.8089

> <Gold.PLP.part.metal>
0.0000

> <Gold.PLP.part.buried>
-1.6059

> <Gold.PLP.part.nonpolar>
-25.7984

> <Gold.PLP.part.repulsive>
0.3433

> <Gold.PLP.ligand.clash>
0.0000

> <Gold.PLP.ligand.torsion>
0.5504

> <Gold.PLP.Chemscore.Hbond>
3.8240

> <Gold.PLP.Chemscore.CHOScore>
0.0000

> <Gold.PLP.Chemscore.Metal>
0.0000

> <Gold.Chemscore.Hbonds>
donor molecule, donor type, donor heavy atom, donor atom, acceptor molecule, acceptor atom, score
      P1  H  6896  6908       L1    11  1.00
      P1  H  6931  6943       L1    22  1.00
      P1  H  6934  6947       L1    22  0.57
      P1  H  7989  7998       L1     3  0.75

> <Gold.PLP.Chemscore.Internal.Correction>
0.0666

> <Gold.Rescore>
     Score         DG    S(hbond)    S(metal)    S(lipo)     H(rot)  DE(clash)    DE(int)     intcor
     12.14     -16.46       3.49        0.00      60.73       3.04       1.41       2.90       ----

> <Gold.Chemscore.Fitness>
12.1443

> <Gold.Chemscore.DG>
-16.4555

> <Gold.Chemscore.ZeroCoef>
-5.4800

> <Gold.Chemscore.Hbond>
3.4897

> <Gold.Chemscore.Metal>
0.0000

> <Gold.Chemscore.Lipo>
60.7319

> <Gold.Chemscore.Internal_Hbond>
0.0000

> <Gold.Chemscore.DEClash>
1.4072

> <Gold.Chemscore.DEInternal>
2.9039

> <Gold.Chemscore.Rot>
3.0413

> <Gold.Chemscore.Internal.Correction>
   9.000000E+99

> <Gold.Chemscore.Hbonds>
donor molecule, donor type, donor heavy atom, donor atom, acceptor molecule, acceptor atom, score
      P1  H  6896  6908       L1    11  0.93
      P1  H  6931  6943       L1    22  0.64
      P1  H  6934  6947       L1    22  0.54
      P1  H  7989  7998       L1     3  0.22

> <Gold.Chemscore.Hbond.Weighted>
-11.6555

> <Gold.Chemscore.Metal.Weighted>
-0.0000

> <Gold.Chemscore.Lipo.Weighted>
-7.1056

> <Gold.Chemscore.Internal_Hbond.Weighted>
0.0000

> <Gold.Chemscore.DEClash.Weighted>
1.4072

> <Gold.Chemscore.DEInternal.Weighted>
2.9039

> <Gold.Chemscore.Rot.Weighted>
7.7856

> <Gold.Chemscore.Internal.Correction.Weighted>
   9.000000E+99

> <Gold.Protein.RotatedTorsions>
[ 6907 6896 6895 6894 ] final  176.31 input  -60.11 | X-H torsion
[ 7974 7965 7964 7962 ] final   33.10 input  175.53 | X-H torsion
[ 8008 7997 7996 7995 ] final -165.13 input   59.86 | X-H torsion
[ 10167 10162 10161 10158 ] final   77.52 input  -65.29 | X-H torsion
[ 10718 10713 10712 10709 ] final  -18.38 input   66.30 | X-H torsion
[ 10763 10752 10751 10750 ] final   36.63 input  -60.55 | X-H torsion
[ 11005 11000 10999 10996 ] final    5.77 input  -57.11 | X-H torsion

> <Gold.Protein.ActiveResidues>
 VAL166  LYS551  ARG553  GLY616  TRP617  ASP618  TYR619  PRO620  LYS621  CYS622 
 ASP623  PHE694  ASN695  SER759  ASP760  ASP761  ALA762  ILE779  LEU786  VAL792 
 PHE793  MET794  SER795  GLU796  ALA797  LYS798  CYS799  TRP800  GLU811  SER814 

> <Gold.Protein.RotatedAtoms>
  151.7222  133.3315  159.3318 H   0  0  0  0  0  0  0  0  0  0  0  0  # atno 6907 bound_to 6896
  150.7648  134.6438  159.6260 H   0  0  0  0  0  0  0  0  0  0  0  0  # atno 6908 bound_to 6896
  152.3645  134.6827  160.0248 H   0  0  0  0  0  0  0  0  0  0  0  0  # atno 6909 bound_to 6896
  146.1443  139.6440  142.9142 H   0  0  0  0  0  0  0  0  0  0  0  0  # atno 7974 bound_to 7965
  155.8455  140.0955  157.1708 H   0  0  0  0  0  0  0  0  0  0  0  0  # atno 8008 bound_to 7997
  154.3983  140.1393  156.3842 H   0  0  0  0  0  0  0  0  0  0  0  0  # atno 8009 bound_to 7997
  155.8018  140.3452  155.5409 H   0  0  0  0  0  0  0  0  0  0  0  0  # atno 8010 bound_to 7997
  139.9807  144.5828  150.7903 H   0  0  0  0  0  0  0  0  0  0  0  0  # atno 10167 bound_to 10162
  156.5603  130.4724  149.6410 H   0  0  0  0  0  0  0  0  0  0  0  0  # atno 10718 bound_to 10713
  153.0069  135.6300  154.2016 H   0  0  0  0  0  0  0  0  0  0  0  0  # atno 10763 bound_to 10752
  154.1760  135.2816  155.3068 H   0  0  0  0  0  0  0  0  0  0  0  0  # atno 10764 bound_to 10752
  154.5872  135.5629  153.7302 H   0  0  0  0  0  0  0  0  0  0  0  0  # atno 10765 bound_to 10752
  140.5670  134.0138  155.7993 H   0  0  0  0  0  0  0  0  0  0  0  0  # atno 11005 bound_to 11000
  145.4975  141.0438  143.2559 LP  0  0  0  0  0  0  0  0  0  0  0  0  # atno 17320 bound_to 7965
  144.7828  139.6490  143.7147 LP  0  0  0  0  0  0  0  0  0  0  0  0  # atno 17321 bound_to 7965
  140.7490  143.2931  151.3277 LP  0  0  0  0  0  0  0  0  0  0  0  0  # atno 17342 bound_to 10162
  139.6412  144.0536  152.2555 LP  0  0  0  0  0  0  0  0  0  0  0  0  # atno 17343 bound_to 10162
  156.2805  130.7068  151.1890 LP  0  0  0  0  0  0  0  0  0  0  0  0  # atno 17370 bound_to 10713
  157.7370  131.0557  150.5382 LP  0  0  0  0  0  0  0  0  0  0  0  0  # atno 17371 bound_to 10713
  141.1080  133.9663  157.2963 LP  0  0  0  0  0  0  0  0  0  0  0  0  # atno 17394 bound_to 11000
  139.9380  135.0194  156.8618 LP  0  0  0  0  0  0  0  0  0  0  0  0  # atno 17395 bound_to 11000

$$$$
