AV-unprocessed.smi:769|AV-procd|sdf|3676|dock7
  -GOLD-   22720 1 93D 1   1.00000     0.00000
 Structure written by MMmdl.
 50 52  0  0  0  0  0  0  0  0  2 V2000
  144.8760  137.2789  152.4453 O   0  0  0  0  0  0  0  0  0  0  0  0
  146.0338  136.8873  152.3005 C   0  0  0  0  0  0  0  0  0  0  0  0
  147.1073  137.6259  152.6164 N   0  0  0  0  0  0  0  0  0  0  0  0
  147.0592  138.9703  153.1783 C   0  0  0  0  0  0  0  0  0  0  0  0
  147.6034  138.9943  154.6204 C   0  0  0  0  0  0  0  0  0  0  0  0
  148.8819  139.6962  154.7212 N   0  0  0  0  0  0  0  0  0  0  0  0
  149.9416  138.8076  155.2167 C   0  0  0  0  0  0  0  0  0  0  0  0
  151.2676  139.5816  155.3452 C   0  0  0  0  0  0  0  0  0  0  0  0
  151.0730  140.6958  156.2772 N   0  0  0  0  0  0  0  0  0  0  0  0
  151.6538  140.8349  157.4933 C   0  0  0  0  0  0  0  0  0  0  0  0
  152.4453  140.0020  157.9377 O   0  0  0  0  0  0  0  0  0  0  0  0
  151.3524  142.1000  158.3215 C   0  0  0  0  0  0  0  0  0  0  0  0
  151.6866  143.4489  157.6514 C   0  0  0  0  0  0  0  0  0  0  0  0
  152.2785  143.9112  158.9857 C   0  0  0  0  0  0  0  0  0  0  0  0
  152.4282  142.4362  159.3688 C   0  0  0  0  0  0  0  0  0  0  0  0
  150.0517  141.6114  155.7619 C   0  0  0  0  0  0  0  0  0  0  0  0
  148.7239  140.8403  155.6262 C   0  0  0  0  0  0  0  0  0  0  0  0
  146.3948  135.6937  151.7975 N   0  0  0  0  0  0  0  0  0  0  0  0
  145.5658  134.6287  151.3496 C   0  0  0  0  0  0  0  0  0  0  0  0
  146.1927  133.5518  150.6837 C   0  0  0  0  0  0  0  0  0  0  0  0
  145.4166  132.4650  150.2322 C   0  0  0  0  0  0  0  0  0  0  0  0
  144.0836  132.4561  150.4461 N   0  3  0  0  0  0  0  0  0  0  0  0
  143.4410  133.4545  151.0890 C   0  0  0  0  0  0  0  0  0  0  0  0
  144.1646  134.5676  151.5638 C   0  0  0  0  0  0  0  0  0  0  0  0
  148.0238  137.2313  152.4620 H   0  0  0  0  0  0  0  0  0  0  0  0
  147.6121  139.6458  152.5252 H   0  0  0  0  0  0  0  0  0  0  0  0
  146.0214  139.3041  153.1667 H   0  0  0  0  0  0  0  0  0  0  0  0
  146.8722  139.5074  155.2471 H   0  0  0  0  0  0  0  0  0  0  0  0
  147.7000  137.9830  155.0189 H   0  0  0  0  0  0  0  0  0  0  0  0
  149.6577  138.3830  156.1812 H   0  0  0  0  0  0  0  0  0  0  0  0
  150.0902  137.9752  154.5306 H   0  0  0  0  0  0  0  0  0  0  0  0
  152.0645  138.9006  155.6369 H   0  0  0  0  0  0  0  0  0  0  0  0
  151.5676  139.9758  154.3730 H   0  0  0  0  0  0  0  0  0  0  0  0
  150.3403  142.1173  158.7297 H   0  0  0  0  0  0  0  0  0  0  0  0
  152.4408  143.4026  156.8643 H   0  0  0  0  0  0  0  0  0  0  0  0
  150.8153  144.0213  157.3324 H   0  0  0  0  0  0  0  0  0  0  0  0
  153.2175  144.4593  158.9035 H   0  0  0  0  0  0  0  0  0  0  0  0
  151.5540  144.4377  159.6089 H   0  0  0  0  0  0  0  0  0  0  0  0
  152.1448  142.2147  160.3983 H   0  0  0  0  0  0  0  0  0  0  0  0
  153.4148  142.0338  159.1306 H   0  0  0  0  0  0  0  0  0  0  0  0
  149.9023  142.4815  156.4023 H   0  0  0  0  0  0  0  0  0  0  0  0
  150.3660  142.0031  154.7932 H   0  0  0  0  0  0  0  0  0  0  0  0
  147.9545  141.5095  155.2393 H   0  0  0  0  0  0  0  0  0  0  0  0
  148.3883  140.4980  156.6066 H   0  0  0  0  0  0  0  0  0  0  0  0
  147.3863  135.5514  151.6725 H   0  0  0  0  0  0  0  0  0  0  0  0
  147.2597  133.5575  150.5128 H   0  0  0  0  0  0  0  0  0  0  0  0
  145.8193  131.6084  149.7114 H   0  0  0  0  0  0  0  0  0  0  0  0
  142.3745  133.3314  151.2099 H   0  0  0  0  0  0  0  0  0  0  0  0
  143.6310  135.3429  152.0915 H   0  0  0  0  0  0  0  0  0  0  0  0
  143.5394  131.6598  150.1124 H   0  0  0  0  0  0  0  0  0  0  0  0
  1  2  2  0  0  0  0
  2  3  1  0  0  0  0
  2 18  1  0  0  0  0
  3  4  1  0  0  0  0
  3 25  1  0  0  0  0
  4  5  1  0  0  0  0
  4 26  1  0  0  0  0
  4 27  1  0  0  0  0
  5  6  1  0  0  0  0
  5 28  1  0  0  0  0
  5 29  1  0  0  0  0
  6 17  1  0  0  0  0
  6  7  1  0  0  0  0
  7  8  1  0  0  0  0
  7 30  1  0  0  0  0
  7 31  1  0  0  0  0
  8  9  1  0  0  0  0
  8 32  1  0  0  0  0
  8 33  1  0  0  0  0
  9 10  1  0  0  0  0
  9 16  1  0  0  0  0
 10 11  2  0  0  0  0
 10 12  1  0  0  0  0
 12 15  1  0  0  0  0
 12 13  1  0  0  0  0
 12 34  1  0  0  0  0
 13 14  1  0  0  0  0
 13 35  1  0  0  0  0
 13 36  1  0  0  0  0
 14 15  1  0  0  0  0
 14 37  1  0  0  0  0
 14 38  1  0  0  0  0
 15 39  1  0  0  0  0
 15 40  1  0  0  0  0
 16 17  1  0  0  0  0
 16 41  1  0  0  0  0
 16 42  1  0  0  0  0
 17 43  1  0  0  0  0
 17 44  1  0  0  0  0
 18 19  1  0  0  0  0
 18 45  1  0  0  0  0
 19 24  1  0  0  0  0
 19 20  2  0  0  0  0
 20 21  1  0  0  0  0
 20 46  1  0  0  0  0
 21 22  2  0  0  0  0
 21 47  1  0  0  0  0
 22 23  1  0  0  0  0
 22 50  1  0  0  0  0
 23 24  2  0  0  0  0
 23 48  1  0  0  0  0
 24 49  1  0  0  0  0
M  CHG  1  22   1
M  END
> <s_m_source_file>
AV-unprocessed.smi

> <i_m_source_file_index>
769

> <i_lp_mmshare_version>
43012

> <i_f3d_flags>
0

> <s_epik_input>
W2NIXTFbY0hdbltjSF1bY0hdYzFbTkhdQyg9TylbTkhdW0NIMl1bQ0gyXU4yW0NIMl1bQ0gyXU4oW0NIMl1bQ0gyXTIpQyg9TylbQ0hdM1tDSDJdW0NIMl1bQ0gyXTM=

> <s_epik_cmdline>
J2VwaWtfcHl0aG9uJywgJy1waCcsICc3LjAnLCAnLXRuJywgJzgnLCAnLW1hJywgJzIwMCcsICctbWV0YWxfYmluZGluZycsICctaW1hZScsICc8aW5maWxlLm1hZT4nLCAnLW9tYWUnLCAnPG91dGZpbGUubWFlPic=

> <r_epik_Ionization_Penalty>
1.23972

> <r_epik_Ionization_Penalty_Charging>
0.991409

> <r_epik_Ionization_Penalty_Neutral>
0.248308

> <r_epik_State_Penalty>
1.32283

> <r_epik_Charging_Adjusted_Penalty>
2.31424

> <i_epik_Tot_Q>
1

> <i_epik_Tot_abs_Q>
1

> <r_epik_Metal_State_Penalty>
1.42026

> <b_epik_Metal_Only>
0

> <s_lp_Force_Field>
OPLS_2005

> <r_lp_Energy>
53.8523

> <b_lp_Chiralities_Consistent>
1

> <s_lp_Variant>
AV-unprocessed.smi:769-3

> <Gold.Version>
5.8.1

> <Gold.Id.Protein>
6NUR|6NUR_protein|mol2

> <Gold.PLP.Fitness>
50.1013

> <Gold.PLP.PLP>
-43.5723

> <Gold.PLP.part.hbond>
-3.0000

> <Gold.PLP.part.metal>
0.0000

> <Gold.PLP.part.buried>
-4.2369

> <Gold.PLP.part.nonpolar>
-37.0592

> <Gold.PLP.part.repulsive>
0.4514

> <Gold.PLP.ligand.clash>
0.0000

> <Gold.PLP.ligand.torsion>
1.4665

> <Gold.PLP.Chemscore.Hbond>
3.0000

> <Gold.PLP.Chemscore.CHOScore>
0.0000

> <Gold.PLP.Chemscore.Metal>
0.0000

> <Gold.Chemscore.Hbonds>
donor molecule, donor type, donor heavy atom, donor atom, acceptor molecule, acceptor atom, score
      L1  H     3    25       P1  7948  0.88
      L1  H    18    45       P1  7948  0.94
      P1  H  7997  8010       L1    11  0.32

> <Gold.PLP.Chemscore.Internal.Correction>
0.4620

> <Gold.Rescore>
     Score         DG    S(hbond)    S(metal)    S(lipo)     H(rot)  DE(clash)    DE(int)     intcor
     20.43     -23.12       2.81        0.00     108.14       1.72       0.15       2.54       ----

> <Gold.Chemscore.Fitness>
20.4283

> <Gold.Chemscore.DG>
-23.1223

> <Gold.Chemscore.ZeroCoef>
-5.4800

> <Gold.Chemscore.Hbond>
2.8150

> <Gold.Chemscore.Metal>
0.0000

> <Gold.Chemscore.Lipo>
108.1356

> <Gold.Chemscore.Internal_Hbond>
0.0000

> <Gold.Chemscore.DEClash>
0.1521

> <Gold.Chemscore.DEInternal>
2.5419

> <Gold.Chemscore.Rot>
1.7233

> <Gold.Chemscore.Internal.Correction>
   9.000000E+99

> <Gold.Chemscore.Hbonds>
donor molecule, donor type, donor heavy atom, donor atom, acceptor molecule, acceptor atom, score
      L1  H     3    25       P1  7948  0.83
      L1  H    18    45       P1  7948  0.90
      P1  H  7997  8010       L1    11  0.24

> <Gold.Chemscore.Hbond.Weighted>
-9.4020

> <Gold.Chemscore.Metal.Weighted>
-0.0000

> <Gold.Chemscore.Lipo.Weighted>
-12.6519

> <Gold.Chemscore.Internal_Hbond.Weighted>
0.0000

> <Gold.Chemscore.DEClash.Weighted>
0.1521

> <Gold.Chemscore.DEInternal.Weighted>
2.5419

> <Gold.Chemscore.Rot.Weighted>
4.4116

> <Gold.Chemscore.Internal.Correction.Weighted>
   9.000000E+99

> <Gold.Protein.RotatedTorsions>
[ 6907 6896 6895 6894 ] final  179.21 input  -60.11 | X-H torsion
[ 7974 7965 7964 7962 ] final   46.33 input  175.53 | X-H torsion
[ 8008 7997 7996 7995 ] final   54.45 input   59.86 | X-H torsion
[ 10167 10162 10161 10158 ] final  143.51 input  -65.29 | X-H torsion
[ 10718 10713 10712 10709 ] final   -9.19 input   66.30 | X-H torsion
[ 10763 10752 10751 10750 ] final  -91.63 input  -60.55 | X-H torsion
[ 11005 11000 10999 10996 ] final   -1.40 input  -57.11 | X-H torsion

> <Gold.Protein.ActiveResidues>
 VAL166  LYS551  ARG553  GLY616  TRP617  ASP618  TYR619  PRO620  LYS621  CYS622 
 ASP623  PHE694  ASN695  SER759  ASP760  ASP761  ALA762  ILE779  LEU786  VAL792 
 PHE793  MET794  SER795  GLU796  ALA797  LYS798  CYS799  TRP800  GLU811  SER814 

> <Gold.Protein.RotatedAtoms>
  151.6753  133.3313  159.3206 H   0  0  0  0  0  0  0  0  0  0  0  0  # atno 6907 bound_to 6896
  150.7848  134.6827  159.6462 H   0  0  0  0  0  0  0  0  0  0  0  0  # atno 6908 bound_to 6896
  152.3915  134.6437  160.0158 H   0  0  0  0  0  0  0  0  0  0  0  0  # atno 6909 bound_to 6896
  146.0399  139.4868  142.9784 H   0  0  0  0  0  0  0  0  0  0  0  0  # atno 7974 bound_to 7965
  155.4849  140.3469  155.4345 H   0  0  0  0  0  0  0  0  0  0  0  0  # atno 8008 bound_to 7997
  156.1015  140.1436  156.9490 H   0  0  0  0  0  0  0  0  0  0  0  0  # atno 8009 bound_to 7997
  154.4696  140.0905  156.7089 H   0  0  0  0  0  0  0  0  0  0  0  0  # atno 8010 bound_to 7997
  139.4968  144.6035  151.6429 H   0  0  0  0  0  0  0  0  0  0  0  0  # atno 10167 bound_to 10162
  156.6916  130.5067  149.5942 H   0  0  0  0  0  0  0  0  0  0  0  0  # atno 10718 bound_to 10713
  154.6780  135.5261  153.8225 H   0  0  0  0  0  0  0  0  0  0  0  0  # atno 10763 bound_to 10752
  153.0545  135.6545  154.0620 H   0  0  0  0  0  0  0  0  0  0  0  0  # atno 10764 bound_to 10752
  154.0511  135.2969  155.3320 H   0  0  0  0  0  0  0  0  0  0  0  0  # atno 10765 bound_to 10752
  140.6469  133.9439  155.8357 H   0  0  0  0  0  0  0  0  0  0  0  0  # atno 11005 bound_to 11000
  145.6901  141.0166  143.1560 LP  0  0  0  0  0  0  0  0  0  0  0  0  # atno 17320 bound_to 7965
  144.7070  139.8522  143.7427 LP  0  0  0  0  0  0  0  0  0  0  0  0  # atno 17321 bound_to 7965
  140.5691  144.0139  150.6207 LP  0  0  0  0  0  0  0  0  0  0  0  0  # atno 17342 bound_to 10162
  140.3251  143.3113  152.0745 LP  0  0  0  0  0  0  0  0  0  0  0  0  # atno 17343 bound_to 10162
  156.1793  130.6488  151.0932 LP  0  0  0  0  0  0  0  0  0  0  0  0  # atno 17370 bound_to 10713
  157.7006  131.0777  150.6831 LP  0  0  0  0  0  0  0  0  0  0  0  0  # atno 17371 bound_to 10713
  141.0566  134.0408  157.3714 LP  0  0  0  0  0  0  0  0  0  0  0  0  # atno 17394 bound_to 11000
  139.9060  135.0179  156.7486 LP  0  0  0  0  0  0  0  0  0  0  0  0  # atno 17395 bound_to 11000

$$$$
