AV-unprocessed.smi:311|AV-procd|sdf|2302|dock1
  -GOLD-   2262022203D 1   1.00000     0.00000
 Structure written by MMmdl.
 44 46  0  0  0  0  0  0  0  0  2 V2000
  147.1572  134.0339  162.4929 C   0  0  0  0  0  0  0  0  0  0  0  0
  147.3697  135.1637  161.5269 C   0  0  0  0  0  0  0  0  0  0  0  0
  147.2005  136.4112  161.9320 N   0  0  0  0  0  0  0  0  0  0  0  0
  147.4641  137.2144  160.8182 O   0  0  0  0  0  0  0  0  0  0  0  0
  147.7867  136.4090  159.7744 C   0  0  0  0  0  0  0  0  0  0  0  0
  148.1000  137.0839  158.4823 C   0  0  0  0  0  0  0  0  0  0  0  0
  147.7513  135.0959  160.1563 C   0  0  0  0  0  0  0  0  0  0  0  0
  148.0426  133.8651  159.3330 C   0  0  0  0  0  0  0  0  0  0  0  0
  148.8409  134.2005  158.0671 C   0  0  0  0  0  0  0  0  0  0  0  0
  150.0478  134.4437  158.1154 O   0  0  0  0  0  0  0  0  0  0  0  0
  148.1423  134.2042  156.9224 N   0  0  0  0  0  0  0  0  0  0  0  0
  148.7002  134.5035  155.6079 C   0  0  1  0  0  0  0  0  0  0  0  0
  150.1261  133.9604  155.3890 C   0  0  0  0  0  0  0  0  0  0  0  0
  150.1606  133.4803  153.9240 C   0  0  0  0  0  0  0  0  0  0  0  0
  148.8459  133.8454  153.3623 N   0  3  1  0  0  0  0  0  0  0  0  0
  148.3643  133.0628  152.2032 C   0  0  0  0  0  0  0  0  0  0  0  0
  147.0218  133.6475  151.7182 C   0  0  0  0  0  0  0  0  0  0  0  0
  145.9936  133.7522  152.8638 C   0  0  0  0  0  0  0  0  0  0  0  0
  146.5853  134.4954  154.0773 C   0  0  0  0  0  0  0  0  0  0  0  0
  147.9055  133.8266  154.4927 C   0  0  2  0  0  0  0  0  0  0  0  0
  146.6123  133.2154  162.0223 H   0  0  0  0  0  0  0  0  0  0  0  0
  146.5848  134.3508  163.3656 H   0  0  0  0  0  0  0  0  0  0  0  0
  148.1102  133.6394  162.8453 H   0  0  0  0  0  0  0  0  0  0  0  0
  147.9204  136.4157  157.6399 H   0  0  0  0  0  0  0  0  0  0  0  0
  149.1445  137.3940  158.4531 H   0  0  0  0  0  0  0  0  0  0  0  0
  147.4792  137.9694  158.3454 H   0  0  0  0  0  0  0  0  0  0  0  0
  148.6083  133.1329  159.9102 H   0  0  0  0  0  0  0  0  0  0  0  0
  147.1165  133.3685  159.0404 H   0  0  0  0  0  0  0  0  0  0  0  0
  147.1558  133.9926  156.9675 H   0  0  0  0  0  0  0  0  0  0  0  0
  148.6966  135.5831  155.4423 H   0  0  0  0  0  0  0  0  0  0  0  0
  150.8727  134.7318  155.5817 H   0  0  0  0  0  0  0  0  0  0  0  0
  150.3406  133.1239  156.0560 H   0  0  0  0  0  0  0  0  0  0  0  0
  150.9660  133.9429  153.3531 H   0  0  0  0  0  0  0  0  0  0  0  0
  150.2977  132.3984  153.8882 H   0  0  0  0  0  0  0  0  0  0  0  0
  149.1033  133.1013  151.4022 H   0  0  0  0  0  0  0  0  0  0  0  0
  148.2460  132.0152  152.4845 H   0  0  0  0  0  0  0  0  0  0  0  0
  147.1923  134.6399  151.2985 H   0  0  0  0  0  0  0  0  0  0  0  0
  146.6187  133.0379  150.9089 H   0  0  0  0  0  0  0  0  0  0  0  0
  145.0933  134.2594  152.5153 H   0  0  0  0  0  0  0  0  0  0  0  0
  145.6859  132.7505  153.1667 H   0  0  0  0  0  0  0  0  0  0  0  0
  146.7567  135.5425  153.8238 H   0  0  0  0  0  0  0  0  0  0  0  0
  145.8771  134.4848  154.9065 H   0  0  0  0  0  0  0  0  0  0  0  0
  147.7154  132.7863  154.7678 H   0  0  0  0  0  0  0  0  0  0  0  0
  148.9183  134.8085  153.0666 H   0  0  0  0  0  0  0  0  0  0  0  0
  1  2  1  0  0  0  0
  1 21  1  0  0  0  0
  1 22  1  0  0  0  0
  1 23  1  0  0  0  0
  2  7  1  0  0  0  0
  2  3  2  0  0  0  0
  3  4  1  0  0  0  0
  4  5  1  0  0  0  0
  5  6  1  0  0  0  0
  5  7  2  0  0  0  0
  6 24  1  0  0  0  0
  6 25  1  0  0  0  0
  6 26  1  0  0  0  0
  7  8  1  0  0  0  0
  8  9  1  0  0  0  0
  8 27  1  0  0  0  0
  8 28  1  0  0  0  0
  9 10  2  0  0  0  0
  9 11  1  0  0  0  0
 11 12  1  0  0  0  0
 11 29  1  0  0  0  0
 12 20  1  0  0  0  0
 12 13  1  0  0  0  0
 12 30  1  0  0  0  0
 13 14  1  0  0  0  0
 13 31  1  0  0  0  0
 13 32  1  0  0  0  0
 14 15  1  0  0  0  0
 14 33  1  0  0  0  0
 14 34  1  0  0  0  0
 15 20  1  0  0  0  0
 15 16  1  0  0  0  0
 15 44  1  0  0  0  0
 16 17  1  0  0  0  0
 16 35  1  0  0  0  0
 16 36  1  0  0  0  0
 17 18  1  0  0  0  0
 17 37  1  0  0  0  0
 17 38  1  0  0  0  0
 18 19  1  0  0  0  0
 18 39  1  0  0  0  0
 18 40  1  0  0  0  0
 19 20  1  0  0  0  0
 19 41  1  0  0  0  0
 19 42  1  0  0  0  0
 20 43  1  0  0  0  0
M  CHG  1  15   1
M  END
> <s_m_source_file>
AV-unprocessed.smi

> <i_m_source_file_index>
311

> <i_lp_mmshare_version>
43012

> <i_f3d_flags>
0

> <s_epik_input>
W0NIM11jMW5vYyhbQ0gzXSljMVtDSDJdQyg9TylbTkhdW0NASF0oW0NIMl1bQ0gyXTIpW0NAQEhdKE4yMylbQ0gyXVtDSDJdW0NIMl1bQ0gyXTM=

> <s_epik_cmdline>
J2VwaWtfcHl0aG9uJywgJy1waCcsICc3LjAnLCAnLXRuJywgJzgnLCAnLW1hJywgJzIwMCcsICctbWV0YWxfYmluZGluZycsICctaW1hZScsICc8aW5maWxlLm1hZT4nLCAnLW9tYWUnLCAnPG91dGZpbGUubWFlPic=

> <r_epik_Ionization_Penalty>
0.00173669

> <r_epik_Ionization_Penalty_Charging>
0.0017366

> <r_epik_Ionization_Penalty_Neutral>
9.2145e-08

> <r_epik_State_Penalty>
0.00117499

> <r_epik_Charging_Adjusted_Penalty>
0.00291159

> <i_epik_Tot_Q>
1

> <i_epik_Tot_abs_Q>
1

> <r_epik_Metal_State_Penalty>
-0

> <b_epik_Metal_Only>
0

> <s_lp_Force_Field>
OPLS_2005

> <r_lp_Energy>
29.9852

> <b_lp_Chiralities_Consistent>
1

> <s_lp_Variant>
AV-unprocessed.smi:311-6

> <Gold.Version>
5.8.1

> <Gold.Id.Protein>
6NUR|6NUR_protein|mol2

> <Gold.PLP.Fitness>
42.0936

> <Gold.PLP.PLP>
-29.5869

> <Gold.PLP.part.hbond>
-4.0000

> <Gold.PLP.part.metal>
0.0000

> <Gold.PLP.part.buried>
-3.5251

> <Gold.PLP.part.nonpolar>
-21.1521

> <Gold.PLP.part.repulsive>
0.0071

> <Gold.PLP.ligand.clash>
0.0000

> <Gold.PLP.ligand.torsion>
0.8087

> <Gold.PLP.Chemscore.Hbond>
4.6976

> <Gold.PLP.Chemscore.CHOScore>
0.0000

> <Gold.PLP.Chemscore.Metal>
0.0000

> <Gold.Chemscore.Hbonds>
donor molecule, donor type, donor heavy atom, donor atom, acceptor molecule, acceptor atom, score
      L1  H    15    44       P1  7948  1.60
      P1  H  6896  6907       L1    10  0.70
      P1  H  6931  6943       L1     4  0.29
      P1  H  6934  6947       L1     4  1.00

> <Gold.PLP.Chemscore.Internal.Correction>
0.0312

> <Gold.Rescore>
     Score         DG    S(hbond)    S(metal)    S(lipo)     H(rot)  DE(clash)    DE(int)     intcor
     16.82     -19.98       3.22        0.00      61.65       1.36       0.03       3.13       ----

> <Gold.Chemscore.Fitness>
16.8208

> <Gold.Chemscore.DG>
-19.9794

> <Gold.Chemscore.ZeroCoef>
-5.4800

> <Gold.Chemscore.Hbond>
3.2215

> <Gold.Chemscore.Metal>
0.0000

> <Gold.Chemscore.Lipo>
61.6455

> <Gold.Chemscore.Internal_Hbond>
0.0000

> <Gold.Chemscore.DEClash>
0.0310

> <Gold.Chemscore.DEInternal>
3.1276

> <Gold.Chemscore.Rot>
1.3567

> <Gold.Chemscore.Internal.Correction>
   9.000000E+99

> <Gold.Chemscore.Hbonds>
donor molecule, donor type, donor heavy atom, donor atom, acceptor molecule, acceptor atom, score
      L1  H    15    44       P1  7948  0.12
      P1  H  6896  6907       L1    10  0.60
      P1  H  6931  6943       L1     4  0.02
      P1  H  6934  6947       L1     4  0.93

> <Gold.Chemscore.Hbond.Weighted>
-10.7599

> <Gold.Chemscore.Metal.Weighted>
-0.0000

> <Gold.Chemscore.Lipo.Weighted>
-7.2125

> <Gold.Chemscore.Internal_Hbond.Weighted>
0.0000

> <Gold.Chemscore.DEClash.Weighted>
0.0310

> <Gold.Chemscore.DEInternal.Weighted>
3.1276

> <Gold.Chemscore.Rot.Weighted>
3.4731

> <Gold.Chemscore.Internal.Correction.Weighted>
   9.000000E+99

> <Gold.Protein.RotatedTorsions>
[ 6907 6896 6895 6894 ] final -100.98 input  -60.11 | X-H torsion
[ 7974 7965 7964 7962 ] final    6.45 input  175.53 | X-H torsion
[ 8008 7997 7996 7995 ] final  -71.76 input   59.86 | X-H torsion
[ 10167 10162 10161 10158 ] final  144.08 input  -65.29 | X-H torsion
[ 10718 10713 10712 10709 ] final -166.36 input   66.30 | X-H torsion
[ 10763 10752 10751 10750 ] final    0.39 input  -60.55 | X-H torsion
[ 11005 11000 10999 10996 ] final   16.39 input  -57.11 | X-H torsion

> <Gold.Protein.ActiveResidues>
 VAL166  LYS551  ARG553  GLY616  TRP617  ASP618  TYR619  PRO620  LYS621  CYS622 
 ASP623  PHE694  ASN695  SER759  ASP760  ASP761  ALA762  ILE779  LEU786  VAL792 
 PHE793  MET794  SER795  GLU796  ALA797  LYS798  CYS799  TRP800  GLU811  SER814 

> <Gold.Protein.RotatedAtoms>
  150.7137  134.0803  159.3895 H   0  0  0  0  0  0  0  0  0  0  0  0  # atno 6907 bound_to 6896
  151.8787  135.0459  160.0496 H   0  0  0  0  0  0  0  0  0  0  0  0  # atno 6908 bound_to 6896
  152.2585  133.5241  159.5404 H   0  0  0  0  0  0  0  0  0  0  0  0  # atno 6909 bound_to 6896
  146.2434  140.0232  142.8396 H   0  0  0  0  0  0  0  0  0  0  0  0  # atno 7974 bound_to 7965
  154.5113  140.0809  156.7995 H   0  0  0  0  0  0  0  0  0  0  0  0  # atno 8008 bound_to 7997
  155.3778  140.3426  155.4227 H   0  0  0  0  0  0  0  0  0  0  0  0  # atno 8009 bound_to 7997
  156.1576  140.1578  156.8653 H   0  0  0  0  0  0  0  0  0  0  0  0  # atno 8010 bound_to 7997
  139.4955  144.5996  151.6509 H   0  0  0  0  0  0  0  0  0  0  0  0  # atno 10167 bound_to 10162
  156.6668  130.9068  151.3037 H   0  0  0  0  0  0  0  0  0  0  0  0  # atno 10718 bound_to 10713
  153.3213  135.6969  153.7028 H   0  0  0  0  0  0  0  0  0  0  0  0  # atno 10763 bound_to 10752
  153.5867  135.3487  155.2896 H   0  0  0  0  0  0  0  0  0  0  0  0  # atno 10764 bound_to 10752
  154.8598  135.4308  154.2378 H   0  0  0  0  0  0  0  0  0  0  0  0  # atno 10765 bound_to 10752
  140.4477  134.1256  155.7698 H   0  0  0  0  0  0  0  0  0  0  0  0  # atno 11005 bound_to 11000
  145.1222  140.9469  143.4594 LP  0  0  0  0  0  0  0  0  0  0  0  0  # atno 17320 bound_to 7965
  145.0470  139.3213  143.5948 LP  0  0  0  0  0  0  0  0  0  0  0  0  # atno 17321 bound_to 7965
  140.5643  144.0216  150.6185 LP  0  0  0  0  0  0  0  0  0  0  0  0  # atno 17342 bound_to 10162
  140.3313  143.3076  152.0684 LP  0  0  0  0  0  0  0  0  0  0  0  0  # atno 17343 bound_to 10162
  157.7091  130.9419  150.1028 LP  0  0  0  0  0  0  0  0  0  0  0  0  # atno 17370 bound_to 10713
  156.1969  130.3658  149.8838 LP  0  0  0  0  0  0  0  0  0  0  0  0  # atno 17371 bound_to 10713
  141.1678  133.8669  157.1663 LP  0  0  0  0  0  0  0  0  0  0  0  0  # atno 17394 bound_to 11000
  140.0027  135.0021  157.0226 LP  0  0  0  0  0  0  0  0  0  0  0  0  # atno 17395 bound_to 11000

$$$$
