AV-unprocessed.smi:1762|AV-procd|sdf|7126|dock10
  -GOLD-   22720 8363D 1   1.00000     0.00000
 Structure written by MMmdl.
 52 53  0  0  0  0  0  0  0  0  3 V2000
  150.5983  136.2150  158.3403 C   0  0  0  0  0  0  0  0  0  0  0  0
  150.4318  137.5645  159.0616 C   0  0  1  0  0  0  0  0  0  0  0  0
  150.3942  138.7708  158.1063 C   0  0  0  0  0  0  0  0  0  0  0  0
  149.1097  138.8396  157.3500 N   0  3  2  0  0  0  0  0  0  0  0  0
  149.0816  139.9473  156.3349 C   0  0  1  0  0  0  0  0  0  0  0  0
  150.4589  140.0868  155.6408 C   0  0  0  0  0  0  0  0  0  0  0  0
  150.8738  139.1426  154.9593 O   0  0  0  0  0  0  0  0  0  0  0  0
  151.0462  141.2793  155.9376 N   0  5  0  0  0  0  0  0  0  0  0  0
  150.7310  142.0713  157.1252 C   0  0  0  0  0  0  0  0  0  0  0  0
  151.6767  141.6914  158.2884 C   0  0  0  0  0  0  0  0  0  0  0  0
  151.9546  142.8260  159.2691 C   0  0  0  0  0  0  0  0  0  0  0  0
  152.1482  144.1466  158.8034 C   0  0  0  0  0  0  0  0  0  0  0  0
  152.3862  145.1666  159.7448 C   0  0  0  0  0  0  0  0  0  0  0  0
  152.4179  144.8337  161.1125 C   0  0  0  0  0  0  0  0  0  0  0  0
  152.2072  143.4899  161.4799 C   0  0  0  0  0  0  0  0  0  0  0  0
  151.9764  142.5045  160.5860 N   0  0  0  0  0  0  0  0  0  0  0  0
  147.9264  139.8397  155.2816 C   0  0  0  0  0  0  0  0  0  0  0  0
  147.8020  138.4583  154.6043 C   0  0  0  0  0  0  0  0  0  0  0  0
  147.9817  140.9492  154.2131 C   0  0  0  0  0  0  0  0  0  0  0  0
  147.9809  138.8433  158.3203 C   0  0  0  0  0  0  0  0  0  0  0  0
  148.0457  137.6165  159.2485 C   0  0  2  0  0  0  0  0  0  0  0  0
  146.9414  137.6419  160.3112 C   0  0  0  0  0  0  0  0  0  0  0  0
  149.2976  137.5873  159.9239 O   0  0  0  0  0  0  0  0  0  0  0  0
  151.5457  136.1808  157.8015 H   0  0  0  0  0  0  0  0  0  0  0  0
  149.8081  136.0323  157.6124 H   0  0  0  0  0  0  0  0  0  0  0  0
  150.5959  135.3902  159.0531 H   0  0  0  0  0  0  0  0  0  0  0  0
  151.3013  137.6829  159.7089 H   0  0  0  0  0  0  0  0  0  0  0  0
  150.5163  139.6928  158.6775 H   0  0  0  0  0  0  0  0  0  0  0  0
  151.2561  138.7055  157.4428 H   0  0  0  0  0  0  0  0  0  0  0  0
  148.8784  140.8552  156.9089 H   0  0  0  0  0  0  0  0  0  0  0  0
  150.8008  143.1430  156.9343 H   0  0  0  0  0  0  0  0  0  0  0  0
  149.7017  141.8988  157.4403 H   0  0  0  0  0  0  0  0  0  0  0  0
  151.2563  140.8515  158.8438 H   0  0  0  0  0  0  0  0  0  0  0  0
  152.6302  141.3393  157.8914 H   0  0  0  0  0  0  0  0  0  0  0  0
  152.1183  144.3720  157.7473 H   0  0  0  0  0  0  0  0  0  0  0  0
  152.5402  146.1861  159.4235 H   0  0  0  0  0  0  0  0  0  0  0  0
  152.5979  145.5897  161.8624 H   0  0  0  0  0  0  0  0  0  0  0  0
  152.2218  143.1992  162.5199 H   0  0  0  0  0  0  0  0  0  0  0  0
  146.9888  140.0277  155.8032 H   0  0  0  0  0  0  0  0  0  0  0  0
  148.6399  138.2578  153.9369 H   0  0  0  0  0  0  0  0  0  0  0  0
  146.8948  138.4050  154.0024 H   0  0  0  0  0  0  0  0  0  0  0  0
  147.7567  137.6468  155.3296 H   0  0  0  0  0  0  0  0  0  0  0  0
  148.8351  140.8312  153.5447 H   0  0  0  0  0  0  0  0  0  0  0  0
  148.0533  141.9350  154.6736 H   0  0  0  0  0  0  0  0  0  0  0  0
  147.0831  140.9411  153.5958 H   0  0  0  0  0  0  0  0  0  0  0  0
  148.0043  139.7666  158.9014 H   0  0  0  0  0  0  0  0  0  0  0  0
  147.0195  138.8067  157.8126 H   0  0  0  0  0  0  0  0  0  0  0  0
  147.9229  136.7070  158.6602 H   0  0  0  0  0  0  0  0  0  0  0  0
  145.9530  137.6439  159.8510 H   0  0  0  0  0  0  0  0  0  0  0  0
  147.0194  138.5283  160.9417 H   0  0  0  0  0  0  0  0  0  0  0  0
  147.0039  136.7668  160.9583 H   0  0  0  0  0  0  0  0  0  0  0  0
  149.0363  137.9817  156.8221 H   0  0  0  0  0  0  0  0  0  0  0  0
  1  2  1  0  0  0  0
  1 24  1  0  0  0  0
  1 25  1  0  0  0  0
  1 26  1  0  0  0  0
  2 23  1  0  0  0  0
  2  3  1  0  0  0  0
  2 27  1  0  0  0  0
  3  4  1  0  0  0  0
  3 28  1  0  0  0  0
  3 29  1  0  0  0  0
  4  5  1  0  0  0  0
  4 20  1  0  0  0  0
  4 52  1  0  0  0  0
  5  6  1  0  0  0  0
  5 17  1  0  0  0  0
  5 30  1  0  0  0  0
  6  7  2  0  0  0  0
  6  8  1  0  0  0  0
  8  9  1  0  0  0  0
  9 10  1  0  0  0  0
  9 31  1  0  0  0  0
  9 32  1  0  0  0  0
 10 11  1  0  0  0  0
 10 33  1  0  0  0  0
 10 34  1  0  0  0  0
 11 16  1  0  0  0  0
 11 12  2  0  0  0  0
 12 13  1  0  0  0  0
 12 35  1  0  0  0  0
 13 14  2  0  0  0  0
 13 36  1  0  0  0  0
 14 15  1  0  0  0  0
 14 37  1  0  0  0  0
 15 16  2  0  0  0  0
 15 38  1  0  0  0  0
 17 18  1  0  0  0  0
 17 19  1  0  0  0  0
 17 39  1  0  0  0  0
 18 40  1  0  0  0  0
 18 41  1  0  0  0  0
 18 42  1  0  0  0  0
 19 43  1  0  0  0  0
 19 44  1  0  0  0  0
 19 45  1  0  0  0  0
 20 21  1  0  0  0  0
 20 46  1  0  0  0  0
 20 47  1  0  0  0  0
 21 22  1  0  0  0  0
 21 23  1  0  0  0  0
 21 48  1  0  0  0  0
 22 49  1  0  0  0  0
 22 50  1  0  0  0  0
 22 51  1  0  0  0  0
M  CHG  1   4   1
M  CHG  1   8  -1
M  END
> <s_m_source_file>
AV-unprocessed.smi

> <i_m_source_file_index>
1762

> <i_lp_mmshare_version>
43012

> <i_f3d_flags>
0

> <s_epik_input>
W0NIM11bQ0BASF0xW0NIMl1OKFtDSDJdW0NASF0oTzEpW0NIM10pW0NAQEhdKFtDSF0oW0NIM10pW0NIM10pQyg9TylbTkhdW0NIMl1bQ0gyXWMyW2NIXVtjSF1bY0hdW2NIXW4y

> <s_epik_cmdline>
J2VwaWtfcHl0aG9uJywgJy1waCcsICc3LjAnLCAnLXRuJywgJzgnLCAnLW1hJywgJzIwMCcsICctbWV0YWxfYmluZGluZycsICctaW1hZScsICc8aW5maWxlLm1hZT4nLCAnLW9tYWUnLCAnPG91dGZpbGUubWFlPic=

> <r_epik_Ionization_Penalty>
7.82966

> <r_epik_Ionization_Penalty_Charging>
7.7461

> <r_epik_Ionization_Penalty_Neutral>
0.0835571

> <r_epik_State_Penalty>
8.52273

> <r_epik_Charging_Adjusted_Penalty>
16.2688

> <i_epik_Tot_Q>
0

> <i_epik_Tot_abs_Q>
2

> <r_epik_Metal_State_Penalty>
4.47451

> <b_epik_Metal_Only>
1

> <s_lp_Force_Field>
OPLS_2005

> <r_lp_Energy>
24.57

> <b_lp_Chiralities_Consistent>
1

> <s_lp_Variant>
AV-unprocessed.smi:1762-28

> <Gold.Version>
5.8.1

> <Gold.Id.Protein>
6NUR|6NUR_protein|mol2

> <Gold.PLP.Fitness>
43.7779

> <Gold.PLP.PLP>
-39.8677

> <Gold.PLP.part.hbond>
-2.0000

> <Gold.PLP.part.metal>
0.0000

> <Gold.PLP.part.buried>
-7.2486

> <Gold.PLP.part.nonpolar>
-29.3772

> <Gold.PLP.part.repulsive>
0.1827

> <Gold.PLP.ligand.clash>
0.0000

> <Gold.PLP.ligand.torsion>
1.1626

> <Gold.PLP.Chemscore.Hbond>
2.0000

> <Gold.PLP.Chemscore.CHOScore>
0.0000

> <Gold.PLP.Chemscore.Metal>
0.0000

> <Gold.Chemscore.Hbonds>
donor molecule, donor type, donor heavy atom, donor atom, acceptor molecule, acceptor atom, score
      P1  H  6931  6943       L1    23  0.20
      P1  H  7989  7998       L1     7  0.02

> <Gold.PLP.Chemscore.Internal.Correction>
0.2354

> <Gold.Rescore>
     Score         DG    S(hbond)    S(metal)    S(lipo)     H(rot)  DE(clash)    DE(int)     intcor
     18.33     -19.76       1.81        0.00     105.24       1.60       0.04       1.39       ----

> <Gold.Chemscore.Fitness>
18.3287

> <Gold.Chemscore.DG>
-19.7554

> <Gold.Chemscore.ZeroCoef>
-5.4800

> <Gold.Chemscore.Hbond>
1.8147

> <Gold.Chemscore.Metal>
0.0000

> <Gold.Chemscore.Lipo>
105.2433

> <Gold.Chemscore.Internal_Hbond>
0.0000

> <Gold.Chemscore.DEClash>
0.0402

> <Gold.Chemscore.DEInternal>
1.3865

> <Gold.Chemscore.Rot>
1.6012

> <Gold.Chemscore.Internal.Correction>
   9.000000E+99

> <Gold.Chemscore.Hbonds>
donor molecule, donor type, donor heavy atom, donor atom, acceptor molecule, acceptor atom, score
      P1  H  6931  6943       L1    23  0.14

> <Gold.Chemscore.Hbond.Weighted>
-6.0610

> <Gold.Chemscore.Metal.Weighted>
-0.0000

> <Gold.Chemscore.Lipo.Weighted>
-12.3135

> <Gold.Chemscore.Internal_Hbond.Weighted>
0.0000

> <Gold.Chemscore.DEClash.Weighted>
0.0402

> <Gold.Chemscore.DEInternal.Weighted>
1.3865

> <Gold.Chemscore.Rot.Weighted>
4.0990

> <Gold.Chemscore.Internal.Correction.Weighted>
   9.000000E+99

> <Gold.Protein.RotatedTorsions>
[ 6907 6896 6895 6894 ] final   83.40 input  -60.11 | X-H torsion
[ 7974 7965 7964 7962 ] final -167.71 input  175.53 | X-H torsion
[ 8008 7997 7996 7995 ] final -154.61 input   59.86 | X-H torsion
[ 10167 10162 10161 10158 ] final  -35.99 input  -65.29 | X-H torsion
[ 10718 10713 10712 10709 ] final -150.40 input   66.30 | X-H torsion
[ 10763 10752 10751 10750 ] final  154.87 input  -60.55 | X-H torsion
[ 11005 11000 10999 10996 ] final  128.56 input  -57.11 | X-H torsion

> <Gold.Protein.ActiveResidues>
 VAL166  LYS551  ARG553  GLY616  TRP617  ASP618  TYR619  PRO620  LYS621  CYS622 
 ASP623  PHE694  ASN695  SER759  ASP760  ASP761  ALA762  ILE779  LEU786  VAL792 
 PHE793  MET794  SER795  GLU796  ALA797  LYS798  CYS799  TRP800  GLU811  SER814 

> <Gold.Protein.RotatedAtoms>
  152.5326  134.2900  159.9039 H   0  0  0  0  0  0  0  0  0  0  0  0  # atno 6907 bound_to 6896
  151.2853  133.4184  159.2637 H   0  0  0  0  0  0  0  0  0  0  0  0  # atno 6908 bound_to 6896
  151.0248  134.9511  159.8136 H   0  0  0  0  0  0  0  0  0  0  0  0  # atno 6909 bound_to 6896
  144.7217  140.2478  143.6283 H   0  0  0  0  0  0  0  0  0  0  0  0  # atno 7974 bound_to 7965
  155.6890  140.0753  157.2455 H   0  0  0  0  0  0  0  0  0  0  0  0  # atno 8008 bound_to 7997
  154.4092  140.1668  156.2118 H   0  0  0  0  0  0  0  0  0  0  0  0  # atno 8009 bound_to 7997
  155.9468  140.3380  155.6377 H   0  0  0  0  0  0  0  0  0  0  0  0  # atno 8010 bound_to 7997
  140.7153  143.3439  151.2298 H   0  0  0  0  0  0  0  0  0  0  0  0  # atno 10167 bound_to 10162
  156.4457  130.8143  151.2374 H   0  0  0  0  0  0  0  0  0  0  0  0  # atno 10718 bound_to 10713
  154.1592  135.2810  155.3113 H   0  0  0  0  0  0  0  0  0  0  0  0  # atno 10763 bound_to 10752
  154.6159  135.5483  153.7526 H   0  0  0  0  0  0  0  0  0  0  0  0  # atno 10764 bound_to 10752
  153.0197  135.6427  154.1734 H   0  0  0  0  0  0  0  0  0  0  0  0  # atno 10765 bound_to 10752
  139.9567  134.9611  156.9019 H   0  0  0  0  0  0  0  0  0  0  0  0  # atno 11005 bound_to 11000
  145.8258  139.2063  143.1912 LP  0  0  0  0  0  0  0  0  0  0  0  0  # atno 17320 bound_to 7965
  146.0475  140.8103  142.9798 LP  0  0  0  0  0  0  0  0  0  0  0  0  # atno 17321 bound_to 7965
  139.6953  143.9623  152.2880 LP  0  0  0  0  0  0  0  0  0  0  0  0  # atno 17342 bound_to 10162
  139.9298  144.6748  150.8375 LP  0  0  0  0  0  0  0  0  0  0  0  0  # atno 17343 bound_to 10162
  157.7505  131.0154  150.3502 LP  0  0  0  0  0  0  0  0  0  0  0  0  # atno 17370 bound_to 10713
  156.3870  130.3891  149.7059 LP  0  0  0  0  0  0  0  0  0  0  0  0  # atno 17371 bound_to 10713
  140.5593  134.0550  155.7393 LP  0  0  0  0  0  0  0  0  0  0  0  0  # atno 17394 bound_to 11000
  141.1239  133.9415  157.2674 LP  0  0  0  0  0  0  0  0  0  0  0  0  # atno 17395 bound_to 11000

$$$$
