AV-unprocessed.smi:3005|AV-procd|sdf|11443|dock4
  -GOLD-   2272016373D 1   1.00000     0.00000
 Structure written by MMmdl.
 33 34  0  0  0  0  0  0  0  0  1 V2000
  147.5722  141.8239  154.1016 C   0  0  0  0  0  0  0  0  0  0  0  0
  148.5182  140.7005  154.3975 C   0  0  0  0  0  0  0  0  0  0  0  0
  149.6884  140.9571  155.1172 N   0  0  0  0  0  0  0  0  0  0  0  0
  150.4284  139.8621  155.3080 C   0  0  0  0  0  0  0  0  0  0  0  0
  151.9646  139.7872  156.1700 S   0  0  0  0  0  0  0  0  0  0  0  0
  151.5266  140.7079  157.6735 C   0  0  0  0  0  0  0  0  0  0  0  0
  152.6609  140.6934  158.7022 C   0  0  0  0  0  0  0  0  0  0  0  0
  153.3664  139.6922  158.8259 O   0  0  0  0  0  0  0  0  0  0  0  0
  152.8967  141.8569  159.4405 N   0  0  0  0  0  0  0  0  0  0  0  0
  153.1898  141.8117  160.8654 C   0  0  0  0  0  0  0  0  0  0  0  0
  152.5202  143.1877  160.9372 C   0  0  0  0  0  0  0  0  0  0  0  0
  151.8651  142.8732  159.5887 C   0  0  0  0  0  0  0  0  0  0  0  0
  149.7217  138.4201  154.5960 S   0  0  0  0  0  0  0  0  0  0  0  0
  148.3744  139.3802  154.0377 C   0  0  0  0  0  0  0  0  0  0  0  0
  147.2531  138.7499  153.2721 C   0  0  0  0  0  0  0  0  0  0  0  0
  146.5918  137.6325  154.0820 C   0  0  0  0  0  0  0  0  0  0  0  0
  146.8219  136.3770  153.6896 N   0  0  0  0  0  0  0  0  0  0  0  0
  145.8785  137.8978  155.0477 O   0  0  0  0  0  0  0  0  0  0  0  0
  146.6001  141.6490  154.5631 H   0  0  0  0  0  0  0  0  0  0  0  0
  147.4146  141.9321  153.0285 H   0  0  0  0  0  0  0  0  0  0  0  0
  147.9461  142.7772  154.4762 H   0  0  0  0  0  0  0  0  0  0  0  0
  151.3131  141.7441  157.4095 H   0  0  0  0  0  0  0  0  0  0  0  0
  150.6097  140.2867  158.0841 H   0  0  0  0  0  0  0  0  0  0  0  0
  152.6381  141.0352  161.3993 H   0  0  0  0  0  0  0  0  0  0  0  0
  154.2545  141.8130  161.1018 H   0  0  0  0  0  0  0  0  0  0  0  0
  151.8163  143.3006  161.7623 H   0  0  0  0  0  0  0  0  0  0  0  0
  153.2287  144.0167  160.8912 H   0  0  0  0  0  0  0  0  0  0  0  0
  151.9260  143.6768  158.8542 H   0  0  0  0  0  0  0  0  0  0  0  0
  150.8563  142.4664  159.6866 H   0  0  0  0  0  0  0  0  0  0  0  0
  146.5171  139.5066  152.9967 H   0  0  0  0  0  0  0  0  0  0  0  0
  147.6256  138.3288  152.3375 H   0  0  0  0  0  0  0  0  0  0  0  0
  146.4076  135.6059  154.1927 H   0  0  0  0  0  0  0  0  0  0  0  0
  147.4117  136.2040  152.8885 H   0  0  0  0  0  0  0  0  0  0  0  0
  1  2  1  0  0  0  0
  1 19  1  0  0  0  0
  1 20  1  0  0  0  0
  1 21  1  0  0  0  0
  2 14  2  0  0  0  0
  2  3  1  0  0  0  0
  3  4  2  0  0  0  0
  4  5  1  0  0  0  0
  4 13  1  0  0  0  0
  5  6  1  0  0  0  0
  6  7  1  0  0  0  0
  6 22  1  0  0  0  0
  6 23  1  0  0  0  0
  7  8  2  0  0  0  0
  7  9  1  0  0  0  0
  9 12  1  0  0  0  0
  9 10  1  0  0  0  0
 10 11  1  0  0  0  0
 10 24  1  0  0  0  0
 10 25  1  0  0  0  0
 11 12  1  0  0  0  0
 11 26  1  0  0  0  0
 11 27  1  0  0  0  0
 12 28  1  0  0  0  0
 12 29  1  0  0  0  0
 13 14  1  0  0  0  0
 14 15  1  0  0  0  0
 15 16  1  0  0  0  0
 15 30  1  0  0  0  0
 15 31  1  0  0  0  0
 16 17  1  0  0  0  0
 16 18  2  0  0  0  0
 17 32  1  0  0  0  0
 17 33  1  0  0  0  0
M  END
> <s_m_source_file>
AV-unprocessed.smi

> <i_m_source_file_index>
3005

> <i_lp_mmshare_version>
43012

> <i_f3d_flags>
0

> <s_epik_input>
W05IMl1DKD1PKVtDSDJdYzFzYyhuYzFbQ0gzXSlTW0NIMl1DKD1PKU4yW0NIMl1bQ0gyXVtDSDJdMg==

> <s_epik_cmdline>
J2VwaWtfcHl0aG9uJywgJy1waCcsICc3LjAnLCAnLXRuJywgJzgnLCAnLW1hJywgJzIwMCcsICctbWV0YWxfYmluZGluZycsICctaW1hZScsICc8aW5maWxlLm1hZT4nLCAnLW9tYWUnLCAnPG91dGZpbGUubWFlPic=

> <r_lp_tautomer_probability>
1

> <r_epik_Ionization_Penalty>
8.1701e-07

> <r_epik_Ionization_Penalty_Charging>
0

> <r_epik_Ionization_Penalty_Neutral>
8.1701e-07

> <r_epik_State_Penalty>
-0

> <r_epik_Charging_Adjusted_Penalty>
0

> <i_epik_Tot_Q>
0

> <i_epik_Tot_abs_Q>
0

> <r_epik_Metal_State_Penalty>
-0

> <b_epik_Metal_Only>
0

> <s_lp_Force_Field>
OPLS_2005

> <r_lp_Energy>
11.7673

> <b_lp_Chiralities_Consistent>
1

> <s_lp_Variant>
AV-unprocessed.smi:3005-1

> <Gold.Version>
5.8.1

> <Gold.Id.Protein>
6NUR|6NUR_protein|mol2

> <Gold.PLP.Fitness>
43.2917

> <Gold.PLP.PLP>
-38.4563

> <Gold.PLP.part.hbond>
-2.1667

> <Gold.PLP.part.metal>
0.0000

> <Gold.PLP.part.buried>
-1.1303

> <Gold.PLP.part.nonpolar>
-33.5659

> <Gold.PLP.part.repulsive>
0.1936

> <Gold.PLP.ligand.clash>
0.0000

> <Gold.PLP.ligand.torsion>
1.0353

> <Gold.PLP.Chemscore.Hbond>
2.0000

> <Gold.PLP.Chemscore.CHOScore>
0.0000

> <Gold.PLP.Chemscore.Metal>
0.0000

> <Gold.Chemscore.Hbonds>
donor molecule, donor type, donor heavy atom, donor atom, acceptor molecule, acceptor atom, score
      L1  H    17    33       P1  7948  1.00
      P1  H  7997  8009       L1     8  0.56

> <Gold.PLP.Chemscore.Internal.Correction>
0.9060

> <Gold.Rescore>
     Score         DG    S(hbond)    S(metal)    S(lipo)     H(rot)  DE(clash)    DE(int)     intcor
     14.52     -15.58       1.92        0.00      84.45       2.41       0.03       1.02       ----

> <Gold.Chemscore.Fitness>
14.5232

> <Gold.Chemscore.DG>
-15.5751

> <Gold.Chemscore.ZeroCoef>
-5.4800

> <Gold.Chemscore.Hbond>
1.9153

> <Gold.Chemscore.Metal>
0.0000

> <Gold.Chemscore.Lipo>
84.4454

> <Gold.Chemscore.Internal_Hbond>
0.0000

> <Gold.Chemscore.DEClash>
0.0270

> <Gold.Chemscore.DEInternal>
1.0249

> <Gold.Chemscore.Rot>
2.4149

> <Gold.Chemscore.Internal.Correction>
   9.000000E+99

> <Gold.Chemscore.Hbonds>
donor molecule, donor type, donor heavy atom, donor atom, acceptor molecule, acceptor atom, score
      L1  H    17    33       P1  7948  0.99
      P1  H  7997  8009       L1     8  0.11

> <Gold.Chemscore.Hbond.Weighted>
-6.3972

> <Gold.Chemscore.Metal.Weighted>
-0.0000

> <Gold.Chemscore.Lipo.Weighted>
-9.8801

> <Gold.Chemscore.Internal_Hbond.Weighted>
0.0000

> <Gold.Chemscore.DEClash.Weighted>
0.0270

> <Gold.Chemscore.DEInternal.Weighted>
1.0249

> <Gold.Chemscore.Rot.Weighted>
6.1822

> <Gold.Chemscore.Internal.Correction.Weighted>
   9.000000E+99

> <Gold.Protein.RotatedTorsions>
[ 6907 6896 6895 6894 ] final   95.20 input  -60.11 | X-H torsion
[ 7974 7965 7964 7962 ] final -151.21 input  175.53 | X-H torsion
[ 8008 7997 7996 7995 ] final  148.16 input   59.86 | X-H torsion
[ 10167 10162 10161 10158 ] final   64.53 input  -65.29 | X-H torsion
[ 10718 10713 10712 10709 ] final -101.40 input   66.30 | X-H torsion
[ 10763 10752 10751 10750 ] final  -80.66 input  -60.55 | X-H torsion
[ 11005 11000 10999 10996 ] final  -27.91 input  -57.11 | X-H torsion

> <Gold.Protein.ActiveResidues>
 VAL166  LYS551  ARG553  GLY616  TRP617  ASP618  TYR619  PRO620  LYS621  CYS622 
 ASP623  PHE694  ASN695  SER759  ASP760  ASP761  ALA762  ILE779  LEU786  VAL792 
 PHE793  MET794  SER795  GLU796  ALA797  LYS798  CYS799  TRP800  GLU811  SER814 

> <Gold.Protein.RotatedAtoms>
  152.5445  134.1077  159.8344 H   0  0  0  0  0  0  0  0  0  0  0  0  # atno 6907 bound_to 6896
  151.1147  133.5140  159.2611 H   0  0  0  0  0  0  0  0  0  0  0  0  # atno 6908 bound_to 6896
  151.1845  135.0385  159.8861 H   0  0  0  0  0  0  0  0  0  0  0  0  # atno 6909 bound_to 6896
  144.7863  140.4828  143.5804 H   0  0  0  0  0  0  0  0  0  0  0  0  # atno 7974 bound_to 7965
  156.2800  140.2136  156.5654 H   0  0  0  0  0  0  0  0  0  0  0  0  # atno 8008 bound_to 7997
  154.7179  140.0506  157.0635 H   0  0  0  0  0  0  0  0  0  0  0  0  # atno 8009 bound_to 7997
  155.0518  140.3157  155.4692 H   0  0  0  0  0  0  0  0  0  0  0  0  # atno 8010 bound_to 7997
  140.1211  144.4730  150.6919 H   0  0  0  0  0  0  0  0  0  0  0  0  # atno 10167 bound_to 10162
  156.0193  130.5372  150.6958 H   0  0  0  0  0  0  0  0  0  0  0  0  # atno 10718 bound_to 10713
  154.5540  135.5653  153.6947 H   0  0  0  0  0  0  0  0  0  0  0  0  # atno 10763 bound_to 10752
  152.9998  135.6257  154.2335 H   0  0  0  0  0  0  0  0  0  0  0  0  # atno 10764 bound_to 10752
  154.2271  135.2867  155.2883 H   0  0  0  0  0  0  0  0  0  0  0  0  # atno 10765 bound_to 10752
  140.9161  133.7429  156.0737 H   0  0  0  0  0  0  0  0  0  0  0  0  # atno 11005 bound_to 11000
  145.5914  139.1496  143.3180 LP  0  0  0  0  0  0  0  0  0  0  0  0  # atno 17320 bound_to 7965
  146.2096  140.6039  142.9066 LP  0  0  0  0  0  0  0  0  0  0  0  0  # atno 17321 bound_to 7965
  140.6871  143.2356  151.5231 LP  0  0  0  0  0  0  0  0  0  0  0  0  # atno 17342 bound_to 10162
  139.5568  144.2256  152.1625 LP  0  0  0  0  0  0  0  0  0  0  0  0  # atno 17343 bound_to 10162
  157.4629  131.0885  151.0726 LP  0  0  0  0  0  0  0  0  0  0  0  0  # atno 17370 bound_to 10713
  157.1208  130.6061  149.5505 LP  0  0  0  0  0  0  0  0  0  0  0  0  # atno 17371 bound_to 10713
  140.8047  134.3468  157.5429 LP  0  0  0  0  0  0  0  0  0  0  0  0  # atno 17394 bound_to 11000
  139.8766  134.9219  156.3286 LP  0  0  0  0  0  0  0  0  0  0  0  0  # atno 17395 bound_to 11000

$$$$
