AV-unprocessed.smi:2397|AV-procd|sdf|9495|dock9
  -GOLD-   2272013123D 1   1.00000     0.00000
 Structure written by MMmdl.
 37 38  0  0  0  0  0  0  0  0  2 V2000
  145.1427  137.8037  153.2252 C   0  0  0  0  0  0  0  0  0  0  0  0
  145.4346  138.4125  154.6054 C   0  0  0  0  0  0  0  0  0  0  0  0
  144.1842  138.9934  155.2830 C   0  0  0  0  0  0  0  0  0  0  0  0
  146.5719  139.4216  154.5490 C   0  0  0  0  0  0  0  0  0  0  0  0
  146.4102  140.5499  153.8401 N   0  3  0  0  0  0  0  0  0  0  0  0
  147.4124  141.4604  153.7903 C   0  0  0  0  0  0  0  0  0  0  0  0
  148.6175  141.2319  154.4802 C   0  0  0  0  0  0  0  0  0  0  0  0
  148.7228  140.0326  155.2107 C   0  0  0  0  0  0  0  0  0  0  0  0
  149.9059  139.7376  155.9224 N   0  0  0  0  0  0  0  0  0  0  0  0
  150.1841  140.7808  156.9093 C   0  0  0  0  0  0  0  0  0  0  0  0
  151.3778  140.3985  157.7944 C   0  0  0  0  0  0  0  0  0  0  0  0
  152.5010  140.1404  156.9657 O   0  0  0  0  0  0  0  0  0  0  0  0
  152.2709  139.0276  156.1116 C   0  0  0  0  0  0  0  0  0  0  0  0
  151.0886  139.3052  155.1522 C   0  0  1  0  0  0  0  0  0  0  0  0
  150.9046  138.0535  154.2686 C   0  0  0  0  0  0  0  0  0  0  0  0
  150.0280  138.1090  153.2603 N   0  0  0  0  0  0  0  0  0  0  0  0
  151.5702  137.0448  154.4902 O   0  0  0  0  0  0  0  0  0  0  0  0
  147.6989  139.1490  155.2201 N   0  0  0  0  0  0  0  0  0  0  0  0
  146.0344  137.3359  152.8069 H   0  0  0  0  0  0  0  0  0  0  0  0
  144.8014  138.5614  152.5187 H   0  0  0  0  0  0  0  0  0  0  0  0
  144.3683  137.0389  153.2891 H   0  0  0  0  0  0  0  0  0  0  0  0
  145.7711  137.5896  155.2384 H   0  0  0  0  0  0  0  0  0  0  0  0
  144.4128  139.3517  156.2872 H   0  0  0  0  0  0  0  0  0  0  0  0
  143.4004  138.2406  155.3722 H   0  0  0  0  0  0  0  0  0  0  0  0
  143.7752  139.8299  154.7153 H   0  0  0  0  0  0  0  0  0  0  0  0
  147.2156  142.3448  153.2023 H   0  0  0  0  0  0  0  0  0  0  0  0
  149.4224  141.9523  154.4530 H   0  0  0  0  0  0  0  0  0  0  0  0
  150.3953  141.7186  156.3920 H   0  0  0  0  0  0  0  0  0  0  0  0
  149.3162  140.9578  157.5454 H   0  0  0  0  0  0  0  0  0  0  0  0
  151.6192  141.2163  158.4736 H   0  0  0  0  0  0  0  0  0  0  0  0
  151.1495  139.5278  158.4116 H   0  0  0  0  0  0  0  0  0  0  0  0
  153.1848  138.8408  155.5461 H   0  0  0  0  0  0  0  0  0  0  0  0
  152.0895  138.1365  156.7162 H   0  0  0  0  0  0  0  0  0  0  0  0
  151.3835  140.1296  154.5000 H   0  0  0  0  0  0  0  0  0  0  0  0
  149.9047  137.3107  152.6547 H   0  0  0  0  0  0  0  0  0  0  0  0
  149.5074  138.9588  153.0960 H   0  0  0  0  0  0  0  0  0  0  0  0
  145.5396  140.7295  153.3392 H   0  0  0  0  0  0  0  0  0  0  0  0
  1  2  1  0  0  0  0
  1 19  1  0  0  0  0
  1 20  1  0  0  0  0
  1 21  1  0  0  0  0
  2  3  1  0  0  0  0
  2  4  1  0  0  0  0
  2 22  1  0  0  0  0
  3 23  1  0  0  0  0
  3 24  1  0  0  0  0
  3 25  1  0  0  0  0
  4 18  1  0  0  0  0
  4  5  2  0  0  0  0
  5  6  1  0  0  0  0
  5 37  1  0  0  0  0
  6  7  2  0  0  0  0
  6 26  1  0  0  0  0
  7  8  1  0  0  0  0
  7 27  1  0  0  0  0
  8  9  1  0  0  0  0
  8 18  2  0  0  0  0
  9 14  1  0  0  0  0
  9 10  1  0  0  0  0
 10 11  1  0  0  0  0
 10 28  1  0  0  0  0
 10 29  1  0  0  0  0
 11 12  1  0  0  0  0
 11 30  1  0  0  0  0
 11 31  1  0  0  0  0
 12 13  1  0  0  0  0
 13 14  1  0  0  0  0
 13 32  1  0  0  0  0
 13 33  1  0  0  0  0
 14 15  1  0  0  0  0
 14 34  1  0  0  0  0
 15 16  1  0  0  0  0
 15 17  2  0  0  0  0
 16 35  1  0  0  0  0
 16 36  1  0  0  0  0
M  CHG  1   5   1
M  END
> <s_m_source_file>
AV-unprocessed.smi

> <i_m_source_file_index>
2397

> <i_lp_mmshare_version>
43012

> <i_f3d_flags>
0

> <s_epik_input>
W0NIM11bQ0hdKFtDSDNdKWMxbltjSF1bY0hdYyhuMSlOMltDSDJdW0NIMl1PW0NIMl1bQ0BIXTJDKD1PKVtOSDJd

> <s_epik_cmdline>
J2VwaWtfcHl0aG9uJywgJy1waCcsICc3LjAnLCAnLXRuJywgJzgnLCAnLW1hJywgJzIwMCcsICctbWV0YWxfYmluZGluZycsICctaW1hZScsICc8aW5maWxlLm1hZT4nLCAnLW9tYWUnLCAnPG91dGZpbGUubWFlPic=

> <r_lp_tautomer_probability>
0.999336

> <r_epik_Ionization_Penalty>
1.74009

> <r_epik_Ionization_Penalty_Charging>
1.74009

> <r_epik_Ionization_Penalty_Neutral>
2.46902e-07

> <r_epik_State_Penalty>
1.8491

> <r_epik_Charging_Adjusted_Penalty>
3.5892

> <i_epik_Tot_Q>
1

> <i_epik_Tot_abs_Q>
1

> <r_epik_Metal_State_Penalty>
1.87997

> <b_epik_Metal_Only>
0

> <s_lp_Force_Field>
OPLS_2005

> <r_lp_Energy>
12.3684

> <b_lp_Chiralities_Consistent>
1

> <s_lp_Variant>
AV-unprocessed.smi:2397-3

> <Gold.Version>
5.8.1

> <Gold.Id.Protein>
6NUR|6NUR_protein|mol2

> <Gold.PLP.Fitness>
38.6901

> <Gold.PLP.PLP>
-24.9315

> <Gold.PLP.part.hbond>
-5.8943

> <Gold.PLP.part.metal>
0.0000

> <Gold.PLP.part.buried>
0.5724

> <Gold.PLP.part.nonpolar>
-18.8507

> <Gold.PLP.part.repulsive>
0.3204

> <Gold.PLP.ligand.clash>
0.0000

> <Gold.PLP.ligand.torsion>
0.2818

> <Gold.PLP.Chemscore.Hbond>
4.6839

> <Gold.PLP.Chemscore.CHOScore>
0.0000

> <Gold.PLP.Chemscore.Metal>
0.0000

> <Gold.Chemscore.Hbonds>
donor molecule, donor type, donor heavy atom, donor atom, acceptor molecule, acceptor atom, score
      L1  H     5    37       P1 10175  1.85
      L1  H    16    35       P1  7948  0.75
      L1  H    16    36       P1  7957  0.23
      P1  H  7997  8010       L1    12  0.55
      P1  H 10752 10765       L1    17  1.00

> <Gold.PLP.Chemscore.Internal.Correction>
0.2704

> <Gold.Rescore>
     Score         DG    S(hbond)    S(metal)    S(lipo)     H(rot)  DE(clash)    DE(int)     intcor
     13.60     -14.59       2.49        0.00      45.45       1.77       0.54       0.46       ----

> <Gold.Chemscore.Fitness>
13.5983

> <Gold.Chemscore.DG>
-14.5908

> <Gold.Chemscore.ZeroCoef>
-5.4800

> <Gold.Chemscore.Hbond>
2.4936

> <Gold.Chemscore.Metal>
0.0000

> <Gold.Chemscore.Lipo>
45.4517

> <Gold.Chemscore.Internal_Hbond>
0.0000

> <Gold.Chemscore.DEClash>
0.5355

> <Gold.Chemscore.DEInternal>
0.4570

> <Gold.Chemscore.Rot>
1.7717

> <Gold.Chemscore.Internal.Correction>
   9.000000E+99

> <Gold.Chemscore.Hbonds>
donor molecule, donor type, donor heavy atom, donor atom, acceptor molecule, acceptor atom, score
      L1  H     5    37       P1 10175  0.73
      L1  H    16    35       P1  7948  0.09
      L1  H    16    36       P1  7957  0.22
      P1  H  7997  8010       L1    12  0.03
      P1  H 10752 10765       L1    17  0.99

> <Gold.Chemscore.Hbond.Weighted>
-8.3286

> <Gold.Chemscore.Metal.Weighted>
-0.0000

> <Gold.Chemscore.Lipo.Weighted>
-5.3179

> <Gold.Chemscore.Internal_Hbond.Weighted>
0.0000

> <Gold.Chemscore.DEClash.Weighted>
0.5355

> <Gold.Chemscore.DEInternal.Weighted>
0.4570

> <Gold.Chemscore.Rot.Weighted>
4.5357

> <Gold.Chemscore.Internal.Correction.Weighted>
   9.000000E+99

> <Gold.Protein.RotatedTorsions>
[ 6907 6896 6895 6894 ] final   48.96 input  -60.11 | X-H torsion
[ 7974 7965 7964 7962 ] final  -40.06 input  175.53 | X-H torsion
[ 8008 7997 7996 7995 ] final   63.66 input   59.86 | X-H torsion
[ 10167 10162 10161 10158 ] final -145.49 input  -65.29 | X-H torsion
[ 10718 10713 10712 10709 ] final -124.45 input   66.30 | X-H torsion
[ 10763 10752 10751 10750 ] final  165.46 input  -60.55 | X-H torsion
[ 11005 11000 10999 10996 ] final  -53.24 input  -57.11 | X-H torsion

> <Gold.Protein.ActiveResidues>
 VAL166  LYS551  ARG553  GLY616  TRP617  ASP618  TYR619  PRO620  LYS621  CYS622 
 ASP623  PHE694  ASN695  SER759  ASP760  ASP761  ALA762  ILE779  LEU786  VAL792 
 PHE793  MET794  SER795  GLU796  ALA797  LYS798  CYS799  TRP800  GLU811  SER814 

> <Gold.Protein.RotatedAtoms>
  152.2854  134.7781  160.0388 H   0  0  0  0  0  0  0  0  0  0  0  0  # atno 6907 bound_to 6896
  151.8346  133.3408  159.3632 H   0  0  0  0  0  0  0  0  0  0  0  0  # atno 6908 bound_to 6896
  150.7207  134.5379  159.5777 H   0  0  0  0  0  0  0  0  0  0  0  0  # atno 6909 bound_to 6896
  146.0340  140.6695  142.9119 H   0  0  0  0  0  0  0  0  0  0  0  0  # atno 7974 bound_to 7965
  155.6337  140.3496  155.4691 H   0  0  0  0  0  0  0  0  0  0  0  0  # atno 8008 bound_to 7997
  155.9982  140.1208  157.0596 H   0  0  0  0  0  0  0  0  0  0  0  0  # atno 8009 bound_to 7997
  154.4240  140.1106  156.5646 H   0  0  0  0  0  0  0  0  0  0  0  0  # atno 8010 bound_to 7997
  139.7801  143.8114  152.2637 H   0  0  0  0  0  0  0  0  0  0  0  0  # atno 10167 bound_to 10162
  156.1589  130.6587  151.0021 H   0  0  0  0  0  0  0  0  0  0  0  0  # atno 10718 bound_to 10713
  154.3244  135.2755  155.2503 H   0  0  0  0  0  0  0  0  0  0  0  0  # atno 10763 bound_to 10752
  154.4843  135.5850  153.6416 H   0  0  0  0  0  0  0  0  0  0  0  0  # atno 10764 bound_to 10752
  152.9873  135.6119  154.3431 H   0  0  0  0  0  0  0  0  0  0  0  0  # atno 10765 bound_to 10752
  141.0966  133.6624  156.4143 H   0  0  0  0  0  0  0  0  0  0  0  0  # atno 11005 bound_to 11000
  144.7043  140.3786  143.7131 LP  0  0  0  0  0  0  0  0  0  0  0  0  # atno 17320 bound_to 7965
  145.6995  139.1658  143.2601 LP  0  0  0  0  0  0  0  0  0  0  0  0  # atno 17321 bound_to 7965
  139.8174  144.7310  150.9618 LP  0  0  0  0  0  0  0  0  0  0  0  0  # atno 17342 bound_to 10162
  140.7818  143.4192  151.0868 LP  0  0  0  0  0  0  0  0  0  0  0  0  # atno 17343 bound_to 10162
  157.6717  131.0860  150.7596 LP  0  0  0  0  0  0  0  0  0  0  0  0  # atno 17370 bound_to 10713
  156.7660  130.4813  149.5427 LP  0  0  0  0  0  0  0  0  0  0  0  0  # atno 17371 bound_to 10713
  140.5125  134.6381  157.5289 LP  0  0  0  0  0  0  0  0  0  0  0  0  # atno 17394 bound_to 11000
  139.9804  134.7146  155.9869 LP  0  0  0  0  0  0  0  0  0  0  0  0  # atno 17395 bound_to 11000

$$$$
