AV-unprocessed.smi:1929|AV-procd|sdf|7805|dock10
  -GOLD-   22720 9543D 1   1.00000     0.00000
 Structure written by MMmdl.
 42 43  0  0  0  0  0  0  0  0  3 V2000
  145.6926  143.0833  158.5202 C   0  0  0  0  0  0  0  0  0  0  0  0
  146.1669  141.7570  158.8963 N   0  5  0  0  0  0  0  0  0  0  0  0
  146.3425  140.7425  158.0077 C   0  0  0  0  0  0  0  0  0  0  0  0
  146.4897  139.5290  158.1878 O   0  0  0  0  0  0  0  0  0  0  0  0
  146.3784  141.2691  156.5685 C   0  0  0  0  0  0  0  0  0  0  0  0
  146.5737  140.1462  155.6175 N   0  3  2  0  0  0  0  0  0  0  0  0
  146.9978  140.5896  154.2616 C   0  0  0  0  0  0  0  0  0  0  0  0
  147.3144  139.3871  153.3573 C   0  0  0  0  0  0  0  0  0  0  0  0
  146.1154  138.4306  153.2624 C   0  0  1  0  0  0  0  0  0  0  0  0
  146.4779  137.2573  152.4728 N   0  0  0  0  0  0  0  0  0  0  0  0
  145.6476  136.2524  152.1582 C   0  0  0  0  0  0  0  0  0  0  0  0
  144.4708  136.2092  152.5168 O   0  0  0  0  0  0  0  0  0  0  0  0
  146.2764  135.3104  151.4339 N   0  0  0  0  0  0  0  0  0  0  0  0
  145.7437  134.1142  150.8807 C   0  0  0  0  0  0  0  0  0  0  0  0
  144.3469  134.0376  150.7018 C   0  0  0  0  0  0  0  0  0  0  0  0
  143.7937  132.8539  150.1738 C   0  0  0  0  0  0  0  0  0  0  0  0
  144.5323  131.7760  149.8362 N   0  0  0  0  0  0  0  0  0  0  0  0
  145.8675  131.8455  150.0217 C   0  0  0  0  0  0  0  0  0  0  0  0
  146.5214  132.9809  150.5409 C   0  0  0  0  0  0  0  0  0  0  0  0
  145.6708  138.0198  154.6775 C   0  0  0  0  0  0  0  0  0  0  0  0
  145.3899  139.2525  155.5522 C   0  0  0  0  0  0  0  0  0  0  0  0
  145.6609  143.7589  159.3744 H   0  0  0  0  0  0  0  0  0  0  0  0
  144.6840  143.0611  158.1067 H   0  0  0  0  0  0  0  0  0  0  0  0
  146.3298  143.5582  157.7736 H   0  0  0  0  0  0  0  0  0  0  0  0
  145.4163  141.7492  156.3847 H   0  0  0  0  0  0  0  0  0  0  0  0
  147.1388  142.0387  156.4165 H   0  0  0  0  0  0  0  0  0  0  0  0
  146.2111  141.1995  153.8148 H   0  0  0  0  0  0  0  0  0  0  0  0
  147.8840  141.2208  154.3282 H   0  0  0  0  0  0  0  0  0  0  0  0
  147.5924  139.7387  152.3630 H   0  0  0  0  0  0  0  0  0  0  0  0
  148.1829  138.8580  153.7528 H   0  0  0  0  0  0  0  0  0  0  0  0
  145.2959  138.9581  152.7696 H   0  0  0  0  0  0  0  0  0  0  0  0
  147.4304  137.2080  152.1415 H   0  0  0  0  0  0  0  0  0  0  0  0
  147.2678  135.4422  151.2982 H   0  0  0  0  0  0  0  0  0  0  0  0
  143.7069  134.8694  150.9581 H   0  0  0  0  0  0  0  0  0  0  0  0
  142.7277  132.7700  150.0215 H   0  0  0  0  0  0  0  0  0  0  0  0
  146.4334  130.9654  149.7546 H   0  0  0  0  0  0  0  0  0  0  0  0
  147.5912  132.9530  150.6785 H   0  0  0  0  0  0  0  0  0  0  0  0
  144.7769  137.3968  154.6264 H   0  0  0  0  0  0  0  0  0  0  0  0
  146.4449  137.4120  155.1484 H   0  0  0  0  0  0  0  0  0  0  0  0
  145.1203  138.9226  156.5562 H   0  0  0  0  0  0  0  0  0  0  0  0
  144.5360  139.8071  155.1598 H   0  0  0  0  0  0  0  0  0  0  0  0
  147.3293  139.5937  155.9971 H   0  0  0  0  0  0  0  0  0  0  0  0
  1  2  1  0  0  0  0
  1 22  1  0  0  0  0
  1 23  1  0  0  0  0
  1 24  1  0  0  0  0
  2  3  1  0  0  0  0
  3  4  2  0  0  0  0
  3  5  1  0  0  0  0
  5  6  1  0  0  0  0
  5 25  1  0  0  0  0
  5 26  1  0  0  0  0
  6 21  1  0  0  0  0
  6  7  1  0  0  0  0
  6 42  1  0  0  0  0
  7  8  1  0  0  0  0
  7 27  1  0  0  0  0
  7 28  1  0  0  0  0
  8  9  1  0  0  0  0
  8 29  1  0  0  0  0
  8 30  1  0  0  0  0
  9 10  1  0  0  0  0
  9 20  1  0  0  0  0
  9 31  1  0  0  0  0
 10 11  1  0  0  0  0
 10 32  1  0  0  0  0
 11 12  2  0  0  0  0
 11 13  1  0  0  0  0
 13 14  1  0  0  0  0
 13 33  1  0  0  0  0
 14 19  1  0  0  0  0
 14 15  2  0  0  0  0
 15 16  1  0  0  0  0
 15 34  1  0  0  0  0
 16 17  2  0  0  0  0
 16 35  1  0  0  0  0
 17 18  1  0  0  0  0
 18 19  2  0  0  0  0
 18 36  1  0  0  0  0
 19 37  1  0  0  0  0
 20 21  1  0  0  0  0
 20 38  1  0  0  0  0
 20 39  1  0  0  0  0
 21 40  1  0  0  0  0
 21 41  1  0  0  0  0
M  CHG  1   2  -1
M  CHG  1   6   1
M  END
> <s_m_source_file>
AV-unprocessed.smi

> <i_m_source_file_index>
1929

> <i_lp_mmshare_version>
43012

> <i_f3d_flags>
0

> <s_epik_input>
W0NIM11bTkhdQyg9TylbQ0gyXU4xW0NIMl1bQ0gyXVtDSF0oW0NIMl1bQ0gyXTEpW05IXUMoPU8pW05IXWMyW2NIXVtjSF1uW2NIXVtjSF0y

> <s_epik_cmdline>
J2VwaWtfcHl0aG9uJywgJy1waCcsICc3LjAnLCAnLXRuJywgJzgnLCAnLW1hJywgJzIwMCcsICctbWV0YWxfYmluZGluZycsICctaW1hZScsICc8aW5maWxlLm1hZT4nLCAnLW9tYWUnLCAnPG91dGZpbGUubWFlPic=

> <r_epik_Ionization_Penalty>
6.23856

> <r_epik_Ionization_Penalty_Charging>
6.13946

> <r_epik_Ionization_Penalty_Neutral>
0.0990993

> <r_epik_State_Penalty>
7.04382

> <r_epik_Charging_Adjusted_Penalty>
13.1833

> <i_epik_Tot_Q>
0

> <i_epik_Tot_abs_Q>
2

> <r_epik_Metal_State_Penalty>
3.07449

> <b_epik_Metal_Only>
1

> <s_lp_Force_Field>
OPLS_2005

> <r_lp_Energy>
14.2578

> <b_lp_Chiralities_Consistent>
1

> <s_lp_Variant>
AV-unprocessed.smi:1929-7

> <Gold.Version>
5.8.1

> <Gold.Id.Protein>
6NUR|6NUR_protein|mol2

> <Gold.PLP.Fitness>
42.5953

> <Gold.PLP.PLP>
-27.0259

> <Gold.PLP.part.hbond>
-4.8676

> <Gold.PLP.part.metal>
0.0000

> <Gold.PLP.part.buried>
-3.7552

> <Gold.PLP.part.nonpolar>
-20.3416

> <Gold.PLP.part.repulsive>
0.4060

> <Gold.PLP.ligand.clash>
0.0000

> <Gold.PLP.ligand.torsion>
0.2444

> <Gold.PLP.Chemscore.Hbond>
3.6292

> <Gold.PLP.Chemscore.CHOScore>
1.7137

> <Gold.PLP.Chemscore.Metal>
0.0000

> <Gold.Chemscore.Hbonds>
donor molecule, donor type, donor heavy atom, donor atom, acceptor molecule, acceptor atom, score
      L1  H    10    32       P1  7948  1.00
      L1  H    13    33       P1  7948  1.00
      P1  H  6934  6946       L1     2  1.21
      P1  H 10785 10796       L1    17  0.09
      L1  C    16    35       P1 10186  1.00
      L1  C    18    36       P1 10747  0.72

> <Gold.PLP.Chemscore.Internal.Correction>
0.0295

> <Gold.Rescore>
     Score         DG    S(hbond)    S(metal)    S(lipo)     H(rot)  DE(clash)    DE(int)     intcor
     14.78     -16.71       2.42        0.00      62.59       1.63       0.07       1.86       ----

> <Gold.Chemscore.Fitness>
14.7764

> <Gold.Chemscore.DG>
-16.7115

> <Gold.Chemscore.ZeroCoef>
-5.4800

> <Gold.Chemscore.Hbond>
2.4211

> <Gold.Chemscore.Metal>
0.0000

> <Gold.Chemscore.Lipo>
62.5940

> <Gold.Chemscore.Internal_Hbond>
0.0000

> <Gold.Chemscore.DEClash>
0.0718

> <Gold.Chemscore.DEInternal>
1.8633

> <Gold.Chemscore.Rot>
1.6323

> <Gold.Chemscore.Internal.Correction>
   9.000000E+99

> <Gold.Chemscore.Hbonds>
donor molecule, donor type, donor heavy atom, donor atom, acceptor molecule, acceptor atom, score
      L1  H    10    32       P1  7948  0.94
      L1  H    13    33       P1  7948  0.85
      P1  H  6934  6946       L1     2  0.15
      P1  H 10785 10796       L1    17  0.08

> <Gold.Chemscore.Hbond.Weighted>
-8.0866

> <Gold.Chemscore.Metal.Weighted>
-0.0000

> <Gold.Chemscore.Lipo.Weighted>
-7.3235

> <Gold.Chemscore.Internal_Hbond.Weighted>
0.0000

> <Gold.Chemscore.DEClash.Weighted>
0.0718

> <Gold.Chemscore.DEInternal.Weighted>
1.8633

> <Gold.Chemscore.Rot.Weighted>
4.1786

> <Gold.Chemscore.Internal.Correction.Weighted>
   9.000000E+99

> <Gold.Protein.RotatedTorsions>
[ 6907 6896 6895 6894 ] final  -42.37 input  -60.11 | X-H torsion
[ 7974 7965 7964 7962 ] final -105.60 input  175.53 | X-H torsion
[ 8008 7997 7996 7995 ] final  -34.59 input   59.86 | X-H torsion
[ 10167 10162 10161 10158 ] final  -22.20 input  -65.29 | X-H torsion
[ 10718 10713 10712 10709 ] final  -91.71 input   66.30 | X-H torsion
[ 10763 10752 10751 10750 ] final    2.52 input  -60.55 | X-H torsion
[ 11005 11000 10999 10996 ] final  -29.52 input  -57.11 | X-H torsion

> <Gold.Protein.ActiveResidues>
 VAL166  LYS551  ARG553  GLY616  TRP617  ASP618  TYR619  PRO620  LYS621  CYS622 
 ASP623  PHE694  ASN695  SER759  ASP760  ASP761  ALA762  ILE779  LEU786  VAL792 
 PHE793  MET794  SER795  GLU796  ALA797  LYS798  CYS799  TRP800  GLU811  SER814 

> <Gold.Protein.RotatedAtoms>
  150.9561  134.8955  159.7701 H   0  0  0  0  0  0  0  0  0  0  0  0  # atno 6907 bound_to 6896
  152.5138  134.3739  159.9337 H   0  0  0  0  0  0  0  0  0  0  0  0  # atno 6908 bound_to 6896
  151.3752  133.3800  159.2739 H   0  0  0  0  0  0  0  0  0  0  0  0  # atno 6909 bound_to 6896
  145.2284  140.9161  143.3219 H   0  0  0  0  0  0  0  0  0  0  0  0  # atno 7974 bound_to 7965
  154.4117  140.1680  156.2074 H   0  0  0  0  0  0  0  0  0  0  0  0  # atno 8008 bound_to 7997
  155.9473  140.3403  155.6354 H   0  0  0  0  0  0  0  0  0  0  0  0  # atno 8009 bound_to 7997
  155.6914  140.0734  157.2437 H   0  0  0  0  0  0  0  0  0  0  0  0  # atno 8010 bound_to 7997
  140.7285  143.4557  151.0452 H   0  0  0  0  0  0  0  0  0  0  0  0  # atno 10167 bound_to 10162
  155.9996  130.4959  150.5516 H   0  0  0  0  0  0  0  0  0  0  0  0  # atno 10718 bound_to 10713
  153.2945  135.6951  153.7261 H   0  0  0  0  0  0  0  0  0  0  0  0  # atno 10763 bound_to 10752
  153.6199  135.3429  155.3008 H   0  0  0  0  0  0  0  0  0  0  0  0  # atno 10764 bound_to 10752
  154.8533  135.4383  154.2038 H   0  0  0  0  0  0  0  0  0  0  0  0  # atno 10765 bound_to 10752
  140.9303  133.7342  156.0927 H   0  0  0  0  0  0  0  0  0  0  0  0  # atno 11005 bound_to 11000
  144.9699  139.3891  143.6314 LP  0  0  0  0  0  0  0  0  0  0  0  0  # atno 17320 bound_to 7965
  146.3359  139.8792  142.8827 LP  0  0  0  0  0  0  0  0  0  0  0  0  # atno 17321 bound_to 7965
  139.8237  143.7785  152.3178 LP  0  0  0  0  0  0  0  0  0  0  0  0  # atno 17342 bound_to 10162
  139.7877  144.7422  150.9999 LP  0  0  0  0  0  0  0  0  0  0  0  0  # atno 17343 bound_to 10162
  157.3438  131.0721  151.1767 LP  0  0  0  0  0  0  0  0  0  0  0  0  # atno 17370 bound_to 10713
  157.2606  130.6657  149.5973 LP  0  0  0  0  0  0  0  0  0  0  0  0  # atno 17371 bound_to 10713
  140.7871  134.3660  157.5474 LP  0  0  0  0  0  0  0  0  0  0  0  0  # atno 17394 bound_to 11000
  139.8795  134.9117  156.3043 LP  0  0  0  0  0  0  0  0  0  0  0  0  # atno 17395 bound_to 11000

$$$$
