AV-unprocessed.smi:283|AV-procd|sdf|2142|dock4
  -GOLD-   2262021473D 1   1.00000     0.00000
 Structure written by MMmdl.
 48 51  0  0  0  0  0  0  0  0  1 V2000
  149.7347  139.8956  158.4332 C   0  0  0  0  0  0  0  0  0  0  0  0
  151.0809  140.2906  157.8110 C   0  0  1  0  0  0  0  0  0  0  0  0
  151.0067  140.1601  156.3576 N   0  0  0  0  0  0  0  0  0  0  0  0
  149.8255  140.2138  155.7027 C   0  0  0  0  0  0  0  0  0  0  0  0
  149.3812  141.4586  155.4063 N   0  0  0  0  0  0  0  0  0  0  0  0
  148.2306  141.6221  154.7479 C   0  0  0  0  0  0  0  0  0  0  0  0
  147.3843  140.6912  154.3065 N   0  0  0  0  0  0  0  0  0  0  0  0
  147.8178  139.4341  154.6097 C   0  0  0  0  0  0  0  0  0  0  0  0
  149.0168  139.1074  155.3059 C   0  0  0  0  0  0  0  0  0  0  0  0
  149.1032  137.7261  155.4400 N   0  0  0  0  0  0  0  0  0  0  0  0
  148.0334  137.2719  154.8470 C   0  0  0  0  0  0  0  0  0  0  0  0
  147.2015  138.2333  154.3215 N   0  0  0  0  0  0  0  0  0  0  0  0
  145.9175  138.0296  153.5778 C   0  0  2  0  0  0  0  0  0  0  0  0
  145.3862  136.8083  153.9876 O   0  0  0  0  0  0  0  0  0  0  0  0
  144.8241  136.1512  152.8640 C   0  0  2  0  0  0  0  0  0  0  0  0
  144.6561  134.6445  153.1337 C   0  0  0  0  0  0  0  0  0  0  0  0
  143.6519  134.3805  154.0917 O   0  0  0  0  0  0  0  0  0  0  0  0
  145.7114  136.5564  151.6822 C   0  0  1  0  0  0  0  0  0  0  0  0
  144.9727  136.5215  150.4773 O   0  0  0  0  0  0  0  0  0  0  0  0
  146.0948  137.9895  152.0384 C   0  0  2  0  0  0  0  0  0  0  0  0
  147.4019  138.2932  151.5852 O   0  0  0  0  0  0  0  0  0  0  0  0
  151.5128  141.6727  158.3106 C   0  0  0  0  0  0  0  0  0  0  0  0
  150.9581  142.8390  157.7329 C   0  0  0  0  0  0  0  0  0  0  0  0
  151.3454  144.1163  158.1793 C   0  0  0  0  0  0  0  0  0  0  0  0
  152.2866  144.2427  159.2165 C   0  0  0  0  0  0  0  0  0  0  0  0
  152.8340  143.0900  159.8092 C   0  0  0  0  0  0  0  0  0  0  0  0
  152.4500  141.8085  159.3660 C   0  0  0  0  0  0  0  0  0  0  0  0
  153.1443  140.4279  160.1420 Cl  0  0  0  0  0  0  0  0  0  0  0  0
  145.2761  138.8491  153.9045 H   0  0  0  0  0  0  0  0  0  0  0  0
  143.8325  136.5893  152.7321 H   0  0  0  0  0  0  0  0  0  0  0  0
  146.5971  135.9245  151.6104 H   0  0  0  0  0  0  0  0  0  0  0  0
  145.3877  138.7016  151.6098 H   0  0  0  0  0  0  0  0  0  0  0  0
  149.7893  139.9007  159.5221 H   0  0  0  0  0  0  0  0  0  0  0  0
  149.4380  138.8925  158.1249 H   0  0  0  0  0  0  0  0  0  0  0  0
  148.9427  140.5841  158.1368 H   0  0  0  0  0  0  0  0  0  0  0  0
  151.8081  139.5511  158.1419 H   0  0  0  0  0  0  0  0  0  0  0  0
  151.8366  139.7797  155.9263 H   0  0  0  0  0  0  0  0  0  0  0  0
  147.9476  142.6442  154.5440 H   0  0  0  0  0  0  0  0  0  0  0  0
  147.8209  136.2150  154.7785 H   0  0  0  0  0  0  0  0  0  0  0  0
  144.4265  134.1142  152.2092 H   0  0  0  0  0  0  0  0  0  0  0  0
  145.5924  134.2335  153.5126 H   0  0  0  0  0  0  0  0  0  0  0  0
  143.4083  133.4697  154.0286 H   0  0  0  0  0  0  0  0  0  0  0  0
  144.4941  137.3327  150.3993 H   0  0  0  0  0  0  0  0  0  0  0  0
  148.0203  137.8965  152.1806 H   0  0  0  0  0  0  0  0  0  0  0  0
  150.2306  142.7618  156.9384 H   0  0  0  0  0  0  0  0  0  0  0  0
  150.9184  144.9989  157.7263 H   0  0  0  0  0  0  0  0  0  0  0  0
  152.5850  145.2220  159.5607 H   0  0  0  0  0  0  0  0  0  0  0  0
  153.5511  143.1908  160.6108 H   0  0  0  0  0  0  0  0  0  0  0  0
  1  2  1  0  0  0  0
  1 33  1  0  0  0  0
  1 34  1  0  0  0  0
  1 35  1  0  0  0  0
  2  3  1  0  0  0  0
  2 22  1  0  0  0  0
  2 36  1  0  0  0  0
  3  4  1  0  0  0  0
  3 37  1  0  0  0  0
  4  9  1  0  0  0  0
  4  5  2  0  0  0  0
  5  6  1  0  0  0  0
  6  7  2  0  0  0  0
  6 38  1  0  0  0  0
  7  8  1  0  0  0  0
  8 12  1  0  0  0  0
  8  9  2  0  0  0  0
  9 10  1  0  0  0  0
 10 11  2  0  0  0  0
 11 12  1  0  0  0  0
 11 39  1  0  0  0  0
 12 13  1  0  0  0  0
 13 29  1  0  0  0  0
 13 20  1  0  0  0  0
 13 14  1  0  0  0  0
 14 15  1  0  0  0  0
 15 30  1  0  0  0  0
 15 16  1  0  0  0  0
 15 18  1  0  0  0  0
 16 17  1  0  0  0  0
 16 40  1  0  0  0  0
 16 41  1  0  0  0  0
 17 42  1  0  0  0  0
 18 31  1  0  0  0  0
 18 19  1  0  0  0  0
 18 20  1  0  0  0  0
 19 43  1  0  0  0  0
 20 32  1  0  0  0  0
 20 21  1  0  0  0  0
 21 44  1  0  0  0  0
 22 27  1  0  0  0  0
 22 23  2  0  0  0  0
 23 24  1  0  0  0  0
 23 45  1  0  0  0  0
 24 25  2  0  0  0  0
 24 46  1  0  0  0  0
 25 26  1  0  0  0  0
 25 47  1  0  0  0  0
 26 27  2  0  0  0  0
 26 48  1  0  0  0  0
 27 28  1  0  0  0  0
M  END
> <s_m_source_file>
AV-unprocessed.smi

> <i_m_source_file_index>
283

> <i_lp_mmshare_version>
43012

> <i_f3d_flags>
0

> <s_epik_input>
Q2xjMVtjSF1bY0hdW2NIXVtjSF1jMVtDQEhdKFtDSDNdKVtOSF1jKG5bY0hdbjIpYyhjMjMpbltjSF1uM1tDQEBIXTRPW0NASF0oW0NIMl1bT0hdKVtDQEBIXShbT0hdKVtDQEhdNFtPSF0=

> <s_epik_cmdline>
J2VwaWtfcHl0aG9uJywgJy1waCcsICc3LjAnLCAnLXRuJywgJzgnLCAnLW1hJywgJzIwMCcsICctbWV0YWxfYmluZGluZycsICctaW1hZScsICc8aW5maWxlLm1hZT4nLCAnLW9tYWUnLCAnPG91dGZpbGUubWFlPic=

> <r_lp_tautomer_probability>
1

> <r_epik_Ionization_Penalty>
0.000266407

> <r_epik_Ionization_Penalty_Charging>
0

> <r_epik_Ionization_Penalty_Neutral>
0.000266407

> <r_epik_State_Penalty>
-0

> <r_epik_Charging_Adjusted_Penalty>
0

> <i_epik_Tot_Q>
0

> <i_epik_Tot_abs_Q>
0

> <r_epik_Metal_State_Penalty>
-0

> <b_epik_Metal_Only>
0

> <s_epik_Chemistry_Notes>
This compound contains an acetal/aminal-like group ( X-CH(R)-Y where X, Y are N, S, or O) that may be acid/base labile, releasing an aldehyde.

> <s_lp_Force_Field>
OPLS_2005

> <r_lp_Energy>
48.5102

> <b_lp_Chiralities_Consistent>
1

> <s_lp_Variant>
AV-unprocessed.smi:283-18

> <Gold.Version>
5.8.1

> <Gold.Id.Protein>
6NUR|6NUR_protein|mol2

> <Gold.PLP.Fitness>
55.3642

> <Gold.PLP.PLP>
-46.6683

> <Gold.PLP.part.hbond>
-4.8068

> <Gold.PLP.part.metal>
0.0000

> <Gold.PLP.part.buried>
-7.2908

> <Gold.PLP.part.nonpolar>
-37.2580

> <Gold.PLP.part.repulsive>
0.5719

> <Gold.PLP.ligand.clash>
0.0000

> <Gold.PLP.ligand.torsion>
2.3001

> <Gold.PLP.Chemscore.Hbond>
3.5193

> <Gold.PLP.Chemscore.CHOScore>
0.8661

> <Gold.PLP.Chemscore.Metal>
0.0000

> <Gold.Chemscore.Hbonds>
donor molecule, donor type, donor heavy atom, donor atom, acceptor molecule, acceptor atom, score
      L1  H    17    42       P1 10957  1.00
      L1  H    19    43       P1 10171  0.96
      L1  H    21    44       P1  7948  0.48
      P1  H  7954  7966       L1    21  1.00
      L1  C     6    38       P1  8028  0.96

> <Gold.PLP.Chemscore.Internal.Correction>
0.1401

> <Gold.Rescore>
     Score         DG    S(hbond)    S(metal)    S(lipo)     H(rot)  DE(clash)    DE(int)     intcor
     16.00     -18.26       3.13        0.00     109.52       4.10       0.17       2.09       ----

> <Gold.Chemscore.Fitness>
15.9980

> <Gold.Chemscore.DG>
-18.2645

> <Gold.Chemscore.ZeroCoef>
-5.4800

> <Gold.Chemscore.Hbond>
3.1314

> <Gold.Chemscore.Metal>
0.0000

> <Gold.Chemscore.Lipo>
109.5178

> <Gold.Chemscore.Internal_Hbond>
0.0000

> <Gold.Chemscore.DEClash>
0.1739

> <Gold.Chemscore.DEInternal>
2.0927

> <Gold.Chemscore.Rot>
4.0968

> <Gold.Chemscore.Internal.Correction>
   9.000000E+99

> <Gold.Chemscore.Hbonds>
donor molecule, donor type, donor heavy atom, donor atom, acceptor molecule, acceptor atom, score
      L1  H    17    42       P1 10957  0.92
      L1  H    19    43       P1 10171  0.90
      L1  H    21    44       P1  7948  0.48
      P1  H  7954  7966       L1    21  0.30

> <Gold.Chemscore.Hbond.Weighted>
-10.4589

> <Gold.Chemscore.Metal.Weighted>
-0.0000

> <Gold.Chemscore.Lipo.Weighted>
-12.8136

> <Gold.Chemscore.Internal_Hbond.Weighted>
0.0000

> <Gold.Chemscore.DEClash.Weighted>
0.1739

> <Gold.Chemscore.DEInternal.Weighted>
2.0927

> <Gold.Chemscore.Rot.Weighted>
10.4879

> <Gold.Chemscore.Internal.Correction.Weighted>
   9.000000E+99

> <Gold.Protein.RotatedTorsions>
[ 6907 6896 6895 6894 ] final  122.06 input  -60.11 | X-H torsion
[ 7974 7965 7964 7962 ] final   20.02 input  175.53 | X-H torsion
[ 8008 7997 7996 7995 ] final  -53.46 input   59.86 | X-H torsion
[ 10167 10162 10161 10158 ] final   27.99 input  -65.29 | X-H torsion
[ 10718 10713 10712 10709 ] final   73.48 input   66.30 | X-H torsion
[ 10763 10752 10751 10750 ] final  152.25 input  -60.55 | X-H torsion
[ 11005 11000 10999 10996 ] final -106.64 input  -57.11 | X-H torsion

> <Gold.Protein.ActiveResidues>
 VAL166  LYS551  ARG553  GLY616  TRP617  ASP618  TYR619  PRO620  LYS621  CYS622 
 ASP623  PHE694  ASN695  SER759  ASP760  ASP761  ALA762  ILE779  LEU786  VAL792 
 PHE793  MET794  SER795  GLU796  ALA797  LYS798  CYS799  TRP800  GLU811  SER814 

> <Gold.Protein.RotatedAtoms>
  152.4273  133.7216  159.6536 H   0  0  0  0  0  0  0  0  0  0  0  0  # atno 6907 bound_to 6896
  150.8150  133.8343  159.3171 H   0  0  0  0  0  0  0  0  0  0  0  0  # atno 6908 bound_to 6896
  151.6042  135.1047  160.0118 H   0  0  0  0  0  0  0  0  0  0  0  0  # atno 6909 bound_to 6896
  146.2127  139.8229  142.8676 H   0  0  0  0  0  0  0  0  0  0  0  0  # atno 7974 bound_to 7965
  154.4134  140.1199  156.5158 H   0  0  0  0  0  0  0  0  0  0  0  0  # atno 8008 bound_to 7997
  155.6753  140.3496  155.4815 H   0  0  0  0  0  0  0  0  0  0  0  0  # atno 8009 bound_to 7997
  155.9598  140.1121  157.0895 H   0  0  0  0  0  0  0  0  0  0  0  0  # atno 8010 bound_to 7997
  140.4891  144.0496  150.6291 H   0  0  0  0  0  0  0  0  0  0  0  0  # atno 10167 bound_to 10162
  157.6550  130.9631  150.1076 H   0  0  0  0  0  0  0  0  0  0  0  0  # atno 10718 bound_to 10713
  154.1169  135.2835  155.3217 H   0  0  0  0  0  0  0  0  0  0  0  0  # atno 10763 bound_to 10752
  154.6450  135.5389  153.7837 H   0  0  0  0  0  0  0  0  0  0  0  0  # atno 10764 bound_to 10752
  153.0326  135.6496  154.1325 H   0  0  0  0  0  0  0  0  0  0  0  0  # atno 10765 bound_to 10752
  141.0994  133.8911  157.1880 H   0  0  0  0  0  0  0  0  0  0  0  0  # atno 11005 bound_to 11000
  145.3077  141.0211  143.3572 LP  0  0  0  0  0  0  0  0  0  0  0  0  # atno 17320 bound_to 7965
  144.8959  139.4713  143.6656 LP  0  0  0  0  0  0  0  0  0  0  0  0  # atno 17321 bound_to 7965
  140.3759  143.2829  152.0225 LP  0  0  0  0  0  0  0  0  0  0  0  0  # atno 17342 bound_to 10162
  139.4847  144.6193  151.7286 LP  0  0  0  0  0  0  0  0  0  0  0  0  # atno 17343 bound_to 10162
  156.1981  130.3658  149.8823 LP  0  0  0  0  0  0  0  0  0  0  0  0  # atno 17370 bound_to 10713
  156.6734  130.8829  151.3565 LP  0  0  0  0  0  0  0  0  0  0  0  0  # atno 17371 bound_to 10713
  139.9841  135.0088  156.9820 LP  0  0  0  0  0  0  0  0  0  0  0  0  # atno 17394 bound_to 11000
  140.5059  134.1051  155.7260 LP  0  0  0  0  0  0  0  0  0  0  0  0  # atno 17395 bound_to 11000

$$$$
