AV-unprocessed.smi:280|AV-procd|sdf|2097|dock1
  -GOLD-   2262021383D 1   1.00000     0.00000
 Structure written by MMmdl.
 59 62  0  0  0  0  0  0  0  0  2 V2000
  146.9838  133.0259  152.1506 C   0  0  0  0  0  0  0  0  0  0  0  0
  146.1731  134.2148  152.7052 C   0  0  2  0  0  0  0  0  0  0  0  0
  146.1464  134.0967  154.2498 C   0  0  0  0  0  0  0  0  0  0  0  0
  145.2743  135.0845  154.8787 N   0  0  0  0  0  0  0  0  0  0  0  0
  145.7760  136.3058  155.2046 C   0  0  0  0  0  0  0  0  0  0  0  0
  144.9596  137.3933  155.2150 N   0  0  0  0  0  0  0  0  0  0  0  0
  145.4360  138.5960  155.5484 C   0  0  0  0  0  0  0  0  0  0  0  0
  146.6777  138.9319  155.9001 N   0  0  0  0  0  0  0  0  0  0  0  0
  147.5068  137.8493  155.8846 C   0  0  0  0  0  0  0  0  0  0  0  0
  147.1433  136.5152  155.5443 C   0  0  0  0  0  0  0  0  0  0  0  0
  148.2606  135.6918  155.6116 N   0  0  0  0  0  0  0  0  0  0  0  0
  149.2242  136.4892  155.9826 C   0  0  0  0  0  0  0  0  0  0  0  0
  148.8564  137.7998  156.1907 N   0  0  0  0  0  0  0  0  0  0  0  0
  149.7201  138.8962  156.6082 C   0  0  0  0  0  0  0  0  0  0  0  0
  150.3282  139.7230  155.4488 C   0  0  0  0  0  0  0  0  0  0  0  0
  149.1746  140.2480  154.5834 C   0  0  0  0  0  0  0  0  0  0  0  0
  149.6502  140.7887  153.3675 O   0  0  0  0  0  0  0  0  0  0  0  0
  151.4313  140.7375  155.7983 C   0  0  0  0  0  0  0  0  0  0  0  0
  152.4711  139.8299  155.3770 O   0  0  0  0  0  0  0  0  0  0  0  0
  151.4771  139.0566  154.6725 C   0  0  0  0  0  0  0  0  0  0  0  0
  143.9148  135.0646  154.3565 C   0  0  0  0  0  0  0  0  0  0  0  0
  143.9309  135.2845  152.8381 C   0  0  0  0  0  0  0  0  0  0  0  0
  144.7877  134.2863  152.1391 N   0  3  1  0  0  0  0  0  0  0  0  0
  144.7292  134.4721  150.6594 C   0  0  0  0  0  0  0  0  0  0  0  0
  144.2637  133.2003  149.9089 C   0  0  0  0  0  0  0  0  0  0  0  0
  145.4734  132.3062  149.5873 C   0  0  0  0  0  0  0  0  0  0  0  0
  143.2060  132.3974  150.6876 C   0  0  0  0  0  0  0  0  0  0  0  0
  143.7020  133.5787  148.6680 O   0  0  0  0  0  0  0  0  0  0  0  0
  147.9648  132.9772  152.6240 H   0  0  0  0  0  0  0  0  0  0  0  0
  147.1636  133.0907  151.0789 H   0  0  0  0  0  0  0  0  0  0  0  0
  146.4821  132.0782  152.3484 H   0  0  0  0  0  0  0  0  0  0  0  0
  146.6859  135.1382  152.4328 H   0  0  0  0  0  0  0  0  0  0  0  0
  145.7744  133.1108  154.5318 H   0  0  0  0  0  0  0  0  0  0  0  0
  147.1550  134.1600  154.6606 H   0  0  0  0  0  0  0  0  0  0  0  0
  144.7197  139.4041  155.5333 H   0  0  0  0  0  0  0  0  0  0  0  0
  150.2366  136.1376  156.1170 H   0  0  0  0  0  0  0  0  0  0  0  0
  149.1369  139.5427  157.2652 H   0  0  0  0  0  0  0  0  0  0  0  0
  150.5053  138.4718  157.2346 H   0  0  0  0  0  0  0  0  0  0  0  0
  148.4732  139.4488  154.3407 H   0  0  0  0  0  0  0  0  0  0  0  0
  148.6034  141.0129  155.1103 H   0  0  0  0  0  0  0  0  0  0  0  0
  149.4890  140.1640  152.6769 H   0  0  0  0  0  0  0  0  0  0  0  0
  151.4117  141.6384  155.1825 H   0  0  0  0  0  0  0  0  0  0  0  0
  151.4957  141.0002  156.8527 H   0  0  0  0  0  0  0  0  0  0  0  0
  151.5767  137.9843  154.8331 H   0  0  0  0  0  0  0  0  0  0  0  0
  151.4798  139.2811  153.6045 H   0  0  0  0  0  0  0  0  0  0  0  0
  143.4663  134.0979  154.5887 H   0  0  0  0  0  0  0  0  0  0  0  0
  143.2829  135.8153  154.8289 H   0  0  0  0  0  0  0  0  0  0  0  0
  142.9108  135.2320  152.4581 H   0  0  0  0  0  0  0  0  0  0  0  0
  144.2958  136.2899  152.6210 H   0  0  0  0  0  0  0  0  0  0  0  0
  144.0678  135.3052  150.4139 H   0  0  0  0  0  0  0  0  0  0  0  0
  145.6957  134.7817  150.2654 H   0  0  0  0  0  0  0  0  0  0  0  0
  145.9618  131.9620  150.4997 H   0  0  0  0  0  0  0  0  0  0  0  0
  146.2193  132.8391  148.9961 H   0  0  0  0  0  0  0  0  0  0  0  0
  145.1777  131.4218  149.0217 H   0  0  0  0  0  0  0  0  0  0  0  0
  143.5891  132.0761  151.6565 H   0  0  0  0  0  0  0  0  0  0  0  0
  142.9092  131.5011  150.1414 H   0  0  0  0  0  0  0  0  0  0  0  0
  142.3019  132.9809  150.8640 H   0  0  0  0  0  0  0  0  0  0  0  0
  144.4032  133.8084  148.0767 H   0  0  0  0  0  0  0  0  0  0  0  0
  144.3716  133.3848  152.3234 H   0  0  0  0  0  0  0  0  0  0  0  0
  1  2  1  0  0  0  0
  1 29  1  0  0  0  0
  1 30  1  0  0  0  0
  1 31  1  0  0  0  0
  2 23  1  0  0  0  0
  2  3  1  0  0  0  0
  2 32  1  0  0  0  0
  3  4  1  0  0  0  0
  3 33  1  0  0  0  0
  3 34  1  0  0  0  0
  4  5  1  0  0  0  0
  4 21  1  0  0  0  0
  5 10  1  0  0  0  0
  5  6  2  0  0  0  0
  6  7  1  0  0  0  0
  7  8  2  0  0  0  0
  7 35  1  0  0  0  0
  8  9  1  0  0  0  0
  9 13  1  0  0  0  0
  9 10  2  0  0  0  0
 10 11  1  0  0  0  0
 11 12  2  0  0  0  0
 12 13  1  0  0  0  0
 12 36  1  0  0  0  0
 13 14  1  0  0  0  0
 14 15  1  0  0  0  0
 14 37  1  0  0  0  0
 14 38  1  0  0  0  0
 15 20  1  0  0  0  0
 15 16  1  0  0  0  0
 15 18  1  0  0  0  0
 16 17  1  0  0  0  0
 16 39  1  0  0  0  0
 16 40  1  0  0  0  0
 17 41  1  0  0  0  0
 18 19  1  0  0  0  0
 18 42  1  0  0  0  0
 18 43  1  0  0  0  0
 19 20  1  0  0  0  0
 20 44  1  0  0  0  0
 20 45  1  0  0  0  0
 21 22  1  0  0  0  0
 21 46  1  0  0  0  0
 21 47  1  0  0  0  0
 22 23  1  0  0  0  0
 22 48  1  0  0  0  0
 22 49  1  0  0  0  0
 23 24  1  0  0  0  0
 23 59  1  0  0  0  0
 24 25  1  0  0  0  0
 24 50  1  0  0  0  0
 24 51  1  0  0  0  0
 25 26  1  0  0  0  0
 25 27  1  0  0  0  0
 25 28  1  0  0  0  0
 26 52  1  0  0  0  0
 26 53  1  0  0  0  0
 26 54  1  0  0  0  0
 27 55  1  0  0  0  0
 27 56  1  0  0  0  0
 27 57  1  0  0  0  0
 28 58  1  0  0  0  0
M  CHG  1  23   1
M  END
> <s_m_source_file>
AV-unprocessed.smi

> <i_m_source_file_index>
280

> <i_lp_mmshare_version>
43012

> <i_f3d_flags>
0

> <s_epik_input>
W0NIM11DKFtDSDNdKShbT0hdKVtDSDJdTjFbQ0gyXVtDSDJdTihbQ0gyXVtDQEhdMVtDSDNdKWMobltjSF1uMiljKGMyMyluW2NIXW4zW0NIMl1DNChbQ0gyXVtPSF0pW0NIMl1PW0NIMl00

> <s_epik_cmdline>
J2VwaWtfcHl0aG9uJywgJy1waCcsICc3LjAnLCAnLXRuJywgJzgnLCAnLW1hJywgJzIwMCcsICctbWV0YWxfYmluZGluZycsICctaW1hZScsICc8aW5maWxlLm1hZT4nLCAnLW9tYWUnLCAnPG91dGZpbGUubWFlPic=

> <r_lp_tautomer_probability>
1

> <r_epik_Ionization_Penalty>
0.00179402

> <r_epik_Ionization_Penalty_Charging>
0.00173996

> <r_epik_Ionization_Penalty_Neutral>
5.40607e-05

> <r_epik_State_Penalty>
-0

> <r_epik_Charging_Adjusted_Penalty>
0.00173996

> <i_epik_Tot_Q>
1

> <i_epik_Tot_abs_Q>
1

> <r_epik_Metal_State_Penalty>
-0

> <b_epik_Metal_Only>
0

> <s_lp_Force_Field>
OPLS_2005

> <r_lp_Energy>
49.5757

> <b_lp_Chiralities_Consistent>
1

> <s_lp_Variant>
AV-unprocessed.smi:280-1

> <Gold.Version>
5.8.1

> <Gold.Id.Protein>
6NUR|6NUR_protein|mol2

> <Gold.PLP.Fitness>
46.4401

> <Gold.PLP.PLP>
-36.8552

> <Gold.PLP.part.hbond>
-5.7682

> <Gold.PLP.part.metal>
0.0000

> <Gold.PLP.part.buried>
-3.6815

> <Gold.PLP.part.nonpolar>
-25.7902

> <Gold.PLP.part.repulsive>
0.1446

> <Gold.PLP.ligand.clash>
0.0000

> <Gold.PLP.ligand.torsion>
2.2027

> <Gold.PLP.Chemscore.Hbond>
4.0860

> <Gold.PLP.Chemscore.CHOScore>
0.0000

> <Gold.PLP.Chemscore.Metal>
0.0000

> <Gold.Chemscore.Hbonds>
donor molecule, donor type, donor heavy atom, donor atom, acceptor molecule, acceptor atom, score
      L1  H    17    41       P1  7957  0.79
      L1  H    28    58       P1  7921  1.00
      P1  H  7989  7998       L1    17  0.30
      P1  H  7997  8008       L1    19  0.94
      P1  H  8011  8017       L1    17  1.00

> <Gold.PLP.Chemscore.Internal.Correction>
1.7321

> <Gold.Rescore>
     Score         DG    S(hbond)    S(metal)    S(lipo)     H(rot)  DE(clash)    DE(int)     intcor
     13.01     -17.11       3.37        0.00      82.61       3.63       0.59       3.52       ----

> <Gold.Chemscore.Fitness>
13.0112

> <Gold.Chemscore.DG>
-17.1136

> <Gold.Chemscore.ZeroCoef>
-5.4800

> <Gold.Chemscore.Hbond>
3.3684

> <Gold.Chemscore.Metal>
0.0000

> <Gold.Chemscore.Lipo>
82.6123

> <Gold.Chemscore.Internal_Hbond>
0.0000

> <Gold.Chemscore.DEClash>
0.5852

> <Gold.Chemscore.DEInternal>
3.5172

> <Gold.Chemscore.Rot>
3.6260

> <Gold.Chemscore.Internal.Correction>
   9.000000E+99

> <Gold.Chemscore.Hbonds>
donor molecule, donor type, donor heavy atom, donor atom, acceptor molecule, acceptor atom, score
      L1  H    17    41       P1  7957  0.73
      L1  H    28    58       P1  7921  0.90
      P1  H  7989  7998       L1    17  0.09
      P1  H  7997  8008       L1    19  0.85
      P1  H  8011  8017       L1    17  0.25

> <Gold.Chemscore.Hbond.Weighted>
-11.2504

> <Gold.Chemscore.Metal.Weighted>
-0.0000

> <Gold.Chemscore.Lipo.Weighted>
-9.6656

> <Gold.Chemscore.Internal_Hbond.Weighted>
0.0000

> <Gold.Chemscore.DEClash.Weighted>
0.5852

> <Gold.Chemscore.DEInternal.Weighted>
3.5172

> <Gold.Chemscore.Rot.Weighted>
9.2825

> <Gold.Chemscore.Internal.Correction.Weighted>
   9.000000E+99

> <Gold.Protein.RotatedTorsions>
[ 6907 6896 6895 6894 ] final  -94.22 input  -60.11 | X-H torsion
[ 7974 7965 7964 7962 ] final -179.88 input  175.53 | X-H torsion
[ 8008 7997 7996 7995 ] final  -29.72 input   59.86 | X-H torsion
[ 10167 10162 10161 10158 ] final  155.82 input  -65.29 | X-H torsion
[ 10718 10713 10712 10709 ] final   -6.73 input   66.30 | X-H torsion
[ 10763 10752 10751 10750 ] final   80.90 input  -60.55 | X-H torsion
[ 11005 11000 10999 10996 ] final -138.41 input  -57.11 | X-H torsion

> <Gold.Protein.ActiveResidues>
 VAL166  LYS551  ARG553  GLY616  TRP617  ASP618  TYR619  PRO620  LYS621  CYS622 
 ASP623  PHE694  ASN695  SER759  ASP760  ASP761  ALA762  ILE779  LEU786  VAL792 
 PHE793  MET794  SER795  GLU796  ALA797  LYS798  CYS799  TRP800  GLU811  SER814 

> <Gold.Protein.RotatedAtoms>
  150.6937  134.1845  159.4261 H   0  0  0  0  0  0  0  0  0  0  0  0  # atno 6907 bound_to 6896
  151.9818  135.0022  160.0567 H   0  0  0  0  0  0  0  0  0  0  0  0  # atno 6908 bound_to 6896
  152.1748  133.4632  159.4964 H   0  0  0  0  0  0  0  0  0  0  0  0  # atno 6909 bound_to 6896
  144.7140  140.0650  143.6431 H   0  0  0  0  0  0  0  0  0  0  0  0  # atno 7974 bound_to 7965
  154.4279  140.1811  156.1292 H   0  0  0  0  0  0  0  0  0  0  0  0  # atno 8008 bound_to 7997
  156.0081  140.3353  155.6888 H   0  0  0  0  0  0  0  0  0  0  0  0  # atno 8009 bound_to 7997
  155.6149  140.0654  157.2686 H   0  0  0  0  0  0  0  0  0  0  0  0  # atno 8010 bound_to 7997
  139.4821  144.5064  151.8091 H   0  0  0  0  0  0  0  0  0  0  0  0  # atno 10167 bound_to 10162
  156.7276  130.5170  149.5853 H   0  0  0  0  0  0  0  0  0  0  0  0  # atno 10718 bound_to 10713
  153.1071  135.4785  154.8971 H   0  0  0  0  0  0  0  0  0  0  0  0  # atno 10763 bound_to 10752
  154.7442  135.3090  154.8677 H   0  0  0  0  0  0  0  0  0  0  0  0  # atno 10764 bound_to 10752
  153.9276  135.6848  153.4799 H   0  0  0  0  0  0  0  0  0  0  0  0  # atno 10765 bound_to 10752
  140.8618  134.2159  157.4703 H   0  0  0  0  0  0  0  0  0  0  0  0  # atno 11005 bound_to 11000
  145.9831  139.2957  143.1030 LP  0  0  0  0  0  0  0  0  0  0  0  0  # atno 17320 bound_to 7965
  145.8988  140.9256  143.0514 LP  0  0  0  0  0  0  0  0  0  0  0  0  # atno 17321 bound_to 7965
  140.4562  144.1785  150.5902 LP  0  0  0  0  0  0  0  0  0  0  0  0  # atno 17342 bound_to 10162
  140.4532  143.2478  151.9319 LP  0  0  0  0  0  0  0  0  0  0  0  0  # atno 17343 bound_to 10162
  156.1551  130.6336  151.0647 LP  0  0  0  0  0  0  0  0  0  0  0  0  # atno 17370 bound_to 10713
  157.6872  131.0821  150.7209 LP  0  0  0  0  0  0  0  0  0  0  0  0  # atno 17371 bound_to 10713
  139.8707  134.9733  156.4804 LP  0  0  0  0  0  0  0  0  0  0  0  0  # atno 17394 bound_to 11000
  140.8674  133.8014  155.9328 LP  0  0  0  0  0  0  0  0  0  0  0  0  # atno 17395 bound_to 11000

$$$$
