AV-unprocessed.smi:1201|AV-procd|sdf|5027|dock1
  -GOLD-   22720 4 53D 1   1.00000     0.00000
 Structure written by MMmdl.
 31 32  0  0  0  0  0  0  0  0  1 V2000
  152.3535  130.8509  157.9402 C   0  0  0  0  0  0  0  0  0  0  0  0
  151.7751  132.0985  157.5732 O   0  0  0  0  0  0  0  0  0  0  0  0
  151.0425  132.1630  156.4057 C   0  0  0  0  0  0  0  0  0  0  0  0
  150.4844  133.4002  156.0276 C   0  0  0  0  0  0  0  0  0  0  0  0
  149.7345  133.4754  154.8383 C   0  0  0  0  0  0  0  0  0  0  0  0
  149.5720  132.3062  154.0567 C   0  0  0  0  0  0  0  0  0  0  0  0
  148.8278  132.2397  152.8470 N   0  0  0  0  0  0  0  0  0  0  0  0
  147.7712  132.9764  152.4627 C   0  0  0  0  0  0  0  0  0  0  0  0
  147.2599  133.8874  153.1134 O   0  0  0  0  0  0  0  0  0  0  0  0
  147.3395  132.6033  151.2501 N   0  0  0  0  0  0  0  0  0  0  0  0
  146.2078  133.1952  150.5489 C   0  0  0  0  0  0  0  0  0  0  0  0
  145.1284  132.2123  150.1378 C   0  0  0  0  0  0  0  0  0  0  0  0
  143.7147  132.3782  150.6440 C   0  0  0  0  0  0  0  0  0  0  0  0
  144.5550  131.2193  151.1225 C   0  0  0  0  0  0  0  0  0  0  0  0
  150.1627  131.1159  154.5291 C   0  0  0  0  0  0  0  0  0  0  0  0
  150.8822  131.0367  155.6680 N   0  0  0  0  0  0  0  0  0  0  0  0
  152.9006  130.9681  158.8755 H   0  0  0  0  0  0  0  0  0  0  0  0
  153.0600  130.5007  157.1863 H   0  0  0  0  0  0  0  0  0  0  0  0
  151.5893  130.0884  158.0974 H   0  0  0  0  0  0  0  0  0  0  0  0
  150.6249  134.2771  156.6422 H   0  0  0  0  0  0  0  0  0  0  0  0
  149.2944  134.4207  154.5634 H   0  0  0  0  0  0  0  0  0  0  0  0
  149.1690  131.5735  152.1696 H   0  0  0  0  0  0  0  0  0  0  0  0
  147.8221  131.8502  150.7821 H   0  0  0  0  0  0  0  0  0  0  0  0
  145.7695  133.9940  151.1500 H   0  0  0  0  0  0  0  0  0  0  0  0
  146.5934  133.6702  149.6469 H   0  0  0  0  0  0  0  0  0  0  0  0
  145.2169  131.8720  149.1076 H   0  0  0  0  0  0  0  0  0  0  0  0
  143.5189  133.1802  151.3532 H   0  0  0  0  0  0  0  0  0  0  0  0
  142.9047  132.1607  149.9508 H   0  0  0  0  0  0  0  0  0  0  0  0
  144.3076  130.2283  150.7476 H   0  0  0  0  0  0  0  0  0  0  0  0
  144.9188  131.2519  152.1476 H   0  0  0  0  0  0  0  0  0  0  0  0
  150.0580  130.1949  153.9741 H   0  0  0  0  0  0  0  0  0  0  0  0
  1  2  1  0  0  0  0
  1 17  1  0  0  0  0
  1 18  1  0  0  0  0
  1 19  1  0  0  0  0
  2  3  1  0  0  0  0
  3 16  1  0  0  0  0
  3  4  2  0  0  0  0
  4  5  1  0  0  0  0
  4 20  1  0  0  0  0
  5  6  2  0  0  0  0
  5 21  1  0  0  0  0
  6  7  1  0  0  0  0
  6 15  1  0  0  0  0
  7  8  1  0  0  0  0
  7 22  1  0  0  0  0
  8  9  2  0  0  0  0
  8 10  1  0  0  0  0
 10 11  1  0  0  0  0
 10 23  1  0  0  0  0
 11 12  1  0  0  0  0
 11 24  1  0  0  0  0
 11 25  1  0  0  0  0
 12 14  1  0  0  0  0
 12 13  1  0  0  0  0
 12 26  1  0  0  0  0
 13 14  1  0  0  0  0
 13 27  1  0  0  0  0
 13 28  1  0  0  0  0
 14 29  1  0  0  0  0
 14 30  1  0  0  0  0
 15 16  2  0  0  0  0
 15 31  1  0  0  0  0
M  END
> <s_m_source_file>
AV-unprocessed.smi

> <i_m_source_file_index>
1201

> <i_lp_mmshare_version>
43012

> <i_f3d_flags>
0

> <s_epik_input>
W0NIM11PYzFbY0hdW2NIXWMoW2NIXW4xKVtOSF1DKD1PKVtOSF1bQ0gyXVtDSF0yW0NIMl1bQ0gyXTI=

> <s_epik_cmdline>
J2VwaWtfcHl0aG9uJywgJy1waCcsICc3LjAnLCAnLXRuJywgJzgnLCAnLW1hJywgJzIwMCcsICctbWV0YWxfYmluZGluZycsICctaW1hZScsICc8aW5maWxlLm1hZT4nLCAnLW9tYWUnLCAnPG91dGZpbGUubWFlPic=

> <r_lp_tautomer_probability>
1

> <r_epik_Ionization_Penalty>
9.92182e-05

> <r_epik_Ionization_Penalty_Charging>
0

> <r_epik_Ionization_Penalty_Neutral>
9.92182e-05

> <r_epik_State_Penalty>
-0

> <r_epik_Charging_Adjusted_Penalty>
0

> <i_epik_Tot_Q>
0

> <i_epik_Tot_abs_Q>
0

> <r_epik_Metal_State_Penalty>
-0

> <b_epik_Metal_Only>
0

> <s_lp_Force_Field>
OPLS_2005

> <r_lp_Energy>
14.9196

> <b_lp_Chiralities_Consistent>
1

> <s_lp_Variant>
AV-unprocessed.smi:1201-1

> <Gold.Version>
5.8.1

> <Gold.Id.Protein>
6NUR|6NUR_protein|mol2

> <Gold.PLP.Fitness>
39.2166

> <Gold.PLP.PLP>
-30.8660

> <Gold.PLP.part.hbond>
-3.0000

> <Gold.PLP.part.metal>
0.0000

> <Gold.PLP.part.buried>
-5.1902

> <Gold.PLP.part.nonpolar>
-23.8245

> <Gold.PLP.part.repulsive>
0.1889

> <Gold.PLP.ligand.clash>
0.0000

> <Gold.PLP.ligand.torsion>
0.5912

> <Gold.PLP.Chemscore.Hbond>
2.9920

> <Gold.PLP.Chemscore.CHOScore>
0.0000

> <Gold.PLP.Chemscore.Metal>
0.0000

> <Gold.Chemscore.Hbonds>
donor molecule, donor type, donor heavy atom, donor atom, acceptor molecule, acceptor atom, score
      L1  H     7    22       P1 10747  0.94
      L1  H    10    23       P1 10747  1.00
      P1  H  6896  6907       L1     2  0.91

> <Gold.PLP.Chemscore.Internal.Correction>
0.5570

> <Gold.Rescore>
     Score         DG    S(hbond)    S(metal)    S(lipo)     H(rot)  DE(clash)    DE(int)     intcor
     15.98     -17.23       2.44        0.00      62.41       1.45       0.00       1.25       ----

> <Gold.Chemscore.Fitness>
15.9842

> <Gold.Chemscore.DG>
-17.2308

> <Gold.Chemscore.ZeroCoef>
-5.4800

> <Gold.Chemscore.Hbond>
2.4430

> <Gold.Chemscore.Metal>
0.0000

> <Gold.Chemscore.Lipo>
62.4139

> <Gold.Chemscore.Internal_Hbond>
0.0000

> <Gold.Chemscore.DEClash>
0.0000

> <Gold.Chemscore.DEInternal>
1.2467

> <Gold.Chemscore.Rot>
1.4497

> <Gold.Chemscore.Internal.Correction>
   9.000000E+99

> <Gold.Chemscore.Hbonds>
donor molecule, donor type, donor heavy atom, donor atom, acceptor molecule, acceptor atom, score
      L1  H     7    22       P1 10747  0.44
      L1  H    10    23       P1 10747  0.98
      P1  H  6896  6907       L1     2  0.61

> <Gold.Chemscore.Hbond.Weighted>
-8.1596

> <Gold.Chemscore.Metal.Weighted>
-0.0000

> <Gold.Chemscore.Lipo.Weighted>
-7.3024

> <Gold.Chemscore.Internal_Hbond.Weighted>
0.0000

> <Gold.Chemscore.DEClash.Weighted>
0.0000

> <Gold.Chemscore.DEInternal.Weighted>
1.2467

> <Gold.Chemscore.Rot.Weighted>
3.7111

> <Gold.Chemscore.Internal.Correction.Weighted>
   9.000000E+99

> <Gold.Protein.RotatedTorsions>
[ 6907 6896 6895 6894 ] final -179.00 input  -60.11 | X-H torsion
[ 7974 7965 7964 7962 ] final    3.05 input  175.53 | X-H torsion
[ 8008 7997 7996 7995 ] final   80.51 input   59.86 | X-H torsion
[ 10167 10162 10161 10158 ] final  116.12 input  -65.29 | X-H torsion
[ 10718 10713 10712 10709 ] final  -73.06 input   66.30 | X-H torsion
[ 10763 10752 10751 10750 ] final -157.13 input  -60.55 | X-H torsion
[ 11005 11000 10999 10996 ] final  140.57 input  -57.11 | X-H torsion

> <Gold.Protein.ActiveResidues>
 VAL166  LYS551  ARG553  GLY616  TRP617  ASP618  TYR619  PRO620  LYS621  CYS622 
 ASP623  PHE694  ASN695  SER759  ASP760  ASP761  ALA762  ILE779  LEU786  VAL792 
 PHE793  MET794  SER795  GLU796  ALA797  LYS798  CYS799  TRP800  GLU811  SER814 

> <Gold.Protein.RotatedAtoms>
  151.6464  133.3323  159.3141 H   0  0  0  0  0  0  0  0  0  0  0  0  # atno 6907 bound_to 6896
  150.7982  134.7061  159.6587 H   0  0  0  0  0  0  0  0  0  0  0  0  # atno 6908 bound_to 6896
  152.4071  134.6192  160.0097 H   0  0  0  0  0  0  0  0  0  0  0  0  # atno 6909 bound_to 6896
  146.2445  140.0743  142.8360 H   0  0  0  0  0  0  0  0  0  0  0  0  # atno 7974 bound_to 7965
  155.8845  140.3442  155.5911 H   0  0  0  0  0  0  0  0  0  0  0  0  # atno 8008 bound_to 7997
  155.7682  140.0842  157.2140 H   0  0  0  0  0  0  0  0  0  0  0  0  # atno 8009 bound_to 7997
  154.4027  140.1523  156.2898 H   0  0  0  0  0  0  0  0  0  0  0  0  # atno 8010 bound_to 7997
  139.6269  144.7109  151.2514 H   0  0  0  0  0  0  0  0  0  0  0  0  # atno 10167 bound_to 10162
  156.0295  130.4386  150.2686 H   0  0  0  0  0  0  0  0  0  0  0  0  # atno 10718 bound_to 10713
  154.7660  135.3131  154.8286 H   0  0  0  0  0  0  0  0  0  0  0  0  # atno 10763 bound_to 10752
  153.9034  135.6813  153.4758 H   0  0  0  0  0  0  0  0  0  0  0  0  # atno 10764 bound_to 10752
  153.1266  135.4799  154.9215 H   0  0  0  0  0  0  0  0  0  0  0  0  # atno 10765 bound_to 10752
  140.0337  134.9339  157.0712 H   0  0  0  0  0  0  0  0  0  0  0  0  # atno 11005 bound_to 11000
  145.0788  140.9207  143.4837 LP  0  0  0  0  0  0  0  0  0  0  0  0  # atno 17320 bound_to 7965
  145.0892  139.2902  143.5744 LP  0  0  0  0  0  0  0  0  0  0  0  0  # atno 17321 bound_to 7965
  140.7416  143.6551  150.8213 LP  0  0  0  0  0  0  0  0  0  0  0  0  # atno 17342 bound_to 10162
  140.0171  143.5582  152.2816 LP  0  0  0  0  0  0  0  0  0  0  0  0  # atno 17343 bound_to 10162
  157.0789  131.0138  151.3163 LP  0  0  0  0  0  0  0  0  0  0  0  0  # atno 17370 bound_to 10713
  157.4942  130.7841  149.7539 LP  0  0  0  0  0  0  0  0  0  0  0  0  # atno 17371 bound_to 10713
  140.4183  134.1908  155.7164 LP  0  0  0  0  0  0  0  0  0  0  0  0  # atno 17394 bound_to 11000
  141.1845  133.8342  157.1136 LP  0  0  0  0  0  0  0  0  0  0  0  0  # atno 17395 bound_to 11000

$$$$
