AV-unprocessed.smi:2154|AV-procd|sdf|8777|dock8
  -GOLD-   2272011553D 1   1.00000     0.00000
 Structure written by MMmdl.
 31 32  0  0  0  0  0  0  0  0  2 V2000
  153.2492  141.9393  160.6586 C   0  0  0  0  0  0  0  0  0  0  0  0
  152.1728  142.9320  160.2754 C   0  0  1  0  0  0  0  0  0  0  0  0
  152.4432  144.4186  160.3291 C   0  0  0  0  0  0  0  0  0  0  0  0
  152.2771  143.7303  158.9951 C   0  0  2  0  0  0  0  0  0  0  0  0
  151.0537  143.9766  158.1378 C   0  0  0  0  0  0  0  0  0  0  0  0
  151.0743  143.2590  156.8707 N   0  0  0  0  0  0  0  0  0  0  0  0
  151.0712  141.9241  156.7188 C   0  0  0  0  0  0  0  0  0  0  0  0
  151.0325  141.1429  157.6692 O   0  0  0  0  0  0  0  0  0  0  0  0
  151.1082  141.3561  155.2888 C   0  0  0  0  0  0  0  0  0  0  0  0
  151.2050  139.8870  155.2032 N   0  0  0  0  0  0  0  0  0  0  0  0
  150.0034  139.1567  155.1966 C   0  0  0  0  0  0  0  0  0  0  0  0
  149.9888  137.8125  155.1160 C   0  0  0  0  0  0  0  0  0  0  0  0
  151.2644  137.1122  155.0341 C   0  0  0  0  0  0  0  0  0  0  0  0
  151.2703  135.8851  154.9613 O   0  0  0  0  0  0  0  0  0  0  0  0
  152.4031  137.8651  155.0410 N   0  5  0  0  0  0  0  0  0  0  0  0
  152.4028  139.2317  155.1228 C   0  0  0  0  0  0  0  0  0  0  0  0
  153.4417  139.8923  155.1192 O   0  0  0  0  0  0  0  0  0  0  0  0
  154.2296  142.2821  160.3262 H   0  0  0  0  0  0  0  0  0  0  0  0
  153.0456  140.9718  160.1992 H   0  0  0  0  0  0  0  0  0  0  0  0
  153.2739  141.8128  161.7411 H   0  0  0  0  0  0  0  0  0  0  0  0
  151.1720  142.6235  160.5716 H   0  0  0  0  0  0  0  0  0  0  0  0
  151.6365  145.0638  160.6712 H   0  0  0  0  0  0  0  0  0  0  0  0
  153.4454  144.7443  160.6007 H   0  0  0  0  0  0  0  0  0  0  0  0
  153.1885  143.5839  158.4176 H   0  0  0  0  0  0  0  0  0  0  0  0
  150.1768  143.7017  158.7257 H   0  0  0  0  0  0  0  0  0  0  0  0
  150.9658  145.0432  157.9284 H   0  0  0  0  0  0  0  0  0  0  0  0
  151.1118  143.8212  156.0322 H   0  0  0  0  0  0  0  0  0  0  0  0
  150.2234  141.7076  154.7556 H   0  0  0  0  0  0  0  0  0  0  0  0
  151.9496  141.8145  154.7674 H   0  0  0  0  0  0  0  0  0  0  0  0
  149.1036  139.7515  155.2550 H   0  0  0  0  0  0  0  0  0  0  0  0
  149.0568  137.2669  155.1101 H   0  0  0  0  0  0  0  0  0  0  0  0
  1  2  1  0  0  0  0
  1 18  1  0  0  0  0
  1 19  1  0  0  0  0
  1 20  1  0  0  0  0
  2  4  1  0  0  0  0
  2  3  1  0  0  0  0
  2 21  1  0  0  0  0
  3  4  1  0  0  0  0
  3 22  1  0  0  0  0
  3 23  1  0  0  0  0
  4  5  1  0  0  0  0
  4 24  1  0  0  0  0
  5  6  1  0  0  0  0
  5 25  1  0  0  0  0
  5 26  1  0  0  0  0
  6  7  1  0  0  0  0
  6 27  1  0  0  0  0
  7  8  2  0  0  0  0
  7  9  1  0  0  0  0
  9 10  1  0  0  0  0
  9 28  1  0  0  0  0
  9 29  1  0  0  0  0
 10 16  1  0  0  0  0
 10 11  1  0  0  0  0
 11 12  2  0  0  0  0
 11 30  1  0  0  0  0
 12 13  1  0  0  0  0
 12 31  1  0  0  0  0
 13 14  2  0  0  0  0
 13 15  1  0  0  0  0
 15 16  1  0  0  0  0
 16 17  2  0  0  0  0
M  CHG  1  15  -1
M  END
> <s_m_source_file>
AV-unprocessed.smi

> <i_m_source_file_index>
2154

> <i_lp_mmshare_version>
43012

> <i_f3d_flags>
0

> <s_epik_input>
W0NIM11bQ0BASF0xW0NIMl1bQ0BIXTFbQ0gyXVtOSF1DKD1PKVtDSDJdbjJbY0hdW2NIXWMoPU8pW25IXWMyPU8=

> <s_epik_cmdline>
J2VwaWtfcHl0aG9uJywgJy1waCcsICc3LjAnLCAnLXRuJywgJzgnLCAnLW1hJywgJzIwMCcsICctbWV0YWxfYmluZGluZycsICctaW1hZScsICc8aW5maWxlLm1hZT4nLCAnLW9tYWUnLCAnPG91dGZpbGUubWFlPic=

> <r_lp_tautomer_probability>
0.999537

> <r_epik_Ionization_Penalty>
3.12283

> <r_epik_Ionization_Penalty_Charging>
2.83566e-08

> <r_epik_Ionization_Penalty_Neutral>
3.12283

> <r_epik_State_Penalty>
3.12192

> <r_epik_Charging_Adjusted_Penalty>
3.12192

> <i_epik_Tot_Q>
-1

> <i_epik_Tot_abs_Q>
1

> <r_epik_Metal_State_Penalty>
0.463748

> <b_epik_Metal_Only>
1

> <s_lp_Force_Field>
OPLS_2005

> <r_lp_Energy>
24.2191

> <b_lp_Chiralities_Consistent>
1

> <s_lp_Variant>
AV-unprocessed.smi:2154-8

> <Gold.Version>
5.8.1

> <Gold.Id.Protein>
6NUR|6NUR_protein|mol2

> <Gold.PLP.Fitness>
43.5005

> <Gold.PLP.PLP>
-35.1636

> <Gold.PLP.part.hbond>
-4.5223

> <Gold.PLP.part.metal>
0.0000

> <Gold.PLP.part.buried>
-4.1460

> <Gold.PLP.part.nonpolar>
-26.8909

> <Gold.PLP.part.repulsive>
0.2609

> <Gold.PLP.ligand.clash>
0.0000

> <Gold.PLP.ligand.torsion>
0.7518

> <Gold.PLP.Chemscore.Hbond>
3.1008

> <Gold.PLP.Chemscore.CHOScore>
0.0000

> <Gold.PLP.Chemscore.Metal>
0.0000

> <Gold.Chemscore.Hbonds>
donor molecule, donor type, donor heavy atom, donor atom, acceptor molecule, acceptor atom, score
      L1  H     6    27       P1  8028  0.01
      P1  H  7997  8010       L1    17  0.42
      P1  H 10752 10765       L1    14  1.00

> <Gold.PLP.Chemscore.Internal.Correction>
0.5381

> <Gold.Rescore>
     Score         DG    S(hbond)    S(metal)    S(lipo)     H(rot)  DE(clash)    DE(int)     intcor
     16.24     -17.31       2.68        0.00      67.50       1.96       0.16       0.91       ----

> <Gold.Chemscore.Fitness>
16.2380

> <Gold.Chemscore.DG>
-17.3055

> <Gold.Chemscore.ZeroCoef>
-5.4800

> <Gold.Chemscore.Hbond>
2.6789

> <Gold.Chemscore.Metal>
0.0000

> <Gold.Chemscore.Lipo>
67.5029

> <Gold.Chemscore.Internal_Hbond>
0.0000

> <Gold.Chemscore.DEClash>
0.1598

> <Gold.Chemscore.DEInternal>
0.9078

> <Gold.Chemscore.Rot>
1.9609

> <Gold.Chemscore.Internal.Correction>
   9.000000E+99

> <Gold.Chemscore.Hbonds>
donor molecule, donor type, donor heavy atom, donor atom, acceptor molecule, acceptor atom, score
      L1  H     6    27       P1  8028  0.02
      P1  H  7997  8010       L1    17  0.44
      P1  H 10752 10765       L1    14  0.34

> <Gold.Chemscore.Hbond.Weighted>
-8.9476

> <Gold.Chemscore.Metal.Weighted>
-0.0000

> <Gold.Chemscore.Lipo.Weighted>
-7.8978

> <Gold.Chemscore.Internal_Hbond.Weighted>
0.0000

> <Gold.Chemscore.DEClash.Weighted>
0.1598

> <Gold.Chemscore.DEInternal.Weighted>
0.9078

> <Gold.Chemscore.Rot.Weighted>
5.0200

> <Gold.Chemscore.Internal.Correction.Weighted>
   9.000000E+99

> <Gold.Protein.RotatedTorsions>
[ 6907 6896 6895 6894 ] final  135.56 input  -60.11 | X-H torsion
[ 7974 7965 7964 7962 ] final  -88.73 input  175.53 | X-H torsion
[ 8008 7997 7996 7995 ] final  107.55 input   59.86 | X-H torsion
[ 10167 10162 10161 10158 ] final  126.10 input  -65.29 | X-H torsion
[ 10718 10713 10712 10709 ] final  -82.65 input   66.30 | X-H torsion
[ 10763 10752 10751 10750 ] final -163.22 input  -60.55 | X-H torsion
[ 11005 11000 10999 10996 ] final  -72.25 input  -57.11 | X-H torsion

> <Gold.Protein.ActiveResidues>
 VAL166  LYS551  ARG553  GLY616  TRP617  ASP618  TYR619  PRO620  LYS621  CYS622 
 ASP623  PHE694  ASN695  SER759  ASP760  ASP761  ALA762  ILE779  LEU786  VAL792 
 PHE793  MET794  SER795  GLU796  ALA797  LYS798  CYS799  TRP800  GLU811  SER814 

> <Gold.Protein.RotatedAtoms>
  152.2991  133.5637  159.5606 H   0  0  0  0  0  0  0  0  0  0  0  0  # atno 6907 bound_to 6896
  150.7269  134.0318  159.3745 H   0  0  0  0  0  0  0  0  0  0  0  0  # atno 6908 bound_to 6896
  151.8219  135.0649  160.0477 H   0  0  0  0  0  0  0  0  0  0  0  0  # atno 6909 bound_to 6896
  145.4492  140.9560  143.2031 H   0  0  0  0  0  0  0  0  0  0  0  0  # atno 7974 bound_to 7965
  156.1833  140.3092  155.9191 H   0  0  0  0  0  0  0  0  0  0  0  0  # atno 8008 bound_to 7997
  155.3336  140.0462  157.3060 H   0  0  0  0  0  0  0  0  0  0  0  0  # atno 8009 bound_to 7997
  154.5367  140.2248  155.8720 H   0  0  0  0  0  0  0  0  0  0  0  0  # atno 8010 bound_to 7997
  139.5649  144.6905  151.3937 H   0  0  0  0  0  0  0  0  0  0  0  0  # atno 10167 bound_to 10162
  156.0030  130.4641  150.4137 H   0  0  0  0  0  0  0  0  0  0  0  0  # atno 10718 bound_to 10713
  154.7142  135.3012  154.9150 H   0  0  0  0  0  0  0  0  0  0  0  0  # atno 10763 bound_to 10752
  154.0042  135.6703  153.4765 H   0  0  0  0  0  0  0  0  0  0  0  0  # atno 10764 bound_to 10752
  153.0780  135.5024  154.8358 H   0  0  0  0  0  0  0  0  0  0  0  0  # atno 10765 bound_to 10752
  141.1605  133.6841  156.7030 H   0  0  0  0  0  0  0  0  0  0  0  0  # atno 11005 bound_to 11000
  144.8072  139.6029  143.7045 LP  0  0  0  0  0  0  0  0  0  0  0  0  # atno 17320 bound_to 7965
  146.2513  139.6207  142.9425 LP  0  0  0  0  0  0  0  0  0  0  0  0  # atno 17321 bound_to 7965
  140.6932  143.7811  150.7287 LP  0  0  0  0  0  0  0  0  0  0  0  0  # atno 17342 bound_to 10162
  140.1300  143.4535  152.2260 LP  0  0  0  0  0  0  0  0  0  0  0  0  # atno 17343 bound_to 10162
  157.2198  131.0480  151.2552 LP  0  0  0  0  0  0  0  0  0  0  0  0  # atno 17370 bound_to 10713
  157.3811  130.7231  149.6630 LP  0  0  0  0  0  0  0  0  0  0  0  0  # atno 17371 bound_to 10713
  140.2944  134.8214  157.4045 LP  0  0  0  0  0  0  0  0  0  0  0  0  # atno 17394 bound_to 11000
  140.1317  134.5086  155.8100 LP  0  0  0  0  0  0  0  0  0  0  0  0  # atno 17395 bound_to 11000

$$$$
