AV-unprocessed.smi:2142|AV-procd|sdf|8720|dock6
  -GOLD-   2272011483D 1   1.00000     0.00000
 Structure written by MMmdl.
 40 41  0  0  0  0  0  0  0  0  1 V2000
  152.1875  142.7160  159.9141 C   0  0  0  0  0  0  0  0  0  0  0  0
  151.2057  143.2897  159.0691 O   0  0  0  0  0  0  0  0  0  0  0  0
  151.4687  143.0561  157.6956 C   0  0  0  0  0  0  0  0  0  0  0  0
  151.5820  141.5481  157.4538 C   0  0  0  0  0  0  0  0  0  0  0  0
  151.1740  141.2651  156.1184 O   0  0  0  0  0  0  0  0  0  0  0  0
  150.7691  139.9826  155.8111 C   0  0  0  0  0  0  0  0  0  0  0  0
  150.7808  139.0102  156.8309 C   0  0  0  0  0  0  0  0  0  0  0  0
  150.3758  137.6968  156.5251 C   0  0  0  0  0  0  0  0  0  0  0  0
  149.9763  137.3962  155.2014 C   0  0  0  0  0  0  0  0  0  0  0  0
  149.5280  136.1187  154.7724 N   0  0  0  0  0  0  0  0  0  0  0  0
  149.8015  134.9073  155.2999 C   0  0  0  0  0  0  0  0  0  0  0  0
  150.5379  134.7255  156.2695 O   0  0  0  0  0  0  0  0  0  0  0  0
  149.1680  133.7532  154.6046 C   0  0  0  0  0  0  0  0  0  0  0  0
  148.3451  133.9592  153.6241 N   0  0  0  0  0  0  0  0  0  0  0  0
  147.7451  132.9263  152.9346 N   0  0  0  0  0  0  0  0  0  0  0  0
  147.0725  133.3551  151.7083 C   0  0  0  0  0  0  0  0  0  0  0  0
  147.7375  131.6320  153.3453 C   0  0  0  0  0  0  0  0  0  0  0  0
  147.2202  130.7103  152.7148 O   0  0  0  0  0  0  0  0  0  0  0  0
  148.3955  131.3416  154.6974 C   0  0  0  0  0  0  0  0  0  0  0  0
  149.5210  132.3411  155.0275 C   0  0  0  0  0  0  0  0  0  0  0  0
  149.9837  138.4447  154.2586 C   0  0  0  0  0  0  0  0  0  0  0  0
  150.3734  139.7046  154.5443 N   0  0  0  0  0  0  0  0  0  0  0  0
  151.9436  142.9267  160.9553 H   0  0  0  0  0  0  0  0  0  0  0  0
  153.1758  143.1300  159.7093 H   0  0  0  0  0  0  0  0  0  0  0  0
  152.2287  141.6330  159.7906 H   0  0  0  0  0  0  0  0  0  0  0  0
  150.6470  143.4581  157.1008 H   0  0  0  0  0  0  0  0  0  0  0  0
  152.3816  143.5632  157.3792 H   0  0  0  0  0  0  0  0  0  0  0  0
  152.6041  141.2122  157.6371 H   0  0  0  0  0  0  0  0  0  0  0  0
  150.9262  141.0253  158.1518 H   0  0  0  0  0  0  0  0  0  0  0  0
  151.0917  139.2677  157.8326 H   0  0  0  0  0  0  0  0  0  0  0  0
  150.3669  136.9559  157.3092 H   0  0  0  0  0  0  0  0  0  0  0  0
  148.9810  136.1135  153.9232 H   0  0  0  0  0  0  0  0  0  0  0  0
  146.5772  132.5462  151.1698 H   0  0  0  0  0  0  0  0  0  0  0  0
  147.7923  133.8084  151.0258 H   0  0  0  0  0  0  0  0  0  0  0  0
  146.3134  134.1033  151.9397 H   0  0  0  0  0  0  0  0  0  0  0  0
  147.6172  131.4016  155.4590 H   0  0  0  0  0  0  0  0  0  0  0  0
  148.7771  130.3202  154.7185 H   0  0  0  0  0  0  0  0  0  0  0  0
  150.4450  132.0386  154.5334 H   0  0  0  0  0  0  0  0  0  0  0  0
  149.7164  132.2959  156.0996 H   0  0  0  0  0  0  0  0  0  0  0  0
  149.6733  138.2672  153.2392 H   0  0  0  0  0  0  0  0  0  0  0  0
  1  2  1  0  0  0  0
  1 23  1  0  0  0  0
  1 24  1  0  0  0  0
  1 25  1  0  0  0  0
  2  3  1  0  0  0  0
  3  4  1  0  0  0  0
  3 26  1  0  0  0  0
  3 27  1  0  0  0  0
  4  5  1  0  0  0  0
  4 28  1  0  0  0  0
  4 29  1  0  0  0  0
  5  6  1  0  0  0  0
  6 22  1  0  0  0  0
  6  7  2  0  0  0  0
  7  8  1  0  0  0  0
  7 30  1  0  0  0  0
  8  9  2  0  0  0  0
  8 31  1  0  0  0  0
  9 10  1  0  0  0  0
  9 21  1  0  0  0  0
 10 11  1  0  0  0  0
 10 32  1  0  0  0  0
 11 12  2  0  0  0  0
 11 13  1  0  0  0  0
 13 20  1  0  0  0  0
 13 14  2  0  0  0  0
 14 15  1  0  0  0  0
 15 16  1  0  0  0  0
 15 17  1  0  0  0  0
 16 33  1  0  0  0  0
 16 34  1  0  0  0  0
 16 35  1  0  0  0  0
 17 18  2  0  0  0  0
 17 19  1  0  0  0  0
 19 20  1  0  0  0  0
 19 36  1  0  0  0  0
 19 37  1  0  0  0  0
 20 38  1  0  0  0  0
 20 39  1  0  0  0  0
 21 22  2  0  0  0  0
 21 40  1  0  0  0  0
M  END
> <s_m_source_file>
AV-unprocessed.smi

> <i_m_source_file_index>
2142

> <i_lp_mmshare_version>
43012

> <i_f3d_flags>
0

> <s_epik_input>
W0NIM11PW0NIMl1bQ0gyXU9jMVtjSF1bY0hdYyhbY0hdbjEpW05IXUMoPU8pQzI9Tk4oW0NIM10pQyg9TylbQ0gyXVtDSDJdMg==

> <s_epik_cmdline>
J2VwaWtfcHl0aG9uJywgJy1waCcsICc3LjAnLCAnLXRuJywgJzgnLCAnLW1hJywgJzIwMCcsICctbWV0YWxfYmluZGluZycsICctaW1hZScsICc8aW5maWxlLm1hZT4nLCAnLW9tYWUnLCAnPG91dGZpbGUubWFlPic=

> <r_lp_tautomer_probability>
1

> <r_epik_Ionization_Penalty>
2.74522e-05

> <r_epik_Ionization_Penalty_Charging>
0

> <r_epik_Ionization_Penalty_Neutral>
2.74522e-05

> <r_epik_State_Penalty>
-0

> <r_epik_Charging_Adjusted_Penalty>
0

> <i_epik_Tot_Q>
0

> <i_epik_Tot_abs_Q>
0

> <r_epik_Metal_State_Penalty>
0.0227286

> <b_epik_Metal_Only>
0

> <s_epik_Chemistry_Notes>
This compound has an imine and may undergo hydrolysis.

> <s_lp_Force_Field>
OPLS_2005

> <r_lp_Energy>
20.7246

> <b_lp_Chiralities_Consistent>
1

> <s_lp_Variant>
AV-unprocessed.smi:2142-1

> <Gold.Version>
5.8.1

> <Gold.Id.Protein>
6NUR|6NUR_protein|mol2

> <Gold.PLP.Fitness>
40.8431

> <Gold.PLP.PLP>
-31.7370

> <Gold.PLP.part.hbond>
-2.0000

> <Gold.PLP.part.metal>
0.0000

> <Gold.PLP.part.buried>
-5.6891

> <Gold.PLP.part.nonpolar>
-26.7469

> <Gold.PLP.part.repulsive>
4.2720

> <Gold.PLP.ligand.clash>
0.6043

> <Gold.PLP.ligand.torsion>
0.4210

> <Gold.PLP.Chemscore.Hbond>
1.9120

> <Gold.PLP.Chemscore.CHOScore>
1.5831

> <Gold.PLP.Chemscore.Metal>
0.0000

> <Gold.Chemscore.Hbonds>
donor molecule, donor type, donor heavy atom, donor atom, acceptor molecule, acceptor atom, score
      L1  H    10    32       P1  7948  0.89
      P1  H  7989  7998       L1    22  1.00
      L1  C    21    40       P1  7948  1.00
      L1  C    21    40       P1  7957  0.52

> <Gold.PLP.Chemscore.Internal.Correction>
0.0670

> <Gold.Rescore>
     Score         DG    S(hbond)    S(metal)    S(lipo)     H(rot)  DE(clash)    DE(int)     intcor
     10.42     -13.38       1.40        0.00      65.62       1.74       1.45       1.51       ----

> <Gold.Chemscore.Fitness>
10.4207

> <Gold.Chemscore.DG>
-13.3812

> <Gold.Chemscore.ZeroCoef>
-5.4800

> <Gold.Chemscore.Hbond>
1.4016

> <Gold.Chemscore.Metal>
0.0000

> <Gold.Chemscore.Lipo>
65.6217

> <Gold.Chemscore.Internal_Hbond>
0.0000

> <Gold.Chemscore.DEClash>
1.4461

> <Gold.Chemscore.DEInternal>
1.5144

> <Gold.Chemscore.Rot>
1.7414

> <Gold.Chemscore.Internal.Correction>
   9.000000E+99

> <Gold.Chemscore.Hbonds>
donor molecule, donor type, donor heavy atom, donor atom, acceptor molecule, acceptor atom, score
      L1  H    10    32       P1  7948  0.81
      P1  H  7989  7998       L1    22  0.29

> <Gold.Chemscore.Hbond.Weighted>
-4.6814

> <Gold.Chemscore.Metal.Weighted>
-0.0000

> <Gold.Chemscore.Lipo.Weighted>
-7.6777

> <Gold.Chemscore.Internal_Hbond.Weighted>
0.0000

> <Gold.Chemscore.DEClash.Weighted>
1.4461

> <Gold.Chemscore.DEInternal.Weighted>
1.5144

> <Gold.Chemscore.Rot.Weighted>
4.4580

> <Gold.Chemscore.Internal.Correction.Weighted>
   9.000000E+99

> <Gold.Protein.RotatedTorsions>
[ 6907 6896 6895 6894 ] final -155.05 input  -60.11 | X-H torsion
[ 7974 7965 7964 7962 ] final  -80.03 input  175.53 | X-H torsion
[ 8008 7997 7996 7995 ] final  -48.65 input   59.86 | X-H torsion
[ 10167 10162 10161 10158 ] final  -40.58 input  -65.29 | X-H torsion
[ 10718 10713 10712 10709 ] final   -9.24 input   66.30 | X-H torsion
[ 10763 10752 10751 10750 ] final   45.59 input  -60.55 | X-H torsion
[ 11005 11000 10999 10996 ] final -151.28 input  -57.11 | X-H torsion

> <Gold.Protein.ActiveResidues>
 VAL166  LYS551  ARG553  GLY616  TRP617  ASP618  TYR619  PRO620  LYS621  CYS622 
 ASP623  PHE694  ASN695  SER759  ASP760  ASP761  ALA762  ILE779  LEU786  VAL792 
 PHE793  MET794  SER795  GLU796  ALA797  LYS798  CYS799  TRP800  GLU811  SER814 

> <Gold.Protein.RotatedAtoms>
  151.2667  133.4275  159.2618 H   0  0  0  0  0  0  0  0  0  0  0  0  # atno 6907 bound_to 6896
  151.0481  134.9654  159.8207 H   0  0  0  0  0  0  0  0  0  0  0  0  # atno 6908 bound_to 6896
  152.5378  134.2623  159.8992 H   0  0  0  0  0  0  0  0  0  0  0  0  # atno 6909 bound_to 6896
  145.5654  140.9475  143.1424 H   0  0  0  0  0  0  0  0  0  0  0  0  # atno 7974 bound_to 7965
  154.4032  140.1316  156.4374 H   0  0  0  0  0  0  0  0  0  0  0  0  # atno 8008 bound_to 7997
  155.7492  140.3488  155.5122 H   0  0  0  0  0  0  0  0  0  0  0  0  # atno 8009 bound_to 7997
  155.8965  140.1012  157.1371 H   0  0  0  0  0  0  0  0  0  0  0  0  # atno 8010 bound_to 7997
  140.7030  143.3145  151.2944 H   0  0  0  0  0  0  0  0  0  0  0  0  # atno 10167 bound_to 10162
  156.6908  130.5064  149.5944 H   0  0  0  0  0  0  0  0  0  0  0  0  # atno 10718 bound_to 10713
  152.9822  135.6034  154.3462 H   0  0  0  0  0  0  0  0  0  0  0  0  # atno 10763 bound_to 10752
  154.3155  135.2770  155.2547 H   0  0  0  0  0  0  0  0  0  0  0  0  # atno 10764 bound_to 10752
  154.4737  135.5935  153.6395 H   0  0  0  0  0  0  0  0  0  0  0  0  # atno 10765 bound_to 10752
  140.7312  134.3619  157.5166 H   0  0  0  0  0  0  0  0  0  0  0  0  # atno 11005 bound_to 11000
  144.7463  139.7312  143.7291 LP  0  0  0  0  0  0  0  0  0  0  0  0  # atno 17320 bound_to 7965
  146.1822  139.5020  142.9859 LP  0  0  0  0  0  0  0  0  0  0  0  0  # atno 17321 bound_to 7965
  139.6579  144.0243  152.2672 LP  0  0  0  0  0  0  0  0  0  0  0  0  # atno 17342 bound_to 10162
  139.9800  144.6435  150.7909 LP  0  0  0  0  0  0  0  0  0  0  0  0  # atno 17343 bound_to 10162
  156.1799  130.6492  151.0938 LP  0  0  0  0  0  0  0  0  0  0  0  0  # atno 17370 bound_to 10713
  157.7009  131.0776  150.6822 LP  0  0  0  0  0  0  0  0  0  0  0  0  # atno 17371 bound_to 10713
  139.8826  134.9019  156.2822 LP  0  0  0  0  0  0  0  0  0  0  0  0  # atno 17394 bound_to 11000
  140.9919  133.7203  156.0827 LP  0  0  0  0  0  0  0  0  0  0  0  0  # atno 17395 bound_to 11000

$$$$
