AV-unprocessed.smi:753|AV-procd|sdf|3605|dock1
  -GOLD-   22720 1 03D 1   1.00000     0.00000
 Structure written by MMmdl.
 44 46  0  0  0  0  0  0  0  0  2 V2000
  151.4332  144.5536  158.0359 C   0  0  0  0  0  0  0  0  0  0  0  0
  151.3829  143.1317  157.5185 C   0  0  0  0  0  0  0  0  0  0  0  0
  152.1625  142.0984  158.0808 C   0  0  0  0  0  0  0  0  0  0  0  0
  152.0712  140.7973  157.5449 C   0  0  0  0  0  0  0  0  0  0  0  0
  151.2013  140.5548  156.4588 C   0  0  0  0  0  0  0  0  0  0  0  0
  151.1041  139.1744  155.8330 C   0  0  0  0  0  0  0  0  0  0  0  0
  150.1622  139.1128  154.6146 C   0  0  0  0  0  0  0  0  0  0  0  0
  149.8957  137.7435  154.1804 N   0  0  0  0  0  0  0  0  0  0  0  0
  149.7952  136.6709  154.9852 C   0  0  0  0  0  0  0  0  0  0  0  0
  149.9069  136.7264  156.2085 O   0  0  0  0  0  0  0  0  0  0  0  0
  149.5434  135.5138  154.3489 N   0  0  0  0  0  0  0  0  0  0  0  0
  149.3794  134.1818  154.9369 C   0  0  2  0  0  0  0  0  0  0  0  0
  150.2231  133.1313  154.1809 C   0  0  0  0  0  0  0  0  0  0  0  0
  149.1723  132.1035  153.7219 C   0  0  2  0  0  0  0  0  0  0  0  0
  148.3125  132.7107  152.5970 C   0  0  0  0  0  0  0  0  0  0  0  0
  147.4275  133.7206  153.3516 C   0  0  0  0  0  0  0  0  0  0  0  0
  147.9458  133.6052  154.8017 C   0  0  1  0  0  0  0  0  0  0  0  0
  148.2047  132.1055  154.8978 C   0  0  0  0  0  0  0  0  0  0  0  0
  150.4391  141.6252  155.9441 C   0  0  0  0  0  0  0  0  0  0  0  0
  150.5574  142.8578  156.4834 N   0  3  0  0  0  0  0  0  0  0  0  0
  152.3450  144.7284  158.6078 H   0  0  0  0  0  0  0  0  0  0  0  0
  150.5789  144.7498  158.6839 H   0  0  0  0  0  0  0  0  0  0  0  0
  151.4106  145.2660  157.2105 H   0  0  0  0  0  0  0  0  0  0  0  0
  152.8270  142.2987  158.9087 H   0  0  0  0  0  0  0  0  0  0  0  0
  152.6716  139.9996  157.9576 H   0  0  0  0  0  0  0  0  0  0  0  0
  152.1008  138.8391  155.5425 H   0  0  0  0  0  0  0  0  0  0  0  0
  150.7601  138.4738  156.5947 H   0  0  0  0  0  0  0  0  0  0  0  0
  149.2083  139.5739  154.8717 H   0  0  0  0  0  0  0  0  0  0  0  0
  150.5695  139.7022  153.7913 H   0  0  0  0  0  0  0  0  0  0  0  0
  149.7889  137.5961  153.1872 H   0  0  0  0  0  0  0  0  0  0  0  0
  149.4281  135.5665  153.3471 H   0  0  0  0  0  0  0  0  0  0  0  0
  149.6860  134.1950  155.9846 H   0  0  0  0  0  0  0  0  0  0  0  0
  150.7810  133.5457  153.3399 H   0  0  0  0  0  0  0  0  0  0  0  0
  150.9444  132.6676  154.8550 H   0  0  0  0  0  0  0  0  0  0  0  0
  149.5947  131.1295  153.4730 H   0  0  0  0  0  0  0  0  0  0  0  0
  148.9199  133.1860  151.8260 H   0  0  0  0  0  0  0  0  0  0  0  0
  147.6989  131.9475  152.1167 H   0  0  0  0  0  0  0  0  0  0  0  0
  147.4929  134.7279  152.9404 H   0  0  0  0  0  0  0  0  0  0  0  0
  146.3809  133.4184  153.2976 H   0  0  0  0  0  0  0  0  0  0  0  0
  147.2464  133.9927  155.5433 H   0  0  0  0  0  0  0  0  0  0  0  0
  147.3140  131.4982  154.7271 H   0  0  0  0  0  0  0  0  0  0  0  0
  148.6670  131.8051  155.8398 H   0  0  0  0  0  0  0  0  0  0  0  0
  149.7558  141.5368  155.1123 H   0  0  0  0  0  0  0  0  0  0  0  0
  150.0026  143.6171  156.0878 H   0  0  0  0  0  0  0  0  0  0  0  0
  1  2  1  0  0  0  0
  1 21  1  0  0  0  0
  1 22  1  0  0  0  0
  1 23  1  0  0  0  0
  2 20  1  0  0  0  0
  2  3  2  0  0  0  0
  3  4  1  0  0  0  0
  3 24  1  0  0  0  0
  4  5  2  0  0  0  0
  4 25  1  0  0  0  0
  5  6  1  0  0  0  0
  5 19  1  0  0  0  0
  6  7  1  0  0  0  0
  6 26  1  0  0  0  0
  6 27  1  0  0  0  0
  7  8  1  0  0  0  0
  7 28  1  0  0  0  0
  7 29  1  0  0  0  0
  8  9  1  0  0  0  0
  8 30  1  0  0  0  0
  9 10  2  0  0  0  0
  9 11  1  0  0  0  0
 11 12  1  0  0  0  0
 11 31  1  0  0  0  0
 12 17  1  0  0  0  0
 12 13  1  0  0  0  0
 12 32  1  0  0  0  0
 13 14  1  0  0  0  0
 13 33  1  0  0  0  0
 13 34  1  0  0  0  0
 14 18  1  0  0  0  0
 14 15  1  0  0  0  0
 14 35  1  0  0  0  0
 15 16  1  0  0  0  0
 15 36  1  0  0  0  0
 15 37  1  0  0  0  0
 16 17  1  0  0  0  0
 16 38  1  0  0  0  0
 16 39  1  0  0  0  0
 17 18  1  0  0  0  0
 17 40  1  0  0  0  0
 18 41  1  0  0  0  0
 18 42  1  0  0  0  0
 19 20  2  0  0  0  0
 19 43  1  0  0  0  0
 20 44  1  0  0  0  0
M  CHG  1  20   1
M  END
> <s_m_source_file>
AV-unprocessed.smi

> <i_m_source_file_index>
753

> <i_lp_mmshare_version>
43012

> <i_f3d_flags>
0

> <s_epik_input>
W0NIM11jMVtjSF1bY0hdYyhbY0hdbjEpW0NIMl1bQ0gyXVtOSF1DKD1PKVtOSF1bQ0BIXShbQ0gyXVtDQEBIXTIzKVtDQEBIXShbQ0gyXTMpW0NIMl1bQ0gyXTI=

> <s_epik_cmdline>
J2VwaWtfcHl0aG9uJywgJy1waCcsICc3LjAnLCAnLXRuJywgJzgnLCAnLW1hJywgJzIwMCcsICctbWV0YWxfYmluZGluZycsICctaW1hZScsICc8aW5maWxlLm1hZT4nLCAnLW9tYWUnLCAnPG91dGZpbGUubWFlPic=

> <r_epik_Ionization_Penalty>
1.41708

> <r_epik_Ionization_Penalty_Charging>
1.41702

> <r_epik_Ionization_Penalty_Neutral>
5.73163e-05

> <r_epik_State_Penalty>
1.50048

> <r_epik_Charging_Adjusted_Penalty>
2.9175

> <i_epik_Tot_Q>
1

> <i_epik_Tot_abs_Q>
1

> <r_epik_Metal_State_Penalty>
1.55295

> <b_epik_Metal_Only>
0

> <s_lp_Force_Field>
OPLS_2005

> <r_lp_Energy>
59.6045

> <b_lp_Chiralities_Consistent>
1

> <s_lp_Variant>
AV-unprocessed.smi:753-7

> <Gold.Version>
5.8.1

> <Gold.Id.Protein>
6NUR|6NUR_protein|mol2

> <Gold.PLP.Fitness>
45.9477

> <Gold.PLP.PLP>
-35.0942

> <Gold.PLP.part.hbond>
-3.0000

> <Gold.PLP.part.metal>
0.0000

> <Gold.PLP.part.buried>
-3.3438

> <Gold.PLP.part.nonpolar>
-28.5937

> <Gold.PLP.part.repulsive>
0.1594

> <Gold.PLP.ligand.clash>
0.0000

> <Gold.PLP.ligand.torsion>
0.3001

> <Gold.PLP.Chemscore.Hbond>
3.8089

> <Gold.PLP.Chemscore.CHOScore>
0.0000

> <Gold.PLP.Chemscore.Metal>
0.0000

> <Gold.Chemscore.Hbonds>
donor molecule, donor type, donor heavy atom, donor atom, acceptor molecule, acceptor atom, score
      L1  H     8    30       P1  7948  0.82
      L1  H    11    31       P1  7948  0.90
      L1  H    20    44       P1  8028  2.00

> <Gold.PLP.Chemscore.Internal.Correction>
0.0271

> <Gold.Rescore>
     Score         DG    S(hbond)    S(metal)    S(lipo)     H(rot)  DE(clash)    DE(int)     intcor
     20.03     -21.74       2.77        0.00      92.78       1.50       0.02       1.69       ----

> <Gold.Chemscore.Fitness>
20.0346

> <Gold.Chemscore.DG>
-21.7450

> <Gold.Chemscore.ZeroCoef>
-5.4800

> <Gold.Chemscore.Hbond>
2.7715

> <Gold.Chemscore.Metal>
0.0000

> <Gold.Chemscore.Lipo>
92.7779

> <Gold.Chemscore.Internal_Hbond>
0.0000

> <Gold.Chemscore.DEClash>
0.0186

> <Gold.Chemscore.DEInternal>
1.6918

> <Gold.Chemscore.Rot>
1.5027

> <Gold.Chemscore.Internal.Correction>
   9.000000E+99

> <Gold.Chemscore.Hbonds>
donor molecule, donor type, donor heavy atom, donor atom, acceptor molecule, acceptor atom, score
      L1  H     8    30       P1  7948  0.45
      L1  H    11    31       P1  7948  0.18
      L1  H    20    44       P1  8028  0.99

> <Gold.Chemscore.Hbond.Weighted>
-9.2568

> <Gold.Chemscore.Metal.Weighted>
-0.0000

> <Gold.Chemscore.Lipo.Weighted>
-10.8550

> <Gold.Chemscore.Internal_Hbond.Weighted>
0.0000

> <Gold.Chemscore.DEClash.Weighted>
0.0186

> <Gold.Chemscore.DEInternal.Weighted>
1.6918

> <Gold.Chemscore.Rot.Weighted>
3.8468

> <Gold.Chemscore.Internal.Correction.Weighted>
   9.000000E+99

> <Gold.Protein.RotatedTorsions>
[ 6907 6896 6895 6894 ] final -127.83 input  -60.11 | X-H torsion
[ 7974 7965 7964 7962 ] final -177.98 input  175.53 | X-H torsion
[ 8008 7997 7996 7995 ] final  -81.37 input   59.86 | X-H torsion
[ 10167 10162 10161 10158 ] final -156.08 input  -65.29 | X-H torsion
[ 10718 10713 10712 10709 ] final  144.16 input   66.30 | X-H torsion
[ 10763 10752 10751 10750 ] final  111.58 input  -60.55 | X-H torsion
[ 11005 11000 10999 10996 ] final  120.20 input  -57.11 | X-H torsion

> <Gold.Protein.ActiveResidues>
 VAL166  LYS551  ARG553  GLY616  TRP617  ASP618  TYR619  PRO620  LYS621  CYS622 
 ASP623  PHE694  ASN695  SER759  ASP760  ASP761  ALA762  ILE779  LEU786  VAL792 
 PHE793  MET794  SER795  GLU796  ALA797  LYS798  CYS799  TRP800  GLU811  SER814 

> <Gold.Protein.RotatedAtoms>
  150.9114  133.6992  159.2853 H   0  0  0  0  0  0  0  0  0  0  0  0  # atno 6907 bound_to 6896
  151.4478  135.1025  159.9698 H   0  0  0  0  0  0  0  0  0  0  0  0  # atno 6908 bound_to 6896
  152.4932  133.8508  159.7255 H   0  0  0  0  0  0  0  0  0  0  0  0  # atno 6909 bound_to 6896
  144.7129  140.0937  143.6420 H   0  0  0  0  0  0  0  0  0  0  0  0  # atno 7974 bound_to 7965
  154.5976  140.0649  156.9325 H   0  0  0  0  0  0  0  0  0  0  0  0  # atno 8008 bound_to 7997
  155.2187  140.3328  155.4300 H   0  0  0  0  0  0  0  0  0  0  0  0  # atno 8009 bound_to 7997
  156.2297  140.1835  156.7257 H   0  0  0  0  0  0  0  0  0  0  0  0  # atno 8010 bound_to 7997
  139.6879  143.9469  152.2370 H   0  0  0  0  0  0  0  0  0  0  0  0  # atno 10167 bound_to 10162
  157.3604  131.0964  151.0920 H   0  0  0  0  0  0  0  0  0  0  0  0  # atno 10718 bound_to 10713
  153.4654  135.3712  155.2362 H   0  0  0  0  0  0  0  0  0  0  0  0  # atno 10763 bound_to 10752
  154.8757  135.3919  154.3875 H   0  0  0  0  0  0  0  0  0  0  0  0  # atno 10764 bound_to 10752
  153.4455  135.7085  153.6206 H   0  0  0  0  0  0  0  0  0  0  0  0  # atno 10765 bound_to 10752
  139.9176  134.9633  156.7770 H   0  0  0  0  0  0  0  0  0  0  0  0  # atno 11005 bound_to 11000
  145.9598  139.2792  143.1162 LP  0  0  0  0  0  0  0  0  0  0  0  0  # atno 17320 bound_to 7965
  145.9233  140.9100  143.0394 LP  0  0  0  0  0  0  0  0  0  0  0  0  # atno 17321 bound_to 7965
  139.9277  144.6760  150.8395 LP  0  0  0  0  0  0  0  0  0  0  0  0  # atno 17342 bound_to 10162
  140.7673  143.3330  151.2369 LP  0  0  0  0  0  0  0  0  0  0  0  0  # atno 17343 bound_to 10162
  157.2062  130.6417  149.5757 LP  0  0  0  0  0  0  0  0  0  0  0  0  # atno 17370 bound_to 10713
  155.9736  130.4675  150.6326 LP  0  0  0  0  0  0  0  0  0  0  0  0  # atno 17371 bound_to 10713
  140.6575  133.9676  155.7787 LP  0  0  0  0  0  0  0  0  0  0  0  0  # atno 17394 bound_to 11000
  141.0666  134.0267  157.3585 LP  0  0  0  0  0  0  0  0  0  0  0  0  # atno 17395 bound_to 11000

$$$$
