AV-unprocessed.smi:3183|AV-procd|sdf|12160|dock1
  -GOLD-   2272017593D 1   1.00000     0.00000
 Structure written by MMmdl.
 43 44  0  0  0  0  0  0  0  0  2 V2000
  152.7936  143.3581  162.0393 C   0  0  0  0  0  0  0  0  0  0  0  0
  152.6565  143.3735  160.5065 C   0  0  1  0  0  0  0  0  0  0  0  0
  152.2092  141.9847  160.0072 C   0  0  0  0  0  0  0  0  0  0  0  0
  152.0703  141.9345  158.4792 C   0  0  0  0  0  0  0  0  0  0  0  0
  151.0948  143.0143  157.9739 C   0  0  2  0  0  0  0  0  0  0  0  0
  150.9956  143.0126  156.4975 N   0  3  0  0  0  0  0  0  0  0  0  0
  150.6965  141.7015  155.8842 C   0  0  0  0  0  0  0  0  0  0  0  0
  149.4030  141.1077  156.4616 C   0  0  0  0  0  0  0  0  0  0  0  0
  148.7586  140.0701  155.5925 C   0  0  0  0  0  0  0  0  0  0  0  0
  149.1217  139.5754  154.3692 C   0  0  0  0  0  0  0  0  0  0  0  0
  148.1132  138.6211  154.0640 C   0  0  0  0  0  0  0  0  0  0  0  0
  147.2010  138.5277  155.0145 N   0  0  0  0  0  0  0  0  0  0  0  0
  147.5936  139.4132  155.9539 N   0  0  0  0  0  0  0  0  0  0  0  0
  146.7841  139.5549  157.1496 C   0  0  0  0  0  0  0  0  0  0  0  0
  151.5507  144.4013  158.4601 C   0  0  0  0  0  0  0  0  0  0  0  0
  151.6880  144.4724  159.9952 C   0  0  2  0  0  0  0  0  0  0  0  0
  152.1123  145.8905  160.4180 C   0  0  0  0  0  0  0  0  0  0  0  0
  151.8235  143.2420  162.5232 H   0  0  0  0  0  0  0  0  0  0  0  0
  153.2496  144.2738  162.4148 H   0  0  0  0  0  0  0  0  0  0  0  0
  153.4273  142.5333  162.3665 H   0  0  0  0  0  0  0  0  0  0  0  0
  153.6460  143.5721  160.0914 H   0  0  0  0  0  0  0  0  0  0  0  0
  152.9246  141.2264  160.3278 H   0  0  0  0  0  0  0  0  0  0  0  0
  151.2556  141.7185  160.4658 H   0  0  0  0  0  0  0  0  0  0  0  0
  153.0500  142.0722  158.0196 H   0  0  0  0  0  0  0  0  0  0  0  0
  151.7301  140.9403  158.1903 H   0  0  0  0  0  0  0  0  0  0  0  0
  150.1017  142.8220  158.3835 H   0  0  0  0  0  0  0  0  0  0  0  0
  150.2453  143.6393  156.2433 H   0  0  0  0  0  0  0  0  0  0  0  0
  150.5988  141.8132  154.8043 H   0  0  0  0  0  0  0  0  0  0  0  0
  151.5302  141.0223  156.0679 H   0  0  0  0  0  0  0  0  0  0  0  0
  149.6176  140.6692  157.4368 H   0  0  0  0  0  0  0  0  0  0  0  0
  148.6886  141.9127  156.6391 H   0  0  0  0  0  0  0  0  0  0  0  0
  149.9800  139.8516  153.7751 H   0  0  0  0  0  0  0  0  0  0  0  0
  148.0182  137.9987  153.1866 H   0  0  0  0  0  0  0  0  0  0  0  0
  147.2875  140.1753  157.8904 H   0  0  0  0  0  0  0  0  0  0  0  0
  146.5980  138.5736  157.5873 H   0  0  0  0  0  0  0  0  0  0  0  0
  145.8301  140.0160  156.8929 H   0  0  0  0  0  0  0  0  0  0  0  0
  152.5061  144.6553  157.9980 H   0  0  0  0  0  0  0  0  0  0  0  0
  150.8380  145.1551  158.1224 H   0  0  0  0  0  0  0  0  0  0  0  0
  150.7030  144.2844  160.4255 H   0  0  0  0  0  0  0  0  0  0  0  0
  153.1236  146.1201  160.0814 H   0  0  0  0  0  0  0  0  0  0  0  0
  152.0822  146.0161  161.5000 H   0  0  0  0  0  0  0  0  0  0  0  0
  151.4439  146.6416  159.9961 H   0  0  0  0  0  0  0  0  0  0  0  0
  151.8568  143.3734  156.1124 H   0  0  0  0  0  0  0  0  0  0  0  0
  1  2  1  0  0  0  0
  1 18  1  0  0  0  0
  1 19  1  0  0  0  0
  1 20  1  0  0  0  0
  2 16  1  0  0  0  0
  2  3  1  0  0  0  0
  2 21  1  0  0  0  0
  3  4  1  0  0  0  0
  3 22  1  0  0  0  0
  3 23  1  0  0  0  0
  4  5  1  0  0  0  0
  4 24  1  0  0  0  0
  4 25  1  0  0  0  0
  5  6  1  0  0  0  0
  5 15  1  0  0  0  0
  5 26  1  0  0  0  0
  6  7  1  0  0  0  0
  6 27  1  0  0  0  0
  6 43  1  0  0  0  0
  7  8  1  0  0  0  0
  7 28  1  0  0  0  0
  7 29  1  0  0  0  0
  8  9  1  0  0  0  0
  8 30  1  0  0  0  0
  8 31  1  0  0  0  0
  9 13  1  0  0  0  0
  9 10  2  0  0  0  0
 10 11  1  0  0  0  0
 10 32  1  0  0  0  0
 11 12  2  0  0  0  0
 11 33  1  0  0  0  0
 12 13  1  0  0  0  0
 13 14  1  0  0  0  0
 14 34  1  0  0  0  0
 14 35  1  0  0  0  0
 14 36  1  0  0  0  0
 15 16  1  0  0  0  0
 15 37  1  0  0  0  0
 15 38  1  0  0  0  0
 16 17  1  0  0  0  0
 16 39  1  0  0  0  0
 17 40  1  0  0  0  0
 17 41  1  0  0  0  0
 17 42  1  0  0  0  0
M  CHG  1   6   1
M  END
> <s_m_source_file>
AV-unprocessed.smi

> <i_m_source_file_index>
3183

> <i_lp_mmshare_version>
43012

> <i_f3d_flags>
0

> <s_epik_input>
W0NIM11bQ0BASF0xW0NIMl1bQ0gyXVtDQEhdKFtDSDJdW0NASF0xW0NIM10pW05IXVtDSDJdW0NIMl1jMltjSF1bY0hdbm4yW0NIM10=

> <s_epik_cmdline>
J2VwaWtfcHl0aG9uJywgJy1waCcsICc3LjAnLCAnLXRuJywgJzgnLCAnLW1hJywgJzIwMCcsICctbWV0YWxfYmluZGluZycsICctaW1hZScsICc8aW5maWxlLm1hZT4nLCAnLW9tYWUnLCAnPG91dGZpbGUubWFlPic=

> <r_lp_tautomer_probability>
1

> <r_epik_Ionization_Penalty>
0.000327718

> <r_epik_Ionization_Penalty_Charging>
0.000294043

> <r_epik_Ionization_Penalty_Neutral>
3.36755e-05

> <r_epik_State_Penalty>
-0

> <r_epik_Charging_Adjusted_Penalty>
0.000294043

> <i_epik_Tot_Q>
1

> <i_epik_Tot_abs_Q>
1

> <r_epik_Metal_State_Penalty>
-0

> <b_epik_Metal_Only>
0

> <s_lp_Force_Field>
OPLS_2005

> <r_lp_Energy>
12.5672

> <b_lp_Chiralities_Consistent>
1

> <s_lp_Variant>
AV-unprocessed.smi:3183-8

> <Gold.Version>
5.8.1

> <Gold.Id.Protein>
6NUR|6NUR_protein|mol2

> <Gold.PLP.Fitness>
43.6692

> <Gold.PLP.PLP>
-34.9214

> <Gold.PLP.part.hbond>
-1.0000

> <Gold.PLP.part.metal>
0.0000

> <Gold.PLP.part.buried>
-5.0004

> <Gold.PLP.part.nonpolar>
-28.3279

> <Gold.PLP.part.repulsive>
0.1241

> <Gold.PLP.ligand.clash>
0.0000

> <Gold.PLP.ligand.torsion>
0.1331

> <Gold.PLP.Chemscore.Hbond>
2.0000

> <Gold.PLP.Chemscore.CHOScore>
1.0000

> <Gold.PLP.Chemscore.Metal>
0.0000

> <Gold.Chemscore.Hbonds>
donor molecule, donor type, donor heavy atom, donor atom, acceptor molecule, acceptor atom, score
      L1  H     6    27       P1  8028  2.00
      L1  C    11    33       P1  7948  1.00

> <Gold.PLP.Chemscore.Internal.Correction>
0.0140

> <Gold.Rescore>
     Score         DG    S(hbond)    S(metal)    S(lipo)     H(rot)  DE(clash)    DE(int)     intcor
     19.06     -19.23       1.00        0.00     119.09       1.38       0.05       0.12       ----

> <Gold.Chemscore.Fitness>
19.0554

> <Gold.Chemscore.DG>
-19.2284

> <Gold.Chemscore.ZeroCoef>
-5.4800

> <Gold.Chemscore.Hbond>
1.0000

> <Gold.Chemscore.Metal>
0.0000

> <Gold.Chemscore.Lipo>
119.0861

> <Gold.Chemscore.Internal_Hbond>
0.0000

> <Gold.Chemscore.DEClash>
0.0507

> <Gold.Chemscore.DEInternal>
0.1223

> <Gold.Chemscore.Rot>
1.3768

> <Gold.Chemscore.Internal.Correction>
   9.000000E+99

> <Gold.Chemscore.Hbonds>
donor molecule, donor type, donor heavy atom, donor atom, acceptor molecule, acceptor atom, score
      L1  H     6    27       P1  8028  1.00

> <Gold.Chemscore.Hbond.Weighted>
-3.3400

> <Gold.Chemscore.Metal.Weighted>
-0.0000

> <Gold.Chemscore.Lipo.Weighted>
-13.9331

> <Gold.Chemscore.Internal_Hbond.Weighted>
0.0000

> <Gold.Chemscore.DEClash.Weighted>
0.0507

> <Gold.Chemscore.DEInternal.Weighted>
0.1223

> <Gold.Chemscore.Rot.Weighted>
3.5247

> <Gold.Chemscore.Internal.Correction.Weighted>
   9.000000E+99

> <Gold.Protein.RotatedTorsions>
[ 6907 6896 6895 6894 ] final  -95.23 input  -60.11 | X-H torsion
[ 7974 7965 7964 7962 ] final  -94.57 input  175.53 | X-H torsion
[ 8008 7997 7996 7995 ] final -114.16 input   59.86 | X-H torsion
[ 10167 10162 10161 10158 ] final  -15.92 input  -65.29 | X-H torsion
[ 10718 10713 10712 10709 ] final -131.43 input   66.30 | X-H torsion
[ 10763 10752 10751 10750 ] final -166.45 input  -60.55 | X-H torsion
[ 11005 11000 10999 10996 ] final  -17.77 input  -57.11 | X-H torsion

> <Gold.Protein.ActiveResidues>
 VAL166  LYS551  ARG553  GLY616  TRP617  ASP618  TYR619  PRO620  LYS621  CYS622 
 ASP623  PHE694  ASN695  SER759  ASP760  ASP761  ALA762  ILE779  LEU786  VAL792 
 PHE793  MET794  SER795  GLU796  ALA797  LYS798  CYS799  TRP800  GLU811  SER814 

> <Gold.Protein.RotatedAtoms>
  150.6959  134.1690  159.4204 H   0  0  0  0  0  0  0  0  0  0  0  0  # atno 6907 bound_to 6896
  151.9669  135.0094  160.0560 H   0  0  0  0  0  0  0  0  0  0  0  0  # atno 6908 bound_to 6896
  152.1877  133.4716  159.5028 H   0  0  0  0  0  0  0  0  0  0  0  0  # atno 6909 bound_to 6896
  145.3715  140.9506  143.2444 H   0  0  0  0  0  0  0  0  0  0  0  0  # atno 7974 bound_to 7965
  155.0320  140.0393  157.2477 H   0  0  0  0  0  0  0  0  0  0  0  0  # atno 8008 bound_to 7997
  154.7289  140.2726  155.6450 H   0  0  0  0  0  0  0  0  0  0  0  0  # atno 8009 bound_to 7997
  156.2836  140.2688  156.1982 H   0  0  0  0  0  0  0  0  0  0  0  0  # atno 8010 bound_to 7997
  140.7226  143.5169  150.9681 H   0  0  0  0  0  0  0  0  0  0  0  0  # atno 10167 bound_to 10162
  156.2243  130.6998  151.0790 H   0  0  0  0  0  0  0  0  0  0  0  0  # atno 10718 bound_to 10713
  154.6832  135.2958  154.9584 H   0  0  0  0  0  0  0  0  0  0  0  0  # atno 10763 bound_to 10752
  154.0572  135.6636  153.4811 H   0  0  0  0  0  0  0  0  0  0  0  0  # atno 10764 bound_to 10752
  153.0561  135.5143  154.7886 H   0  0  0  0  0  0  0  0  0  0  0  0  # atno 10765 bound_to 10752
  140.8201  133.8075  155.9651 H   0  0  0  0  0  0  0  0  0  0  0  0  # atno 11005 bound_to 11000
  144.8573  139.5231  143.6829 LP  0  0  0  0  0  0  0  0  0  0  0  0  # atno 17320 bound_to 7965
  146.2883  139.7066  142.9179 LP  0  0  0  0  0  0  0  0  0  0  0  0  # atno 17321 bound_to 7965
  139.8885  143.6983  152.3148 LP  0  0  0  0  0  0  0  0  0  0  0  0  # atno 17342 bound_to 10162
  139.7290  144.7586  151.0832 LP  0  0  0  0  0  0  0  0  0  0  0  0  # atno 17343 bound_to 10162
  157.7103  131.0737  150.6524 LP  0  0  0  0  0  0  0  0  0  0  0  0  # atno 17370 bound_to 10713
  156.6589  130.4506  149.5694 LP  0  0  0  0  0  0  0  0  0  0  0  0  # atno 17371 bound_to 10713
  140.9108  134.2263  157.4987 LP  0  0  0  0  0  0  0  0  0  0  0  0  # atno 17394 bound_to 11000
  139.8709  134.9749  156.4863 LP  0  0  0  0  0  0  0  0  0  0  0  0  # atno 17395 bound_to 11000

$$$$
