AV-unprocessed.smi:59|AV-procd|sdf|586|dock3
  -GOLD-   2262016483D 1   1.00000     0.00000
 Structure written by MMmdl.
 29 30  0  0  0  0  0  0  0  0  2 V2000
  148.0849  141.6593  157.9017 C   0  0  0  0  0  0  0  0  0  0  0  0
  148.9350  141.1475  156.8315 N   0  0  0  0  0  0  0  0  0  0  0  0
  148.5410  140.9460  155.5676 C   0  0  0  0  0  0  0  0  0  0  0  0
  147.4359  141.2191  155.0982 O   0  0  0  0  0  0  0  0  0  0  0  0
  149.6427  140.2675  154.7713 C   0  0  1  0  0  0  0  0  0  0  0  0
  149.7624  140.8094  153.4693 O   0  0  0  0  0  0  0  0  0  0  0  0
  150.8851  140.5162  155.6460 C   0  0  2  0  0  0  0  0  0  0  0  0
  151.9476  139.4055  155.5336 C   0  0  0  0  0  0  0  0  0  0  0  0
  151.7259  138.4671  154.7369 O   0  0  0  0  0  0  0  0  0  0  0  0
  152.9619  139.4978  156.2598 O   0  5  0  0  0  0  0  0  0  0  0  0
  150.3271  140.7641  157.0697 C   0  0  1  0  0  0  0  0  0  0  0  0
  151.1338  141.8018  157.8203 C   0  0  0  0  0  0  0  0  0  0  0  0
  152.0450  141.5809  158.8927 C   0  0  0  0  0  0  0  0  0  0  0  0
  152.5962  142.6970  159.3417 N   0  0  0  0  0  0  0  0  0  0  0  0
  152.0690  143.6658  158.5665 N   0  0  0  0  0  0  0  0  0  0  0  0
  152.4567  145.0433  158.7814 C   0  0  0  0  0  0  0  0  0  0  0  0
  151.1877  143.1563  157.6385 C   0  0  0  0  0  0  0  0  0  0  0  0
  149.4066  139.2046  154.6999 H   0  0  0  0  0  0  0  0  0  0  0  0
  151.3551  141.4373  155.2948 H   0  0  0  0  0  0  0  0  0  0  0  0
  150.2955  139.8276  157.6297 H   0  0  0  0  0  0  0  0  0  0  0  0
  147.0954  141.2014  157.8685 H   0  0  0  0  0  0  0  0  0  0  0  0
  147.9668  142.7393  157.8077 H   0  0  0  0  0  0  0  0  0  0  0  0
  148.5156  141.4462  158.8806 H   0  0  0  0  0  0  0  0  0  0  0  0
  149.6433  140.1102  152.8450 H   0  0  0  0  0  0  0  0  0  0  0  0
  152.3164  140.6449  159.3580 H   0  0  0  0  0  0  0  0  0  0  0  0
  152.1142  145.6611  157.9508 H   0  0  0  0  0  0  0  0  0  0  0  0
  153.5424  145.1178  158.8534 H   0  0  0  0  0  0  0  0  0  0  0  0
  152.0093  145.4101  159.7055 H   0  0  0  0  0  0  0  0  0  0  0  0
  150.6736  143.7915  156.9323 H   0  0  0  0  0  0  0  0  0  0  0  0
  1  2  1  0  0  0  0
  1 21  1  0  0  0  0
  1 22  1  0  0  0  0
  1 23  1  0  0  0  0
  2 11  1  0  0  0  0
  2  3  1  0  0  0  0
  3  4  2  0  0  0  0
  3  5  1  0  0  0  0
  5 18  1  0  0  0  0
  5  6  1  0  0  0  0
  5  7  1  0  0  0  0
  6 24  1  0  0  0  0
  7 19  1  0  0  0  0
  7  8  1  0  0  0  0
  7 11  1  0  0  0  0
  8  9  2  0  0  0  0
  8 10  1  0  0  0  0
 11 20  1  0  0  0  0
 11 12  1  0  0  0  0
 12 17  2  0  0  0  0
 12 13  1  0  0  0  0
 13 14  2  0  0  0  0
 13 25  1  0  0  0  0
 14 15  1  0  0  0  0
 15 16  1  0  0  0  0
 15 17  1  0  0  0  0
 16 26  1  0  0  0  0
 16 27  1  0  0  0  0
 16 28  1  0  0  0  0
 17 29  1  0  0  0  0
M  CHG  1  10  -1
M  END
> <s_m_source_file>
AV-unprocessed.smi

> <i_m_source_file_index>
59

> <i_lp_mmshare_version>
43012

> <i_f3d_flags>
0

> <s_epik_input>
W0NIM11OMUMoPU8pW0NASF0oW09IXSlbQ0BIXShDKD1PKVtPSF0pW0NASF0xYzJbY0hdbm4oW0NIM10pW2NIXTI=

> <s_epik_cmdline>
J2VwaWtfcHl0aG9uJywgJy1waCcsICc3LjAnLCAnLXRuJywgJzgnLCAnLW1hJywgJzIwMCcsICctbWV0YWxfYmluZGluZycsICctaW1hZScsICc8aW5maWxlLm1hZT4nLCAnLW9tYWUnLCAnPG91dGZpbGUubWFlPic=

> <r_lp_tautomer_probability>
1

> <r_epik_Ionization_Penalty>
0.00173515

> <r_epik_Ionization_Penalty_Charging>
0.00120567

> <r_epik_Ionization_Penalty_Neutral>
0.000529476

> <r_epik_State_Penalty>
-0

> <r_epik_Charging_Adjusted_Penalty>
0.00120567

> <i_epik_Tot_Q>
-1

> <i_epik_Tot_abs_Q>
1

> <r_epik_Metal_State_Penalty>
-0

> <b_epik_Metal_Only>
0

> <s_lp_Force_Field>
OPLS_2005

> <r_lp_Energy>
8.65674

> <b_lp_Chiralities_Consistent>
1

> <s_lp_Variant>
AV-unprocessed.smi:59-2

> <Gold.Version>
5.8.1

> <Gold.Id.Protein>
6NUR|6NUR_protein|mol2

> <Gold.PLP.Fitness>
48.2272

> <Gold.PLP.PLP>
-34.1386

> <Gold.PLP.part.hbond>
-3.4715

> <Gold.PLP.part.metal>
0.0000

> <Gold.PLP.part.buried>
-5.3971

> <Gold.PLP.part.nonpolar>
-25.3407

> <Gold.PLP.part.repulsive>
0.1958

> <Gold.PLP.ligand.clash>
0.0000

> <Gold.PLP.ligand.torsion>
0.3737

> <Gold.PLP.Chemscore.Hbond>
3.9416

> <Gold.PLP.Chemscore.CHOScore>
1.0000

> <Gold.PLP.Chemscore.Metal>
0.0000

> <Gold.Chemscore.Hbonds>
donor molecule, donor type, donor heavy atom, donor atom, acceptor molecule, acceptor atom, score
      L1  H     6    24       P1  7957  0.67
      P1  H  7989  7998       L1     6  0.27
      P1  H  7997  8009       L1    10  1.89
      P1  H  8011  8017       L1     6  1.00
      L1  C    17    29       P1  8028  1.00

> <Gold.PLP.Chemscore.Internal.Correction>
0.0112

> <Gold.Rescore>
     Score         DG    S(hbond)    S(metal)    S(lipo)     H(rot)  DE(clash)    DE(int)     intcor
     14.57     -14.98       2.30        0.00      60.85       2.06       0.01       0.41       ----

> <Gold.Chemscore.Fitness>
14.5701

> <Gold.Chemscore.DG>
-14.9847

> <Gold.Chemscore.ZeroCoef>
-5.4800

> <Gold.Chemscore.Hbond>
2.2962

> <Gold.Chemscore.Metal>
0.0000

> <Gold.Chemscore.Lipo>
60.8474

> <Gold.Chemscore.Internal_Hbond>
0.0000

> <Gold.Chemscore.DEClash>
0.0050

> <Gold.Chemscore.DEInternal>
0.4096

> <Gold.Chemscore.Rot>
2.0639

> <Gold.Chemscore.Internal.Correction>
   9.000000E+99

> <Gold.Chemscore.Hbonds>
donor molecule, donor type, donor heavy atom, donor atom, acceptor molecule, acceptor atom, score
      L1  H     6    24       P1  7957  0.68
      P1  H  7989  7998       L1     6  0.01
      P1  H  7997  8009       L1    10  0.90
      P1  H  8011  8017       L1     6  0.39

> <Gold.Chemscore.Hbond.Weighted>
-7.6692

> <Gold.Chemscore.Metal.Weighted>
-0.0000

> <Gold.Chemscore.Lipo.Weighted>
-7.1191

> <Gold.Chemscore.Internal_Hbond.Weighted>
0.0000

> <Gold.Chemscore.DEClash.Weighted>
0.0050

> <Gold.Chemscore.DEInternal.Weighted>
0.4096

> <Gold.Chemscore.Rot.Weighted>
5.2837

> <Gold.Chemscore.Internal.Correction.Weighted>
   9.000000E+99

> <Gold.Protein.RotatedTorsions>
[ 6907 6896 6895 6894 ] final  124.85 input  -60.11 | X-H torsion
[ 7974 7965 7964 7962 ] final  -68.52 input  175.53 | X-H torsion
[ 8008 7997 7996 7995 ] final -166.97 input   59.86 | X-H torsion
[ 10167 10162 10161 10158 ] final  -77.94 input  -65.29 | X-H torsion
[ 10718 10713 10712 10709 ] final   66.38 input   66.30 | X-H torsion
[ 10763 10752 10751 10750 ] final   17.68 input  -60.55 | X-H torsion
[ 11005 11000 10999 10996 ] final  122.78 input  -57.11 | X-H torsion

> <Gold.Protein.ActiveResidues>
 VAL166  LYS551  ARG553  GLY616  TRP617  ASP618  TYR619  PRO620  LYS621  CYS622 
 ASP623  PHE694  ASN695  SER759  ASP760  ASP761  ALA762  ILE779  LEU786  VAL792 
 PHE793  MET794  SER795  GLU796  ALA797  LYS798  CYS799  TRP800  GLU811  SER814 

> <Gold.Protein.RotatedAtoms>
  152.4043  133.6865  159.6342 H   0  0  0  0  0  0  0  0  0  0  0  0  # atno 6907 bound_to 6896
  150.7930  133.8737  159.3274 H   0  0  0  0  0  0  0  0  0  0  0  0  # atno 6908 bound_to 6896
  151.6495  135.1005  160.0209 H   0  0  0  0  0  0  0  0  0  0  0  0  # atno 6909 bound_to 6896
  145.7154  140.9061  143.0658 H   0  0  0  0  0  0  0  0  0  0  0  0  # atno 7974 bound_to 7965
  155.8712  140.0993  157.1549 H   0  0  0  0  0  0  0  0  0  0  0  0  # atno 8008 bound_to 7997
  154.3997  140.1347  156.4143 H   0  0  0  0  0  0  0  0  0  0  0  0  # atno 8009 bound_to 7997
  155.7748  140.3460  155.5268 H   0  0  0  0  0  0  0  0  0  0  0  0  # atno 8010 bound_to 7997
  140.4726  143.2423  151.8182 H   0  0  0  0  0  0  0  0  0  0  0  0  # atno 10167 bound_to 10162
  157.6165  130.9264  150.0101 H   0  0  0  0  0  0  0  0  0  0  0  0  # atno 10718 bound_to 10713
  153.1317  135.6741  153.9168 H   0  0  0  0  0  0  0  0  0  0  0  0  # atno 10763 bound_to 10752
  153.8652  135.3076  155.3441 H   0  0  0  0  0  0  0  0  0  0  0  0  # atno 10764 bound_to 10752
  154.7713  135.4938  153.9736 H   0  0  0  0  0  0  0  0  0  0  0  0  # atno 10765 bound_to 10752
  139.9283  134.9641  156.8161 H   0  0  0  0  0  0  0  0  0  0  0  0  # atno 11005 bound_to 11000
  144.6930  139.9131  143.7464 LP  0  0  0  0  0  0  0  0  0  0  0  0  # atno 17320 bound_to 7965
  146.0674  139.3664  143.0544 LP  0  0  0  0  0  0  0  0  0  0  0  0  # atno 17321 bound_to 7965
  139.4820  144.4873  151.9230 LP  0  0  0  0  0  0  0  0  0  0  0  0  # atno 17342 bound_to 10162
  140.3958  144.2556  150.5896 LP  0  0  0  0  0  0  0  0  0  0  0  0  # atno 17343 bound_to 10162
  156.1290  130.3644  149.9763 LP  0  0  0  0  0  0  0  0  0  0  0  0  # atno 17370 bound_to 10713
  156.7827  130.9227  151.3646 LP  0  0  0  0  0  0  0  0  0  0  0  0  # atno 17371 bound_to 10713
  140.6272  133.9939  155.7645 LP  0  0  0  0  0  0  0  0  0  0  0  0  # atno 17394 bound_to 11000
  141.0856  133.9995  157.3318 LP  0  0  0  0  0  0  0  0  0  0  0  0  # atno 17395 bound_to 11000

$$$$
