AV-unprocessed.smi:266|AV-procd|sdf|2033|dock3
  -GOLD-   2262021243D 1   1.00000     0.00000
 Structure written by MMmdl.
 52 55  0  0  0  0  0  0  0  0  1 V2000
  147.0928  133.2835  152.1947 C   0  0  0  0  0  0  0  0  0  0  0  0
  148.4180  133.0062  152.9256 C   0  0  2  0  0  0  0  0  0  0  0  0
  148.3979  131.6280  153.3027 O   0  0  0  0  0  0  0  0  0  0  0  0
  148.6784  131.4855  154.6878 C   0  0  0  0  0  0  0  0  0  0  0  0
  148.2132  132.8014  155.2910 C   0  0  0  0  0  0  0  0  0  0  0  0
  148.6466  133.8086  154.2319 C   0  0  2  0  0  0  0  0  0  0  0  0
  147.8191  134.9551  154.3234 O   0  0  0  0  0  0  0  0  0  0  0  0
  150.1270  134.2610  154.3541 C   0  0  0  0  0  0  0  0  0  0  0  0
  150.3854  135.1736  155.4578 N   0  0  0  0  0  0  0  0  0  0  0  0
  150.0737  134.9691  156.7818 C   0  0  0  0  0  0  0  0  0  0  0  0
  150.4065  135.9403  157.5859 N   0  0  0  0  0  0  0  0  0  0  0  0
  150.9996  136.8890  156.7596 C   0  0  0  0  0  0  0  0  0  0  0  0
  151.5741  138.1793  156.9672 C   0  0  0  0  0  0  0  0  0  0  0  0
  151.6058  138.8207  158.1688 N   0  0  0  0  0  0  0  0  0  0  0  0
  151.4706  138.0180  159.3820 C   0  0  0  0  0  0  0  0  0  0  0  0
  152.3473  140.0784  158.2790 C   0  0  0  0  0  0  0  0  0  0  0  0
  151.5926  141.1777  159.0576 C   0  0  2  0  0  0  0  0  0  0  0  0
  150.5431  141.8794  158.1733 C   0  0  0  0  0  0  0  0  0  0  0  0
  150.0330  143.1236  158.9058 C   0  0  0  0  0  0  0  0  0  0  0  0
  151.4778  143.7772  159.8186 S   0  0  0  0  0  0  0  0  0  0  0  0
  152.0926  144.8682  159.0473 O   0  0  0  0  0  0  0  0  0  0  0  0
  151.1124  143.9597  161.2314 O   0  0  0  0  0  0  0  0  0  0  0  0
  152.5077  142.2726  159.6387 C   0  0  0  0  0  0  0  0  0  0  0  0
  152.1016  138.8006  155.8773 N   0  0  0  0  0  0  0  0  0  0  0  0
  152.0546  138.2252  154.6731 C   0  0  0  0  0  0  0  0  0  0  0  0
  151.5320  137.0471  154.3334 N   0  0  0  0  0  0  0  0  0  0  0  0
  151.0119  136.4071  155.4182 C   0  0  0  0  0  0  0  0  0  0  0  0
  147.0431  134.3128  151.8385 H   0  0  0  0  0  0  0  0  0  0  0  0
  146.2352  133.1087  152.8450 H   0  0  0  0  0  0  0  0  0  0  0  0
  146.9866  132.6331  151.3261 H   0  0  0  0  0  0  0  0  0  0  0  0
  149.2399  133.1684  152.2269 H   0  0  0  0  0  0  0  0  0  0  0  0
  148.1657  130.6226  155.1128 H   0  0  0  0  0  0  0  0  0  0  0  0
  149.7513  131.3493  154.8290 H   0  0  0  0  0  0  0  0  0  0  0  0
  147.1251  132.7844  155.3757 H   0  0  0  0  0  0  0  0  0  0  0  0
  148.6120  132.9832  156.2880 H   0  0  0  0  0  0  0  0  0  0  0  0
  147.8027  135.3825  153.4807 H   0  0  0  0  0  0  0  0  0  0  0  0
  150.7789  133.3955  154.4788 H   0  0  0  0  0  0  0  0  0  0  0  0
  150.4482  134.7440  153.4300 H   0  0  0  0  0  0  0  0  0  0  0  0
  149.5806  134.0743  157.1334 H   0  0  0  0  0  0  0  0  0  0  0  0
  150.5973  137.3674  159.3213 H   0  0  0  0  0  0  0  0  0  0  0  0
  151.3453  138.6565  160.2567 H   0  0  0  0  0  0  0  0  0  0  0  0
  152.3551  137.3995  159.5399 H   0  0  0  0  0  0  0  0  0  0  0  0
  153.3394  139.9305  158.6981 H   0  0  0  0  0  0  0  0  0  0  0  0
  152.5277  140.4339  157.2639 H   0  0  0  0  0  0  0  0  0  0  0  0
  151.0517  140.7191  159.8865 H   0  0  0  0  0  0  0  0  0  0  0  0
  151.0115  142.1892  157.2382 H   0  0  0  0  0  0  0  0  0  0  0  0
  149.7231  141.2101  157.9113 H   0  0  0  0  0  0  0  0  0  0  0  0
  149.6322  143.8833  158.2346 H   0  0  0  0  0  0  0  0  0  0  0  0
  149.2661  142.8567  159.6331 H   0  0  0  0  0  0  0  0  0  0  0  0
  152.9380  142.0002  160.6024 H   0  0  0  0  0  0  0  0  0  0  0  0
  153.3191  142.5134  158.9521 H   0  0  0  0  0  0  0  0  0  0  0  0
  152.4927  138.7930  153.8654 H   0  0  0  0  0  0  0  0  0  0  0  0
  1  2  1  0  0  0  0
  1 28  1  0  0  0  0
  1 29  1  0  0  0  0
  1 30  1  0  0  0  0
  2  6  1  0  0  0  0
  2  3  1  0  0  0  0
  2 31  1  0  0  0  0
  3  4  1  0  0  0  0
  4  5  1  0  0  0  0
  4 32  1  0  0  0  0
  4 33  1  0  0  0  0
  5  6  1  0  0  0  0
  5 34  1  0  0  0  0
  5 35  1  0  0  0  0
  6  7  1  0  0  0  0
  6  8  1  0  0  0  0
  7 36  1  0  0  0  0
  8  9  1  0  0  0  0
  8 37  1  0  0  0  0
  8 38  1  0  0  0  0
  9 27  1  0  0  0  0
  9 10  1  0  0  0  0
 10 11  2  0  0  0  0
 10 39  1  0  0  0  0
 11 12  1  0  0  0  0
 12 27  2  0  0  0  0
 12 13  1  0  0  0  0
 13 14  1  0  0  0  0
 13 24  2  0  0  0  0
 14 15  1  0  0  0  0
 14 16  1  0  0  0  0
 15 40  1  0  0  0  0
 15 41  1  0  0  0  0
 15 42  1  0  0  0  0
 16 17  1  0  0  0  0
 16 43  1  0  0  0  0
 16 44  1  0  0  0  0
 17 23  1  0  0  0  0
 17 18  1  0  0  0  0
 17 45  1  0  0  0  0
 18 19  1  0  0  0  0
 18 46  1  0  0  0  0
 18 47  1  0  0  0  0
 19 20  1  0  0  0  0
 19 48  1  0  0  0  0
 19 49  1  0  0  0  0
 20 21  2  0  0  0  0
 20 22  2  0  0  0  0
 20 23  1  0  0  0  0
 23 50  1  0  0  0  0
 23 51  1  0  0  0  0
 24 25  1  0  0  0  0
 25 26  2  0  0  0  0
 25 52  1  0  0  0  0
 26 27  1  0  0  0  0
M  END
> <s_m_source_file>
AV-unprocessed.smi

> <i_m_source_file_index>
266

> <i_lp_mmshare_version>
43012

> <i_f3d_flags>
0

> <s_epik_input>
W0NIMl0xW0NIMl1PW0NAQEhdKFtDSDNdKVtDQEBdMShbT0hdKVtDSDJdbihbY0hdbjIpYyhjMjMpbltjSF1uYzNOKFtDSDNdKVtDSDJdW0NAQEhdKFtDSDJdNClbQ0gyXVtDSDJdUzQoPU8pPU8=

> <s_epik_cmdline>
J2VwaWtfcHl0aG9uJywgJy1waCcsICc3LjAnLCAnLXRuJywgJzgnLCAnLW1hJywgJzIwMCcsICctbWV0YWxfYmluZGluZycsICctaW1hZScsICc8aW5maWxlLm1hZT4nLCAnLW9tYWUnLCAnPG91dGZpbGUubWFlPic=

> <r_lp_tautomer_probability>
1

> <r_epik_Ionization_Penalty>
0.00155497

> <r_epik_Ionization_Penalty_Charging>
0

> <r_epik_Ionization_Penalty_Neutral>
0.00155497

> <r_epik_State_Penalty>
-0

> <r_epik_Charging_Adjusted_Penalty>
0

> <i_epik_Tot_Q>
0

> <i_epik_Tot_abs_Q>
0

> <r_epik_Metal_State_Penalty>
-0

> <b_epik_Metal_Only>
0

> <s_lp_Force_Field>
OPLS_2005

> <r_lp_Energy>
29.9122

> <b_lp_Chiralities_Consistent>
1

> <s_lp_Variant>
AV-unprocessed.smi:266-3

> <Gold.Version>
5.8.1

> <Gold.Id.Protein>
6NUR|6NUR_protein|mol2

> <Gold.PLP.Fitness>
45.6852

> <Gold.PLP.PLP>
-40.2589

> <Gold.PLP.part.hbond>
-2.7007

> <Gold.PLP.part.metal>
0.0000

> <Gold.PLP.part.buried>
-8.7325

> <Gold.PLP.part.nonpolar>
-31.2615

> <Gold.PLP.part.repulsive>
0.7205

> <Gold.PLP.ligand.clash>
0.0000

> <Gold.PLP.ligand.torsion>
0.6179

> <Gold.PLP.Chemscore.Hbond>
2.0000

> <Gold.PLP.Chemscore.CHOScore>
0.0000

> <Gold.PLP.Chemscore.Metal>
0.0000

> <Gold.Chemscore.Hbonds>
donor molecule, donor type, donor heavy atom, donor atom, acceptor molecule, acceptor atom, score
      L1  H     7    36       P1  7948  0.66
      P1  H  6896  6909       L1    11  0.03
      P1  H 10752 10765       L1    26  0.70

> <Gold.PLP.Chemscore.Internal.Correction>
0.6622

> <Gold.Rescore>
     Score         DG    S(hbond)    S(metal)    S(lipo)     H(rot)  DE(clash)    DE(int)     intcor
     11.13     -12.98       1.49        0.00      75.21       2.45       0.06       1.79       ----

> <Gold.Chemscore.Fitness>
11.1314

> <Gold.Chemscore.DG>
-12.9846

> <Gold.Chemscore.ZeroCoef>
-5.4800

> <Gold.Chemscore.Hbond>
1.4880

> <Gold.Chemscore.Metal>
0.0000

> <Gold.Chemscore.Lipo>
75.2069

> <Gold.Chemscore.Internal_Hbond>
0.0000

> <Gold.Chemscore.DEClash>
0.0591

> <Gold.Chemscore.DEInternal>
1.7941

> <Gold.Chemscore.Rot>
2.4471

> <Gold.Chemscore.Internal.Correction>
   9.000000E+99

> <Gold.Chemscore.Hbonds>
donor molecule, donor type, donor heavy atom, donor atom, acceptor molecule, acceptor atom, score
      L1  H     7    36       P1  7948  0.63
      P1  H  6896  6909       L1    11  0.03
      P1  H 10752 10765       L1    26  0.05

> <Gold.Chemscore.Hbond.Weighted>
-4.9699

> <Gold.Chemscore.Metal.Weighted>
-0.0000

> <Gold.Chemscore.Lipo.Weighted>
-8.7992

> <Gold.Chemscore.Internal_Hbond.Weighted>
0.0000

> <Gold.Chemscore.DEClash.Weighted>
0.0591

> <Gold.Chemscore.DEInternal.Weighted>
1.7941

> <Gold.Chemscore.Rot.Weighted>
6.2645

> <Gold.Chemscore.Internal.Correction.Weighted>
   9.000000E+99

> <Gold.Protein.RotatedTorsions>
[ 6907 6896 6895 6894 ] final   76.79 input  -60.11 | X-H torsion
[ 7974 7965 7964 7962 ] final  -31.50 input  175.53 | X-H torsion
[ 8008 7997 7996 7995 ] final  -70.63 input   59.86 | X-H torsion
[ 10167 10162 10161 10158 ] final   67.65 input  -65.29 | X-H torsion
[ 10718 10713 10712 10709 ] final  -70.69 input   66.30 | X-H torsion
[ 10763 10752 10751 10750 ] final  147.54 input  -60.55 | X-H torsion
[ 11005 11000 10999 10996 ] final  -55.40 input  -57.11 | X-H torsion

> <Gold.Protein.ActiveResidues>
 VAL166  LYS551  ARG553  GLY616  TRP617  ASP618  TYR619  PRO620  LYS621  CYS622 
 ASP623  PHE694  ASN695  SER759  ASP760  ASP761  ALA762  ILE779  LEU786  VAL792 
 PHE793  MET794  SER795  GLU796  ALA797  LYS798  CYS799  TRP800  GLU811  SER814 

> <Gold.Protein.RotatedAtoms>
  152.5089  134.3915  159.9385 H   0  0  0  0  0  0  0  0  0  0  0  0  # atno 6907 bound_to 6896
  151.3876  133.3793  159.2725 H   0  0  0  0  0  0  0  0  0  0  0  0  # atno 6908 bound_to 6896
  150.9457  134.8883  159.7699 H   0  0  0  0  0  0  0  0  0  0  0  0  # atno 6909 bound_to 6896
  146.1062  140.5675  142.8798 H   0  0  0  0  0  0  0  0  0  0  0  0  # atno 7974 bound_to 7965
  154.5026  140.0831  156.7829 H   0  0  0  0  0  0  0  0  0  0  0  0  # atno 8008 bound_to 7997
  155.3967  140.3435  155.4236 H   0  0  0  0  0  0  0  0  0  0  0  0  # atno 8009 bound_to 7997
  156.1476  140.1548  156.8810 H   0  0  0  0  0  0  0  0  0  0  0  0  # atno 8010 bound_to 7997
  140.0872  144.5020  150.7123 H   0  0  0  0  0  0  0  0  0  0  0  0  # atno 10167 bound_to 10162
  156.0396  130.4336  150.2332 H   0  0  0  0  0  0  0  0  0  0  0  0  # atno 10718 bound_to 10713
  154.0400  135.2890  155.3356 H   0  0  0  0  0  0  0  0  0  0  0  0  # atno 10763 bound_to 10752
  154.6935  135.5217  153.8428 H   0  0  0  0  0  0  0  0  0  0  0  0  # atno 10764 bound_to 10752
  153.0604  135.6611  154.0605 H   0  0  0  0  0  0  0  0  0  0  0  0  # atno 10765 bound_to 10752
  141.1072  133.6612  156.4464 H   0  0  0  0  0  0  0  0  0  0  0  0  # atno 11005 bound_to 11000
  144.7473  140.5101  143.6826 LP  0  0  0  0  0  0  0  0  0  0  0  0  # atno 17320 bound_to 7965
  145.5755  139.1486  143.3264 LP  0  0  0  0  0  0  0  0  0  0  0  0  # atno 17321 bound_to 7965
  140.7047  143.2459  151.4761 LP  0  0  0  0  0  0  0  0  0  0  0  0  # atno 17342 bound_to 10162
  139.5745  144.1850  152.1884 LP  0  0  0  0  0  0  0  0  0  0  0  0  # atno 17343 bound_to 10162
  157.0428  131.0040  151.3278 LP  0  0  0  0  0  0  0  0  0  0  0  0  # atno 17370 bound_to 10713
  157.5197  130.7990  149.7795 LP  0  0  0  0  0  0  0  0  0  0  0  0  # atno 17371 bound_to 10713
  140.4871  134.6610  157.5195 LP  0  0  0  0  0  0  0  0  0  0  0  0  # atno 17394 bound_to 11000
  139.9947  134.6929  155.9629 LP  0  0  0  0  0  0  0  0  0  0  0  0  # atno 17395 bound_to 11000

$$$$
