AV-unprocessed.smi:3181|AV-procd|sdf|12139|dock5
  -GOLD-   2272017573D 1   1.00000     0.00000
 Structure written by MMmdl.
 42 43  0  0  0  0  0  0  0  0  2 V2000
  149.9512  139.4301  158.3313 C   0  0  0  0  0  0  0  0  0  0  0  0
  151.0270  140.5188  158.1728 C   0  0  2  0  0  0  0  0  0  0  0  0
  151.7259  140.4762  156.7993 C   0  0  0  0  0  0  0  0  0  0  0  0
  150.8012  140.6277  155.6910 N   0  0  0  0  0  0  0  0  0  0  0  0
  150.0577  141.6708  155.3183 C   0  0  0  0  0  0  0  0  0  0  0  0
  149.3193  141.4436  154.2413 N   0  0  0  0  0  0  0  0  0  0  0  0
  149.6859  140.1534  153.9804 C   0  0  0  0  0  0  0  0  0  0  0  0
  150.5729  139.6176  154.8193 N   0  0  0  0  0  0  0  0  0  0  0  0
  152.0415  140.3851  159.2429 N   0  3  0  0  0  0  0  0  0  0  0  0
  153.2146  141.2867  159.1490 C   0  0  2  0  0  0  0  0  0  0  0  0
  154.2236  140.9753  160.2667 C   0  0  0  0  0  0  0  0  0  0  0  0
  153.7068  141.4088  161.6475 C   0  0  0  0  0  0  0  0  0  0  0  0
  153.3187  142.9008  161.6836 C   0  0  2  0  0  0  0  0  0  0  0  0
  152.8184  143.2738  163.0905 C   0  0  0  0  0  0  0  0  0  0  0  0
  152.2888  143.2259  160.5697 C   0  0  1  0  0  0  0  0  0  0  0  0
  151.9081  144.7164  160.5213 C   0  0  0  0  0  0  0  0  0  0  0  0
  152.8182  142.7771  159.1897 C   0  0  0  0  0  0  0  0  0  0  0  0
  149.1497  139.5495  157.6021 H   0  0  0  0  0  0  0  0  0  0  0  0
  149.4914  139.4661  159.3190 H   0  0  0  0  0  0  0  0  0  0  0  0
  150.3744  138.4337  158.1996 H   0  0  0  0  0  0  0  0  0  0  0  0
  150.5365  141.4895  158.2614 H   0  0  0  0  0  0  0  0  0  0  0  0
  152.4652  141.2754  156.7296 H   0  0  0  0  0  0  0  0  0  0  0  0
  152.2699  139.5377  156.6780 H   0  0  0  0  0  0  0  0  0  0  0  0
  150.0539  142.6134  155.8462 H   0  0  0  0  0  0  0  0  0  0  0  0
  149.2866  139.5923  153.1482 H   0  0  0  0  0  0  0  0  0  0  0  0
  151.5955  140.5184  160.1393 H   0  0  0  0  0  0  0  0  0  0  0  0
  153.7058  141.0783  158.1972 H   0  0  0  0  0  0  0  0  0  0  0  0
  154.4654  139.9114  160.2739 H   0  0  0  0  0  0  0  0  0  0  0  0
  155.1592  141.4966  160.0596 H   0  0  0  0  0  0  0  0  0  0  0  0
  152.8470  140.7979  161.9260 H   0  0  0  0  0  0  0  0  0  0  0  0
  154.4752  141.2083  162.3952 H   0  0  0  0  0  0  0  0  0  0  0  0
  154.2218  143.4825  161.4917 H   0  0  0  0  0  0  0  0  0  0  0  0
  151.8742  142.7793  163.3205 H   0  0  0  0  0  0  0  0  0  0  0  0
  152.6699  144.3481  163.1967 H   0  0  0  0  0  0  0  0  0  0  0  0
  153.5402  142.9788  163.8527 H   0  0  0  0  0  0  0  0  0  0  0  0
  151.3759  142.6665  160.7784 H   0  0  0  0  0  0  0  0  0  0  0  0
  152.7881  145.3475  160.3936 H   0  0  0  0  0  0  0  0  0  0  0  0
  151.3959  145.0336  161.4294 H   0  0  0  0  0  0  0  0  0  0  0  0
  151.2310  144.9204  159.6913 H   0  0  0  0  0  0  0  0  0  0  0  0
  153.6954  143.3753  158.9382 H   0  0  0  0  0  0  0  0  0  0  0  0
  152.0849  142.9973  158.4137 H   0  0  0  0  0  0  0  0  0  0  0  0
  152.3903  139.4379  159.2035 H   0  0  0  0  0  0  0  0  0  0  0  0
  1  2  1  0  0  0  0
  1 18  1  0  0  0  0
  1 19  1  0  0  0  0
  1 20  1  0  0  0  0
  2  3  1  0  0  0  0
  2  9  1  0  0  0  0
  2 21  1  0  0  0  0
  3  4  1  0  0  0  0
  3 22  1  0  0  0  0
  3 23  1  0  0  0  0
  4  8  1  0  0  0  0
  4  5  1  0  0  0  0
  5  6  2  0  0  0  0
  5 24  1  0  0  0  0
  6  7  1  0  0  0  0
  7  8  2  0  0  0  0
  7 25  1  0  0  0  0
  9 10  1  0  0  0  0
  9 26  1  0  0  0  0
  9 42  1  0  0  0  0
 10 17  1  0  0  0  0
 10 11  1  0  0  0  0
 10 27  1  0  0  0  0
 11 12  1  0  0  0  0
 11 28  1  0  0  0  0
 11 29  1  0  0  0  0
 12 13  1  0  0  0  0
 12 30  1  0  0  0  0
 12 31  1  0  0  0  0
 13 14  1  0  0  0  0
 13 15  1  0  0  0  0
 13 32  1  0  0  0  0
 14 33  1  0  0  0  0
 14 34  1  0  0  0  0
 14 35  1  0  0  0  0
 15 16  1  0  0  0  0
 15 17  1  0  0  0  0
 15 36  1  0  0  0  0
 16 37  1  0  0  0  0
 16 38  1  0  0  0  0
 16 39  1  0  0  0  0
 17 40  1  0  0  0  0
 17 41  1  0  0  0  0
M  CHG  1   9   1
M  END
> <s_m_source_file>
AV-unprocessed.smi

> <i_m_source_file_index>
3181

> <i_lp_mmshare_version>
43012

> <i_f3d_flags>
0

> <s_epik_input>
bjFbY0hdbltjSF1uMVtDSDJdW0NAQEhdKFtDSDNdKVtOSF1bQ0BASF0yW0NIMl1bQ0gyXVtDQEBIXShbQ0gzXSlbQ0BASF0oW0NIM10pW0NIMl0y

> <s_epik_cmdline>
J2VwaWtfcHl0aG9uJywgJy1waCcsICc3LjAnLCAnLXRuJywgJzgnLCAnLW1hJywgJzIwMCcsICctbWV0YWxfYmluZGluZycsICctaW1hZScsICc8aW5maWxlLm1hZT4nLCAnLW9tYWUnLCAnPG91dGZpbGUubWFlPic=

> <r_lp_tautomer_probability>
1

> <r_epik_Ionization_Penalty>
0.000617007

> <r_epik_Ionization_Penalty_Charging>
0.000616215

> <r_epik_Ionization_Penalty_Neutral>
7.92544e-07

> <r_epik_State_Penalty>
0.000388807

> <r_epik_Charging_Adjusted_Penalty>
0.00100502

> <i_epik_Tot_Q>
1

> <i_epik_Tot_abs_Q>
1

> <r_epik_Metal_State_Penalty>
-0

> <b_epik_Metal_Only>
0

> <s_lp_Force_Field>
OPLS_2005

> <r_lp_Energy>
23.3583

> <b_lp_Chiralities_Consistent>
1

> <s_lp_Variant>
AV-unprocessed.smi:3181-5

> <Gold.Version>
5.8.1

> <Gold.Id.Protein>
6NUR|6NUR_protein|mol2

> <Gold.PLP.Fitness>
43.9621

> <Gold.PLP.PLP>
-37.0538

> <Gold.PLP.part.hbond>
-2.8205

> <Gold.PLP.part.metal>
0.0000

> <Gold.PLP.part.buried>
3.4806

> <Gold.PLP.part.nonpolar>
-35.4538

> <Gold.PLP.part.repulsive>
0.4026

> <Gold.PLP.ligand.clash>
0.0000

> <Gold.PLP.ligand.torsion>
0.0781

> <Gold.PLP.Chemscore.Hbond>
0.4371

> <Gold.PLP.Chemscore.CHOScore>
1.9097

> <Gold.PLP.Chemscore.Metal>
0.0000

> <Gold.Chemscore.Hbonds>
donor molecule, donor type, donor heavy atom, donor atom, acceptor molecule, acceptor atom, score
      P1  H  8011  8017       L1     6  0.38
      L1  C     5    24       P1  8028  1.00
      L1  C     7    25       P1  7957  0.90

> <Gold.PLP.Chemscore.Internal.Correction>
0.0241

> <Gold.Rescore>
     Score         DG    S(hbond)    S(metal)    S(lipo)     H(rot)  DE(clash)    DE(int)     intcor
     10.67     -12.33       0.00        0.00     104.67       2.11       1.59       0.06       ----

> <Gold.Chemscore.Fitness>
10.6690

> <Gold.Chemscore.DG>
-12.3267

> <Gold.Chemscore.ZeroCoef>
-5.4800

> <Gold.Chemscore.Hbond>
0.0000

> <Gold.Chemscore.Metal>
0.0000

> <Gold.Chemscore.Lipo>
104.6750

> <Gold.Chemscore.Internal_Hbond>
0.0000

> <Gold.Chemscore.DEClash>
1.5936

> <Gold.Chemscore.DEInternal>
0.0640

> <Gold.Chemscore.Rot>
2.1095

> <Gold.Chemscore.Internal.Correction>
   9.000000E+99

> <Gold.Chemscore.Hbonds>
donor molecule, donor type, donor heavy atom, donor atom, acceptor molecule, acceptor atom, score
      P1  H  8011  8017       L1     6  0.13

> <Gold.Chemscore.Hbond.Weighted>
-0.0000

> <Gold.Chemscore.Metal.Weighted>
-0.0000

> <Gold.Chemscore.Lipo.Weighted>
-12.2470

> <Gold.Chemscore.Internal_Hbond.Weighted>
0.0000

> <Gold.Chemscore.DEClash.Weighted>
1.5936

> <Gold.Chemscore.DEInternal.Weighted>
0.0640

> <Gold.Chemscore.Rot.Weighted>
5.4003

> <Gold.Chemscore.Internal.Correction.Weighted>
   9.000000E+99

> <Gold.Protein.RotatedTorsions>
[ 6907 6896 6895 6894 ] final  -54.05 input  -60.11 | X-H torsion
[ 7974 7965 7964 7962 ] final  137.57 input  175.53 | X-H torsion
[ 8008 7997 7996 7995 ] final -162.00 input   59.86 | X-H torsion
[ 10167 10162 10161 10158 ] final  151.87 input  -65.29 | X-H torsion
[ 10718 10713 10712 10709 ] final   52.40 input   66.30 | X-H torsion
[ 10763 10752 10751 10750 ] final   42.59 input  -60.55 | X-H torsion
[ 11005 11000 10999 10996 ] final   -6.22 input  -57.11 | X-H torsion

> <Gold.Protein.ActiveResidues>
 VAL166  LYS551  ARG553  GLY616  TRP617  ASP618  TYR619  PRO620  LYS621  CYS622 
 ASP623  PHE694  ASN695  SER759  ASP760  ASP761  ALA762  ILE779  LEU786  VAL792 
 PHE793  MET794  SER795  GLU796  ALA797  LYS798  CYS799  TRP800  GLU811  SER814 

> <Gold.Protein.RotatedAtoms>
  150.8372  134.7650  159.6902 H   0  0  0  0  0  0  0  0  0  0  0  0  # atno 6907 bound_to 6896
  152.4466  134.5477  159.9867 H   0  0  0  0  0  0  0  0  0  0  0  0  # atno 6908 bound_to 6896
  151.5625  133.3363  159.3009 H   0  0  0  0  0  0  0  0  0  0  0  0  # atno 6909 bound_to 6896
  144.9455  139.4880  143.5551 H   0  0  0  0  0  0  0  0  0  0  0  0  # atno 7974 bound_to 7965
  155.8004  140.0891  157.1960 H   0  0  0  0  0  0  0  0  0  0  0  0  # atno 8008 bound_to 7997
  154.3982  140.1473  156.3327 H   0  0  0  0  0  0  0  0  0  0  0  0  # atno 8009 bound_to 7997
  155.8468  140.3436  155.5670 H   0  0  0  0  0  0  0  0  0  0  0  0  # atno 8010 bound_to 7997
  139.4837  144.5405  151.7572 H   0  0  0  0  0  0  0  0  0  0  0  0  # atno 10167 bound_to 10162
  157.5071  130.8476  149.8389 H   0  0  0  0  0  0  0  0  0  0  0  0  # atno 10718 bound_to 10713
  152.9879  135.6127  154.2973 H   0  0  0  0  0  0  0  0  0  0  0  0  # atno 10763 bound_to 10752
  154.2696  135.2780  155.2746 H   0  0  0  0  0  0  0  0  0  0  0  0  # atno 10764 bound_to 10752
  154.5134  135.5834  153.6680 H   0  0  0  0  0  0  0  0  0  0  0  0  # atno 10765 bound_to 10752
  140.6996  133.9001  155.8674 H   0  0  0  0  0  0  0  0  0  0  0  0  # atno 11005 bound_to 11000
  146.3302  139.8504  142.8874 LP  0  0  0  0  0  0  0  0  0  0  0  0  # atno 17320 bound_to 7965
  145.2924  141.0171  143.3655 LP  0  0  0  0  0  0  0  0  0  0  0  0  # atno 17321 bound_to 7965
  140.4944  144.1263  150.5957 LP  0  0  0  0  0  0  0  0  0  0  0  0  # atno 17342 bound_to 10162
  140.4134  143.2646  151.9804 LP  0  0  0  0  0  0  0  0  0  0  0  0  # atno 17343 bound_to 10162
  156.0265  130.3778  150.1807 LP  0  0  0  0  0  0  0  0  0  0  0  0  # atno 17370 bound_to 10713
  156.9997  130.9918  151.3394 LP  0  0  0  0  0  0  0  0  0  0  0  0  # atno 17371 bound_to 10713
  141.0174  134.0936  157.4157 LP  0  0  0  0  0  0  0  0  0  0  0  0  # atno 17394 bound_to 11000
  139.8900  135.0109  156.6713 LP  0  0  0  0  0  0  0  0  0  0  0  0  # atno 17395 bound_to 11000

$$$$
