AV-unprocessed.smi:1164|AV-procd|sdf|4927|dock2
  -GOLD-   22720 3503D 1   1.00000     0.00000
 Structure written by MMmdl.
 31 31  0  0  0  0  0  0  0  0  1 V2000
  152.6368  144.5287  158.1322 C   0  0  0  0  0  0  0  0  0  0  0  0
  151.8904  144.0297  159.3823 C   0  0  0  0  0  0  0  0  0  0  0  0
  152.8872  143.2851  160.2959 C   0  0  0  0  0  0  0  0  0  0  0  0
  151.2787  145.2403  160.1177 C   0  0  0  0  0  0  0  0  0  0  0  0
  150.8338  143.1242  158.9149 N   0  0  0  0  0  0  0  0  0  0  0  0
  150.9616  141.9462  158.2786 C   0  0  0  0  0  0  0  0  0  0  0  0
  152.0457  141.4470  157.9745 O   0  0  0  0  0  0  0  0  0  0  0  0
  149.6428  141.2395  157.9297 C   0  0  0  0  0  0  0  0  0  0  0  0
  149.7187  140.4011  156.7241 N   0  0  0  0  0  0  0  0  0  0  0  0
  149.3963  141.0676  155.5517 N   0  0  0  0  0  0  0  0  0  0  0  0
  149.4367  140.4439  154.4232 C   0  0  0  0  0  0  0  0  0  0  0  0
  149.1115  141.1430  153.2865 O   0  0  0  0  0  0  0  0  0  0  0  0
  149.8125  139.0489  154.3519 C   0  0  0  0  0  0  0  0  0  0  0  0
  150.1208  138.4068  155.4999 C   0  0  0  0  0  0  0  0  0  0  0  0
  150.0834  139.0841  156.7975 C   0  0  0  0  0  0  0  0  0  0  0  0
  150.3561  138.5234  157.8586 O   0  0  0  0  0  0  0  0  0  0  0  0
  149.0389  140.4943  152.6037 H   0  0  0  0  0  0  0  0  0  0  0  0
  153.4410  145.2162  158.3972 H   0  0  0  0  0  0  0  0  0  0  0  0
  151.9668  145.0559  157.4519 H   0  0  0  0  0  0  0  0  0  0  0  0
  153.0833  143.7017  157.5784 H   0  0  0  0  0  0  0  0  0  0  0  0
  153.2932  142.4005  159.8039 H   0  0  0  0  0  0  0  0  0  0  0  0
  152.4273  142.9614  161.2295 H   0  0  0  0  0  0  0  0  0  0  0  0
  153.7281  143.9259  160.5626 H   0  0  0  0  0  0  0  0  0  0  0  0
  152.0479  145.9641  160.3891 H   0  0  0  0  0  0  0  0  0  0  0  0
  150.7753  144.9488  161.0396 H   0  0  0  0  0  0  0  0  0  0  0  0
  150.5489  145.7568  159.4931 H   0  0  0  0  0  0  0  0  0  0  0  0
  149.8902  143.4298  159.1044 H   0  0  0  0  0  0  0  0  0  0  0  0
  149.3235  140.6379  158.7830 H   0  0  0  0  0  0  0  0  0  0  0  0
  148.8719  142.0024  157.8061 H   0  0  0  0  0  0  0  0  0  0  0  0
  149.8435  138.5401  153.3996 H   0  0  0  0  0  0  0  0  0  0  0  0
  150.4047  137.3654  155.4618 H   0  0  0  0  0  0  0  0  0  0  0  0
  1  2  1  0  0  0  0
  1 18  1  0  0  0  0
  1 19  1  0  0  0  0
  1 20  1  0  0  0  0
  2  3  1  0  0  0  0
  2  4  1  0  0  0  0
  2  5  1  0  0  0  0
  3 21  1  0  0  0  0
  3 22  1  0  0  0  0
  3 23  1  0  0  0  0
  4 24  1  0  0  0  0
  4 25  1  0  0  0  0
  4 26  1  0  0  0  0
  5  6  1  0  0  0  0
  5 27  1  0  0  0  0
  6  7  2  0  0  0  0
  6  8  1  0  0  0  0
  8 28  1  0  0  0  0
  8 29  1  0  0  0  0
  8  9  1  0  0  0  0
  9 10  1  0  0  0  0
  9 15  1  0  0  0  0
 10 11  2  0  0  0  0
 11 12  1  0  0  0  0
 11 13  1  0  0  0  0
 12 17  1  0  0  0  0
 13 30  1  0  0  0  0
 13 14  2  0  0  0  0
 14 31  1  0  0  0  0
 14 15  1  0  0  0  0
 15 16  2  0  0  0  0
M  END
> <s_m_source_file>
AV-unprocessed.smi

> <i_m_source_file_index>
1164

> <i_lp_mmshare_version>
43012

> <i_f3d_flags>
0

> <s_epik_input>
W0NIM11DKFtDSDNdKShbQ0gzXSlbTkhdQyg9TylbQ0gyXW4xW25IXWMoPU8pW2NIXVtjSF1jMT1P

> <s_epik_cmdline>
J2VwaWtfcHl0aG9uJywgJy1waCcsICc3LjAnLCAnLXRuJywgJzgnLCAnLW1hJywgJzIwMCcsICctbWV0YWxfYmluZGluZycsICctaW1hZScsICc8aW5maWxlLm1hZT4nLCAnLW9tYWUnLCAnPG91dGZpbGUubWFlPic=

> <r_lp_tautomer_probability>
0.9996

> <r_epik_Ionization_Penalty>
2.1187

> <r_epik_Ionization_Penalty_Charging>
3.7231e-08

> <r_epik_Ionization_Penalty_Neutral>
2.1187

> <r_epik_State_Penalty>
1.69546

> <r_epik_Charging_Adjusted_Penalty>
1.69546

> <i_epik_Tot_Q>
0

> <i_epik_Tot_abs_Q>
0

> <r_epik_Metal_State_Penalty>
1.69546

> <b_epik_Metal_Only>
0

> <s_lp_Force_Field>
OPLS_2005

> <r_lp_Energy>
13.6022

> <b_lp_Chiralities_Consistent>
1

> <s_lp_Variant>
AV-unprocessed.smi:1164-2

> <Gold.Version>
5.8.1

> <Gold.Id.Protein>
6NUR|6NUR_protein|mol2

> <Gold.PLP.Fitness>
36.2121

> <Gold.PLP.PLP>
-32.0689

> <Gold.PLP.part.hbond>
-2.4852

> <Gold.PLP.part.metal>
0.0000

> <Gold.PLP.part.buried>
-4.7186

> <Gold.PLP.part.nonpolar>
-25.2621

> <Gold.PLP.part.repulsive>
0.1639

> <Gold.PLP.ligand.clash>
0.0000

> <Gold.PLP.ligand.torsion>
0.7766

> <Gold.PLP.Chemscore.Hbond>
1.8960

> <Gold.PLP.Chemscore.CHOScore>
0.0000

> <Gold.PLP.Chemscore.Metal>
0.0000

> <Gold.Chemscore.Hbonds>
donor molecule, donor type, donor heavy atom, donor atom, acceptor molecule, acceptor atom, score
      L1  H    12    17       P1  7957  0.88
      P1  H  8011  8017       L1    12  0.90

> <Gold.PLP.Chemscore.Internal.Correction>
0.0083

> <Gold.Rescore>
     Score         DG    S(hbond)    S(metal)    S(lipo)     H(rot)  DE(clash)    DE(int)     intcor
     10.77     -11.53       1.30        0.00      65.13       2.31       0.01       0.75       ----

> <Gold.Chemscore.Fitness>
10.7682

> <Gold.Chemscore.DG>
-11.5342

> <Gold.Chemscore.ZeroCoef>
-5.4800

> <Gold.Chemscore.Hbond>
1.3016

> <Gold.Chemscore.Metal>
0.0000

> <Gold.Chemscore.Lipo>
65.1305

> <Gold.Chemscore.Internal_Hbond>
0.0000

> <Gold.Chemscore.DEClash>
0.0149

> <Gold.Chemscore.DEInternal>
0.7511

> <Gold.Chemscore.Rot>
2.3099

> <Gold.Chemscore.Internal.Correction>
   9.000000E+99

> <Gold.Chemscore.Hbonds>
donor molecule, donor type, donor heavy atom, donor atom, acceptor molecule, acceptor atom, score
      L1  H    12    17       P1  7957  0.86
      P1  H  8011  8017       L1    12  0.18

> <Gold.Chemscore.Hbond.Weighted>
-4.3473

> <Gold.Chemscore.Metal.Weighted>
-0.0000

> <Gold.Chemscore.Lipo.Weighted>
-7.6203

> <Gold.Chemscore.Internal_Hbond.Weighted>
0.0000

> <Gold.Chemscore.DEClash.Weighted>
0.0149

> <Gold.Chemscore.DEInternal.Weighted>
0.7511

> <Gold.Chemscore.Rot.Weighted>
5.9134

> <Gold.Chemscore.Internal.Correction.Weighted>
   9.000000E+99

> <Gold.Protein.RotatedTorsions>
[ 6907 6896 6895 6894 ] final  -50.85 input  -60.11 | X-H torsion
[ 7974 7965 7964 7962 ] final   -5.61 input  175.53 | X-H torsion
[ 8008 7997 7996 7995 ] final  -42.49 input   59.86 | X-H torsion
[ 10167 10162 10161 10158 ] final  -42.07 input  -65.29 | X-H torsion
[ 10718 10713 10712 10709 ] final  102.84 input   66.30 | X-H torsion
[ 10763 10752 10751 10750 ] final -137.98 input  -60.55 | X-H torsion
[ 11005 11000 10999 10996 ] final -144.86 input  -57.11 | X-H torsion

> <Gold.Protein.ActiveResidues>
 VAL166  LYS551  ARG553  GLY616  TRP617  ASP618  TYR619  PRO620  LYS621  CYS622 
 ASP623  PHE694  ASN695  SER759  ASP760  ASP761  ALA762  ILE779  LEU786  VAL792 
 PHE793  MET794  SER795  GLU796  ALA797  LYS798  CYS799  TRP800  GLU811  SER814 

> <Gold.Protein.RotatedAtoms>
  150.8667  134.8032  159.7123 H   0  0  0  0  0  0  0  0  0  0  0  0  # atno 6907 bound_to 6896
  152.4686  134.5012  159.9735 H   0  0  0  0  0  0  0  0  0  0  0  0  # atno 6908 bound_to 6896
  151.5107  133.3447  159.2920 H   0  0  0  0  0  0  0  0  0  0  0  0  # atno 6909 bound_to 6896
  146.2349  140.2047  142.8334 H   0  0  0  0  0  0  0  0  0  0  0  0  # atno 7974 bound_to 7965
  154.3999  140.1472  156.3364 H   0  0  0  0  0  0  0  0  0  0  0  0  # atno 8008 bound_to 7997
  155.8396  140.3462  155.5602 H   0  0  0  0  0  0  0  0  0  0  0  0  # atno 8009 bound_to 7997
  155.8101  140.0882  157.1899 H   0  0  0  0  0  0  0  0  0  0  0  0  # atno 8010 bound_to 7997
  140.6981  143.3058  151.3157 H   0  0  0  0  0  0  0  0  0  0  0  0  # atno 10167 bound_to 10162
  157.6790  131.0763  150.5465 H   0  0  0  0  0  0  0  0  0  0  0  0  # atno 10718 bound_to 10713
  154.8648  135.3626  154.5311 H   0  0  0  0  0  0  0  0  0  0  0  0  # atno 10763 bound_to 10752
  153.5937  135.7015  153.5417 H   0  0  0  0  0  0  0  0  0  0  0  0  # atno 10764 bound_to 10752
  153.3351  135.4113  155.1489 H   0  0  0  0  0  0  0  0  0  0  0  0  # atno 10765 bound_to 10752
  140.7982  134.2888  157.4988 H   0  0  0  0  0  0  0  0  0  0  0  0  # atno 11005 bound_to 11000
  144.9754  140.8408  143.5430 LP  0  0  0  0  0  0  0  0  0  0  0  0  # atno 17320 bound_to 7965
  145.2034  139.2240  143.5181 LP  0  0  0  0  0  0  0  0  0  0  0  0  # atno 17321 bound_to 7965
  139.6463  144.0445  152.2593 LP  0  0  0  0  0  0  0  0  0  0  0  0  # atno 17342 bound_to 10162
  139.9966  144.6323  150.7766 LP  0  0  0  0  0  0  0  0  0  0  0  0  # atno 17343 bound_to 10162
  156.5771  130.4295  149.5993 LP  0  0  0  0  0  0  0  0  0  0  0  0  # atno 17370 bound_to 10713
  156.2692  130.7007  151.1799 LP  0  0  0  0  0  0  0  0  0  0  0  0  # atno 17371 bound_to 10713
  139.8724  134.9414  156.3796 LP  0  0  0  0  0  0  0  0  0  0  0  0  # atno 17394 bound_to 11000
  140.9321  133.7572  156.0038 LP  0  0  0  0  0  0  0  0  0  0  0  0  # atno 17395 bound_to 11000

$$$$
