AV-unprocessed.smi:148|AV-procd|sdf|1216|dock3
  -GOLD-   2262018403D 1   1.00000     0.00000
 Structure written by MMmdl.
 63 67  0  0  0  0  0  0  0  0  1 V2000
  147.6246  133.2701  156.5296 O   0  0  0  0  0  0  0  0  0  0  0  0
  148.1948  134.2401  155.6760 C   0  0  0  0  0  0  0  0  0  0  0  0
  149.6739  133.9144  155.3592 C   0  0  2  0  0  0  0  0  0  0  0  0
  150.3952  135.1248  154.7115 C   0  0  0  0  0  0  0  0  0  0  0  0
  150.5790  136.2249  155.6411 N   0  0  0  0  0  0  0  0  0  0  0  0
  149.9151  136.4112  156.8328 C   0  0  0  0  0  0  0  0  0  0  0  0
  150.2411  137.4914  157.4890 N   0  0  0  0  0  0  0  0  0  0  0  0
  151.2038  138.0916  156.6878 C   0  0  0  0  0  0  0  0  0  0  0  0
  151.9540  139.2922  156.7801 C   0  0  0  0  0  0  0  0  0  0  0  0
  151.8027  140.1509  157.8143 N   0  0  0  0  0  0  0  0  0  0  0  0
  153.0773  140.3144  158.5137 C   0  0  0  0  0  0  0  0  0  0  0  0
  152.9043  141.1032  159.8171 C   0  0  0  0  0  0  0  0  0  0  0  0
  152.2395  142.4526  159.5320 C   0  0  0  0  0  0  0  0  0  0  0  0
  150.8997  142.2349  158.8167 C   0  0  0  0  0  0  0  0  0  0  0  0
  151.0603  141.3923  157.5234 C   0  0  2  0  0  0  0  0  0  0  0  0
  149.7056  141.1267  156.7908 C   0  0  1  0  0  0  0  0  0  0  0  0
  148.4681  141.8438  157.3662 C   0  0  0  0  0  0  0  0  0  0  0  0
  147.5039  142.0590  156.1881 C   0  0  0  0  0  0  0  0  0  0  0  0
  148.1741  141.4281  154.9636 C   0  0  0  0  0  0  0  0  0  0  0  0
  149.6666  141.4553  155.2912 C   0  0  2  0  0  0  0  0  0  0  0  0
  150.3813  140.5132  154.5184 O   0  0  0  0  0  0  0  0  0  0  0  0
  152.8385  139.5705  155.7855 N   0  0  0  0  0  0  0  0  0  0  0  0
  152.9664  138.7299  154.7542 C   0  0  0  0  0  0  0  0  0  0  0  0
  152.3203  137.5840  154.5253 N   0  0  0  0  0  0  0  0  0  0  0  0
  151.4401  137.3021  155.5289 C   0  0  0  0  0  0  0  0  0  0  0  0
  149.8134  132.6039  154.5364 C   0  0  2  0  0  0  0  0  0  0  0  0
  148.9089  132.4900  153.3081 C   0  0  0  0  0  0  0  0  0  0  0  0
  148.3396  131.0724  153.3910 C   0  0  0  0  0  0  0  0  0  0  0  0
  149.2253  130.3850  154.2606 O   0  0  0  0  0  0  0  0  0  0  0  0
  149.5659  131.2937  155.2935 C   0  0  0  0  0  0  0  0  0  0  0  0
  146.8599  133.6438  156.9404 H   0  0  0  0  0  0  0  0  0  0  0  0
  147.6067  134.3087  154.7605 H   0  0  0  0  0  0  0  0  0  0  0  0
  148.1028  135.1997  156.1836 H   0  0  0  0  0  0  0  0  0  0  0  0
  150.1665  133.7295  156.3154 H   0  0  0  0  0  0  0  0  0  0  0  0
  151.3796  134.8476  154.3367 H   0  0  0  0  0  0  0  0  0  0  0  0
  149.8354  135.4948  153.8530 H   0  0  0  0  0  0  0  0  0  0  0  0
  149.1694  135.7196  157.1975 H   0  0  0  0  0  0  0  0  0  0  0  0
  153.5071  139.3365  158.7365 H   0  0  0  0  0  0  0  0  0  0  0  0
  153.7844  140.8316  157.8632 H   0  0  0  0  0  0  0  0  0  0  0  0
  152.2957  140.5303  160.5179 H   0  0  0  0  0  0  0  0  0  0  0  0
  153.8729  141.2550  160.2942 H   0  0  0  0  0  0  0  0  0  0  0  0
  152.0852  143.0007  160.4618 H   0  0  0  0  0  0  0  0  0  0  0  0
  152.8952  143.0648  158.9116 H   0  0  0  0  0  0  0  0  0  0  0  0
  150.2123  141.7498  159.5088 H   0  0  0  0  0  0  0  0  0  0  0  0
  150.4743  143.2116  158.5919 H   0  0  0  0  0  0  0  0  0  0  0  0
  151.6834  141.9768  156.8447 H   0  0  0  0  0  0  0  0  0  0  0  0
  149.4879  140.0591  156.8516 H   0  0  0  0  0  0  0  0  0  0  0  0
  148.0032  141.2470  158.1509 H   0  0  0  0  0  0  0  0  0  0  0  0
  148.7199  142.8059  157.8098 H   0  0  0  0  0  0  0  0  0  0  0  0
  146.5226  141.6225  156.3769 H   0  0  0  0  0  0  0  0  0  0  0  0
  147.3592  143.1275  156.0234 H   0  0  0  0  0  0  0  0  0  0  0  0
  147.8327  140.3969  154.8588 H   0  0  0  0  0  0  0  0  0  0  0  0
  147.9360  141.9513  154.0370 H   0  0  0  0  0  0  0  0  0  0  0  0
  150.0468  142.4554  155.0890 H   0  0  0  0  0  0  0  0  0  0  0  0
  150.4029  139.6938  154.9886 H   0  0  0  0  0  0  0  0  0  0  0  0
  153.6859  139.0190  154.0023 H   0  0  0  0  0  0  0  0  0  0  0  0
  150.8326  132.5512  154.1517 H   0  0  0  0  0  0  0  0  0  0  0  0
  148.1131  133.2331  153.2717 H   0  0  0  0  0  0  0  0  0  0  0  0
  149.5008  132.6113  152.4002 H   0  0  0  0  0  0  0  0  0  0  0  0
  147.3416  131.0851  153.8317 H   0  0  0  0  0  0  0  0  0  0  0  0
  148.2766  130.5864  152.4173 H   0  0  0  0  0  0  0  0  0  0  0  0
  150.4428  130.9579  155.8475 H   0  0  0  0  0  0  0  0  0  0  0  0
  148.7293  131.3615  155.9884 H   0  0  0  0  0  0  0  0  0  0  0  0
  1  2  1  0  0  0  0
  1 31  1  0  0  0  0
  2  3  1  0  0  0  0
  2 32  1  0  0  0  0
  2 33  1  0  0  0  0
  3  4  1  0  0  0  0
  3 26  1  0  0  0  0
  3 34  1  0  0  0  0
  4  5  1  0  0  0  0
  4 35  1  0  0  0  0
  4 36  1  0  0  0  0
  5 25  1  0  0  0  0
  5  6  1  0  0  0  0
  6  7  2  0  0  0  0
  6 37  1  0  0  0  0
  7  8  1  0  0  0  0
  8 25  2  0  0  0  0
  8  9  1  0  0  0  0
  9 10  1  0  0  0  0
  9 22  2  0  0  0  0
 10 15  1  0  0  0  0
 10 11  1  0  0  0  0
 11 12  1  0  0  0  0
 11 38  1  0  0  0  0
 11 39  1  0  0  0  0
 12 13  1  0  0  0  0
 12 40  1  0  0  0  0
 12 41  1  0  0  0  0
 13 14  1  0  0  0  0
 13 42  1  0  0  0  0
 13 43  1  0  0  0  0
 14 15  1  0  0  0  0
 14 44  1  0  0  0  0
 14 45  1  0  0  0  0
 15 16  1  0  0  0  0
 15 46  1  0  0  0  0
 16 20  1  0  0  0  0
 16 17  1  0  0  0  0
 16 47  1  0  0  0  0
 17 18  1  0  0  0  0
 17 48  1  0  0  0  0
 17 49  1  0  0  0  0
 18 19  1  0  0  0  0
 18 50  1  0  0  0  0
 18 51  1  0  0  0  0
 19 20  1  0  0  0  0
 19 52  1  0  0  0  0
 19 53  1  0  0  0  0
 20 21  1  0  0  0  0
 20 54  1  0  0  0  0
 21 55  1  0  0  0  0
 22 23  1  0  0  0  0
 23 24  2  0  0  0  0
 23 56  1  0  0  0  0
 24 25  1  0  0  0  0
 26 30  1  0  0  0  0
 26 27  1  0  0  0  0
 26 57  1  0  0  0  0
 27 28  1  0  0  0  0
 27 58  1  0  0  0  0
 27 59  1  0  0  0  0
 28 29  1  0  0  0  0
 28 60  1  0  0  0  0
 28 61  1  0  0  0  0
 29 30  1  0  0  0  0
 30 62  1  0  0  0  0
 30 63  1  0  0  0  0
M  END
> <s_m_source_file>
AV-unprocessed.smi

> <i_m_source_file_index>
148

> <i_lp_mmshare_version>
43012

> <i_f3d_flags>
0

> <s_epik_input>
W0NIMl0xT1tDSDJdW0NIMl1bQ0BIXTFbQ0BIXShbQ0gyXVtPSF0pW0NIMl1uKFtjSF1uMiljKGMyMyluW2NIXW5jM040W0NIMl1bQ0gyXVtDSDJdW0NIMl1bQ0BIXTRbQ0BASF01W0NIMl1bQ0gyXVtDSDJdW0NASF01W09IXQ==

> <s_epik_cmdline>
J2VwaWtfcHl0aG9uJywgJy1waCcsICc3LjAnLCAnLXRuJywgJzgnLCAnLW1hJywgJzIwMCcsICctbWV0YWxfYmluZGluZycsICctaW1hZScsICc8aW5maWxlLm1hZT4nLCAnLW9tYWUnLCAnPG91dGZpbGUubWFlPic=

> <r_lp_tautomer_probability>
1

> <r_epik_Ionization_Penalty>
0.00556303

> <r_epik_Ionization_Penalty_Charging>
0

> <r_epik_Ionization_Penalty_Neutral>
0.00556303

> <r_epik_State_Penalty>
0.00401767

> <r_epik_Charging_Adjusted_Penalty>
0.00401767

> <i_epik_Tot_Q>
0

> <i_epik_Tot_abs_Q>
0

> <r_epik_Metal_State_Penalty>
-0

> <b_epik_Metal_Only>
0

> <s_lp_Force_Field>
OPLS_2005

> <r_lp_Energy>
68.7662

> <b_lp_Chiralities_Consistent>
1

> <s_lp_Variant>
AV-unprocessed.smi:148-15

> <Gold.Version>
5.8.1

> <Gold.Id.Protein>
6NUR|6NUR_protein|mol2

> <Gold.PLP.Fitness>
48.3561

> <Gold.PLP.PLP>
-44.1903

> <Gold.PLP.part.hbond>
-3.0000

> <Gold.PLP.part.metal>
0.0000

> <Gold.PLP.part.buried>
-4.9385

> <Gold.PLP.part.nonpolar>
-35.9701

> <Gold.PLP.part.repulsive>
0.1599

> <Gold.PLP.ligand.clash>
0.0000

> <Gold.PLP.ligand.torsion>
2.1691

> <Gold.PLP.Chemscore.Hbond>
2.6800

> <Gold.PLP.Chemscore.CHOScore>
0.0000

> <Gold.PLP.Chemscore.Metal>
0.0000

> <Gold.Chemscore.Hbonds>
donor molecule, donor type, donor heavy atom, donor atom, acceptor molecule, acceptor atom, score
      P1  H  7989  7998       L1    21  0.96
      P1  H  7997  8010       L1    22  1.00
      P1  H 10752 10763       L1    24  0.62

> <Gold.PLP.Chemscore.Internal.Correction>
0.4640

> <Gold.Rescore>
     Score         DG    S(hbond)    S(metal)    S(lipo)     H(rot)  DE(clash)    DE(int)     intcor
     13.80     -16.50       2.45        0.00      96.94       3.32       0.10       2.59       ----

> <Gold.Chemscore.Fitness>
13.8018

> <Gold.Chemscore.DG>
-16.5001

> <Gold.Chemscore.ZeroCoef>
-5.4800

> <Gold.Chemscore.Hbond>
2.4487

> <Gold.Chemscore.Metal>
0.0000

> <Gold.Chemscore.Lipo>
96.9357

> <Gold.Chemscore.Internal_Hbond>
0.0000

> <Gold.Chemscore.DEClash>
0.1037

> <Gold.Chemscore.DEInternal>
2.5946

> <Gold.Chemscore.Rot>
3.3203

> <Gold.Chemscore.Internal.Correction>
   9.000000E+99

> <Gold.Chemscore.Hbonds>
donor molecule, donor type, donor heavy atom, donor atom, acceptor molecule, acceptor atom, score
      P1  H  7989  7998       L1    21  0.89
      P1  H  7997  8010       L1    22  0.60
      P1  H 10752 10763       L1    24  0.11

> <Gold.Chemscore.Hbond.Weighted>
-8.1786

> <Gold.Chemscore.Metal.Weighted>
-0.0000

> <Gold.Chemscore.Lipo.Weighted>
-11.3415

> <Gold.Chemscore.Internal_Hbond.Weighted>
0.0000

> <Gold.Chemscore.DEClash.Weighted>
0.1037

> <Gold.Chemscore.DEInternal.Weighted>
2.5946

> <Gold.Chemscore.Rot.Weighted>
8.5000

> <Gold.Chemscore.Internal.Correction.Weighted>
   9.000000E+99

> <Gold.Protein.RotatedTorsions>
[ 6907 6896 6895 6894 ] final -137.66 input  -60.11 | X-H torsion
[ 7974 7965 7964 7962 ] final  -50.60 input  175.53 | X-H torsion
[ 8008 7997 7996 7995 ] final   90.56 input   59.86 | X-H torsion
[ 10167 10162 10161 10158 ] final  106.90 input  -65.29 | X-H torsion
[ 10718 10713 10712 10709 ] final  -81.02 input   66.30 | X-H torsion
[ 10763 10752 10751 10750 ] final   36.57 input  -60.55 | X-H torsion
[ 11005 11000 10999 10996 ] final   38.52 input  -57.11 | X-H torsion

> <Gold.Protein.ActiveResidues>
 VAL166  LYS551  ARG553  GLY616  TRP617  ASP618  TYR619  PRO620  LYS621  CYS622 
 ASP623  PHE694  ASN695  SER759  ASP760  ASP761  ALA762  ILE779  LEU786  VAL792 
 PHE793  MET794  SER795  GLU796  ALA797  LYS798  CYS799  TRP800  GLU811  SER814 

> <Gold.Protein.RotatedAtoms>
  151.0252  133.5840  159.2666 H   0  0  0  0  0  0  0  0  0  0  0  0  # atno 6907 bound_to 6896
  151.2942  135.0749  159.9225 H   0  0  0  0  0  0  0  0  0  0  0  0  # atno 6908 bound_to 6896
  152.5332  133.9945  159.7920 H   0  0  0  0  0  0  0  0  0  0  0  0  # atno 6909 bound_to 6896
  145.9281  140.7774  142.9613 H   0  0  0  0  0  0  0  0  0  0  0  0  # atno 7974 bound_to 7965
  156.0134  140.3348  155.6964 H   0  0  0  0  0  0  0  0  0  0  0  0  # atno 8008 bound_to 7997
  155.6125  140.0667  157.2719 H   0  0  0  0  0  0  0  0  0  0  0  0  # atno 8009 bound_to 7997
  154.4289  140.1791  156.1275 H   0  0  0  0  0  0  0  0  0  0  0  0  # atno 8010 bound_to 7997
  139.6971  144.7100  151.1248 H   0  0  0  0  0  0  0  0  0  0  0  0  # atno 10167 bound_to 10162
  156.0058  130.4591  150.3888 H   0  0  0  0  0  0  0  0  0  0  0  0  # atno 10718 bound_to 10713
  153.0072  135.6302  154.2006 H   0  0  0  0  0  0  0  0  0  0  0  0  # atno 10763 bound_to 10752
  154.1749  135.2816  155.3071 H   0  0  0  0  0  0  0  0  0  0  0  0  # atno 10764 bound_to 10752
  154.5880  135.5626  153.7310 H   0  0  0  0  0  0  0  0  0  0  0  0  # atno 10765 bound_to 10752
  140.2118  134.3746  155.8045 H   0  0  0  0  0  0  0  0  0  0  0  0  # atno 11005 bound_to 11000
  144.6761  140.2082  143.7380 LP  0  0  0  0  0  0  0  0  0  0  0  0  # atno 17320 bound_to 7965
  145.8462  139.2153  143.1798 LP  0  0  0  0  0  0  0  0  0  0  0  0  # atno 17321 bound_to 7965
  140.7699  143.5476  150.9241 LP  0  0  0  0  0  0  0  0  0  0  0  0  # atno 17342 bound_to 10162
  139.9156  143.6668  152.3107 LP  0  0  0  0  0  0  0  0  0  0  0  0  # atno 17343 bound_to 10162
  157.1964  131.0427  151.2673 LP  0  0  0  0  0  0  0  0  0  0  0  0  # atno 17370 bound_to 10713
  157.4015  130.7336  149.6770 LP  0  0  0  0  0  0  0  0  0  0  0  0  # atno 17371 bound_to 10713
  141.2226  133.7147  156.8430 LP  0  0  0  0  0  0  0  0  0  0  0  0  # atno 17394 bound_to 11000
  140.1943  134.8943  157.3096 LP  0  0  0  0  0  0  0  0  0  0  0  0  # atno 17395 bound_to 11000

$$$$
