#       Name:                AV-unprocessed.smi:1434
#       Creating user name   scv26
#       Creation time:       Fri Mar 27 05:51:42 2020


#       File generated by GOLD software.
#

@<TRIPOS>MOLECULE
AV-unprocessed.smi:1434
    48    49     1
SMALL
NO_CHARGES


@<TRIPOS>ATOM
      1 ****        -4.6540   3.8647  -2.1977 C.3            1 S1                 0.0000
      2 ****        -3.5063   2.4935  -2.6219 S.o2           1 S1                 0.0000
      3 ****        -4.2949   1.3754  -3.1616 O.2            1 S1                 0.0000
      4 ****        -2.3735   3.0352  -3.3872 O.2            1 S1                 0.0000
      5 ****        -2.9056   2.0187  -1.0761 N.3            1 S1                 0.0000
      6 ****        -2.1909   0.7461  -0.9632 C.3            1 S1                 0.0000
      7 ****        -3.1614  -0.3799  -0.5455 C.3            1 S1                 0.0000
      8 ****        -2.4136  -1.6869  -0.2214 C.3            1 S1                 0.0000
      9 ****        -1.2541  -1.4289   0.7567 C.3            1 S1                 0.0000
     10 ****        -0.3610  -0.4131   0.1727 N.am           1 S1                 0.0000
     11 ****         0.8813  -0.6247  -0.3311 C.2            1 S1                 0.0000
     12 ****         1.5685   0.2697  -0.8256 O.2            1 S1                 0.0000
     13 ****         1.3102  -1.8965  -0.2507 N.am           1 S1                 0.0000
     14 ****         2.6185  -2.3900  -0.6739 C.3            1 S1                 0.0000
     15 ****         3.5716  -2.5975   0.5180 C.3            1 S1                 0.0000
     16 ****         3.8318  -1.3317   1.3166 C.ar           1 S1                 0.0000
     17 ****         3.1557  -1.0938   2.5329 C.ar           1 S1                 0.0000
     18 ****         3.4145   0.1077   3.2199 C.ar           1 S1                 0.0000
     19 ****         4.3362   1.0186   2.6691 C.ar           1 S1                 0.0000
     20 ****         4.9610   0.6860   1.4506 C.ar           1 S1                 0.0000
     21 ****         4.7197  -0.4629   0.7834 N.ar           1 S1                 0.0000
     22 ****        -1.0399   0.8836   0.0533 C.3            1 S1                 0.0000
     23 ****        -5.1076   4.2519  -3.1100 H              1 S1                 0.0000
     24 ****        -4.1027   4.6630  -1.7011 H              1 S1                 0.0000
     25 ****        -5.4352   3.4939  -1.5343 H              1 S1                 0.0000
     26 ****        -2.3749   2.7739  -0.6428 H              1 S1                 0.0000
     27 ****        -1.7595   0.5034  -1.9361 H              1 S1                 0.0000
     28 ****        -3.7187  -0.0667   0.3386 H              1 S1                 0.0000
     29 ****        -3.9003  -0.5604  -1.3263 H              1 S1                 0.0000
     30 ****        -3.1054  -2.4173   0.1990 H              1 S1                 0.0000
     31 ****        -2.0233  -2.1227  -1.1419 H              1 S1                 0.0000
     32 ****        -1.6450  -1.0563   1.7047 H              1 S1                 0.0000
     33 ****        -0.7584  -2.3677   1.0034 H              1 S1                 0.0000
     34 ****         0.6828  -2.5742   0.1567 H              1 S1                 0.0000
     35 ****         2.4693  -3.3389  -1.1888 H              1 S1                 0.0000
     36 ****         3.0727  -1.7184  -1.4041 H              1 S1                 0.0000
     37 ****         3.1668  -3.3615   1.1831 H              1 S1                 0.0000
     38 ****         4.5246  -2.9877   0.1582 H              1 S1                 0.0000
     39 ****         2.4479  -1.8090   2.9255 H              1 S1                 0.0000
     40 ****         2.9135   0.3273   4.1512 H              1 S1                 0.0000
     41 ****         4.5593   1.9502   3.1677 H              1 S1                 0.0000
     42 ****         5.6740   1.3603   1.0001 H              1 S1                 0.0000
     43 ****        -0.3655   1.6855  -0.2513 H              1 S1                 0.0000
     44 ****        -1.4270   1.1785   1.0300 H              1 S1                 0.0000
     45 ****        -3.7492   1.8315  -0.5728 LP             1 S1                 0.0000
     46 ****         1.2162   1.2046  -0.8694 LP             1 S1                 0.0000
     47 ****         2.4787   0.0610  -1.1833 LP             1 S1                 0.0000
     48 ****         5.1837  -0.6650  -0.0790 LP             1 S1                 0.0000
@<TRIPOS>BOND
    1    1    2 1     
    2    1   23 1     
    3    1   24 1     
    4    1   25 1     
    5    2    3 2     
    6    2    4 2     
    7    2    5 1     
    8    5    6 1     
    9    5   26 1     
   10    6   22 1     
   11    6    7 1     
   12    6   27 1     
   13    7    8 1     
   14    7   28 1     
   15    7   29 1     
   16    8    9 1     
   17    8   30 1     
   18    8   31 1     
   19    9   10 1     
   20    9   32 1     
   21    9   33 1     
   22   10   11 am    
   23   10   22 1     
   24   11   12 2     
   25   11   13 am    
   26   13   14 1     
   27   13   34 1     
   28   14   15 1     
   29   14   35 1     
   30   14   36 1     
   31   15   16 1     
   32   15   37 1     
   33   15   38 1     
   34   16   21 ar    
   35   16   17 ar    
   36   17   18 ar    
   37   17   39 1     
   38   18   19 ar    
   39   18   40 1     
   40   19   20 ar    
   41   19   41 1     
   42   20   21 ar    
   43   20   42 1     
   44   22   43 1     
   45   22   44 1     
   46    5   45 1     
   47   12   46 1     
   48   12   47 1     
   49   21   48 1     
@<TRIPOS>SUBSTRUCTURE
      1 S1             1
@<TRIPOS>SET
LONE_PAIRS      STATIC     ATOMS    <user>   **** ""
6 3 4 45 46 47 48
DONOR_HYDROGENS      STATIC     ATOMS    <user>   **** ""
2 26 34
ATOM$BLUE        STATIC     ATOMS    COLORGROUP SYSTEM
6 3 4 45 46 47 48
ATOM$RED        STATIC     ATOMS    COLORGROUP SYSTEM
2 26 34
