#       Name:                AV-unprocessed.smi:291
#       Creating user name   scv26
#       Creation time:       Thu Mar 26 22:13:21 2020


#       File generated by GOLD software.
#

@<TRIPOS>MOLECULE
AV-unprocessed.smi:291
    40    41     1
SMALL
NO_CHARGES


@<TRIPOS>ATOM
      1 ****        -0.9371  -3.7531   0.6285 C.3            1 S1                 0.0000
      2 ****        -1.5866  -2.3621   0.6197 C.3            1 S1                 0.0000
      3 ****        -1.2667  -1.6004  -0.6808 C.3            1 S1                 0.0000
      4 ****        -1.9100  -0.2020  -0.6926 C.3            1 S1                 0.0000
      5 ****        -1.5128   0.6336   0.5388 C.3            1 S1                 0.0000
      6 ****        -0.1034   1.0086   0.4554 N.am           1 S1                 0.0000
      7 ****         0.4452   2.1264   0.9571 C.2            1 S1                 0.0000
      8 ****        -0.1943   2.9827   1.5671 O.2            1 S1                 0.0000
      9 ****         1.9517   2.3006   0.7504 C.3            1 S1                 0.0000
     10 ****         2.3062   2.2625  -0.6579 N.pl3          1 S1                 0.0000
     11 ****         2.2147   3.2046  -1.6026 C.2            1 S1                 0.0000
     12 ****         2.6257   2.8085  -2.8011 N.2            1 S1                 0.0000
     13 ****         2.9789   1.5272  -2.4910 C.2            1 S1                 0.0000
     14 ****         3.5094   0.6215  -3.4957 C.1            1 S1                 0.0000
     15 ****         3.9317  -0.1001  -4.2958 N.1            1 S1                 0.0000
     16 ****         2.8125   1.1412  -1.2278 N.2            1 S1                 0.0000
     17 ****        -1.8057  -0.1365   1.8426 C.3            1 S1                 0.0000
     18 ****        -1.1620  -1.5347   1.8484 C.3            1 S1                 0.0000
     19 ****         0.1503  -3.6835   0.5886 H              1 S1                 0.0000
     20 ****        -1.2646  -4.3449  -0.2267 H              1 S1                 0.0000
     21 ****        -1.2027  -4.3043   1.5310 H              1 S1                 0.0000
     22 ****        -2.6673  -2.5042   0.6675 H              1 S1                 0.0000
     23 ****        -0.1860  -1.5096  -0.8001 H              1 S1                 0.0000
     24 ****        -1.6213  -2.1690  -1.5411 H              1 S1                 0.0000
     25 ****        -1.6407   0.3252  -1.6089 H              1 S1                 0.0000
     26 ****        -2.9951  -0.3107  -0.7144 H              1 S1                 0.0000
     27 ****        -2.1144   1.5443   0.5302 H              1 S1                 0.0000
     28 ****         0.5062   0.3635  -0.0266 H              1 S1                 0.0000
     29 ****         2.2794   3.2545   1.1657 H              1 S1                 0.0000
     30 ****         2.4889   1.5147   1.2837 H              1 S1                 0.0000
     31 ****         1.8352   4.1974  -1.4099 H              1 S1                 0.0000
     32 ****        -1.4650   0.4352   2.7067 H              1 S1                 0.0000
     33 ****        -2.8850  -0.2422   1.9588 H              1 S1                 0.0000
     34 ****        -1.4400  -2.0583   2.7637 H              1 S1                 0.0000
     35 ****        -0.0757  -1.4375   1.8704 H              1 S1                 0.0000
     36 ****        -1.1768   2.8649   1.7111 LP             1 S1                 0.0000
     37 ****         0.2686   3.7964   1.9187 LP             1 S1                 0.0000
     38 ****         2.6648   3.3012  -3.6705 LP             1 S1                 0.0000
     39 ****         4.2966  -0.7236  -4.9872 LP             1 S1                 0.0000
     40 ****         3.0096   0.2551  -0.8085 LP             1 S1                 0.0000
@<TRIPOS>BOND
    1    1    2 1     
    2    1   19 1     
    3    1   20 1     
    4    1   21 1     
    5    2   18 1     
    6    2    3 1     
    7    2   22 1     
    8    3    4 1     
    9    3   23 1     
   10    3   24 1     
   11    4    5 1     
   12    4   25 1     
   13    4   26 1     
   14    5    6 1     
   15    5   17 1     
   16    5   27 1     
   17    6    7 am    
   18    6   28 1     
   19    7    8 2     
   20    7    9 1     
   21    9   10 1     
   22    9   29 1     
   23    9   30 1     
   24   10   16 1     
   25   10   11 1     
   26   11   12 2     
   27   11   31 1     
   28   12   13 1     
   29   13   14 1     
   30   13   16 2     
   31   14   15 3     
   32   17   18 1     
   33   17   32 1     
   34   17   33 1     
   35   18   34 1     
   36   18   35 1     
   37    8   36 1     
   38    8   37 1     
   39   12   38 1     
   40   15   39 1     
   41   16   40 1     
@<TRIPOS>SUBSTRUCTURE
      1 S1             1
@<TRIPOS>SET
LONE_PAIRS      STATIC     ATOMS    <user>   **** ""
5 36 37 38 39 40
DONOR_HYDROGENS      STATIC     ATOMS    <user>   **** ""
1 28
ATOM$BLUE        STATIC     ATOMS    COLORGROUP SYSTEM
5 36 37 38 39 40
ATOM$RED        STATIC     ATOMS    COLORGROUP SYSTEM
1 28
