AV-unprocessed.smi:1207|AV-procd|sdf|5051|dock9
  -GOLD-   22720 4 83D 1   1.00000     0.00000
 Structure written by MMmdl.
 52 54  0  0  0  0  0  0  0  0  2 V2000
  152.7046  143.3294  160.3071 C   0  0  0  0  0  0  0  0  0  0  0  0
  152.1606  142.5709  159.1092 C   0  0  0  0  0  0  0  0  0  0  0  0
  152.6891  141.2960  158.8057 C   0  0  0  0  0  0  0  0  0  0  0  0
  152.2096  140.5574  157.7021 C   0  0  0  0  0  0  0  0  0  0  0  0
  152.5797  139.3116  157.2261 N   0  0  0  0  0  0  0  0  0  0  0  0
  151.7731  139.1743  156.1784 C   0  0  0  0  0  0  0  0  0  0  0  0
  150.9311  140.1915  155.9106 N   0  0  0  0  0  0  0  0  0  0  0  0
  149.9745  140.2694  154.8210 C   0  0  0  0  0  0  0  0  0  0  0  0
  149.7084  138.9035  154.1537 C   0  0  2  0  0  0  0  0  0  0  0  0
  148.9716  139.1480  152.9721 O   0  0  0  0  0  0  0  0  0  0  0  0
  148.9269  137.9231  155.0598 C   0  0  0  0  0  0  0  0  0  0  0  0
  149.0454  136.4938  154.6567 N   0  3  1  0  0  0  0  0  0  0  0  0
  150.3168  135.8686  155.0953 C   0  0  0  0  0  0  0  0  0  0  0  0
  147.8756  135.6755  155.0709 C   0  0  0  0  0  0  0  0  0  0  0  0
  148.0917  134.2021  154.8313 C   0  0  0  0  0  0  0  0  0  0  0  0
  148.8387  133.2884  155.6291 C   0  0  0  0  0  0  0  0  0  0  0  0
  149.5927  133.5541  156.9004 C   0  0  0  0  0  0  0  0  0  0  0  0
  148.8235  132.0665  155.1261 N   0  0  0  0  0  0  0  0  0  0  0  0
  148.0488  132.1394  153.9648 O   0  0  0  0  0  0  0  0  0  0  0  0
  147.6218  133.4181  153.8120 C   0  0  0  0  0  0  0  0  0  0  0  0
  146.7763  133.6944  152.6140 C   0  0  0  0  0  0  0  0  0  0  0  0
  151.1779  141.1332  156.9040 C   0  0  0  0  0  0  0  0  0  0  0  0
  150.6426  142.3999  157.1973 C   0  0  0  0  0  0  0  0  0  0  0  0
  151.1354  143.1258  158.3017 C   0  0  0  0  0  0  0  0  0  0  0  0
  150.5558  144.4959  158.6066 C   0  0  0  0  0  0  0  0  0  0  0  0
  153.4745  142.7568  160.8249 H   0  0  0  0  0  0  0  0  0  0  0  0
  151.9078  143.5384  161.0212 H   0  0  0  0  0  0  0  0  0  0  0  0
  153.1458  144.2755  159.9927 H   0  0  0  0  0  0  0  0  0  0  0  0
  153.4698  140.8728  159.4210 H   0  0  0  0  0  0  0  0  0  0  0  0
  151.8029  138.2866  155.5632 H   0  0  0  0  0  0  0  0  0  0  0  0
  149.0441  140.6813  155.2160 H   0  0  0  0  0  0  0  0  0  0  0  0
  150.3456  140.9867  154.0879 H   0  0  0  0  0  0  0  0  0  0  0  0
  150.6691  138.4746  153.8729 H   0  0  0  0  0  0  0  0  0  0  0  0
  148.8855  138.3397  152.4907 H   0  0  0  0  0  0  0  0  0  0  0  0
  149.2580  138.0104  156.0956 H   0  0  0  0  0  0  0  0  0  0  0  0
  147.8821  138.2307  155.0475 H   0  0  0  0  0  0  0  0  0  0  0  0
  150.4270  135.9267  156.1790 H   0  0  0  0  0  0  0  0  0  0  0  0
  151.1802  136.3466  154.6345 H   0  0  0  0  0  0  0  0  0  0  0  0
  150.3542  134.8174  154.8078 H   0  0  0  0  0  0  0  0  0  0  0  0
  147.6849  135.8422  156.1316 H   0  0  0  0  0  0  0  0  0  0  0  0
  146.9869  136.0391  154.5532 H   0  0  0  0  0  0  0  0  0  0  0  0
  150.0142  134.5594  156.9064 H   0  0  0  0  0  0  0  0  0  0  0  0
  150.4169  132.8519  157.0318 H   0  0  0  0  0  0  0  0  0  0  0  0
  148.9372  133.4631  157.7669 H   0  0  0  0  0  0  0  0  0  0  0  0
  146.3416  134.6928  152.6570 H   0  0  0  0  0  0  0  0  0  0  0  0
  145.9596  132.9757  152.5433 H   0  0  0  0  0  0  0  0  0  0  0  0
  147.3682  133.6248  151.7012 H   0  0  0  0  0  0  0  0  0  0  0  0
  149.8584  142.8100  156.5784 H   0  0  0  0  0  0  0  0  0  0  0  0
  149.7773  144.7671  157.8928 H   0  0  0  0  0  0  0  0  0  0  0  0
  151.3333  145.2587  158.5588 H   0  0  0  0  0  0  0  0  0  0  0  0
  150.1154  144.5116  159.6037 H   0  0  0  0  0  0  0  0  0  0  0  0
  149.0514  136.4786  153.6469 H   0  0  0  0  0  0  0  0  0  0  0  0
  1  2  1  0  0  0  0
  1 26  1  0  0  0  0
  1 27  1  0  0  0  0
  1 28  1  0  0  0  0
  2 24  1  0  0  0  0
  2  3  2  0  0  0  0
  3  4  1  0  0  0  0
  3 29  1  0  0  0  0
  4 22  2  0  0  0  0
  4  5  1  0  0  0  0
  5  6  2  0  0  0  0
  6  7  1  0  0  0  0
  6 30  1  0  0  0  0
  7  8  1  0  0  0  0
  7 22  1  0  0  0  0
  8  9  1  0  0  0  0
  8 31  1  0  0  0  0
  8 32  1  0  0  0  0
  9 10  1  0  0  0  0
  9 11  1  0  0  0  0
  9 33  1  0  0  0  0
 10 34  1  0  0  0  0
 11 12  1  0  0  0  0
 11 35  1  0  0  0  0
 11 36  1  0  0  0  0
 12 13  1  0  0  0  0
 12 14  1  0  0  0  0
 12 52  1  0  0  0  0
 13 37  1  0  0  0  0
 13 38  1  0  0  0  0
 13 39  1  0  0  0  0
 14 15  1  0  0  0  0
 14 40  1  0  0  0  0
 14 41  1  0  0  0  0
 15 20  2  0  0  0  0
 15 16  1  0  0  0  0
 16 17  1  0  0  0  0
 16 18  2  0  0  0  0
 17 42  1  0  0  0  0
 17 43  1  0  0  0  0
 17 44  1  0  0  0  0
 18 19  1  0  0  0  0
 19 20  1  0  0  0  0
 20 21  1  0  0  0  0
 21 45  1  0  0  0  0
 21 46  1  0  0  0  0
 21 47  1  0  0  0  0
 22 23  1  0  0  0  0
 23 24  2  0  0  0  0
 23 48  1  0  0  0  0
 24 25  1  0  0  0  0
 25 49  1  0  0  0  0
 25 50  1  0  0  0  0
 25 51  1  0  0  0  0
M  CHG  1  12   1
M  END
> <s_m_source_file>
AV-unprocessed.smi

> <i_m_source_file_index>
1207

> <i_lp_mmshare_version>
43012

> <i_f3d_flags>
0

> <s_epik_input>
W0NIM11jKFtjSF0xKWMoW0NIM10pW2NIXWMoYzEyKW4oW2NIXW4yKVtDSDJdW0NASF0oW09IXSlbQ0gyXU4oW0NIM10pW0NIMl1jM2MoW0NIM10pbm9jM1tDSDNd

> <s_epik_cmdline>
J2VwaWtfcHl0aG9uJywgJy1waCcsICc3LjAnLCAnLXRuJywgJzgnLCAnLW1hJywgJzIwMCcsICctbWV0YWxfYmluZGluZycsICctaW1hZScsICc8aW5maWxlLm1hZT4nLCAnLW9tYWUnLCAnPG91dGZpbGUubWFlPic=

> <r_epik_Ionization_Penalty>
0.646518

> <r_epik_Ionization_Penalty_Charging>
0.559419

> <r_epik_Ionization_Penalty_Neutral>
0.0870981

> <r_epik_State_Penalty>
0.661677

> <r_epik_Charging_Adjusted_Penalty>
1.2211

> <i_epik_Tot_Q>
1

> <i_epik_Tot_abs_Q>
1

> <r_epik_Metal_State_Penalty>
0.649158

> <b_epik_Metal_Only>
0

> <s_lp_Force_Field>
OPLS_2005

> <r_lp_Energy>
10.0626

> <b_lp_Chiralities_Consistent>
1

> <s_lp_Variant>
AV-unprocessed.smi:1207-3

> <Gold.Version>
5.8.1

> <Gold.Id.Protein>
6NUR|6NUR_protein|mol2

> <Gold.PLP.Fitness>
55.2256

> <Gold.PLP.PLP>
-45.2100

> <Gold.PLP.part.hbond>
-3.2312

> <Gold.PLP.part.metal>
0.0000

> <Gold.PLP.part.buried>
-3.2220

> <Gold.PLP.part.nonpolar>
-38.3936

> <Gold.PLP.part.repulsive>
0.1434

> <Gold.PLP.ligand.clash>
0.0000

> <Gold.PLP.ligand.torsion>
1.0169

> <Gold.PLP.Chemscore.Hbond>
3.9413

> <Gold.PLP.Chemscore.CHOScore>
0.0000

> <Gold.PLP.Chemscore.Metal>
0.0000

> <Gold.Chemscore.Hbonds>
donor molecule, donor type, donor heavy atom, donor atom, acceptor molecule, acceptor atom, score
      L1  H    10    34       P1  7948  0.67
      L1  H    12    52       P1  7948  2.00
      P1  H  7997  8009       L1     5  0.48

> <Gold.PLP.Chemscore.Internal.Correction>
0.2256

> <Gold.Rescore>
     Score         DG    S(hbond)    S(metal)    S(lipo)     H(rot)  DE(clash)    DE(int)     intcor
     19.41     -20.24       1.90        0.00     125.55       2.46       0.09       0.74       ----

> <Gold.Chemscore.Fitness>
19.4113

> <Gold.Chemscore.DG>
-20.2398

> <Gold.Chemscore.ZeroCoef>
-5.4800

> <Gold.Chemscore.Hbond>
1.9038

> <Gold.Chemscore.Metal>
0.0000

> <Gold.Chemscore.Lipo>
125.5536

> <Gold.Chemscore.Internal_Hbond>
0.0000

> <Gold.Chemscore.DEClash>
0.0904

> <Gold.Chemscore.DEInternal>
0.7381

> <Gold.Chemscore.Rot>
2.4565

> <Gold.Chemscore.Internal.Correction>
   9.000000E+99

> <Gold.Chemscore.Hbonds>
donor molecule, donor type, donor heavy atom, donor atom, acceptor molecule, acceptor atom, score
      L1  H    10    34       P1  7948  0.66
      L1  H    12    52       P1  7948  0.99
      P1  H  7997  8009       L1     5  0.01

> <Gold.Chemscore.Hbond.Weighted>
-6.3587

> <Gold.Chemscore.Metal.Weighted>
-0.0000

> <Gold.Chemscore.Lipo.Weighted>
-14.6898

> <Gold.Chemscore.Internal_Hbond.Weighted>
0.0000

> <Gold.Chemscore.DEClash.Weighted>
0.0904

> <Gold.Chemscore.DEInternal.Weighted>
0.7381

> <Gold.Chemscore.Rot.Weighted>
6.2887

> <Gold.Chemscore.Internal.Correction.Weighted>
   9.000000E+99

> <Gold.Protein.RotatedTorsions>
[ 6907 6896 6895 6894 ] final -175.95 input  -60.11 | X-H torsion
[ 7974 7965 7964 7962 ] final -144.47 input  175.53 | X-H torsion
[ 8008 7997 7996 7995 ] final -168.04 input   59.86 | X-H torsion
[ 10167 10162 10161 10158 ] final   42.24 input  -65.29 | X-H torsion
[ 10718 10713 10712 10709 ] final   92.76 input   66.30 | X-H torsion
[ 10763 10752 10751 10750 ] final  -18.97 input  -60.55 | X-H torsion
[ 11005 11000 10999 10996 ] final   92.38 input  -57.11 | X-H torsion

> <Gold.Protein.ActiveResidues>
 VAL166  LYS551  ARG553  GLY616  TRP617  ASP618  TYR619  PRO620  LYS621  CYS622 
 ASP623  PHE694  ASN695  SER759  ASP760  ASP761  ALA762  ILE779  LEU786  VAL792 
 PHE793  MET794  SER795  GLU796  ALA797  LYS798  CYS799  TRP800  GLU811  SER814 

> <Gold.Protein.RotatedAtoms>
  151.5969  133.3360  159.3039 H   0  0  0  0  0  0  0  0  0  0  0  0  # atno 6907 bound_to 6896
  150.8229  134.7449  159.6799 H   0  0  0  0  0  0  0  0  0  0  0  0  # atno 6908 bound_to 6896
  152.4321  134.5763  159.9987 H   0  0  0  0  0  0  0  0  0  0  0  0  # atno 6909 bound_to 6896
  144.8295  140.5705  143.5524 H   0  0  0  0  0  0  0  0  0  0  0  0  # atno 7974 bound_to 7965
  155.8859  140.1017  157.1452 H   0  0  0  0  0  0  0  0  0  0  0  0  # atno 8008 bound_to 7997
  154.4010  140.1320  156.4319 H   0  0  0  0  0  0  0  0  0  0  0  0  # atno 8009 bound_to 7997
  155.7589  140.3463  155.5190 H   0  0  0  0  0  0  0  0  0  0  0  0  # atno 8010 bound_to 7997
  140.3564  144.2285  150.6141 H   0  0  0  0  0  0  0  0  0  0  0  0  # atno 10167 bound_to 10162
  157.6957  131.0455  150.3931 H   0  0  0  0  0  0  0  0  0  0  0  0  # atno 10718 bound_to 10713
  153.5976  135.7000  153.5397 H   0  0  0  0  0  0  0  0  0  0  0  0  # atno 10763 bound_to 10752
  153.3124  135.4097  155.1347 H   0  0  0  0  0  0  0  0  0  0  0  0  # atno 10764 bound_to 10752
  154.8589  135.3675  154.5510 H   0  0  0  0  0  0  0  0  0  0  0  0  # atno 10765 bound_to 10752
  139.8824  134.8729  156.3564 H   0  0  0  0  0  0  0  0  0  0  0  0  # atno 11005 bound_to 11000
  145.4927  139.1488  143.3701 LP  0  0  0  0  0  0  0  0  0  0  0  0  # atno 17320 bound_to 7965
  146.2599  140.5065  142.8858 LP  0  0  0  0  0  0  0  0  0  0  0  0  # atno 17321 bound_to 7965
  140.5170  143.2275  151.8448 LP  0  0  0  0  0  0  0  0  0  0  0  0  # atno 17342 bound_to 10162
  139.4819  144.4882  151.9219 LP  0  0  0  0  0  0  0  0  0  0  0  0  # atno 17343 bound_to 10162
  156.4333  130.3976  149.6746 LP  0  0  0  0  0  0  0  0  0  0  0  0  # atno 17370 bound_to 10713
  156.3956  130.7649  151.2653 LP  0  0  0  0  0  0  0  0  0  0  0  0  # atno 17371 bound_to 10713
  140.9559  133.7420  156.0335 LP  0  0  0  0  0  0  0  0  0  0  0  0  # atno 17394 bound_to 11000
  140.8049  134.3466  157.5429 LP  0  0  0  0  0  0  0  0  0  0  0  0  # atno 17395 bound_to 11000

$$$$
