AV-unprocessed.smi:1702|AV-procd|sdf|6850|dock9
  -GOLD-   22720 8 33D 1   1.00000     0.00000
 Structure written by MMmdl.
 45 47  0  0  0  0  0  0  0  0  3 V2000
  146.2663  131.7503  152.1400 C   0  0  0  0  0  0  0  0  0  0  0  0
  145.7538  133.1957  152.0669 C   0  0  2  0  0  0  0  0  0  0  0  0
  145.9190  133.7874  150.6571 C   0  0  0  0  0  0  0  0  0  0  0  0
  145.4348  135.2460  150.6029 C   0  0  0  0  0  0  0  0  0  0  0  0
  146.1470  136.0846  151.6012 N   0  3  1  0  0  0  0  0  0  0  0  0
  145.8088  137.5257  151.4729 C   0  0  0  0  0  0  0  0  0  0  0  0
  146.7650  138.4330  152.2729 C   0  0  1  0  0  0  0  0  0  0  0  0
  147.5094  139.2253  151.3670 O   0  0  0  0  0  0  0  0  0  0  0  0
  146.0008  139.3555  153.2442 C   0  0  0  0  0  0  0  0  0  0  0  0
  146.8480  140.4072  153.8237 N   0  0  0  0  0  0  0  0  0  0  0  0
  146.6769  141.7575  153.8445 C   0  0  0  0  0  0  0  0  0  0  0  0
  147.7410  142.2968  154.5018 N   0  3  0  0  0  0  0  0  0  0  0  0
  148.6040  141.2767  154.9086 C   0  0  0  0  0  0  0  0  0  0  0  0
  149.8085  141.3233  155.6033 C   0  0  0  0  0  0  0  0  0  0  0  0
  150.4431  140.0895  155.8576 C   0  0  0  0  0  0  0  0  0  0  0  0
  151.6200  140.0778  156.5269 F   0  0  0  0  0  0  0  0  0  0  0  0
  149.8767  138.8704  155.4279 C   0  0  0  0  0  0  0  0  0  0  0  0
  150.5190  137.7080  155.6917 F   0  0  0  0  0  0  0  0  0  0  0  0
  148.6531  138.8357  154.7266 C   0  0  0  0  0  0  0  0  0  0  0  0
  148.0351  140.0601  154.4773 C   0  0  0  0  0  0  0  0  0  0  0  0
  145.9673  135.5565  152.9797 C   0  0  0  0  0  0  0  0  0  0  0  0
  146.4636  134.1046  153.0849 C   0  0  0  0  0  0  0  0  0  0  0  0
  147.3309  131.6939  151.9113 H   0  0  0  0  0  0  0  0  0  0  0  0
  145.7394  131.1105  151.4316 H   0  0  0  0  0  0  0  0  0  0  0  0
  146.1175  131.3309  153.1354 H   0  0  0  0  0  0  0  0  0  0  0  0
  144.6896  133.1823  152.3070 H   0  0  0  0  0  0  0  0  0  0  0  0
  146.9665  133.7407  150.3555 H   0  0  0  0  0  0  0  0  0  0  0  0
  145.3634  133.1901  149.9334 H   0  0  0  0  0  0  0  0  0  0  0  0
  145.6064  135.6392  149.5999 H   0  0  0  0  0  0  0  0  0  0  0  0
  144.3598  135.2951  150.7841 H   0  0  0  0  0  0  0  0  0  0  0  0
  145.8493  137.8242  150.4239 H   0  0  0  0  0  0  0  0  0  0  0  0
  144.7765  137.6812  151.7903 H   0  0  0  0  0  0  0  0  0  0  0  0
  147.4680  137.8299  152.8460 H   0  0  0  0  0  0  0  0  0  0  0  0
  148.4269  139.1541  151.5832 H   0  0  0  0  0  0  0  0  0  0  0  0
  145.1754  139.8489  152.7289 H   0  0  0  0  0  0  0  0  0  0  0  0
  145.5571  138.7829  154.0598 H   0  0  0  0  0  0  0  0  0  0  0  0
  145.8491  142.3035  153.4148 H   0  0  0  0  0  0  0  0  0  0  0  0
  150.2455  142.2538  155.9348 H   0  0  0  0  0  0  0  0  0  0  0  0
  148.2282  137.8973  154.4041 H   0  0  0  0  0  0  0  0  0  0  0  0
  146.5133  136.1682  153.6967 H   0  0  0  0  0  0  0  0  0  0  0  0
  144.9135  135.6122  153.2578 H   0  0  0  0  0  0  0  0  0  0  0  0
  146.2969  133.7331  154.0967 H   0  0  0  0  0  0  0  0  0  0  0  0
  147.5416  134.0762  152.9195 H   0  0  0  0  0  0  0  0  0  0  0  0
  147.1299  136.0057  151.3804 H   0  0  0  0  0  0  0  0  0  0  0  0
  147.8664  143.2888  154.6592 H   0  0  0  0  0  0  0  0  0  0  0  0
  1  2  1  0  0  0  0
  1 23  1  0  0  0  0
  1 24  1  0  0  0  0
  1 25  1  0  0  0  0
  2 22  1  0  0  0  0
  2  3  1  0  0  0  0
  2 26  1  0  0  0  0
  3  4  1  0  0  0  0
  3 27  1  0  0  0  0
  3 28  1  0  0  0  0
  4  5  1  0  0  0  0
  4 29  1  0  0  0  0
  4 30  1  0  0  0  0
  5  6  1  0  0  0  0
  5 21  1  0  0  0  0
  5 44  1  0  0  0  0
  6  7  1  0  0  0  0
  6 31  1  0  0  0  0
  6 32  1  0  0  0  0
  7  8  1  0  0  0  0
  7  9  1  0  0  0  0
  7 33  1  0  0  0  0
  8 34  1  0  0  0  0
  9 10  1  0  0  0  0
  9 35  1  0  0  0  0
  9 36  1  0  0  0  0
 10 20  1  0  0  0  0
 10 11  1  0  0  0  0
 11 12  2  0  0  0  0
 11 37  1  0  0  0  0
 12 13  1  0  0  0  0
 12 45  1  0  0  0  0
 13 20  2  0  0  0  0
 13 14  1  0  0  0  0
 14 15  2  0  0  0  0
 14 38  1  0  0  0  0
 15 16  1  0  0  0  0
 15 17  1  0  0  0  0
 17 18  1  0  0  0  0
 17 19  2  0  0  0  0
 19 20  1  0  0  0  0
 19 39  1  0  0  0  0
 21 22  1  0  0  0  0
 21 40  1  0  0  0  0
 21 41  1  0  0  0  0
 22 42  1  0  0  0  0
 22 43  1  0  0  0  0
M  CHG  1   5   1
M  CHG  1  12   1
M  END
> <s_m_source_file>
AV-unprocessed.smi

> <i_m_source_file_index>
1702

> <i_lp_mmshare_version>
43012

> <i_f3d_flags>
0

> <s_epik_input>
W0NIM11bQ0hdMVtDSDJdW0NIMl1OKFtDSDJdW0NIMl0xKVtDSDJdW0NASF0oW09IXSlbQ0gyXW4oW2NIXW4yKWMoYzIzKVtjSF1jKEYpYyhGKVtjSF0z

> <s_epik_cmdline>
J2VwaWtfcHl0aG9uJywgJy1waCcsICc3LjAnLCAnLXRuJywgJzgnLCAnLW1hJywgJzIwMCcsICctbWV0YWxfYmluZGluZycsICctaW1hZScsICc8aW5maWxlLm1hZT4nLCAnLW9tYWUnLCAnPG91dGZpbGUubWFlPic=

> <r_epik_Ionization_Penalty>
2.33291

> <r_epik_Ionization_Penalty_Charging>
2.33291

> <r_epik_Ionization_Penalty_Neutral>
6.90208e-07

> <r_epik_State_Penalty>
2.4838

> <r_epik_Charging_Adjusted_Penalty>
4.81672

> <i_epik_Tot_Q>
2

> <i_epik_Tot_abs_Q>
2

> <r_epik_Metal_State_Penalty>
6.56754

> <b_epik_Metal_Only>
0

> <s_lp_Force_Field>
OPLS_2005

> <r_lp_Energy>
29.8556

> <b_lp_Chiralities_Consistent>
1

> <s_lp_Variant>
AV-unprocessed.smi:1702-6

> <Gold.Version>
5.8.1

> <Gold.Id.Protein>
6NUR|6NUR_protein|mol2

> <Gold.PLP.Fitness>
49.2181

> <Gold.PLP.PLP>
-38.0118

> <Gold.PLP.part.hbond>
-3.6279

> <Gold.PLP.part.metal>
0.0000

> <Gold.PLP.part.buried>
6.0931

> <Gold.PLP.part.nonpolar>
-38.4262

> <Gold.PLP.part.repulsive>
0.2355

> <Gold.PLP.ligand.clash>
0.0000

> <Gold.PLP.ligand.torsion>
0.8854

> <Gold.PLP.Chemscore.Hbond>
4.3200

> <Gold.PLP.Chemscore.CHOScore>
0.0000

> <Gold.PLP.Chemscore.Metal>
0.0000

> <Gold.Chemscore.Hbonds>
donor molecule, donor type, donor heavy atom, donor atom, acceptor molecule, acceptor atom, score
      L1  H     5    44       P1  7948  2.00
      L1  H     8    34       P1  7957  0.53
      L1  H    12    45       P1  8028  1.92

> <Gold.PLP.Chemscore.Internal.Correction>
0.0171

> <Gold.Rescore>
     Score         DG    S(hbond)    S(metal)    S(lipo)     H(rot)  DE(clash)    DE(int)     intcor
     16.30     -17.71       2.81        0.00      75.19       2.32       0.05       1.36       ----

> <Gold.Chemscore.Fitness>
16.2980

> <Gold.Chemscore.DG>
-17.7053

> <Gold.Chemscore.ZeroCoef>
-5.4800

> <Gold.Chemscore.Hbond>
2.8053

> <Gold.Chemscore.Metal>
0.0000

> <Gold.Chemscore.Lipo>
75.1886

> <Gold.Chemscore.Internal_Hbond>
0.0000

> <Gold.Chemscore.DEClash>
0.0460

> <Gold.Chemscore.DEInternal>
1.3612

> <Gold.Chemscore.Rot>
2.3210

> <Gold.Chemscore.Internal.Correction>
   9.000000E+99

> <Gold.Chemscore.Hbonds>
donor molecule, donor type, donor heavy atom, donor atom, acceptor molecule, acceptor atom, score
      L1  H     5    44       P1  7948  0.96
      L1  H     8    34       P1  7957  0.45
      L1  H    12    45       P1  8028  0.67

> <Gold.Chemscore.Hbond.Weighted>
-9.3698

> <Gold.Chemscore.Metal.Weighted>
-0.0000

> <Gold.Chemscore.Lipo.Weighted>
-8.7971

> <Gold.Chemscore.Internal_Hbond.Weighted>
0.0000

> <Gold.Chemscore.DEClash.Weighted>
0.0460

> <Gold.Chemscore.DEInternal.Weighted>
1.3612

> <Gold.Chemscore.Rot.Weighted>
5.9416

> <Gold.Chemscore.Internal.Correction.Weighted>
   9.000000E+99

> <Gold.Protein.RotatedTorsions>
[ 6907 6896 6895 6894 ] final  -56.61 input  -60.11 | X-H torsion
[ 7974 7965 7964 7962 ] final -130.15 input  175.53 | X-H torsion
[ 8008 7997 7996 7995 ] final  -24.92 input   59.86 | X-H torsion
[ 10167 10162 10161 10158 ] final   28.74 input  -65.29 | X-H torsion
[ 10718 10713 10712 10709 ] final  -32.80 input   66.30 | X-H torsion
[ 10763 10752 10751 10750 ] final -165.09 input  -60.55 | X-H torsion
[ 11005 11000 10999 10996 ] final   11.11 input  -57.11 | X-H torsion

> <Gold.Protein.ActiveResidues>
 VAL166  LYS551  ARG553  GLY616  TRP617  ASP618  TYR619  PRO620  LYS621  CYS622 
 ASP623  PHE694  ASN695  SER759  ASP760  ASP761  ALA762  ILE779  LEU786  VAL792 
 PHE793  MET794  SER795  GLU796  ALA797  LYS798  CYS799  TRP800  GLU811  SER814 

> <Gold.Protein.RotatedAtoms>
  150.8154  134.7332  159.6724 H   0  0  0  0  0  0  0  0  0  0  0  0  # atno 6907 bound_to 6896
  152.4272  134.5842  159.9966 H   0  0  0  0  0  0  0  0  0  0  0  0  # atno 6908 bound_to 6896
  151.6040  133.3316  159.3089 H   0  0  0  0  0  0  0  0  0  0  0  0  # atno 6909 bound_to 6896
  144.9503  140.7337  143.4792 H   0  0  0  0  0  0  0  0  0  0  0  0  # atno 7974 bound_to 7965
  154.4503  140.1940  156.0538 H   0  0  0  0  0  0  0  0  0  0  0  0  # atno 8008 bound_to 7997
  156.0634  140.3294  155.7461 H   0  0  0  0  0  0  0  0  0  0  0  0  # atno 8009 bound_to 7997
  155.5377  140.0583  157.2867 H   0  0  0  0  0  0  0  0  0  0  0  0  # atno 8010 bound_to 7997
  140.4826  144.0591  150.6270 H   0  0  0  0  0  0  0  0  0  0  0  0  # atno 10167 bound_to 10162
  156.3704  130.4338  149.7550 H   0  0  0  0  0  0  0  0  0  0  0  0  # atno 10718 bound_to 10713
  154.6966  135.2980  154.9403 H   0  0  0  0  0  0  0  0  0  0  0  0  # atno 10763 bound_to 10752
  154.0349  135.6665  153.4788 H   0  0  0  0  0  0  0  0  0  0  0  0  # atno 10764 bound_to 10752
  153.0650  135.5093  154.8086 H   0  0  0  0  0  0  0  0  0  0  0  0  # atno 10765 bound_to 10752
  140.5069  134.0690  155.7808 H   0  0  0  0  0  0  0  0  0  0  0  0  # atno 11005 bound_to 11000
  145.2854  139.1903  143.4768 LP  0  0  0  0  0  0  0  0  0  0  0  0  # atno 17320 bound_to 7965
  146.3318  140.2823  142.8611 LP  0  0  0  0  0  0  0  0  0  0  0  0  # atno 17321 bound_to 7965
  140.3838  143.2788  152.0140 LP  0  0  0  0  0  0  0  0  0  0  0  0  # atno 17342 bound_to 10162
  139.4836  144.6133  151.7393 LP  0  0  0  0  0  0  0  0  0  0  0  0  # atno 17343 bound_to 10162
  156.4680  130.7983  151.3001 LP  0  0  0  0  0  0  0  0  0  0  0  0  # atno 17370 bound_to 10713
  157.7483  131.0045  150.3078 LP  0  0  0  0  0  0  0  0  0  0  0  0  # atno 17371 bound_to 10713
  141.1406  133.9145  157.2335 LP  0  0  0  0  0  0  0  0  0  0  0  0  # atno 17394 bound_to 11000
  139.9681  135.0136  156.9440 LP  0  0  0  0  0  0  0  0  0  0  0  0  # atno 17395 bound_to 11000

$$$$
