AV-unprocessed.smi:1665|AV-procd|sdf|6670|dock1
  -GOLD-   22720 7383D 1   1.00000     0.00000
 Structure written by MMmdl.
 37 38  0  0  0  0  0  0  0  0  1 V2000
  153.7313  141.3498  160.7788 C   0  0  0  0  0  0  0  0  0  0  0  0
  152.5165  140.9797  159.9122 C   0  0  1  0  0  0  0  0  0  0  0  0
  152.3549  141.8797  158.6681 C   0  0  0  0  0  0  0  0  0  0  0  0
  152.2201  143.2865  159.0003 N   0  0  0  0  0  0  0  0  0  0  0  0
  152.2244  144.3732  158.1510 C   0  0  0  0  0  0  0  0  0  0  0  0
  152.0606  145.4900  158.9197 C   0  0  0  0  0  0  0  0  0  0  0  0
  151.9593  144.9774  160.2434 C   0  0  0  0  0  0  0  0  0  0  0  0
  152.0515  143.6582  160.2878 N   0  0  0  0  0  0  0  0  0  0  0  0
  152.6297  139.5820  159.5083 N   0  0  0  0  0  0  0  0  0  0  0  0
  153.7307  139.0072  159.0001 C   0  0  0  0  0  0  0  0  0  0  0  0
  154.8092  139.5873  158.8784 O   0  0  0  0  0  0  0  0  0  0  0  0
  153.5882  137.5554  158.5389 C   0  0  0  0  0  0  0  0  0  0  0  0
  153.7652  137.3797  157.0150 C   0  0  0  0  0  0  0  0  0  0  0  0
  152.5688  137.7628  156.2607 N   0  0  0  0  0  0  0  0  0  0  0  0
  151.3060  137.0975  156.5469 C   0  0  0  0  0  0  0  0  0  0  0  0
  150.1919  137.9332  155.9138 C   0  0  0  0  0  0  0  0  0  0  0  0
  150.9212  138.8674  154.5528 S   0  0  0  0  0  0  0  0  0  0  0  0
  152.5854  138.6518  155.1932 C   0  0  0  0  0  0  0  0  0  0  0  0
  153.5529  139.2419  154.7160 O   0  0  0  0  0  0  0  0  0  0  0  0
  153.6452  142.3611  161.1771 H   0  0  0  0  0  0  0  0  0  0  0  0
  154.6584  141.2934  160.2076 H   0  0  0  0  0  0  0  0  0  0  0  0
  153.8229  140.6743  161.6305 H   0  0  0  0  0  0  0  0  0  0  0  0
  151.6299  141.0901  160.5397 H   0  0  0  0  0  0  0  0  0  0  0  0
  153.2145  141.7644  158.0062 H   0  0  0  0  0  0  0  0  0  0  0  0
  151.4773  141.5809  158.0925 H   0  0  0  0  0  0  0  0  0  0  0  0
  152.3439  144.2627  157.0832 H   0  0  0  0  0  0  0  0  0  0  0  0
  152.0180  146.5165  158.5872 H   0  0  0  0  0  0  0  0  0  0  0  0
  151.8205  145.5204  161.1667 H   0  0  0  0  0  0  0  0  0  0  0  0
  151.7921  139.0222  159.5733 H   0  0  0  0  0  0  0  0  0  0  0  0
  154.3445  136.9657  159.0579 H   0  0  0  0  0  0  0  0  0  0  0  0
  152.6237  137.1545  158.8549 H   0  0  0  0  0  0  0  0  0  0  0  0
  154.6302  137.9472  156.6666 H   0  0  0  0  0  0  0  0  0  0  0  0
  153.9948  136.3356  156.7987 H   0  0  0  0  0  0  0  0  0  0  0  0
  151.3327  136.1018  156.1020 H   0  0  0  0  0  0  0  0  0  0  0  0
  151.1513  136.9778  157.6199 H   0  0  0  0  0  0  0  0  0  0  0  0
  149.3584  137.3194  155.5714 H   0  0  0  0  0  0  0  0  0  0  0  0
  149.8040  138.6474  156.6409 H   0  0  0  0  0  0  0  0  0  0  0  0
  1  2  1  0  0  0  0
  1 20  1  0  0  0  0
  1 21  1  0  0  0  0
  1 22  1  0  0  0  0
  2  3  1  0  0  0  0
  2  9  1  0  0  0  0
  2 23  1  0  0  0  0
  3  4  1  0  0  0  0
  3 24  1  0  0  0  0
  3 25  1  0  0  0  0
  4  8  1  0  0  0  0
  4  5  1  0  0  0  0
  5  6  2  0  0  0  0
  5 26  1  0  0  0  0
  6  7  1  0  0  0  0
  6 27  1  0  0  0  0
  7  8  2  0  0  0  0
  7 28  1  0  0  0  0
  9 10  1  0  0  0  0
  9 29  1  0  0  0  0
 10 11  2  0  0  0  0
 10 12  1  0  0  0  0
 12 13  1  0  0  0  0
 12 30  1  0  0  0  0
 12 31  1  0  0  0  0
 13 14  1  0  0  0  0
 13 32  1  0  0  0  0
 13 33  1  0  0  0  0
 14 18  1  0  0  0  0
 14 15  1  0  0  0  0
 15 16  1  0  0  0  0
 15 34  1  0  0  0  0
 15 35  1  0  0  0  0
 16 17  1  0  0  0  0
 16 36  1  0  0  0  0
 16 37  1  0  0  0  0
 17 18  1  0  0  0  0
 18 19  2  0  0  0  0
M  END
> <s_m_source_file>
AV-unprocessed.smi

> <i_m_source_file_index>
1665

> <i_lp_mmshare_version>
43012

> <i_f3d_flags>
0

> <s_epik_input>
bjFbY0hdW2NIXVtjSF1uMVtDSDJdW0NAQEhdKFtDSDNdKVtOSF1DKD1PKVtDSDJdW0NIMl1OMltDSDJdW0NIMl1TQzI9Tw==

> <s_epik_cmdline>
J2VwaWtfcHl0aG9uJywgJy1waCcsICc3LjAnLCAnLXRuJywgJzgnLCAnLW1hJywgJzIwMCcsICctbWV0YWxfYmluZGluZycsICctaW1hZScsICc8aW5maWxlLm1hZT4nLCAnLW9tYWUnLCAnPG91dGZpbGUubWFlPic=

> <r_lp_tautomer_probability>
1

> <r_epik_Ionization_Penalty>
0.000300775

> <r_epik_Ionization_Penalty_Charging>
0

> <r_epik_Ionization_Penalty_Neutral>
0.000300775

> <r_epik_State_Penalty>
-0

> <r_epik_Charging_Adjusted_Penalty>
0

> <i_epik_Tot_Q>
0

> <i_epik_Tot_abs_Q>
0

> <r_epik_Metal_State_Penalty>
-0

> <b_epik_Metal_Only>
0

> <s_lp_Force_Field>
OPLS_2005

> <r_lp_Energy>
3.63181

> <b_lp_Chiralities_Consistent>
1

> <s_lp_Variant>
AV-unprocessed.smi:1665-2

> <Gold.Version>
5.8.1

> <Gold.Id.Protein>
6NUR|6NUR_protein|mol2

> <Gold.PLP.Fitness>
44.5802

> <Gold.PLP.PLP>
-39.2473

> <Gold.PLP.part.hbond>
-2.0923

> <Gold.PLP.part.metal>
0.0000

> <Gold.PLP.part.buried>
-4.5437

> <Gold.PLP.part.nonpolar>
-32.5874

> <Gold.PLP.part.repulsive>
0.1830

> <Gold.PLP.ligand.clash>
0.0000

> <Gold.PLP.ligand.torsion>
0.4093

> <Gold.PLP.Chemscore.Hbond>
2.0000

> <Gold.PLP.Chemscore.CHOScore>
0.0000

> <Gold.PLP.Chemscore.Metal>
0.0000

> <Gold.Chemscore.Hbonds>
donor molecule, donor type, donor heavy atom, donor atom, acceptor molecule, acceptor atom, score
      P1  H  7997  8009       L1    11  1.00
      P1  H  7997  8010       L1    19  1.00

> <Gold.PLP.Chemscore.Internal.Correction>
0.1516

> <Gold.Rescore>
     Score         DG    S(hbond)    S(metal)    S(lipo)     H(rot)  DE(clash)    DE(int)     intcor
     14.34     -17.09       1.95        0.00      91.67       2.20       0.00       2.76       ----

> <Gold.Chemscore.Fitness>
14.3356

> <Gold.Chemscore.DG>
-17.0929

> <Gold.Chemscore.ZeroCoef>
-5.4800

> <Gold.Chemscore.Hbond>
1.9540

> <Gold.Chemscore.Metal>
0.0000

> <Gold.Chemscore.Lipo>
91.6690

> <Gold.Chemscore.Internal_Hbond>
0.0000

> <Gold.Chemscore.DEClash>
0.0000

> <Gold.Chemscore.DEInternal>
2.7573

> <Gold.Chemscore.Rot>
2.2026

> <Gold.Chemscore.Internal.Correction>
   9.000000E+99

> <Gold.Chemscore.Hbonds>
donor molecule, donor type, donor heavy atom, donor atom, acceptor molecule, acceptor atom, score
      P1  H  7997  8009       L1    11  0.95
      P1  H  7997  8010       L1    19  0.86

> <Gold.Chemscore.Hbond.Weighted>
-6.5263

> <Gold.Chemscore.Metal.Weighted>
-0.0000

> <Gold.Chemscore.Lipo.Weighted>
-10.7253

> <Gold.Chemscore.Internal_Hbond.Weighted>
0.0000

> <Gold.Chemscore.DEClash.Weighted>
0.0000

> <Gold.Chemscore.DEInternal.Weighted>
2.7573

> <Gold.Chemscore.Rot.Weighted>
5.6387

> <Gold.Chemscore.Internal.Correction.Weighted>
   9.000000E+99

> <Gold.Protein.RotatedTorsions>
[ 6907 6896 6895 6894 ] final -133.58 input  -60.11 | X-H torsion
[ 7974 7965 7964 7962 ] final  -12.17 input  175.53 | X-H torsion
[ 8008 7997 7996 7995 ] final  102.57 input   59.86 | X-H torsion
[ 10167 10162 10161 10158 ] final   36.73 input  -65.29 | X-H torsion
[ 10718 10713 10712 10709 ] final   27.50 input   66.30 | X-H torsion
[ 10763 10752 10751 10750 ] final  153.73 input  -60.55 | X-H torsion
[ 11005 11000 10999 10996 ] final    4.13 input  -57.11 | X-H torsion

> <Gold.Protein.ActiveResidues>
 VAL166  LYS551  ARG553  GLY616  TRP617  ASP618  TYR619  PRO620  LYS621  CYS622 
 ASP623  PHE694  ASN695  SER759  ASP760  ASP761  ALA762  ILE779  LEU786  VAL792 
 PHE793  MET794  SER795  GLU796  ALA797  LYS798  CYS799  TRP800  GLU811  SER814 

> <Gold.Protein.RotatedAtoms>
  150.9757  133.6297  159.2730 H   0  0  0  0  0  0  0  0  0  0  0  0  # atno 6907 bound_to 6896
  151.3570  135.0895  159.9431 H   0  0  0  0  0  0  0  0  0  0  0  0  # atno 6908 bound_to 6896
  152.5198  133.9339  159.7648 H   0  0  0  0  0  0  0  0  0  0  0  0  # atno 6909 bound_to 6896
  146.2161  140.3018  142.8376 H   0  0  0  0  0  0  0  0  0  0  0  0  # atno 7974 bound_to 7965
  156.1405  140.3179  155.8487 H   0  0  0  0  0  0  0  0  0  0  0  0  # atno 8008 bound_to 7997
  155.4164  140.0509  157.3045 H   0  0  0  0  0  0  0  0  0  0  0  0  # atno 8009 bound_to 7997
  154.4972  140.2115  155.9434 H   0  0  0  0  0  0  0  0  0  0  0  0  # atno 8010 bound_to 7997
  140.4099  144.1606  150.6139 H   0  0  0  0  0  0  0  0  0  0  0  0  # atno 10167 bound_to 10162
  157.2210  130.6978  149.6270 H   0  0  0  0  0  0  0  0  0  0  0  0  # atno 10718 bound_to 10713
  154.1410  135.2821  155.3161 H   0  0  0  0  0  0  0  0  0  0  0  0  # atno 10763 bound_to 10752
  154.6287  135.5443  153.7659 H   0  0  0  0  0  0  0  0  0  0  0  0  # atno 10764 bound_to 10752
  153.0250  135.6457  154.1557 H   0  0  0  0  0  0  0  0  0  0  0  0  # atno 10765 bound_to 10752
  140.5853  133.9974  155.8065 H   0  0  0  0  0  0  0  0  0  0  0  0  # atno 11005 bound_to 11000
  144.9051  140.7690  143.5842 LP  0  0  0  0  0  0  0  0  0  0  0  0  # atno 17320 bound_to 7965
  145.2946  139.1871  143.4722 LP  0  0  0  0  0  0  0  0  0  0  0  0  # atno 17321 bound_to 7965
  140.4649  143.2435  151.9170 LP  0  0  0  0  0  0  0  0  0  0  0  0  # atno 17342 bound_to 10162
  139.4783  144.5430  151.8500 LP  0  0  0  0  0  0  0  0  0  0  0  0  # atno 17343 bound_to 10162
  155.9682  130.4520  150.5757 LP  0  0  0  0  0  0  0  0  0  0  0  0  # atno 17370 bound_to 10713
  157.3576  131.0744  151.1663 LP  0  0  0  0  0  0  0  0  0  0  0  0  # atno 17371 bound_to 10713
  141.0970  133.9828  157.3144 LP  0  0  0  0  0  0  0  0  0  0  0  0  # atno 17394 bound_to 11000
  139.9298  135.0200  156.8362 LP  0  0  0  0  0  0  0  0  0  0  0  0  # atno 17395 bound_to 11000

$$$$
