AV-unprocessed.smi:639|AV-procd|sdf|3148|dock4
  -GOLD-   22720 0 73D 1   1.00000     0.00000
 Structure written by MMmdl.
 23 24  0  0  0  0  0  0  0  0  2 V2000
  151.9725  145.0763  159.0905 C   0  0  0  0  0  0  0  0  0  0  0  0
  152.0189  143.6809  158.7103 N   0  0  0  0  0  0  0  0  0  0  0  0
  151.3785  143.0522  157.6650 C   0  0  0  0  0  0  0  0  0  0  0  0
  151.7205  141.7270  157.7011 C   0  0  0  0  0  0  0  0  0  0  0  0
  151.2898  140.5927  156.7874 C   0  0  1  0  0  0  0  0  0  0  0  0
  150.3595  141.1025  155.6695 C   0  0  0  0  0  0  0  0  0  0  0  0
  152.4167  139.8788  156.2032 N   0  5  0  0  0  0  0  0  0  0  0  0
  152.4020  138.5999  156.6485 C   0  0  0  0  0  0  0  0  0  0  0  0
  153.1980  137.7017  156.3840 O   0  0  0  0  0  0  0  0  0  0  0  0
  151.3602  138.3954  157.4601 N   0  0  0  0  0  0  0  0  0  0  0  0
  150.6245  139.4933  157.6038 C   0  0  0  0  0  0  0  0  0  0  0  0
  149.5934  139.6155  158.2650 O   0  0  0  0  0  0  0  0  0  0  0  0
  152.5879  141.6543  158.8317 C   0  0  0  0  0  0  0  0  0  0  0  0
  152.7663  142.8208  159.4299 N   0  0  0  0  0  0  0  0  0  0  0  0
  151.3367  145.6309  158.3998 H   0  0  0  0  0  0  0  0  0  0  0  0
  152.9769  145.4999  159.0659 H   0  0  0  0  0  0  0  0  0  0  0  0
  151.5669  145.1704  160.0983 H   0  0  0  0  0  0  0  0  0  0  0  0
  150.7355  143.5926  156.9857 H   0  0  0  0  0  0  0  0  0  0  0  0
  149.4676  141.5796  156.0776 H   0  0  0  0  0  0  0  0  0  0  0  0
  150.0274  140.2919  155.0190 H   0  0  0  0  0  0  0  0  0  0  0  0
  150.8658  141.8382  155.0434 H   0  0  0  0  0  0  0  0  0  0  0  0
  151.1510  137.5111  157.8985 H   0  0  0  0  0  0  0  0  0  0  0  0
  153.0925  140.7869  159.2309 H   0  0  0  0  0  0  0  0  0  0  0  0
  1  2  1  0  0  0  0
  1 15  1  0  0  0  0
  1 16  1  0  0  0  0
  1 17  1  0  0  0  0
  2 14  1  0  0  0  0
  2  3  1  0  0  0  0
  3  4  2  0  0  0  0
  3 18  1  0  0  0  0
  4  5  1  0  0  0  0
  4 13  1  0  0  0  0
  5 11  1  0  0  0  0
  5  6  1  0  0  0  0
  5  7  1  0  0  0  0
  6 19  1  0  0  0  0
  6 20  1  0  0  0  0
  6 21  1  0  0  0  0
  7  8  1  0  0  0  0
  8  9  2  0  0  0  0
  8 10  1  0  0  0  0
 10 11  1  0  0  0  0
 10 22  1  0  0  0  0
 11 12  2  0  0  0  0
 13 14  2  0  0  0  0
 13 23  1  0  0  0  0
M  CHG  1   7  -1
M  END
> <s_m_source_file>
AV-unprocessed.smi

> <i_m_source_file_index>
639

> <i_lp_mmshare_version>
43012

> <i_f3d_flags>
0

> <s_epik_input>
W0NIM11uMVtjSF1jKFtjSF1uMSlbQ0BAXTIoW0NIM10pW05IXUMoPU8pW05IXUMyPU8=

> <s_epik_cmdline>
J2VwaWtfcHl0aG9uJywgJy1waCcsICc3LjAnLCAnLXRuJywgJzgnLCAnLW1hJywgJzIwMCcsICctbWV0YWxfYmluZGluZycsICctaW1hZScsICc8aW5maWxlLm1hZT4nLCAnLW9tYWUnLCAnPG91dGZpbGUubWFlPic=

> <r_lp_tautomer_probability>
1

> <r_epik_Ionization_Penalty>
4.83415

> <r_epik_Ionization_Penalty_Charging>
4.8337

> <r_epik_Ionization_Penalty_Neutral>
0.000449923

> <r_epik_State_Penalty>
4.85653

> <r_epik_Charging_Adjusted_Penalty>
9.69023

> <i_epik_Tot_Q>
-1

> <i_epik_Tot_abs_Q>
1

> <r_epik_Metal_State_Penalty>
1.31841

> <b_epik_Metal_Only>
1

> <s_lp_Force_Field>
OPLS_2005

> <r_lp_Energy>
8.78459

> <b_lp_Chiralities_Consistent>
1

> <s_lp_Variant>
AV-unprocessed.smi:639-5

> <Gold.Version>
5.8.1

> <Gold.Id.Protein>
6NUR|6NUR_protein|mol2

> <Gold.PLP.Fitness>
33.8552

> <Gold.PLP.PLP>
-24.8633

> <Gold.PLP.part.hbond>
-1.2618

> <Gold.PLP.part.metal>
0.0000

> <Gold.PLP.part.buried>
-3.5754

> <Gold.PLP.part.nonpolar>
-19.2941

> <Gold.PLP.part.repulsive>
0.0196

> <Gold.PLP.ligand.clash>
0.0000

> <Gold.PLP.ligand.torsion>
0.0330

> <Gold.PLP.Chemscore.Hbond>
2.0000

> <Gold.PLP.Chemscore.CHOScore>
1.0000

> <Gold.PLP.Chemscore.Metal>
0.0000

> <Gold.Chemscore.Hbonds>
donor molecule, donor type, donor heavy atom, donor atom, acceptor molecule, acceptor atom, score
      P1  H  7997  8008       L1     7  1.80
      L1  C     3    18       P1  8028  1.00

> <Gold.PLP.Chemscore.Internal.Correction>
0.0579

> <Gold.Rescore>
     Score         DG    S(hbond)    S(metal)    S(lipo)     H(rot)  DE(clash)    DE(int)     intcor
     13.90     -14.18       1.56        0.00      51.75       1.00       0.24       0.04       ----

> <Gold.Chemscore.Fitness>
13.9027

> <Gold.Chemscore.DG>
-14.1798

> <Gold.Chemscore.ZeroCoef>
-5.4800

> <Gold.Chemscore.Hbond>
1.5584

> <Gold.Chemscore.Metal>
0.0000

> <Gold.Chemscore.Lipo>
51.7511

> <Gold.Chemscore.Internal_Hbond>
0.0000

> <Gold.Chemscore.DEClash>
0.2368

> <Gold.Chemscore.DEInternal>
0.0403

> <Gold.Chemscore.Rot>
1.0000

> <Gold.Chemscore.Internal.Correction>
   9.000000E+99

> <Gold.Chemscore.Hbonds>
donor molecule, donor type, donor heavy atom, donor atom, acceptor molecule, acceptor atom, score
      P1  H  7997  8008       L1     7  0.18

> <Gold.Chemscore.Hbond.Weighted>
-5.2049

> <Gold.Chemscore.Metal.Weighted>
-0.0000

> <Gold.Chemscore.Lipo.Weighted>
-6.0549

> <Gold.Chemscore.Internal_Hbond.Weighted>
0.0000

> <Gold.Chemscore.DEClash.Weighted>
0.2368

> <Gold.Chemscore.DEInternal.Weighted>
0.0403

> <Gold.Chemscore.Rot.Weighted>
2.5600

> <Gold.Chemscore.Internal.Correction.Weighted>
   9.000000E+99

> <Gold.Protein.RotatedTorsions>
[ 6907 6896 6895 6894 ] final  156.28 input  -60.11 | X-H torsion
[ 7974 7965 7964 7962 ] final  -80.02 input  175.53 | X-H torsion
[ 8008 7997 7996 7995 ] final  -33.98 input   59.86 | X-H torsion
[ 10167 10162 10161 10158 ] final   43.69 input  -65.29 | X-H torsion
[ 10718 10713 10712 10709 ] final   74.84 input   66.30 | X-H torsion
[ 10763 10752 10751 10750 ] final   -5.57 input  -60.55 | X-H torsion
[ 11005 11000 10999 10996 ] final  -62.11 input  -57.11 | X-H torsion

> <Gold.Protein.ActiveResidues>
 VAL166  LYS551  ARG553  GLY616  TRP617  ASP618  TYR619  PRO620  LYS621  CYS622 
 ASP623  PHE694  ASN695  SER759  ASP760  ASP761  ALA762  ILE779  LEU786  VAL792 
 PHE793  MET794  SER795  GLU796  ALA797  LYS798  CYS799  TRP800  GLU811  SER814 

> <Gold.Protein.RotatedAtoms>
  152.0319  133.3941  159.4300 H   0  0  0  0  0  0  0  0  0  0  0  0  # atno 6907 bound_to 6896
  150.6881  134.3511  159.4919 H   0  0  0  0  0  0  0  0  0  0  0  0  # atno 6908 bound_to 6896
  152.1299  134.9142  160.0610 H   0  0  0  0  0  0  0  0  0  0  0  0  # atno 6909 bound_to 6896
  145.5655  140.9475  143.1424 H   0  0  0  0  0  0  0  0  0  0  0  0  # atno 7974 bound_to 7965
  154.4133  140.1696  156.1976 H   0  0  0  0  0  0  0  0  0  0  0  0  # atno 8008 bound_to 7997
  155.9551  140.3398  155.6418 H   0  0  0  0  0  0  0  0  0  0  0  0  # atno 8009 bound_to 7997
  155.6820  140.0724  157.2471 H   0  0  0  0  0  0  0  0  0  0  0  0  # atno 8010 bound_to 7997
  140.3419  144.2460  150.6155 H   0  0  0  0  0  0  0  0  0  0  0  0  # atno 10167 bound_to 10162
  157.6609  130.9697  150.1268 H   0  0  0  0  0  0  0  0  0  0  0  0  # atno 10718 bound_to 10713
  153.4003  135.7004  153.6431 H   0  0  0  0  0  0  0  0  0  0  0  0  # atno 10763 bound_to 10752
  153.4966  135.3661  155.2519 H   0  0  0  0  0  0  0  0  0  0  0  0  # atno 10764 bound_to 10752
  154.8710  135.4102  154.3337 H   0  0  0  0  0  0  0  0  0  0  0  0  # atno 10765 bound_to 10752
  141.1348  133.6636  156.5477 H   0  0  0  0  0  0  0  0  0  0  0  0  # atno 11005 bound_to 11000
  144.7462  139.7313  143.7291 LP  0  0  0  0  0  0  0  0  0  0  0  0  # atno 17320 bound_to 7965
  146.1821  139.5018  142.9860 LP  0  0  0  0  0  0  0  0  0  0  0  0  # atno 17321 bound_to 7965
  140.5301  143.2245  151.8252 LP  0  0  0  0  0  0  0  0  0  0  0  0  # atno 17342 bound_to 10162
  139.4839  144.4731  151.9401 LP  0  0  0  0  0  0  0  0  0  0  0  0  # atno 17343 bound_to 10162
  156.2125  130.3668  149.8653 LP  0  0  0  0  0  0  0  0  0  0  0  0  # atno 17370 bound_to 10713
  156.6528  130.8750  151.3534 LP  0  0  0  0  0  0  0  0  0  0  0  0  # atno 17371 bound_to 10713
  140.4088  134.7290  157.4824 LP  0  0  0  0  0  0  0  0  0  0  0  0  # atno 17394 bound_to 11000
  140.0442  134.6223  155.8942 LP  0  0  0  0  0  0  0  0  0  0  0  0  # atno 17395 bound_to 11000

$$$$
