AV-unprocessed.smi:764|AV-procd|sdf|3642|dock4
  -GOLD-   22720 1 43D 1   1.00000     0.00000
 Structure written by MMmdl.
 37 37  0  0  0  0  0  0  0  0  2 V2000
  150.9689  137.1693  154.7263 C   0  0  0  0  0  0  0  0  0  0  0  0
  151.0102  138.5762  154.1138 C   0  0  0  0  0  0  0  0  0  0  0  0
  151.3427  139.6466  155.1618 C   0  0  0  0  0  0  0  0  0  0  0  0
  149.7217  138.8816  153.4969 N   0  0  0  0  0  0  0  0  0  0  0  0
  148.5504  139.0178  154.1386 C   0  0  0  0  0  0  0  0  0  0  0  0
  148.4230  138.8978  155.3571 O   0  0  0  0  0  0  0  0  0  0  0  0
  147.3367  139.3477  153.2649 C   0  0  0  0  0  0  0  0  0  0  0  0
  146.2591  138.2506  153.3014 C   0  0  0  0  0  0  0  0  0  0  0  0
  146.2381  137.4927  152.0351 N   0  3  0  0  0  0  0  0  0  0  0  0
  145.3013  136.3526  152.0293 C   0  0  0  0  0  0  0  0  0  0  0  0
  145.3068  135.6464  150.6663 C   0  0  0  0  0  0  0  0  0  0  0  0
  145.3275  134.2040  150.8086 N   0  0  0  0  0  0  0  0  0  0  0  0
  144.2859  133.3116  150.6655 C   0  0  0  0  0  0  0  0  0  0  0  0
  144.7869  132.0630  150.8993 C   0  0  0  0  0  0  0  0  0  0  0  0
  146.1620  132.2974  151.1808 C   0  0  0  0  0  0  0  0  0  0  0  0
  146.4827  133.5803  151.1237 N   0  0  0  0  0  0  0  0  0  0  0  0
  151.9221  136.9164  155.1914 H   0  0  0  0  0  0  0  0  0  0  0  0
  150.7639  136.4152  153.9656 H   0  0  0  0  0  0  0  0  0  0  0  0
  150.1952  137.0907  155.4910 H   0  0  0  0  0  0  0  0  0  0  0  0
  151.8026  138.5924  153.3637 H   0  0  0  0  0  0  0  0  0  0  0  0
  152.3067  139.4487  155.6311 H   0  0  0  0  0  0  0  0  0  0  0  0
  150.5901  139.6804  155.9503 H   0  0  0  0  0  0  0  0  0  0  0  0
  151.3957  140.6369  154.7083 H   0  0  0  0  0  0  0  0  0  0  0  0
  149.7252  139.0052  152.4947 H   0  0  0  0  0  0  0  0  0  0  0  0
  146.9166  140.2958  153.6028 H   0  0  0  0  0  0  0  0  0  0  0  0
  147.6681  139.4999  152.2363 H   0  0  0  0  0  0  0  0  0  0  0  0
  146.4512  137.5608  154.1249 H   0  0  0  0  0  0  0  0  0  0  0  0
  145.2744  138.6898  153.4693 H   0  0  0  0  0  0  0  0  0  0  0  0
  145.9798  138.1224  151.2886 H   0  0  0  0  0  0  0  0  0  0  0  0
  145.5839  135.6501  152.8147 H   0  0  0  0  0  0  0  0  0  0  0  0
  144.2988  136.7133  152.2634 H   0  0  0  0  0  0  0  0  0  0  0  0
  144.4253  135.9253  150.0868 H   0  0  0  0  0  0  0  0  0  0  0  0
  146.1779  135.9493  150.0836 H   0  0  0  0  0  0  0  0  0  0  0  0
  143.2864  133.6343  150.4133 H   0  0  0  0  0  0  0  0  0  0  0  0
  144.2525  131.1249  150.8746 H   0  0  0  0  0  0  0  0  0  0  0  0
  146.9311  131.5791  151.4236 H   0  0  0  0  0  0  0  0  0  0  0  0
  147.1686  137.1430  151.8569 H   0  0  0  0  0  0  0  0  0  0  0  0
  1  2  1  0  0  0  0
  1 17  1  0  0  0  0
  1 18  1  0  0  0  0
  1 19  1  0  0  0  0
  2  3  1  0  0  0  0
  2  4  1  0  0  0  0
  2 20  1  0  0  0  0
  3 21  1  0  0  0  0
  3 22  1  0  0  0  0
  3 23  1  0  0  0  0
  4  5  1  0  0  0  0
  4 24  1  0  0  0  0
  5  6  2  0  0  0  0
  5  7  1  0  0  0  0
  7  8  1  0  0  0  0
  7 25  1  0  0  0  0
  7 26  1  0  0  0  0
  8  9  1  0  0  0  0
  8 27  1  0  0  0  0
  8 28  1  0  0  0  0
  9 10  1  0  0  0  0
  9 29  1  0  0  0  0
  9 37  1  0  0  0  0
 10 11  1  0  0  0  0
 10 30  1  0  0  0  0
 10 31  1  0  0  0  0
 11 12  1  0  0  0  0
 11 32  1  0  0  0  0
 11 33  1  0  0  0  0
 12 16  1  0  0  0  0
 12 13  1  0  0  0  0
 13 14  2  0  0  0  0
 13 34  1  0  0  0  0
 14 15  1  0  0  0  0
 14 35  1  0  0  0  0
 15 16  2  0  0  0  0
 15 36  1  0  0  0  0
M  CHG  1   9   1
M  END
> <s_m_source_file>
AV-unprocessed.smi

> <i_m_source_file_index>
764

> <i_lp_mmshare_version>
43012

> <i_f3d_flags>
0

> <s_epik_input>
W0NIM11bQ0hdKFtDSDNdKVtOSF1DKD1PKVtDSDJdW0NIMl1bTkhdW0NIMl1bQ0gyXW4xW2NIXVtjSF1bY0hdbjE=

> <s_epik_cmdline>
J2VwaWtfcHl0aG9uJywgJy1waCcsICc3LjAnLCAnLXRuJywgJzgnLCAnLW1hJywgJzIwMCcsICctbWV0YWxfYmluZGluZycsICctaW1hZScsICc8aW5maWxlLm1hZT4nLCAnLW9tYWUnLCAnPG91dGZpbGUubWFlPic=

> <r_lp_tautomer_probability>
1

> <r_epik_Ionization_Penalty>
0.00578048

> <r_epik_Ionization_Penalty_Charging>
0.00577767

> <r_epik_Ionization_Penalty_Neutral>
2.80872e-06

> <r_epik_State_Penalty>
-0

> <r_epik_Charging_Adjusted_Penalty>
0.00577767

> <i_epik_Tot_Q>
1

> <i_epik_Tot_abs_Q>
1

> <r_epik_Metal_State_Penalty>
-0

> <b_epik_Metal_Only>
0

> <s_lp_Force_Field>
OPLS_2005

> <r_lp_Energy>
3.7627

> <b_lp_Chiralities_Consistent>
1

> <s_lp_Variant>
AV-unprocessed.smi:764-1

> <Gold.Version>
5.8.1

> <Gold.Id.Protein>
6NUR|6NUR_protein|mol2

> <Gold.PLP.Fitness>
45.6687

> <Gold.PLP.PLP>
-32.3416

> <Gold.PLP.part.hbond>
-2.7796

> <Gold.PLP.part.metal>
0.0000

> <Gold.PLP.part.buried>
-4.2961

> <Gold.PLP.part.nonpolar>
-25.2920

> <Gold.PLP.part.repulsive>
0.4094

> <Gold.PLP.ligand.clash>
0.0000

> <Gold.PLP.ligand.torsion>
0.9109

> <Gold.PLP.Chemscore.Hbond>
2.9920

> <Gold.PLP.Chemscore.CHOScore>
2.0000

> <Gold.PLP.Chemscore.Metal>
0.0000

> <Gold.Chemscore.Hbonds>
donor molecule, donor type, donor heavy atom, donor atom, acceptor molecule, acceptor atom, score
      L1  H     4    24       P1  7957  1.00
      L1  H     9    37       P1  7948  2.00
      L1  C    13    34       P1 10186  0.93
      L1  C    15    36       P1 10747  1.00

> <Gold.PLP.Chemscore.Internal.Correction>
0.1729

> <Gold.Rescore>
     Score         DG    S(hbond)    S(metal)    S(lipo)     H(rot)  DE(clash)    DE(int)     intcor
     12.75     -14.32       1.98        0.00      71.08       2.37       0.06       1.50       ----

> <Gold.Chemscore.Fitness>
12.7547

> <Gold.Chemscore.DG>
-14.3224

> <Gold.Chemscore.ZeroCoef>
-5.4800

> <Gold.Chemscore.Hbond>
1.9768

> <Gold.Chemscore.Metal>
0.0000

> <Gold.Chemscore.Lipo>
71.0836

> <Gold.Chemscore.Internal_Hbond>
0.0000

> <Gold.Chemscore.DEClash>
0.0642

> <Gold.Chemscore.DEInternal>
1.5035

> <Gold.Chemscore.Rot>
2.3738

> <Gold.Chemscore.Internal.Correction>
   9.000000E+99

> <Gold.Chemscore.Hbonds>
donor molecule, donor type, donor heavy atom, donor atom, acceptor molecule, acceptor atom, score
      L1  H     4    24       P1  7957  0.74
      L1  H     9    37       P1  7948  0.98

> <Gold.Chemscore.Hbond.Weighted>
-6.6025

> <Gold.Chemscore.Metal.Weighted>
-0.0000

> <Gold.Chemscore.Lipo.Weighted>
-8.3168

> <Gold.Chemscore.Internal_Hbond.Weighted>
0.0000

> <Gold.Chemscore.DEClash.Weighted>
0.0642

> <Gold.Chemscore.DEInternal.Weighted>
1.5035

> <Gold.Chemscore.Rot.Weighted>
6.0769

> <Gold.Chemscore.Internal.Correction.Weighted>
   9.000000E+99

> <Gold.Protein.RotatedTorsions>
[ 6907 6896 6895 6894 ] final  153.38 input  -60.11 | X-H torsion
[ 7974 7965 7964 7962 ] final -147.74 input  175.53 | X-H torsion
[ 8008 7997 7996 7995 ] final  -94.06 input   59.86 | X-H torsion
[ 10167 10162 10161 10158 ] final  169.36 input  -65.29 | X-H torsion
[ 10718 10713 10712 10709 ] final -152.84 input   66.30 | X-H torsion
[ 10763 10752 10751 10750 ] final  -88.70 input  -60.55 | X-H torsion
[ 11005 11000 10999 10996 ] final  134.52 input  -57.11 | X-H torsion

> <Gold.Protein.ActiveResidues>
 VAL166  LYS551  ARG553  GLY616  TRP617  ASP618  TYR619  PRO620  LYS621  CYS622 
 ASP623  PHE694  ASN695  SER759  ASP760  ASP761  ALA762  ILE779  LEU786  VAL792 
 PHE793  MET794  SER795  GLU796  ALA797  LYS798  CYS799  TRP800  GLU811  SER814 

> <Gold.Protein.RotatedAtoms>
  152.0735  133.4118  159.4469 H   0  0  0  0  0  0  0  0  0  0  0  0  # atno 6907 bound_to 6896
  150.6863  134.3064  159.4737 H   0  0  0  0  0  0  0  0  0  0  0  0  # atno 6908 bound_to 6896
  152.0898  134.9414  160.0622 H   0  0  0  0  0  0  0  0  0  0  0  0  # atno 6909 bound_to 6896
  144.8074  140.5287  143.5666 H   0  0  0  0  0  0  0  0  0  0  0  0  # atno 7974 bound_to 7965
  154.7435  140.0493  157.0832 H   0  0  0  0  0  0  0  0  0  0  0  0  # atno 8008 bound_to 7997
  155.0148  140.3140  155.4797 H   0  0  0  0  0  0  0  0  0  0  0  0  # atno 8009 bound_to 7997
  156.2870  140.2178  156.5263 H   0  0  0  0  0  0  0  0  0  0  0  0  # atno 8010 bound_to 7997
  139.4990  144.3714  151.9720 H   0  0  0  0  0  0  0  0  0  0  0  0  # atno 10167 bound_to 10162
  156.4779  130.8289  151.2517 H   0  0  0  0  0  0  0  0  0  0  0  0  # atno 10718 bound_to 10713
  154.6473  135.5367  153.7860 H   0  0  0  0  0  0  0  0  0  0  0  0  # atno 10763 bound_to 10752
  153.0366  135.6474  154.1069 H   0  0  0  0  0  0  0  0  0  0  0  0  # atno 10764 bound_to 10752
  154.0989  135.2934  155.3236 H   0  0  0  0  0  0  0  0  0  0  0  0  # atno 10765 bound_to 10752
  139.9920  134.9511  156.9878 H   0  0  0  0  0  0  0  0  0  0  0  0  # atno 11005 bound_to 11000
  145.5406  139.1475  143.3449 LP  0  0  0  0  0  0  0  0  0  0  0  0  # atno 17320 bound_to 7965
  146.2367  140.5546  142.8952 LP  0  0  0  0  0  0  0  0  0  0  0  0  # atno 17321 bound_to 7965
  140.3150  144.3493  150.6024 LP  0  0  0  0  0  0  0  0  0  0  0  0  # atno 17342 bound_to 10162
  140.5768  143.2176  151.7500 LP  0  0  0  0  0  0  0  0  0  0  0  0  # atno 17343 bound_to 10162
  157.7486  131.0055  150.3115 LP  0  0  0  0  0  0  0  0  0  0  0  0  # atno 17370 bound_to 10713
  156.3552  130.3837  149.7296 LP  0  0  0  0  0  0  0  0  0  0  0  0  # atno 17371 bound_to 10713
  140.4890  134.1212  155.7229 LP  0  0  0  0  0  0  0  0  0  0  0  0  # atno 17394 bound_to 11000
  141.1574  133.8857  157.1941 LP  0  0  0  0  0  0  0  0  0  0  0  0  # atno 17395 bound_to 11000

$$$$
