AV-unprocessed.smi:36|AV-procd|sdf|284|dock8
  -GOLD-   2262016 63D 1   1.00000     0.00000
 Structure written by MMmdl.
 64 67  0  0  0  0  0  0  0  0  1 V2000
  145.1934  135.3240  162.2494 C   0  0  0  0  0  0  0  0  0  0  0  0
  146.3690  134.7588  161.4353 C   0  0  0  0  0  0  0  0  0  0  0  0
  147.6018  135.6635  161.5999 C   0  0  0  0  0  0  0  0  0  0  0  0
  146.7033  133.3370  161.9161 C   0  0  0  0  0  0  0  0  0  0  0  0
  145.8892  134.6927  159.5874 Si  0  0  0  0  0  0  0  0  0  0  0  0
  144.3007  133.6852  159.3224 C   0  0  0  0  0  0  0  0  0  0  0  0
  145.6711  136.4401  158.8726 C   0  0  0  0  0  0  0  0  0  0  0  0
  147.1462  133.9248  158.7570 O   0  0  0  0  0  0  0  0  0  0  0  0
  148.5023  134.2983  158.8743 C   0  0  0  0  0  0  0  0  0  0  0  0
  149.2200  133.9847  157.5558 C   0  0  1  0  0  0  0  0  0  0  0  0
  148.8487  134.9153  156.5340 O   0  0  0  0  0  0  0  0  0  0  0  0
  149.9820  135.3880  155.8642 C   0  0  1  0  0  0  0  0  0  0  0  0
  150.2942  136.7618  156.3793 N   0  0  0  0  0  0  0  0  0  0  0  0
  149.6104  137.5300  157.2996 C   0  0  0  0  0  0  0  0  0  0  0  0
  150.1293  138.7030  157.5467 N   0  0  0  0  0  0  0  0  0  0  0  0
  151.2366  138.7637  156.7113 C   0  0  0  0  0  0  0  0  0  0  0  0
  152.2316  139.7455  156.4660 C   0  0  0  0  0  0  0  0  0  0  0  0
  152.2161  140.9155  157.1466 N   0  0  0  0  0  0  0  0  0  0  0  0
  152.5357  141.1428  158.5448 C   0  0  0  0  0  0  0  0  0  0  0  0
  152.9766  140.2504  159.2699 O   0  0  0  0  0  0  0  0  0  0  0  0
  152.3863  142.5542  159.0329 C   0  0  0  0  0  0  0  0  0  0  0  0
  152.4353  143.6284  158.1163 C   0  0  0  0  0  0  0  0  0  0  0  0
  152.3163  144.9570  158.5684 C   0  0  0  0  0  0  0  0  0  0  0  0
  152.1552  145.2231  159.9411 C   0  0  0  0  0  0  0  0  0  0  0  0
  152.1162  144.1598  160.8623 C   0  0  0  0  0  0  0  0  0  0  0  0
  152.2346  142.8306  160.4117 C   0  0  0  0  0  0  0  0  0  0  0  0
  153.1866  139.4513  155.5446 N   0  0  0  0  0  0  0  0  0  0  0  0
  153.1639  138.2797  154.9022 C   0  0  0  0  0  0  0  0  0  0  0  0
  152.2963  137.2737  155.0329 N   0  0  0  0  0  0  0  0  0  0  0  0
  151.3402  137.5583  155.9637 C   0  0  0  0  0  0  0  0  0  0  0  0
  151.1120  134.4207  156.2197 C   0  0  0  0  0  0  0  0  0  0  0  0
  150.7488  134.0492  157.6415 C   0  0  2  0  0  0  0  0  0  0  0  0
  151.3225  132.8102  158.0047 O   0  0  0  0  0  0  0  0  0  0  0  0
  145.4360  135.3738  163.3113 H   0  0  0  0  0  0  0  0  0  0  0  0
  144.3030  134.7035  162.1450 H   0  0  0  0  0  0  0  0  0  0  0  0
  144.9326  136.3315  161.9247 H   0  0  0  0  0  0  0  0  0  0  0  0
  147.3921  136.6841  161.2788 H   0  0  0  0  0  0  0  0  0  0  0  0
  148.4429  135.2989  161.0091 H   0  0  0  0  0  0  0  0  0  0  0  0
  147.9248  135.7077  162.6406 H   0  0  0  0  0  0  0  0  0  0  0  0
  147.0048  133.3333  162.9641 H   0  0  0  0  0  0  0  0  0  0  0  0
  147.5207  132.9054  161.3373 H   0  0  0  0  0  0  0  0  0  0  0  0
  145.8449  132.6719  161.8194 H   0  0  0  0  0  0  0  0  0  0  0  0
  143.4527  134.1302  159.8424 H   0  0  0  0  0  0  0  0  0  0  0  0
  144.4074  132.6640  159.6876 H   0  0  0  0  0  0  0  0  0  0  0  0
  144.0378  133.6251  158.2666 H   0  0  0  0  0  0  0  0  0  0  0  0
  144.9112  137.0021  159.4151 H   0  0  0  0  0  0  0  0  0  0  0  0
  145.3649  136.4095  157.8272 H   0  0  0  0  0  0  0  0  0  0  0  0
  146.5975  137.0118  158.9223 H   0  0  0  0  0  0  0  0  0  0  0  0
  148.5593  135.3653  159.0913 H   0  0  0  0  0  0  0  0  0  0  0  0
  148.9630  133.7683  159.7073 H   0  0  0  0  0  0  0  0  0  0  0  0
  148.9119  133.0014  157.1963 H   0  0  0  0  0  0  0  0  0  0  0  0
  149.8145  135.5235  154.7951 H   0  0  0  0  0  0  0  0  0  0  0  0
  148.7073  137.1991  157.7895 H   0  0  0  0  0  0  0  0  0  0  0  0
  151.9287  141.7278  156.6206 H   0  0  0  0  0  0  0  0  0  0  0  0
  152.5601  143.4405  157.0595 H   0  0  0  0  0  0  0  0  0  0  0  0
  152.3502  145.7727  157.8614 H   0  0  0  0  0  0  0  0  0  0  0  0
  152.0659  146.2420  160.2879 H   0  0  0  0  0  0  0  0  0  0  0  0
  151.9985  144.3641  161.9163 H   0  0  0  0  0  0  0  0  0  0  0  0
  152.2124  142.0304  161.1369 H   0  0  0  0  0  0  0  0  0  0  0  0
  153.9551  138.1264  154.1833 H   0  0  0  0  0  0  0  0  0  0  0  0
  151.0437  133.5567  155.5568 H   0  0  0  0  0  0  0  0  0  0  0  0
  152.1012  134.8664  156.1161 H   0  0  0  0  0  0  0  0  0  0  0  0
  151.0721  134.8306  158.3312 H   0  0  0  0  0  0  0  0  0  0  0  0
  151.4337  132.2916  157.2219 H   0  0  0  0  0  0  0  0  0  0  0  0
  1  2  1  0  0  0  0
  1 34  1  0  0  0  0
  1 35  1  0  0  0  0
  1 36  1  0  0  0  0
  2  3  1  0  0  0  0
  2  4  1  0  0  0  0
  2  5  1  0  0  0  0
  3 37  1  0  0  0  0
  3 38  1  0  0  0  0
  3 39  1  0  0  0  0
  4 40  1  0  0  0  0
  4 41  1  0  0  0  0
  4 42  1  0  0  0  0
  5  6  1  0  0  0  0
  5  7  1  0  0  0  0
  5  8  1  0  0  0  0
  6 43  1  0  0  0  0
  6 44  1  0  0  0  0
  6 45  1  0  0  0  0
  7 46  1  0  0  0  0
  7 47  1  0  0  0  0
  7 48  1  0  0  0  0
  8  9  1  0  0  0  0
  9 10  1  0  0  0  0
  9 49  1  0  0  0  0
  9 50  1  0  0  0  0
 10 32  1  0  0  0  0
 10 11  1  0  0  0  0
 10 51  1  0  0  0  0
 11 12  1  0  0  0  0
 12 13  1  0  0  0  0
 12 31  1  0  0  0  0
 12 52  1  0  0  0  0
 13 30  1  0  0  0  0
 13 14  1  0  0  0  0
 14 15  2  0  0  0  0
 14 53  1  0  0  0  0
 15 16  1  0  0  0  0
 16 30  2  0  0  0  0
 16 17  1  0  0  0  0
 17 18  1  0  0  0  0
 17 27  2  0  0  0  0
 18 19  1  0  0  0  0
 18 54  1  0  0  0  0
 19 20  2  0  0  0  0
 19 21  1  0  0  0  0
 21 26  1  0  0  0  0
 21 22  2  0  0  0  0
 22 23  1  0  0  0  0
 22 55  1  0  0  0  0
 23 24  2  0  0  0  0
 23 56  1  0  0  0  0
 24 25  1  0  0  0  0
 24 57  1  0  0  0  0
 25 26  2  0  0  0  0
 25 58  1  0  0  0  0
 26 59  1  0  0  0  0
 27 28  1  0  0  0  0
 28 29  2  0  0  0  0
 28 60  1  0  0  0  0
 29 30  1  0  0  0  0
 31 32  1  0  0  0  0
 31 61  1  0  0  0  0
 31 62  1  0  0  0  0
 32 33  1  0  0  0  0
 32 63  1  0  0  0  0
 33 64  1  0  0  0  0
M  END
> <s_m_source_file>
AV-unprocessed.smi

> <i_m_source_file_index>
36

> <i_lp_mmshare_version>
43012

> <i_f3d_flags>
0

> <s_epik_input>
W0NIM11DKFtDSDNdKShbQ0gzXSlbU2ldKFtDSDNdKShbQ0gzXSlPW0NIMl1bQ0BASF0xT1tDQEhdKFtDSDJdW0NASF0xW09IXSluKFtjSF1uMiljKGMyMyluW2NIXW5jM1tOSF1DKD1PKWM0W2NIXVtjSF1bY0hdW2NIXVtjSF00

> <s_epik_cmdline>
J2VwaWtfcHl0aG9uJywgJy1waCcsICc3LjAnLCAnLXRuJywgJzgnLCAnLW1hJywgJzIwMCcsICctbWV0YWxfYmluZGluZycsICctaW1hZScsICc8aW5maWxlLm1hZT4nLCAnLW9tYWUnLCAnPG91dGZpbGUubWFlPic=

> <r_lp_tautomer_probability>
1

> <r_epik_Ionization_Penalty>
0.00150433

> <r_epik_Ionization_Penalty_Charging>
0

> <r_epik_Ionization_Penalty_Neutral>
0.00150433

> <r_epik_State_Penalty>
0.00724046

> <r_epik_Charging_Adjusted_Penalty>
0.00724046

> <i_epik_Tot_Q>
0

> <i_epik_Tot_abs_Q>
0

> <r_epik_Metal_State_Penalty>
0.323355

> <b_epik_Metal_Only>
0

> <s_epik_Chemistry_Notes>
This compound contains an acetal/aminal-like group ( X-CH(R)-Y where X, Y are N, S, or O) that may be acid/base labile, releasing an aldehyde.

> <s_lp_Force_Field>
OPLS_2005

> <r_lp_Energy>
33.6094

> <b_lp_Chiralities_Consistent>
1

> <s_lp_Variant>
AV-unprocessed.smi:36-6

> <Gold.Version>
5.8.1

> <Gold.Id.Protein>
6NUR|6NUR_protein|mol2

> <Gold.PLP.Fitness>
52.0830

> <Gold.PLP.PLP>
-48.0638

> <Gold.PLP.part.hbond>
-3.6444

> <Gold.PLP.part.metal>
0.0000

> <Gold.PLP.part.buried>
-4.9794

> <Gold.PLP.part.nonpolar>
-39.3783

> <Gold.PLP.part.repulsive>
0.2857

> <Gold.PLP.ligand.clash>
0.0000

> <Gold.PLP.ligand.torsion>
1.3493

> <Gold.PLP.Chemscore.Hbond>
2.0732

> <Gold.PLP.Chemscore.CHOScore>
0.0000

> <Gold.PLP.Chemscore.Metal>
0.0000

> <Gold.Chemscore.Hbonds>
donor molecule, donor type, donor heavy atom, donor atom, acceptor molecule, acceptor atom, score
      P1  H  6896  6907       L1    33  0.02
      P1  H  7997  8010       L1    27  0.93
      P1  H 10752 10763       L1    29  0.67

> <Gold.PLP.Chemscore.Internal.Correction>
0.4981

> <Gold.Rescore>
     Score         DG    S(hbond)    S(metal)    S(lipo)     H(rot)  DE(clash)    DE(int)     intcor
     14.05     -17.32       1.36        0.00     121.50       2.70       1.97       1.30       ----

> <Gold.Chemscore.Fitness>
14.0490

> <Gold.Chemscore.DG>
-17.3190

> <Gold.Chemscore.ZeroCoef>
-5.4800

> <Gold.Chemscore.Hbond>
1.3612

> <Gold.Chemscore.Metal>
0.0000

> <Gold.Chemscore.Lipo>
121.4977

> <Gold.Chemscore.Internal_Hbond>
0.0000

> <Gold.Chemscore.DEClash>
1.9695

> <Gold.Chemscore.DEInternal>
1.3005

> <Gold.Chemscore.Rot>
2.7041

> <Gold.Chemscore.Internal.Correction>
   9.000000E+99

> <Gold.Chemscore.Hbonds>
donor molecule, donor type, donor heavy atom, donor atom, acceptor molecule, acceptor atom, score
      P1  H  7997  8010       L1    27  0.62
      P1  H 10752 10763       L1    29  0.58

> <Gold.Chemscore.Hbond.Weighted>
-4.5462

> <Gold.Chemscore.Metal.Weighted>
-0.0000

> <Gold.Chemscore.Lipo.Weighted>
-14.2152

> <Gold.Chemscore.Internal_Hbond.Weighted>
0.0000

> <Gold.Chemscore.DEClash.Weighted>
1.9695

> <Gold.Chemscore.DEInternal.Weighted>
1.3005

> <Gold.Chemscore.Rot.Weighted>
6.9225

> <Gold.Chemscore.Internal.Correction.Weighted>
   9.000000E+99

> <Gold.Protein.RotatedTorsions>
[ 6907 6896 6895 6894 ] final -156.63 input  -60.11 | X-H torsion
[ 7974 7965 7964 7962 ] final  -60.26 input  175.53 | X-H torsion
[ 8008 7997 7996 7995 ] final  103.78 input   59.86 | X-H torsion
[ 10167 10162 10161 10158 ] final  -73.13 input  -65.29 | X-H torsion
[ 10718 10713 10712 10709 ] final   87.34 input   66.30 | X-H torsion
[ 10763 10752 10751 10750 ] final   44.89 input  -60.55 | X-H torsion
[ 11005 11000 10999 10996 ] final -152.28 input  -57.11 | X-H torsion

> <Gold.Protein.ActiveResidues>
 VAL166  LYS551  ARG553  GLY616  TRP617  ASP618  TYR619  PRO620  LYS621  CYS622 
 ASP623  PHE694  ASN695  SER759  ASP760  ASP761  ALA762  ILE779  LEU786  VAL792 
 PHE793  MET794  SER795  GLU796  ALA797  LYS798  CYS799  TRP800  GLU811  SER814 

> <Gold.Protein.RotatedAtoms>
  151.2905  133.4168  159.2632 H   0  0  0  0  0  0  0  0  0  0  0  0  # atno 6907 bound_to 6896
  151.0282  134.9520  159.8107 H   0  0  0  0  0  0  0  0  0  0  0  0  # atno 6908 bound_to 6896
  152.5340  134.2866  159.9080 H   0  0  0  0  0  0  0  0  0  0  0  0  # atno 6909 bound_to 6896
  145.8176  140.8560  143.0149 H   0  0  0  0  0  0  0  0  0  0  0  0  # atno 7974 bound_to 7965
  156.1515  140.3159  155.8655 H   0  0  0  0  0  0  0  0  0  0  0  0  # atno 8008 bound_to 7997
  155.3962  140.0497  157.3056 H   0  0  0  0  0  0  0  0  0  0  0  0  # atno 8009 bound_to 7997
  154.5062  140.2148  155.9257 H   0  0  0  0  0  0  0  0  0  0  0  0  # atno 8010 bound_to 7997
  140.5135  143.2341  151.7552 H   0  0  0  0  0  0  0  0  0  0  0  0  # atno 10167 bound_to 10162
  157.6939  131.0252  150.3109 H   0  0  0  0  0  0  0  0  0  0  0  0  # atno 10718 bound_to 10713
  152.9833  135.6056  154.3347 H   0  0  0  0  0  0  0  0  0  0  0  0  # atno 10763 bound_to 10752
  154.3048  135.2772  155.2596 H   0  0  0  0  0  0  0  0  0  0  0  0  # atno 10764 bound_to 10752
  154.4832  135.5912  153.6460 H   0  0  0  0  0  0  0  0  0  0  0  0  # atno 10765 bound_to 10752
  140.7206  134.3731  157.5184 H   0  0  0  0  0  0  0  0  0  0  0  0  # atno 11005 bound_to 11000
  144.6751  140.0486  143.7479 LP  0  0  0  0  0  0  0  0  0  0  0  0  # atno 17320 bound_to 7965
  145.9710  139.2870  143.1099 LP  0  0  0  0  0  0  0  0  0  0  0  0  # atno 17321 bound_to 7965
  139.4903  144.4357  151.9822 LP  0  0  0  0  0  0  0  0  0  0  0  0  # atno 17342 bound_to 10162
  140.3450  144.3158  150.5960 LP  0  0  0  0  0  0  0  0  0  0  0  0  # atno 17343 bound_to 10162
  156.3610  130.3847  149.7251 LP  0  0  0  0  0  0  0  0  0  0  0  0  # atno 17370 bound_to 10713
  156.4697  130.7991  151.3009 LP  0  0  0  0  0  0  0  0  0  0  0  0  # atno 17371 bound_to 10713
  139.8849  134.8952  156.2675 LP  0  0  0  0  0  0  0  0  0  0  0  0  # atno 17394 bound_to 11000
  141.0007  133.7153  156.0955 LP  0  0  0  0  0  0  0  0  0  0  0  0  # atno 17395 bound_to 11000

$$$$
