AV-unprocessed.smi:72|AV-procd|sdf|698|dock4
  -GOLD-   2262017 13D 1   1.00000     0.00000
 Structure written by MMmdl.
 30 31  0  0  0  0  0  0  0  0  2 V2000
  141.4934  138.9907  153.1315 N   0  0  0  0  0  0  0  0  0  0  0  0
  142.1445  137.7770  153.2042 C   0  0  0  0  0  0  0  0  0  0  0  0
  142.8355  137.3506  152.0840 N   0  3  0  0  0  0  0  0  0  0  0  0
  143.5136  136.1991  151.9903 C   0  0  0  0  0  0  0  0  0  0  0  0
  143.5451  135.3884  153.0272 N   0  0  0  0  0  0  0  0  0  0  0  0
  144.3033  134.0886  152.9562 C   0  0  1  0  0  0  0  0  0  0  0  0
  143.7744  133.3513  151.8964 O   0  0  0  0  0  0  0  0  0  0  0  0
  144.8324  132.8083  151.1142 C   0  0  1  0  0  0  0  0  0  0  0  0
  144.3502  132.4601  149.6947 C   0  0  0  0  0  0  0  0  0  0  0  0
  143.9950  133.6351  148.9980 O   0  0  0  0  0  0  0  0  0  0  0  0
  145.9560  133.8472  151.2358 C   0  0  1  0  0  0  0  0  0  0  0  0
  145.7647  134.9120  150.3185 O   0  0  0  0  0  0  0  0  0  0  0  0
  145.8081  134.2973  152.6845 C   0  0  1  0  0  0  0  0  0  0  0  0
  146.3069  135.6053  152.9080 O   0  0  0  0  0  0  0  0  0  0  0  0
  142.8746  135.7435  154.2261 C   0  0  0  0  0  0  0  0  0  0  0  0
  142.9136  135.0044  155.2087 O   0  0  0  0  0  0  0  0  0  0  0  0
  142.1875  136.9664  154.2251 N   0  0  0  0  0  0  0  0  0  0  0  0
  144.1063  133.5529  153.8858 H   0  0  0  0  0  0  0  0  0  0  0  0
  145.1533  131.8920  151.6138 H   0  0  0  0  0  0  0  0  0  0  0  0
  146.9367  133.4082  151.0489 H   0  0  0  0  0  0  0  0  0  0  0  0
  146.3474  133.6045  153.3318 H   0  0  0  0  0  0  0  0  0  0  0  0
  140.9652  139.3807  153.8995 H   0  0  0  0  0  0  0  0  0  0  0  0
  141.4933  139.5847  152.3147 H   0  0  0  0  0  0  0  0  0  0  0  0
  144.0231  135.9510  151.0683 H   0  0  0  0  0  0  0  0  0  0  0  0
  145.1492  131.9631  149.1441 H   0  0  0  0  0  0  0  0  0  0  0  0
  143.5042  131.7729  149.7132 H   0  0  0  0  0  0  0  0  0  0  0  0
  144.7676  133.9833  148.5791 H   0  0  0  0  0  0  0  0  0  0  0  0
  146.0550  134.6238  149.4658 H   0  0  0  0  0  0  0  0  0  0  0  0
  147.2316  135.6096  152.7124 H   0  0  0  0  0  0  0  0  0  0  0  0
  142.8260  137.9567  151.2762 H   0  0  0  0  0  0  0  0  0  0  0  0
  1  2  1  0  0  0  0
  1 22  1  0  0  0  0
  1 23  1  0  0  0  0
  2 17  2  0  0  0  0
  2  3  1  0  0  0  0
  3  4  2  0  0  0  0
  3 30  1  0  0  0  0
  4  5  1  0  0  0  0
  4 24  1  0  0  0  0
  5  6  1  0  0  0  0
  5 15  1  0  0  0  0
  6 18  1  0  0  0  0
  6 13  1  0  0  0  0
  6  7  1  0  0  0  0
  7  8  1  0  0  0  0
  8 19  1  0  0  0  0
  8  9  1  0  0  0  0
  8 11  1  0  0  0  0
  9 10  1  0  0  0  0
  9 25  1  0  0  0  0
  9 26  1  0  0  0  0
 10 27  1  0  0  0  0
 11 20  1  0  0  0  0
 11 12  1  0  0  0  0
 11 13  1  0  0  0  0
 12 28  1  0  0  0  0
 13 21  1  0  0  0  0
 13 14  1  0  0  0  0
 14 29  1  0  0  0  0
 15 16  2  0  0  0  0
 15 17  1  0  0  0  0
M  CHG  1   3   1
M  END
> <s_m_source_file>
AV-unprocessed.smi

> <i_m_source_file_index>
72

> <i_lp_mmshare_version>
43012

> <i_f3d_flags>
0

> <s_epik_input>
W05IMl1jMW5bY0hdbihjKD1PKW4xKVtDQEBIXTJPW0NASF0oW0NIMl1bT0hdKVtDQEBIXShbT0hdKVtDQEhdMltPSF0=

> <s_epik_cmdline>
J2VwaWtfcHl0aG9uJywgJy1waCcsICc3LjAnLCAnLXRuJywgJzgnLCAnLW1hJywgJzIwMCcsICctbWV0YWxfYmluZGluZycsICctaW1hZScsICc8aW5maWxlLm1hZT4nLCAnLW9tYWUnLCAnPG91dGZpbGUubWFlPic=

> <r_lp_tautomer_probability>
4.77166e-05

> <r_epik_Ionization_Penalty>
0.104979

> <r_epik_Ionization_Penalty_Charging>
0.0999619

> <r_epik_Ionization_Penalty_Neutral>
0.00501745

> <r_epik_State_Penalty>
2.51541

> <r_epik_Charging_Adjusted_Penalty>
2.61537

> <i_epik_Tot_Q>
1

> <i_epik_Tot_abs_Q>
1

> <r_epik_Metal_State_Penalty>
3.53763

> <b_epik_Metal_Only>
0

> <s_epik_Chemistry_Notes>
This compound contains an acetal/aminal-like group ( X-CH(R)-Y where X, Y are N, S, or O) that may be acid/base labile, releasing an aldehyde.

> <s_lp_Force_Field>
OPLS_2005

> <r_lp_Energy>
38.8596

> <b_lp_Chiralities_Consistent>
1

> <s_lp_Variant>
AV-unprocessed.smi:72-36

> <Gold.Version>
5.8.1

> <Gold.Id.Protein>
6NUR|6NUR_protein|mol2

> <Gold.PLP.Fitness>
38.0364

> <Gold.PLP.PLP>
-23.7251

> <Gold.PLP.part.hbond>
-8.0416

> <Gold.PLP.part.metal>
0.0000

> <Gold.PLP.part.buried>
-1.3595

> <Gold.PLP.part.nonpolar>
-14.1189

> <Gold.PLP.part.repulsive>
0.4127

> <Gold.PLP.ligand.clash>
0.0181

> <Gold.PLP.ligand.torsion>
0.0257

> <Gold.PLP.Chemscore.Hbond>
4.7624

> <Gold.PLP.Chemscore.CHOScore>
0.0228

> <Gold.PLP.Chemscore.Metal>
0.0000

> <Gold.Chemscore.Hbonds>
donor molecule, donor type, donor heavy atom, donor atom, acceptor molecule, acceptor atom, score
      L1  H     1    23       P1 10160  1.00
      L1  H     3    30       P1 10171  0.73
      L1  H    10    27       P1  7921  1.00
      L1  H    12    28       P1  7921  1.00
      L1  H    14    29       P1  7948  1.00
      L1  C     4    24       P1 10171  0.02

> <Gold.PLP.Chemscore.Internal.Correction>
0.0252

> <Gold.Rescore>
     Score         DG    S(hbond)    S(metal)    S(lipo)     H(rot)  DE(clash)    DE(int)     intcor
      9.18     -11.36       3.95        0.00      26.66       4.08       1.33       0.86       ----

> <Gold.Chemscore.Fitness>
9.1759

> <Gold.Chemscore.DG>
-11.3598

> <Gold.Chemscore.ZeroCoef>
-5.4800

> <Gold.Chemscore.Hbond>
3.9526

> <Gold.Chemscore.Metal>
0.0000

> <Gold.Chemscore.Lipo>
26.6553

> <Gold.Chemscore.Internal_Hbond>
0.0000

> <Gold.Chemscore.DEClash>
1.3274

> <Gold.Chemscore.DEInternal>
0.8566

> <Gold.Chemscore.Rot>
4.0783

> <Gold.Chemscore.Internal.Correction>
   9.000000E+99

> <Gold.Chemscore.Hbonds>
donor molecule, donor type, donor heavy atom, donor atom, acceptor molecule, acceptor atom, score
      L1  H     1    23       P1 10160  0.91
      L1  H     3    30       P1 10171  0.11
      L1  H    10    27       P1  7921  1.00
      L1  H    12    28       P1  7921  0.53
      L1  H    14    29       P1  7948  0.95
      P1  H 11000 11005       L1    16  0.02

> <Gold.Chemscore.Hbond.Weighted>
-13.2016

> <Gold.Chemscore.Metal.Weighted>
-0.0000

> <Gold.Chemscore.Lipo.Weighted>
-3.1187

> <Gold.Chemscore.Internal_Hbond.Weighted>
0.0000

> <Gold.Chemscore.DEClash.Weighted>
1.3274

> <Gold.Chemscore.DEInternal.Weighted>
0.8566

> <Gold.Chemscore.Rot.Weighted>
10.4404

> <Gold.Chemscore.Internal.Correction.Weighted>
   9.000000E+99

> <Gold.Protein.RotatedTorsions>
[ 6907 6896 6895 6894 ] final   74.82 input  -60.11 | X-H torsion
[ 7974 7965 7964 7962 ] final -115.46 input  175.53 | X-H torsion
[ 8008 7997 7996 7995 ] final  -45.76 input   59.86 | X-H torsion
[ 10167 10162 10161 10158 ] final    6.62 input  -65.29 | X-H torsion
[ 10718 10713 10712 10709 ] final  122.55 input   66.30 | X-H torsion
[ 10763 10752 10751 10750 ] final   98.86 input  -60.55 | X-H torsion
[ 11005 11000 10999 10996 ] final  -40.52 input  -57.11 | X-H torsion

> <Gold.Protein.ActiveResidues>
 VAL166  LYS551  ARG553  GLY616  TRP617  ASP618  TYR619  PRO620  LYS621  CYS622 
 ASP623  PHE694  ASN695  SER759  ASP760  ASP761  ALA762  ILE779  LEU786  VAL792 
 PHE793  MET794  SER795  GLU796  ALA797  LYS798  CYS799  TRP800  GLU811  SER814 

> <Gold.Protein.RotatedAtoms>
  152.4995  134.4213  159.9481 H   0  0  0  0  0  0  0  0  0  0  0  0  # atno 6907 bound_to 6896
  151.4186  133.3699  159.2761 H   0  0  0  0  0  0  0  0  0  0  0  0  # atno 6908 bound_to 6896
  150.9239  134.8678  159.7566 H   0  0  0  0  0  0  0  0  0  0  0  0  # atno 6909 bound_to 6896
  145.1081  140.8594  143.3886 H   0  0  0  0  0  0  0  0  0  0  0  0  # atno 7974 bound_to 7965
  154.4003  140.1388  156.3899 H   0  0  0  0  0  0  0  0  0  0  0  0  # atno 8008 bound_to 7997
  155.7924  140.3478  155.5336 H   0  0  0  0  0  0  0  0  0  0  0  0  # atno 8009 bound_to 7997
  155.8566  140.0950  157.1631 H   0  0  0  0  0  0  0  0  0  0  0  0  # atno 8010 bound_to 7997
  140.6418  143.7757  150.7439 H   0  0  0  0  0  0  0  0  0  0  0  0  # atno 10167 bound_to 10162
  157.5733  131.1081  150.8325 H   0  0  0  0  0  0  0  0  0  0  0  0  # atno 10718 bound_to 10713
  153.2943  135.4133  155.1195 H   0  0  0  0  0  0  0  0  0  0  0  0  # atno 10763 bound_to 10752
  154.8530  135.3526  154.5939 H   0  0  0  0  0  0  0  0  0  0  0  0  # atno 10764 bound_to 10752
  153.6362  135.7059  153.5316 H   0  0  0  0  0  0  0  0  0  0  0  0  # atno 10765 bound_to 10752
  141.0181  133.6876  156.2333 H   0  0  0  0  0  0  0  0  0  0  0  0  # atno 11005 bound_to 11000
  145.0878  139.2912  143.5750 LP  0  0  0  0  0  0  0  0  0  0  0  0  # atno 17320 bound_to 7965
  146.3527  140.0406  142.8643 LP  0  0  0  0  0  0  0  0  0  0  0  0  # atno 17321 bound_to 7965
  140.1390  143.4458  152.2206 LP  0  0  0  0  0  0  0  0  0  0  0  0  # atno 17342 bound_to 10162
  139.5627  144.7416  151.4109 LP  0  0  0  0  0  0  0  0  0  0  0  0  # atno 17343 bound_to 10162
  156.8791  130.5173  149.5292 LP  0  0  0  0  0  0  0  0  0  0  0  0  # atno 17370 bound_to 10713
  156.0778  130.5796  150.9507 LP  0  0  0  0  0  0  0  0  0  0  0  0  # atno 17371 bound_to 10713
  140.6620  134.4957  157.5584 LP  0  0  0  0  0  0  0  0  0  0  0  0  # atno 17394 bound_to 11000
  139.9129  134.8307  156.1465 LP  0  0  0  0  0  0  0  0  0  0  0  0  # atno 17395 bound_to 11000

$$$$
