AV-unprocessed.smi:1759|AV-procd|sdf|7088|dock2
  -GOLD-   22720 8303D 1   1.00000     0.00000
 Structure written by MMmdl.
 31 32  0  0  0  0  0  0  0  0  1 V2000
  145.8127  129.9769  151.9043 C   0  0  0  0  0  0  0  0  0  0  0  0
  146.7347  130.9560  152.5456 C   0  0  0  0  0  0  0  0  0  0  0  0
  146.8721  132.3115  152.4404 C   0  0  0  0  0  0  0  0  0  0  0  0
  147.9462  132.5934  153.3257 C   0  0  0  0  0  0  0  0  0  0  0  0
  148.4131  133.9204  153.5035 N   0  0  0  0  0  0  0  0  0  0  0  0
  148.9060  134.4716  154.6255 C   0  0  0  0  0  0  0  0  0  0  0  0
  149.0072  133.9002  155.7116 O   0  0  0  0  0  0  0  0  0  0  0  0
  149.2763  135.7436  154.4211 N   0  0  0  0  0  0  0  0  0  0  0  0
  149.8233  136.6282  155.4432 C   0  0  0  0  0  0  0  0  0  0  0  0
  150.5781  137.8111  154.8154 C   0  0  1  0  0  0  0  0  0  0  0  0
  150.7775  138.9867  155.7707 C   0  0  0  0  0  0  0  0  0  0  0  0
  152.0208  139.6346  155.2065 C   0  0  0  0  0  0  0  0  0  0  0  0
  152.8407  138.4160  154.7973 C   0  0  0  0  0  0  0  0  0  0  0  0
  151.8940  137.4163  154.4297 O   0  0  0  0  0  0  0  0  0  0  0  0
  148.4208  131.5084  153.9188 N   0  0  0  0  0  0  0  0  0  0  0  0
  147.6466  130.4533  153.4217 O   0  0  0  0  0  0  0  0  0  0  0  0
  145.1230  130.4783  151.2250 H   0  0  0  0  0  0  0  0  0  0  0  0
  145.2246  129.4507  152.6563 H   0  0  0  0  0  0  0  0  0  0  0  0
  146.3729  129.2370  151.3327 H   0  0  0  0  0  0  0  0  0  0  0  0
  146.2966  132.9892  151.8274 H   0  0  0  0  0  0  0  0  0  0  0  0
  148.3741  134.5118  152.6868 H   0  0  0  0  0  0  0  0  0  0  0  0
  149.1534  136.1361  153.4992 H   0  0  0  0  0  0  0  0  0  0  0  0
  149.0228  136.9909  156.0907 H   0  0  0  0  0  0  0  0  0  0  0  0
  150.4946  136.0490  156.0778 H   0  0  0  0  0  0  0  0  0  0  0  0
  150.0603  138.1673  153.9231 H   0  0  0  0  0  0  0  0  0  0  0  0
  149.9197  139.6590  155.8003 H   0  0  0  0  0  0  0  0  0  0  0  0
  150.9704  138.6329  156.7847 H   0  0  0  0  0  0  0  0  0  0  0  0
  151.7683  140.2318  154.3292 H   0  0  0  0  0  0  0  0  0  0  0  0
  152.5356  140.2754  155.9228 H   0  0  0  0  0  0  0  0  0  0  0  0
  153.5318  138.6324  153.9823 H   0  0  0  0  0  0  0  0  0  0  0  0
  153.4204  138.0469  155.6442 H   0  0  0  0  0  0  0  0  0  0  0  0
  1  2  1  0  0  0  0
  1 17  1  0  0  0  0
  1 18  1  0  0  0  0
  1 19  1  0  0  0  0
  2 16  1  0  0  0  0
  2  3  2  0  0  0  0
  3  4  1  0  0  0  0
  3 20  1  0  0  0  0
  4  5  1  0  0  0  0
  4 15  2  0  0  0  0
  5  6  1  0  0  0  0
  5 21  1  0  0  0  0
  6  7  2  0  0  0  0
  6  8  1  0  0  0  0
  8  9  1  0  0  0  0
  8 22  1  0  0  0  0
  9 10  1  0  0  0  0
  9 23  1  0  0  0  0
  9 24  1  0  0  0  0
 10 14  1  0  0  0  0
 10 11  1  0  0  0  0
 10 25  1  0  0  0  0
 11 12  1  0  0  0  0
 11 26  1  0  0  0  0
 11 27  1  0  0  0  0
 12 13  1  0  0  0  0
 12 28  1  0  0  0  0
 12 29  1  0  0  0  0
 13 14  1  0  0  0  0
 13 30  1  0  0  0  0
 13 31  1  0  0  0  0
 15 16  1  0  0  0  0
M  END
> <s_m_source_file>
AV-unprocessed.smi

> <i_m_source_file_index>
1759

> <i_lp_mmshare_version>
43012

> <i_f3d_flags>
0

> <s_epik_input>
W0NIM11jMVtjSF1jKG5vMSlbTkhdQyg9TylbTkhdW0NIMl1bQ0BASF0yW0NIMl1bQ0gyXVtDSDJdTzI=

> <s_epik_cmdline>
J2VwaWtfcHl0aG9uJywgJy1waCcsICc3LjAnLCAnLXRuJywgJzgnLCAnLW1hJywgJzIwMCcsICctbWV0YWxfYmluZGluZycsICctaW1hZScsICc8aW5maWxlLm1hZT4nLCAnLW9tYWUnLCAnPG91dGZpbGUubWFlPic=

> <r_lp_tautomer_probability>
1

> <r_epik_Ionization_Penalty>
2.1743e-05

> <r_epik_Ionization_Penalty_Charging>
0

> <r_epik_Ionization_Penalty_Neutral>
2.1743e-05

> <r_epik_State_Penalty>
-0

> <r_epik_Charging_Adjusted_Penalty>
0

> <i_epik_Tot_Q>
0

> <i_epik_Tot_abs_Q>
0

> <r_epik_Metal_State_Penalty>
-0

> <b_epik_Metal_Only>
0

> <s_lp_Force_Field>
OPLS_2005

> <r_lp_Energy>
14.348

> <b_lp_Chiralities_Consistent>
1

> <s_lp_Variant>
AV-unprocessed.smi:1759-2

> <Gold.Version>
5.8.1

> <Gold.Id.Protein>
6NUR|6NUR_protein|mol2

> <Gold.PLP.Fitness>
33.5350

> <Gold.PLP.PLP>
-25.9764

> <Gold.PLP.part.hbond>
-3.0000

> <Gold.PLP.part.metal>
0.0000

> <Gold.PLP.part.buried>
-2.3140

> <Gold.PLP.part.nonpolar>
-21.1816

> <Gold.PLP.part.repulsive>
0.3563

> <Gold.PLP.ligand.clash>
0.0000

> <Gold.PLP.ligand.torsion>
0.5546

> <Gold.PLP.Chemscore.Hbond>
2.8880

> <Gold.PLP.Chemscore.CHOScore>
0.0000

> <Gold.PLP.Chemscore.Metal>
0.0000

> <Gold.Chemscore.Hbonds>
donor molecule, donor type, donor heavy atom, donor atom, acceptor molecule, acceptor atom, score
      L1  H     5    21       P1  7948  0.88
      L1  H     8    22       P1  7948  1.00
      P1  H 10752 10765       L1    14  0.92

> <Gold.PLP.Chemscore.Internal.Correction>
0.0038

> <Gold.Rescore>
     Score         DG    S(hbond)    S(metal)    S(lipo)     H(rot)  DE(clash)    DE(int)     intcor
     14.77     -15.59       2.31        0.00      48.75       1.30       0.00       0.82       ----

> <Gold.Chemscore.Fitness>
14.7685

> <Gold.Chemscore.DG>
-15.5926

> <Gold.Chemscore.ZeroCoef>
-5.4800

> <Gold.Chemscore.Hbond>
2.3139

> <Gold.Chemscore.Metal>
0.0000

> <Gold.Chemscore.Lipo>
48.7470

> <Gold.Chemscore.Internal_Hbond>
0.0000

> <Gold.Chemscore.DEClash>
0.0000

> <Gold.Chemscore.DEInternal>
0.8242

> <Gold.Chemscore.Rot>
1.2965

> <Gold.Chemscore.Internal.Correction>
   9.000000E+99

> <Gold.Chemscore.Hbonds>
donor molecule, donor type, donor heavy atom, donor atom, acceptor molecule, acceptor atom, score
      L1  H     5    21       P1  7948  0.19
      L1  H     8    22       P1  7948  0.90
      P1  H 10752 10765       L1    14  0.41

> <Gold.Chemscore.Hbond.Weighted>
-7.7284

> <Gold.Chemscore.Metal.Weighted>
-0.0000

> <Gold.Chemscore.Lipo.Weighted>
-5.7034

> <Gold.Chemscore.Internal_Hbond.Weighted>
0.0000

> <Gold.Chemscore.DEClash.Weighted>
0.0000

> <Gold.Chemscore.DEInternal.Weighted>
0.8242

> <Gold.Chemscore.Rot.Weighted>
3.3192

> <Gold.Chemscore.Internal.Correction.Weighted>
   9.000000E+99

> <Gold.Protein.RotatedTorsions>
[ 6907 6896 6895 6894 ] final  146.43 input  -60.11 | X-H torsion
[ 7974 7965 7964 7962 ] final  -68.76 input  175.53 | X-H torsion
[ 8008 7997 7996 7995 ] final  165.63 input   59.86 | X-H torsion
[ 10167 10162 10161 10158 ] final  179.49 input  -65.29 | X-H torsion
[ 10718 10713 10712 10709 ] final -114.29 input   66.30 | X-H torsion
[ 10763 10752 10751 10750 ] final  166.29 input  -60.55 | X-H torsion
[ 11005 11000 10999 10996 ] final  -51.85 input  -57.11 | X-H torsion

> <Gold.Protein.ActiveResidues>
 VAL166  LYS551  ARG553  GLY616  TRP617  ASP618  TYR619  PRO620  LYS621  CYS622 
 ASP623  PHE694  ASN695  SER759  ASP760  ASP761  ALA762  ILE779  LEU786  VAL792 
 PHE793  MET794  SER795  GLU796  ALA797  LYS798  CYS799  TRP800  GLU811  SER814 

> <Gold.Protein.RotatedAtoms>
  152.1680  133.4625  159.4894 H   0  0  0  0  0  0  0  0  0  0  0  0  # atno 6907 bound_to 6896
  150.6916  134.1988  159.4323 H   0  0  0  0  0  0  0  0  0  0  0  0  # atno 6908 bound_to 6896
  151.9894  134.9987  160.0611 H   0  0  0  0  0  0  0  0  0  0  0  0  # atno 6909 bound_to 6896
  145.7124  140.9073  143.0673 H   0  0  0  0  0  0  0  0  0  0  0  0  # atno 7974 bound_to 7965
  156.1784  140.1665  156.8319 H   0  0  0  0  0  0  0  0  0  0  0  0  # atno 8008 bound_to 7997
  154.5333  140.0752  156.8416 H   0  0  0  0  0  0  0  0  0  0  0  0  # atno 8009 bound_to 7997
  155.3363  140.3382  155.4241 H   0  0  0  0  0  0  0  0  0  0  0  0  # atno 8010 bound_to 7997
  139.5339  144.2555  152.0750 H   0  0  0  0  0  0  0  0  0  0  0  0  # atno 10167 bound_to 10162
  156.0821  130.6019  150.8756 H   0  0  0  0  0  0  0  0  0  0  0  0  # atno 10718 bound_to 10713
  154.3368  135.2754  155.2443 H   0  0  0  0  0  0  0  0  0  0  0  0  # atno 10763 bound_to 10752
  154.4731  135.5878  153.6339 H   0  0  0  0  0  0  0  0  0  0  0  0  # atno 10764 bound_to 10752
  152.9861  135.6093  154.3566 H   0  0  0  0  0  0  0  0  0  0  0  0  # atno 10765 bound_to 10752
  141.0893  133.6636  156.3937 H   0  0  0  0  0  0  0  0  0  0  0  0  # atno 11005 bound_to 11000
  144.6938  139.9093  143.7462 LP  0  0  0  0  0  0  0  0  0  0  0  0  # atno 17320 bound_to 7965
  146.0700  139.3689  143.0529 LP  0  0  0  0  0  0  0  0  0  0  0  0  # atno 17321 bound_to 7965
  140.2022  144.4646  150.6426 LP  0  0  0  0  0  0  0  0  0  0  0  0  # atno 17342 bound_to 10162
  140.6533  143.2231  151.6026 LP  0  0  0  0  0  0  0  0  0  0  0  0  # atno 17343 bound_to 10162
  157.5941  131.0943  150.9069 LP  0  0  0  0  0  0  0  0  0  0  0  0  # atno 17370 bound_to 10713
  156.9239  130.5325  149.5279 LP  0  0  0  0  0  0  0  0  0  0  0  0  # atno 17371 bound_to 10713
  140.5290  134.6231  157.5343 LP  0  0  0  0  0  0  0  0  0  0  0  0  # atno 17394 bound_to 11000
  139.9716  134.7283  156.0030 LP  0  0  0  0  0  0  0  0  0  0  0  0  # atno 17395 bound_to 11000

$$$$
