AV-unprocessed.smi:2063|AV-procd|sdf|8411|dock9
  -GOLD-   2272011103D 1   1.00000     0.00000
 Structure written by MMmdl.
 39 40  0  0  0  0  0  0  0  0  1 V2000
  141.0082  143.4326  160.3295 C   0  0  0  0  0  0  0  0  0  0  0  0
  141.7868  144.5805  160.9884 C   0  0  0  0  0  0  0  0  0  0  0  0
  140.9589  145.8656  161.1326 C   0  0  0  0  0  0  0  0  0  0  0  0
  143.1015  144.8287  160.3171 C   0  0  0  0  0  0  0  0  0  0  0  0
  143.4247  146.0019  159.7558 N   0  0  0  0  0  0  0  0  0  0  0  0
  144.6938  145.9877  159.1955 N   0  0  0  0  0  0  0  0  0  0  0  0
  145.2945  144.8000  159.3498 C   0  0  0  0  0  0  0  0  0  0  0  0
  146.5965  144.5051  158.8667 N   0  0  0  0  0  0  0  0  0  0  0  0
  147.3608  143.4314  159.1321 C   0  0  0  0  0  0  0  0  0  0  0  0
  147.0323  142.4813  159.8428 O   0  0  0  0  0  0  0  0  0  0  0  0
  148.5475  143.5201  158.5143 N   0  0  0  0  0  0  0  0  0  0  0  0
  149.6214  142.5320  158.5918 C   0  0  1  0  0  0  0  0  0  0  0  0
  149.7740  141.8279  157.2343 C   0  0  0  0  0  0  0  0  0  0  0  0
  150.9278  143.2168  159.0358 C   0  0  1  0  0  0  0  0  0  0  0  0
  151.3356  144.4248  158.1902 C   0  0  0  0  0  0  0  0  0  0  0  0
  152.1985  145.2460  159.1346 C   0  0  0  0  0  0  0  0  0  0  0  0
  151.8753  144.6824  160.5215 C   0  0  0  0  0  0  0  0  0  0  0  0
  150.7820  143.7970  160.3223 O   0  0  0  0  0  0  0  0  0  0  0  0
  144.3487  143.5916  160.2009 S   0  0  0  0  0  0  0  0  0  0  0  0
  141.5971  142.5148  160.3188 H   0  0  0  0  0  0  0  0  0  0  0  0
  140.7451  143.6723  159.2989 H   0  0  0  0  0  0  0  0  0  0  0  0
  140.0833  143.2251  160.8681 H   0  0  0  0  0  0  0  0  0  0  0  0
  142.0174  144.2508  162.0022 H   0  0  0  0  0  0  0  0  0  0  0  0
  141.5138  146.6306  161.6767 H   0  0  0  0  0  0  0  0  0  0  0  0
  140.0340  145.6774  161.6782 H   0  0  0  0  0  0  0  0  0  0  0  0
  140.6912  146.2769  160.1587 H   0  0  0  0  0  0  0  0  0  0  0  0
  146.9966  145.1987  158.2525 H   0  0  0  0  0  0  0  0  0  0  0  0
  148.7271  144.3367  157.9488 H   0  0  0  0  0  0  0  0  0  0  0  0
  149.3675  141.7810  159.3422 H   0  0  0  0  0  0  0  0  0  0  0  0
  150.5544  141.0676  157.2709 H   0  0  0  0  0  0  0  0  0  0  0  0
  150.0361  142.5356  156.4468 H   0  0  0  0  0  0  0  0  0  0  0  0
  148.8483  141.3314  156.9418 H   0  0  0  0  0  0  0  0  0  0  0  0
  151.7465  142.4948  159.0654 H   0  0  0  0  0  0  0  0  0  0  0  0
  151.8583  144.1432  157.2757 H   0  0  0  0  0  0  0  0  0  0  0  0
  150.4533  145.0016  157.9088 H   0  0  0  0  0  0  0  0  0  0  0  0
  153.2587  145.1247  158.9100 H   0  0  0  0  0  0  0  0  0  0  0  0
  151.9585  146.3072  159.0611 H   0  0  0  0  0  0  0  0  0  0  0  0
  152.7244  144.1217  160.9149 H   0  0  0  0  0  0  0  0  0  0  0  0
  151.6199  145.4614  161.2403 H   0  0  0  0  0  0  0  0  0  0  0  0
  1  2  1  0  0  0  0
  1 20  1  0  0  0  0
  1 21  1  0  0  0  0
  1 22  1  0  0  0  0
  2  3  1  0  0  0  0
  2  4  1  0  0  0  0
  2 23  1  0  0  0  0
  3 24  1  0  0  0  0
  3 25  1  0  0  0  0
  3 26  1  0  0  0  0
  4 19  1  0  0  0  0
  4  5  2  0  0  0  0
  5  6  1  0  0  0  0
  6  7  2  0  0  0  0
  7  8  1  0  0  0  0
  7 19  1  0  0  0  0
  8  9  1  0  0  0  0
  8 27  1  0  0  0  0
  9 10  2  0  0  0  0
  9 11  1  0  0  0  0
 11 12  1  0  0  0  0
 11 28  1  0  0  0  0
 12 13  1  0  0  0  0
 12 14  1  0  0  0  0
 12 29  1  0  0  0  0
 13 30  1  0  0  0  0
 13 31  1  0  0  0  0
 13 32  1  0  0  0  0
 14 18  1  0  0  0  0
 14 15  1  0  0  0  0
 14 33  1  0  0  0  0
 15 16  1  0  0  0  0
 15 34  1  0  0  0  0
 15 35  1  0  0  0  0
 16 17  1  0  0  0  0
 16 36  1  0  0  0  0
 16 37  1  0  0  0  0
 17 18  1  0  0  0  0
 17 38  1  0  0  0  0
 17 39  1  0  0  0  0
M  END
> <s_m_source_file>
AV-unprocessed.smi

> <i_m_source_file_index>
2063

> <i_lp_mmshare_version>
43012

> <i_f3d_flags>
0

> <s_epik_input>
W0NIM11bQ0hdKFtDSDNdKWMxbm5jKHMxKVtOSF1DKD1PKVtOSF1bQ0BIXShbQ0gzXSlbQ0BASF0yW0NIMl1bQ0gyXVtDSDJdTzI=

> <s_epik_cmdline>
J2VwaWtfcHl0aG9uJywgJy1waCcsICc3LjAnLCAnLXRuJywgJzgnLCAnLW1hJywgJzIwMCcsICctbWV0YWxfYmluZGluZycsICctaW1hZScsICc8aW5maWxlLm1hZT4nLCAnLW9tYWUnLCAnPG91dGZpbGUubWFlPic=

> <r_lp_tautomer_probability>
1

> <r_epik_Ionization_Penalty>
0.00050567

> <r_epik_Ionization_Penalty_Charging>
0

> <r_epik_Ionization_Penalty_Neutral>
0.00050567

> <r_epik_State_Penalty>
-0

> <r_epik_Charging_Adjusted_Penalty>
0

> <i_epik_Tot_Q>
0

> <i_epik_Tot_abs_Q>
0

> <r_epik_Metal_State_Penalty>
0.219912

> <b_epik_Metal_Only>
0

> <s_lp_Force_Field>
OPLS_2005

> <r_lp_Energy>
10.6247

> <b_lp_Chiralities_Consistent>
1

> <s_lp_Variant>
AV-unprocessed.smi:2063-4

> <Gold.Version>
5.8.1

> <Gold.Id.Protein>
6NUR|6NUR_protein|mol2

> <Gold.PLP.Fitness>
37.1934

> <Gold.PLP.PLP>
-28.9198

> <Gold.PLP.part.hbond>
-5.3854

> <Gold.PLP.part.metal>
0.0000

> <Gold.PLP.part.buried>
-3.6839

> <Gold.PLP.part.nonpolar>
-21.9664

> <Gold.PLP.part.repulsive>
0.4625

> <Gold.PLP.ligand.clash>
0.0000

> <Gold.PLP.ligand.torsion>
0.1828

> <Gold.PLP.Chemscore.Hbond>
2.8471

> <Gold.PLP.Chemscore.CHOScore>
0.0000

> <Gold.PLP.Chemscore.Metal>
0.0000

> <Gold.Chemscore.Hbonds>
donor molecule, donor type, donor heavy atom, donor atom, acceptor molecule, acceptor atom, score
      L1  H     8    27       P1  8029  0.91
      L1  H    11    28       P1  8029  0.60
      P1  H  6933  6944       L1    10  0.44
      P1  H  6934  6946       L1    10  0.85

> <Gold.PLP.Chemscore.Internal.Correction>
0.0980

> <Gold.Rescore>
     Score         DG    S(hbond)    S(metal)    S(lipo)     H(rot)  DE(clash)    DE(int)     intcor
     19.70     -21.29       2.86        0.00      84.34       1.42       0.19       1.40       ----

> <Gold.Chemscore.Fitness>
19.6990

> <Gold.Chemscore.DG>
-21.2880

> <Gold.Chemscore.ZeroCoef>
-5.4800

> <Gold.Chemscore.Hbond>
2.8633

> <Gold.Chemscore.Metal>
0.0000

> <Gold.Chemscore.Lipo>
84.3378

> <Gold.Chemscore.Internal_Hbond>
0.0000

> <Gold.Chemscore.DEClash>
0.1882

> <Gold.Chemscore.DEInternal>
1.4008

> <Gold.Chemscore.Rot>
1.4152

> <Gold.Chemscore.Internal.Correction>
   9.000000E+99

> <Gold.Chemscore.Hbonds>
donor molecule, donor type, donor heavy atom, donor atom, acceptor molecule, acceptor atom, score
      L1  H     8    27       P1  8029  0.88
      L1  H    11    28       P1  8029  0.06
      P1  H  6933  6944       L1    10  0.29
      P1  H  6934  6946       L1    10  0.83

> <Gold.Chemscore.Hbond.Weighted>
-9.5634

> <Gold.Chemscore.Metal.Weighted>
-0.0000

> <Gold.Chemscore.Lipo.Weighted>
-9.8675

> <Gold.Chemscore.Internal_Hbond.Weighted>
0.0000

> <Gold.Chemscore.DEClash.Weighted>
0.1882

> <Gold.Chemscore.DEInternal.Weighted>
1.4008

> <Gold.Chemscore.Rot.Weighted>
3.6229

> <Gold.Chemscore.Internal.Correction.Weighted>
   9.000000E+99

> <Gold.Protein.RotatedTorsions>
[ 6907 6896 6895 6894 ] final   74.18 input  -60.11 | X-H torsion
[ 7974 7965 7964 7962 ] final -109.89 input  175.53 | X-H torsion
[ 8008 7997 7996 7995 ] final  169.97 input   59.86 | X-H torsion
[ 10167 10162 10161 10158 ] final  -94.68 input  -65.29 | X-H torsion
[ 10718 10713 10712 10709 ] final   79.42 input   66.30 | X-H torsion
[ 10763 10752 10751 10750 ] final -172.70 input  -60.55 | X-H torsion
[ 11005 11000 10999 10996 ] final   90.25 input  -57.11 | X-H torsion

> <Gold.Protein.ActiveResidues>
 VAL166  LYS551  ARG553  GLY616  TRP617  ASP618  TYR619  PRO620  LYS621  CYS622 
 ASP623  PHE694  ASN695  SER759  ASP760  ASP761  ALA762  ILE779  LEU786  VAL792 
 PHE793  MET794  SER795  GLU796  ALA797  LYS798  CYS799  TRP800  GLU811  SER814 

> <Gold.Protein.RotatedAtoms>
  152.4962  134.4311  159.9512 H   0  0  0  0  0  0  0  0  0  0  0  0  # atno 6907 bound_to 6896
  151.4289  133.3670  159.2774 H   0  0  0  0  0  0  0  0  0  0  0  0  # atno 6908 bound_to 6896
  150.9169  134.8609  159.7522 H   0  0  0  0  0  0  0  0  0  0  0  0  # atno 6909 bound_to 6896
  145.1750  140.8944  143.3513 H   0  0  0  0  0  0  0  0  0  0  0  0  # atno 7974 bound_to 7965
  156.1409  140.1550  156.8922 H   0  0  0  0  0  0  0  0  0  0  0  0  # atno 8008 bound_to 7997
  154.4986  140.0831  156.7789 H   0  0  0  0  0  0  0  0  0  0  0  0  # atno 8009 bound_to 7997
  155.4081  140.3417  155.4264 H   0  0  0  0  0  0  0  0  0  0  0  0  # atno 8010 bound_to 7997
  140.3119  143.3100  152.0139 H   0  0  0  0  0  0  0  0  0  0  0  0  # atno 10167 bound_to 10162
  157.6776  130.9913  150.1929 H   0  0  0  0  0  0  0  0  0  0  0  0  # atno 10718 bound_to 10713
  154.6162  135.2870  155.0377 H   0  0  0  0  0  0  0  0  0  0  0  0  # atno 10763 bound_to 10752
  154.1588  135.6491  153.4985 H   0  0  0  0  0  0  0  0  0  0  0  0  # atno 10764 bound_to 10752
  153.0216  135.5373  154.6935 H   0  0  0  0  0  0  0  0  0  0  0  0  # atno 10765 bound_to 10752
  139.8859  134.8602  156.3258 H   0  0  0  0  0  0  0  0  0  0  0  0  # atno 11005 bound_to 11000
  145.0194  139.3438  143.6080 LP  0  0  0  0  0  0  0  0  0  0  0  0  # atno 17320 bound_to 7965
  146.3462  139.9489  142.8731 LP  0  0  0  0  0  0  0  0  0  0  0  0  # atno 17321 bound_to 7965
  139.4892  144.6378  151.6940 LP  0  0  0  0  0  0  0  0  0  0  0  0  # atno 17342 bound_to 10162
  140.5560  144.0347  150.6148 LP  0  0  0  0  0  0  0  0  0  0  0  0  # atno 17343 bound_to 10162
  156.2637  130.3713  149.8104 LP  0  0  0  0  0  0  0  0  0  0  0  0  # atno 17370 bound_to 10713
  156.5842  130.8478  151.3391 LP  0  0  0  0  0  0  0  0  0  0  0  0  # atno 17371 bound_to 10713
  140.9756  133.7299  156.0598 LP  0  0  0  0  0  0  0  0  0  0  0  0  # atno 17394 bound_to 11000
  140.7815  134.3720  157.5486 LP  0  0  0  0  0  0  0  0  0  0  0  0  # atno 17395 bound_to 11000

$$$$
