AV-unprocessed.smi:1131|AV-procd|sdf|4851|dock1
  -GOLD-   22720 3423D 1   1.00000     0.00000
 Structure written by MMmdl.
 33 34  0  0  0  0  0  0  0  0  1 V2000
  146.6497  138.3243  151.1445 O   0  0  0  0  0  0  0  0  0  0  0  0
  146.3236  137.6503  152.1229 C   0  0  0  0  0  0  0  0  0  0  0  0
  145.8296  136.2052  151.9615 C   0  0  0  0  0  0  0  0  0  0  0  0
  144.5593  135.9414  152.6535 N   0  0  0  0  0  0  0  0  0  0  0  0
  143.6210  136.9528  152.8018 C   0  0  0  0  0  0  0  0  0  0  0  0
  142.4343  136.7827  153.4315 C   0  0  0  0  0  0  0  0  0  0  0  0
  142.0790  135.4869  154.0000 C   0  0  0  0  0  0  0  0  0  0  0  0
  141.0282  135.2332  154.5846 O   0  0  0  0  0  0  0  0  0  0  0  0
  143.0504  134.4962  153.8340 N   0  0  0  0  0  0  0  0  0  0  0  0
  144.2763  134.6656  153.1886 C   0  0  0  0  0  0  0  0  0  0  0  0
  145.0647  133.7249  153.1020 O   0  0  0  0  0  0  0  0  0  0  0  0
  146.3883  138.1085  153.3808 N   0  0  0  0  0  0  0  0  0  0  0  0
  146.8336  139.4447  153.7524 C   0  0  0  0  0  0  0  0  0  0  0  0
  148.2061  139.3938  154.4434 C   0  0  1  0  0  0  0  0  0  0  0  0
  149.1593  138.3774  153.8500 C   0  0  0  0  0  0  0  0  0  0  0  0
  150.5025  138.8624  154.3857 C   0  0  0  0  0  0  0  0  0  0  0  0
  150.3938  140.2802  154.4713 O   0  0  0  0  0  0  0  0  0  0  0  0
  149.0325  140.6766  154.3279 C   0  0  0  0  0  0  0  0  0  0  0  0
  142.8501  133.5830  154.2147 H   0  0  0  0  0  0  0  0  0  0  0  0
  145.7253  135.9986  150.8953 H   0  0  0  0  0  0  0  0  0  0  0  0
  146.6007  135.5165  152.3126 H   0  0  0  0  0  0  0  0  0  0  0  0
  143.8431  137.9307  152.3988 H   0  0  0  0  0  0  0  0  0  0  0  0
  141.7445  137.6101  153.5153 H   0  0  0  0  0  0  0  0  0  0  0  0
  146.1051  137.4925  154.1291 H   0  0  0  0  0  0  0  0  0  0  0  0
  146.8949  140.0697  152.8599 H   0  0  0  0  0  0  0  0  0  0  0  0
  146.0915  139.8995  154.4107 H   0  0  0  0  0  0  0  0  0  0  0  0
  148.0703  139.1594  155.5008 H   0  0  0  0  0  0  0  0  0  0  0  0
  148.9312  137.3522  154.1425 H   0  0  0  0  0  0  0  0  0  0  0  0
  149.1491  138.4333  152.7603 H   0  0  0  0  0  0  0  0  0  0  0  0
  150.6762  138.4672  155.3874 H   0  0  0  0  0  0  0  0  0  0  0  0
  151.3385  138.5625  153.7532 H   0  0  0  0  0  0  0  0  0  0  0  0
  148.9103  141.1291  153.3431 H   0  0  0  0  0  0  0  0  0  0  0  0
  148.7555  141.4193  155.0763 H   0  0  0  0  0  0  0  0  0  0  0  0
  1  2  2  0  0  0  0
  2  3  1  0  0  0  0
  2 12  1  0  0  0  0
  3  4  1  0  0  0  0
  3 20  1  0  0  0  0
  3 21  1  0  0  0  0
  4 10  1  0  0  0  0
  4  5  1  0  0  0  0
  5  6  2  0  0  0  0
  5 22  1  0  0  0  0
  6  7  1  0  0  0  0
  6 23  1  0  0  0  0
  7  8  2  0  0  0  0
  7  9  1  0  0  0  0
  9 19  1  0  0  0  0
  9 10  1  0  0  0  0
 10 11  2  0  0  0  0
 12 13  1  0  0  0  0
 12 24  1  0  0  0  0
 13 14  1  0  0  0  0
 13 25  1  0  0  0  0
 13 26  1  0  0  0  0
 14 18  1  0  0  0  0
 14 15  1  0  0  0  0
 14 27  1  0  0  0  0
 15 16  1  0  0  0  0
 15 28  1  0  0  0  0
 15 29  1  0  0  0  0
 16 17  1  0  0  0  0
 16 30  1  0  0  0  0
 16 31  1  0  0  0  0
 17 18  1  0  0  0  0
 18 32  1  0  0  0  0
 18 33  1  0  0  0  0
M  END
> <s_m_source_file>
AV-unprocessed.smi

> <i_m_source_file_index>
1131

> <i_lp_mmshare_version>
43012

> <i_f3d_flags>
0

> <s_epik_input>
W0NIMl0xT1tDSDJdW0NIMl1bQ0BIXTFbQ0gyXVtOSF1DKD1PKVtDSDJdbjJbY0hdW2NIXWMoPU8pW25IXWMyPU8=

> <s_epik_cmdline>
J2VwaWtfcHl0aG9uJywgJy1waCcsICc3LjAnLCAnLXRuJywgJzgnLCAnLW1hJywgJzIwMCcsICctbWV0YWxfYmluZGluZycsICctaW1hZScsICc8aW5maWxlLm1hZT4nLCAnLW9tYWUnLCAnPG91dGZpbGUubWFlPic=

> <r_lp_tautomer_probability>
0.999537

> <r_epik_Ionization_Penalty>
0.00329016

> <r_epik_Ionization_Penalty_Charging>
0.00329014

> <r_epik_Ionization_Penalty_Neutral>
1.87063e-08

> <r_epik_State_Penalty>
0.00232461

> <r_epik_Charging_Adjusted_Penalty>
0.00561475

> <i_epik_Tot_Q>
0

> <i_epik_Tot_abs_Q>
0

> <r_epik_Metal_State_Penalty>
0.365289

> <b_epik_Metal_Only>
0

> <s_lp_Force_Field>
OPLS_2005

> <r_lp_Energy>
18.0195

> <b_lp_Chiralities_Consistent>
1

> <s_lp_Variant>
AV-unprocessed.smi:1131-2

> <Gold.Version>
5.8.1

> <Gold.Id.Protein>
6NUR|6NUR_protein|mol2

> <Gold.PLP.Fitness>
42.5723

> <Gold.PLP.PLP>
-26.4910

> <Gold.PLP.part.hbond>
-4.0000

> <Gold.PLP.part.metal>
0.0000

> <Gold.PLP.part.buried>
-1.1064

> <Gold.PLP.part.nonpolar>
-22.7468

> <Gold.PLP.part.repulsive>
1.2871

> <Gold.PLP.ligand.clash>
0.0000

> <Gold.PLP.ligand.torsion>
0.7547

> <Gold.PLP.Chemscore.Hbond>
4.0000

> <Gold.PLP.Chemscore.CHOScore>
1.8591

> <Gold.PLP.Chemscore.Metal>
0.0000

> <Gold.Chemscore.Hbonds>
donor molecule, donor type, donor heavy atom, donor atom, acceptor molecule, acceptor atom, score
      L1  H     9    19       P1 10957  1.00
      P1  H  7954  7966       L1     1  1.00
      P1  H  7989  7998       L1    17  1.00
      P1  H 11000 11005       L1     8  0.83
      L1  C     5    22       P1 10171  0.63
      L1  C     5    22       P1 10175  1.00

> <Gold.PLP.Chemscore.Internal.Correction>
0.0134

> <Gold.Rescore>
     Score         DG    S(hbond)    S(metal)    S(lipo)     H(rot)  DE(clash)    DE(int)     intcor
     15.37     -17.17       3.55        0.00      44.26       2.09       1.06       0.73       ----

> <Gold.Chemscore.Fitness>
15.3742

> <Gold.Chemscore.DG>
-17.1687

> <Gold.Chemscore.ZeroCoef>
-5.4800

> <Gold.Chemscore.Hbond>
3.5525

> <Gold.Chemscore.Metal>
0.0000

> <Gold.Chemscore.Lipo>
44.2627

> <Gold.Chemscore.Internal_Hbond>
0.0000

> <Gold.Chemscore.DEClash>
1.0597

> <Gold.Chemscore.DEInternal>
0.7348

> <Gold.Chemscore.Rot>
2.0919

> <Gold.Chemscore.Internal.Correction>
   9.000000E+99

> <Gold.Chemscore.Hbonds>
donor molecule, donor type, donor heavy atom, donor atom, acceptor molecule, acceptor atom, score
      L1  H     9    19       P1 10957  1.00
      P1  H  7954  7966       L1     1  0.93
      P1  H  7989  7998       L1    17  0.48
      P1  H 11000 11005       L1     8  0.83

> <Gold.Chemscore.Hbond.Weighted>
-11.8652

> <Gold.Chemscore.Metal.Weighted>
-0.0000

> <Gold.Chemscore.Lipo.Weighted>
-5.1787

> <Gold.Chemscore.Internal_Hbond.Weighted>
0.0000

> <Gold.Chemscore.DEClash.Weighted>
1.0597

> <Gold.Chemscore.DEInternal.Weighted>
0.7348

> <Gold.Chemscore.Rot.Weighted>
5.3552

> <Gold.Chemscore.Internal.Correction.Weighted>
   9.000000E+99

> <Gold.Protein.RotatedTorsions>
[ 6907 6896 6895 6894 ] final -134.01 input  -60.11 | X-H torsion
[ 7974 7965 7964 7962 ] final -143.09 input  175.53 | X-H torsion
[ 8008 7997 7996 7995 ] final  172.09 input   59.86 | X-H torsion
[ 10167 10162 10161 10158 ] final  -27.93 input  -65.29 | X-H torsion
[ 10718 10713 10712 10709 ] final  -83.30 input   66.30 | X-H torsion
[ 10763 10752 10751 10750 ] final   67.31 input  -60.55 | X-H torsion
[ 11005 11000 10999 10996 ] final   26.33 input  -57.11 | X-H torsion

> <Gold.Protein.ActiveResidues>
 VAL166  LYS551  ARG553  GLY616  TRP617  ASP618  TYR619  PRO620  LYS621  CYS622 
 ASP623  PHE694  ASN695  SER759  ASP760  ASP761  ALA762  ILE779  LEU786  VAL792 
 PHE793  MET794  SER795  GLU796  ALA797  LYS798  CYS799  TRP800  GLU811  SER814 

> <Gold.Protein.RotatedAtoms>
  150.9807  133.6248  159.2722 H   0  0  0  0  0  0  0  0  0  0  0  0  # atno 6907 bound_to 6896
  151.3504  135.0882  159.9411 H   0  0  0  0  0  0  0  0  0  0  0  0  # atno 6908 bound_to 6896
  152.5214  133.9401  159.7677 H   0  0  0  0  0  0  0  0  0  0  0  0  # atno 6909 bound_to 6896
  144.8395  140.5878  143.5462 H   0  0  0  0  0  0  0  0  0  0  0  0  # atno 7974 bound_to 7965
  156.1208  140.1495  156.9207 H   0  0  0  0  0  0  0  0  0  0  0  0  # atno 8008 bound_to 7997
  154.4834  140.0872  156.7473 H   0  0  0  0  0  0  0  0  0  0  0  0  # atno 8009 bound_to 7997
  155.4431  140.3432  155.4294 H   0  0  0  0  0  0  0  0  0  0  0  0  # atno 8010 bound_to 7997
  140.7274  143.4052  151.1198 H   0  0  0  0  0  0  0  0  0  0  0  0  # atno 10167 bound_to 10162
  156.0020  130.4661  150.4237 H   0  0  0  0  0  0  0  0  0  0  0  0  # atno 10718 bound_to 10713
  153.0180  135.5289  154.6959 H   0  0  0  0  0  0  0  0  0  0  0  0  # atno 10763 bound_to 10752
  154.6081  135.2875  155.0465 H   0  0  0  0  0  0  0  0  0  0  0  0  # atno 10764 bound_to 10752
  154.1496  135.6565  153.5013 H   0  0  0  0  0  0  0  0  0  0  0  0  # atno 10765 bound_to 10752
  140.3381  134.2363  155.7693 H   0  0  0  0  0  0  0  0  0  0  0  0  # atno 11005 bound_to 11000
  145.4724  139.1502  143.3807 LP  0  0  0  0  0  0  0  0  0  0  0  0  # atno 17320 bound_to 7965
  146.2689  140.4858  142.8822 LP  0  0  0  0  0  0  0  0  0  0  0  0  # atno 17321 bound_to 7965
  139.7677  143.8540  152.3114 LP  0  0  0  0  0  0  0  0  0  0  0  0  # atno 17342 bound_to 10162
  139.8448  144.7193  150.9286 LP  0  0  0  0  0  0  0  0  0  0  0  0  # atno 17343 bound_to 10162
  157.2291  131.0500  151.2503 LP  0  0  0  0  0  0  0  0  0  0  0  0  # atno 17370 bound_to 10713
  157.3728  130.7190  149.6577 LP  0  0  0  0  0  0  0  0  0  0  0  0  # atno 17371 bound_to 10713
  141.2046  133.7883  157.0280 LP  0  0  0  0  0  0  0  0  0  0  0  0  # atno 17394 bound_to 11000
  140.0804  134.9651  157.1614 LP  0  0  0  0  0  0  0  0  0  0  0  0  # atno 17395 bound_to 11000

$$$$
