#       Name:                AV-unprocessed.smi:1254
#       Creating user name   scv26
#       Creation time:       Fri Mar 27 04:38:34 2020


#       File generated by GOLD software.
#

@<TRIPOS>MOLECULE
AV-unprocessed.smi:1254
    53    54     1
SMALL
NO_CHARGES


@<TRIPOS>ATOM
      1 ****        -4.8303   6.5018  -2.4466 C.3            1 S1                 0.0000
      2 ****        -4.3270   5.1258  -2.1747 C.2            1 S1                 0.0000
      3 ****        -4.0544   4.4452  -1.0212 C.2            1 S1                 0.0000
      4 ****        -3.6044   3.1835  -1.4930 C.2            1 S1                 0.0000
      5 ****        -3.2080   2.1663  -0.5874 N.am           1 S1                 0.0000
      6 ****        -2.7268   0.9477  -0.8863 C.2            1 S1                 0.0000
      7 ****        -2.5806   0.5021  -2.0247 O.2            1 S1                 0.0000
      8 ****        -2.4121   0.2617   0.2221 N.am           1 S1                 0.0000
      9 ****        -1.8413  -1.0817   0.2431 C.3            1 S1                 0.0000
     10 ****        -0.3032  -1.0488   0.1902 C.3            1 S1                 0.0000
     11 ****         0.3066  -2.4519   0.3938 C.3            1 S1                 0.0000
     12 ****         1.7860  -2.4210   0.2819 N.4            1 S1                 1.0000
     13 ****         2.4652  -1.8798   1.4905 C.3            1 S1                 0.0000
     14 ****         3.9105  -2.3986   1.6505 C.3            1 S1                 0.0000
     15 ****         3.9529  -3.9207   1.8663 C.3            1 S1                 0.0000
     16 ****         4.6196  -1.6752   2.8050 C.3            1 S1                 0.0000
     17 ****         2.1962  -1.7883  -0.9979 C.3            1 S1                 0.0000
     18 ****         1.5125  -0.4225  -1.1978 C.3            1 S1                 0.0000
     19 ****         0.1034  -0.5722  -1.0888 O.3            1 S1                 0.0000
     20 ****        -3.6046   3.1004  -2.8146 N.2            1 S1                 0.0000
     21 ****        -4.0680   4.3446  -3.2582 O.3            1 S1                 0.0000
     22 ****        -5.0278   7.0355  -1.5166 H              1 S1                 0.0000
     23 ****        -5.7560   6.4686  -3.0212 H              1 S1                 0.0000
     24 ****        -4.0984   7.0748  -3.0161 H              1 S1                 0.0000
     25 ****        -4.1585   4.7975  -0.0057 H              1 S1                 0.0000
     26 ****        -3.2811   2.3994   0.3917 H              1 S1                 0.0000
     27 ****        -2.5705   0.7030   1.1162 H              1 S1                 0.0000
     28 ****        -2.1653  -1.5562   1.1696 H              1 S1                 0.0000
     29 ****        -2.2439  -1.6892  -0.5696 H              1 S1                 0.0000
     30 ****         0.0589  -0.3714   0.9657 H              1 S1                 0.0000
     31 ****         0.0068  -2.8732   1.3541 H              1 S1                 0.0000
     32 ****        -0.0789  -3.1300  -0.3689 H              1 S1                 0.0000
     33 ****         2.4529  -0.7901   1.4669 H              1 S1                 0.0000
     34 ****         1.9036  -2.1649   2.3814 H              1 S1                 0.0000
     35 ****         4.4743  -2.1734   0.7457 H              1 S1                 0.0000
     36 ****         3.4130  -4.2091   2.7689 H              1 S1                 0.0000
     37 ****         4.9800  -4.2727   1.9680 H              1 S1                 0.0000
     38 ****         3.5097  -4.4573   1.0272 H              1 S1                 0.0000
     39 ****         4.1165  -1.8539   3.7559 H              1 S1                 0.0000
     40 ****         4.6440  -0.5976   2.6390 H              1 S1                 0.0000
     41 ****         5.6514  -2.0135   2.9063 H              1 S1                 0.0000
     42 ****         3.2787  -1.6877  -1.0635 H              1 S1                 0.0000
     43 ****         1.9046  -2.4533  -1.8117 H              1 S1                 0.0000
     44 ****         1.8697   0.3153  -0.4787 H              1 S1                 0.0000
     45 ****         1.7455  -0.0315  -2.1883 H              1 S1                 0.0000
     46 ****         2.0769  -3.3872   0.2324 H              1 S1                 0.0000
     47 ****        -2.8281   1.0611  -2.8161 LP             1 S1                 0.0000
     48 ****        -2.2142  -0.4188  -2.1580 LP             1 S1                 0.0000
     49 ****        -0.3258   0.3165  -1.2500 LP             1 S1                 0.0000
     50 ****        -0.2037  -1.2217  -1.7844 LP             1 S1                 0.0000
     51 ****        -3.3325   2.3179  -3.3747 LP             1 S1                 0.0000
     52 ****        -3.3706   4.7798  -3.8277 LP             1 S1                 0.0000
     53 ****        -4.9047   4.2212  -3.7917 LP             1 S1                 0.0000
@<TRIPOS>BOND
    1    1    2 1     
    2    1   22 1     
    3    1   23 1     
    4    1   24 1     
    5    2   21 1     
    6    2    3 2     
    7    3    4 1     
    8    3   25 1     
    9    4    5 1     
   10    4   20 2     
   11    5    6 am    
   12    5   26 1     
   13    6    7 2     
   14    6    8 am    
   15    8    9 1     
   16    8   27 1     
   17    9   10 1     
   18    9   28 1     
   19    9   29 1     
   20   10   19 1     
   21   10   11 1     
   22   10   30 1     
   23   11   12 1     
   24   11   31 1     
   25   11   32 1     
   26   12   13 1     
   27   12   17 1     
   28   12   46 1     
   29   13   14 1     
   30   13   33 1     
   31   13   34 1     
   32   14   15 1     
   33   14   16 1     
   34   14   35 1     
   35   15   36 1     
   36   15   37 1     
   37   15   38 1     
   38   16   39 1     
   39   16   40 1     
   40   16   41 1     
   41   17   18 1     
   42   17   42 1     
   43   17   43 1     
   44   18   19 1     
   45   18   44 1     
   46   18   45 1     
   47   20   21 1     
   48    7   47 1     
   49    7   48 1     
   50   19   49 1     
   51   19   50 1     
   52   20   51 1     
   53   21   52 1     
   54   21   53 1     
@<TRIPOS>SUBSTRUCTURE
      1 S1             1
@<TRIPOS>SET
LONE_PAIRS      STATIC     ATOMS    <user>   **** ""
7 47 48 49 50 51 52 53
DONOR_HYDROGENS      STATIC     ATOMS    <user>   **** ""
3 26 27 46
ATOM$BLUE        STATIC     ATOMS    COLORGROUP SYSTEM
7 47 48 49 50 51 52 53
ATOM$RED        STATIC     ATOMS    COLORGROUP SYSTEM
3 26 27 46
