#       Name:                AV-unprocessed.smi:2184
#       Creating user name   scv26
#       Creation time:       Fri Mar 27 12:07:03 2020


#       File generated by GOLD software.
#

@<TRIPOS>MOLECULE
AV-unprocessed.smi:2184
    53    54     1
SMALL
NO_CHARGES


@<TRIPOS>ATOM
      1 ****        -4.1598   3.4943  -2.1955 C.3            1 S1                 0.0000
      2 ****        -4.7696   4.7713  -1.0607 S.3            1 S1                 0.0000
      3 ****        -4.1609   4.1423   0.5328 C.3            1 S1                 0.0000
      4 ****        -4.8780   4.8506   1.6929 C.3            1 S1                 0.0000
      5 ****        -2.6376   4.2728   0.6573 C.2            1 S1                 0.0000
      6 ****        -2.1223   5.3608   0.9162 O.2            1 S1                 0.0000
      7 ****        -1.9260   3.1535   0.4604 N.am           1 S1                 0.0000
      8 ****        -0.4720   3.0741   0.5250 C.3            1 S1                 0.0000
      9 ****         0.0817   1.6644   0.3754 C.ar           1 S1                 0.0000
     10 ****        -0.7129   0.5104   0.5494 C.ar           1 S1                 0.0000
     11 ****        -0.1196  -0.7573   0.4002 C.ar           1 S1                 0.0000
     12 ****         1.2563  -0.8433   0.0832 C.ar           1 S1                 0.0000
     13 ****         1.8674  -2.1054  -0.0718 N.3            1 S1                 0.0000
     14 ****         3.3255  -2.1674  -0.1096 C.3            1 S1                 0.0000
     15 ****         3.8024  -3.6179   0.0830 C.3            1 S1                 0.0000
     16 ****         5.3206  -3.7468  -0.0786 C.3            1 S1                 0.0000
     17 ****         3.1806  -4.4588  -0.8885 O.3            1 S1                 0.0000
     18 ****         1.7512  -4.4445  -0.8671 C.3            1 S1                 0.0000
     19 ****         1.1801  -5.1651   0.3673 C.3            1 S1                 0.0000
     20 ****         1.2295  -3.0034  -1.0300 C.3            1 S1                 0.0000
     21 ****         2.0199   0.2660  -0.0705 N.ar           1 S1                 0.0000
     22 ****         1.4456   1.4790   0.0721 C.ar           1 S1                 0.0000
     23 ****        -4.5048   3.7007  -3.2085 H              1 S1                 0.0000
     24 ****        -4.5278   2.5119  -1.8994 H              1 S1                 0.0000
     25 ****        -3.0702   3.4716  -2.2043 H              1 S1                 0.0000
     26 ****        -4.4245   3.0846   0.5834 H              1 S1                 0.0000
     27 ****        -4.5171   4.4965   2.6595 H              1 S1                 0.0000
     28 ****        -5.9514   4.6632   1.6571 H              1 S1                 0.0000
     29 ****        -4.7320   5.9310   1.6567 H              1 S1                 0.0000
     30 ****        -2.4240   2.3023   0.2451 H              1 S1                 0.0000
     31 ****        -0.0506   3.7039  -0.2600 H              1 S1                 0.0000
     32 ****        -0.1277   3.4772   1.4787 H              1 S1                 0.0000
     33 ****        -1.7613   0.5798   0.7991 H              1 S1                 0.0000
     34 ****        -0.7181  -1.6443   0.5450 H              1 S1                 0.0000
     35 ****         3.6761  -1.7775  -1.0663 H              1 S1                 0.0000
     36 ****         3.7511  -1.5402   0.6747 H              1 S1                 0.0000
     37 ****         3.5407  -3.9580   1.0851 H              1 S1                 0.0000
     38 ****         5.8467  -3.1261   0.6472 H              1 S1                 0.0000
     39 ****         5.6391  -3.4400  -1.0752 H              1 S1                 0.0000
     40 ****         5.6421  -4.7775   0.0717 H              1 S1                 0.0000
     41 ****         1.4295  -5.0134  -1.7398 H              1 S1                 0.0000
     42 ****         0.0965  -5.2586   0.2916 H              1 S1                 0.0000
     43 ****         1.3930  -4.6319   1.2935 H              1 S1                 0.0000
     44 ****         1.5921  -6.1705   0.4559 H              1 S1                 0.0000
     45 ****         0.1441  -2.9975  -0.9382 H              1 S1                 0.0000
     46 ****         1.4582  -2.6443  -2.0344 H              1 S1                 0.0000
     47 ****         2.0980   2.3295  -0.0605 H              1 S1                 0.0000
     48 ****        -2.6977   6.1681   1.0471 LP             1 S1                 0.0000
     49 ****        -1.1284   5.4370   0.9956 LP             1 S1                 0.0000
     50 ****         1.6640  -2.4801   0.8328 LP             1 S1                 0.0000
     51 ****         3.4847  -5.3978  -0.7275 LP             1 S1                 0.0000
     52 ****         3.4811  -4.1619  -1.7949 LP             1 S1                 0.0000
     53 ****         2.9932   0.1869  -0.2861 LP             1 S1                 0.0000
@<TRIPOS>BOND
    1    1    2 1     
    2    1   23 1     
    3    1   24 1     
    4    1   25 1     
    5    2    3 1     
    6    3    4 1     
    7    3    5 1     
    8    3   26 1     
    9    4   27 1     
   10    4   28 1     
   11    4   29 1     
   12    5    6 2     
   13    5    7 am    
   14    7    8 1     
   15    7   30 1     
   16    8    9 1     
   17    8   31 1     
   18    8   32 1     
   19    9   22 ar    
   20    9   10 ar    
   21   10   11 ar    
   22   10   33 1     
   23   11   12 ar    
   24   11   34 1     
   25   12   13 1     
   26   12   21 ar    
   27   13   20 1     
   28   13   14 1     
   29   14   15 1     
   30   14   35 1     
   31   14   36 1     
   32   15   16 1     
   33   15   17 1     
   34   15   37 1     
   35   16   38 1     
   36   16   39 1     
   37   16   40 1     
   38   17   18 1     
   39   18   19 1     
   40   18   20 1     
   41   18   41 1     
   42   19   42 1     
   43   19   43 1     
   44   19   44 1     
   45   20   45 1     
   46   20   46 1     
   47   21   22 ar    
   48   22   47 1     
   49    6   48 1     
   50    6   49 1     
   51   13   50 1     
   52   17   51 1     
   53   17   52 1     
   54   21   53 1     
@<TRIPOS>SUBSTRUCTURE
      1 S1             1
@<TRIPOS>SET
LONE_PAIRS      STATIC     ATOMS    <user>   **** ""
6 48 49 50 51 52 53
DONOR_HYDROGENS      STATIC     ATOMS    <user>   **** ""
1 30
ATOM$BLUE        STATIC     ATOMS    COLORGROUP SYSTEM
6 48 49 50 51 52 53
ATOM$RED        STATIC     ATOMS    COLORGROUP SYSTEM
1 30
