AV-unprocessed.smi:2136|AV-procd|sdf|8702|dock6
  -GOLD-   2272011463D 1   1.00000     0.00000
 Structure written by MMmdl.
 42 43  0  0  0  0  0  0  0  0  1 V2000
  145.7588  144.1233  159.1475 C   0  0  0  0  0  0  0  0  0  0  0  0
  146.7443  142.5926  158.8728 S   0  0  0  0  0  0  0  0  0  0  0  0
  148.0918  142.7777  159.4327 O   0  0  0  0  0  0  0  0  0  0  0  0
  145.9198  141.4664  159.3374 O   0  0  0  0  0  0  0  0  0  0  0  0
  146.8664  142.4929  157.1285 N   0  0  0  0  0  0  0  0  0  0  0  0
  145.6064  142.7002  156.3743 C   0  0  0  0  0  0  0  0  0  0  0  0
  145.8306  142.9996  154.8864 C   0  0  0  0  0  0  0  0  0  0  0  0
  146.7083  141.9341  154.2403 C   0  0  0  0  0  0  0  0  0  0  0  0
  148.0435  141.9089  154.9785 C   0  0  0  0  0  0  0  0  0  0  0  0
  147.8757  141.5928  156.4847 C   0  0  1  0  0  0  0  0  0  0  0  0
  149.2718  141.5737  157.1321 C   0  0  0  0  0  0  0  0  0  0  0  0
  149.6491  140.5900  157.7698 O   0  0  0  0  0  0  0  0  0  0  0  0
  150.0302  142.6672  156.9569 N   0  0  0  0  0  0  0  0  0  0  0  0
  151.3925  142.8324  157.4467 C   0  0  0  0  0  0  0  0  0  0  0  0
  151.4628  143.8850  158.5649 C   0  0  0  0  0  0  0  0  0  0  0  0
  152.1437  143.3507  159.8093 C   0  0  0  0  0  0  0  0  0  0  0  0
  152.9831  142.2191  159.7499 C   0  0  0  0  0  0  0  0  0  0  0  0
  153.5965  141.7674  160.9343 C   0  0  0  0  0  0  0  0  0  0  0  0
  153.3432  142.4683  162.1306 C   0  0  0  0  0  0  0  0  0  0  0  0
  152.5401  143.5520  162.1990 N   0  0  0  0  0  0  0  0  0  0  0  0
  151.9559  143.9788  161.0587 C   0  0  0  0  0  0  0  0  0  0  0  0
  145.5112  144.2044  160.2055 H   0  0  0  0  0  0  0  0  0  0  0  0
  144.8389  144.0727  158.5658 H   0  0  0  0  0  0  0  0  0  0  0  0
  146.3267  145.0022  158.8531 H   0  0  0  0  0  0  0  0  0  0  0  0
  144.9836  141.8121  156.4887 H   0  0  0  0  0  0  0  0  0  0  0  0
  145.0518  143.5338  156.8043 H   0  0  0  0  0  0  0  0  0  0  0  0
  144.8701  143.0525  154.3728 H   0  0  0  0  0  0  0  0  0  0  0  0
  146.2948  143.9803  154.7737 H   0  0  0  0  0  0  0  0  0  0  0  0
  146.2254  140.9574  154.2913 H   0  0  0  0  0  0  0  0  0  0  0  0
  146.8628  142.1601  153.1849 H   0  0  0  0  0  0  0  0  0  0  0  0
  148.6954  141.1689  154.5118 H   0  0  0  0  0  0  0  0  0  0  0  0
  148.5355  142.8743  154.8458 H   0  0  0  0  0  0  0  0  0  0  0  0
  147.4724  140.5810  156.5569 H   0  0  0  0  0  0  0  0  0  0  0  0
  149.6449  143.4284  156.4166 H   0  0  0  0  0  0  0  0  0  0  0  0
  151.7344  141.8680  157.8236 H   0  0  0  0  0  0  0  0  0  0  0  0
  152.0578  143.0987  156.6236 H   0  0  0  0  0  0  0  0  0  0  0  0
  152.0093  144.7645  158.2231 H   0  0  0  0  0  0  0  0  0  0  0  0
  150.4594  144.2276  158.8219 H   0  0  0  0  0  0  0  0  0  0  0  0
  153.1558  141.7060  158.8151 H   0  0  0  0  0  0  0  0  0  0  0  0
  154.2463  140.9049  160.9273 H   0  0  0  0  0  0  0  0  0  0  0  0
  153.7971  142.1494  163.0572 H   0  0  0  0  0  0  0  0  0  0  0  0
  151.3222  144.8492  161.1453 H   0  0  0  0  0  0  0  0  0  0  0  0
  1  2  1  0  0  0  0
  1 22  1  0  0  0  0
  1 23  1  0  0  0  0
  1 24  1  0  0  0  0
  2  3  2  0  0  0  0
  2  4  2  0  0  0  0
  2  5  1  0  0  0  0
  5 10  1  0  0  0  0
  5  6  1  0  0  0  0
  6  7  1  0  0  0  0
  6 25  1  0  0  0  0
  6 26  1  0  0  0  0
  7  8  1  0  0  0  0
  7 27  1  0  0  0  0
  7 28  1  0  0  0  0
  8  9  1  0  0  0  0
  8 29  1  0  0  0  0
  8 30  1  0  0  0  0
  9 10  1  0  0  0  0
  9 31  1  0  0  0  0
  9 32  1  0  0  0  0
 10 11  1  0  0  0  0
 10 33  1  0  0  0  0
 11 12  2  0  0  0  0
 11 13  1  0  0  0  0
 13 14  1  0  0  0  0
 13 34  1  0  0  0  0
 14 15  1  0  0  0  0
 14 35  1  0  0  0  0
 14 36  1  0  0  0  0
 15 16  1  0  0  0  0
 15 37  1  0  0  0  0
 15 38  1  0  0  0  0
 16 21  1  0  0  0  0
 16 17  2  0  0  0  0
 17 18  1  0  0  0  0
 17 39  1  0  0  0  0
 18 19  2  0  0  0  0
 18 40  1  0  0  0  0
 19 20  1  0  0  0  0
 19 41  1  0  0  0  0
 20 21  2  0  0  0  0
 21 42  1  0  0  0  0
M  END
> <s_m_source_file>
AV-unprocessed.smi

> <i_m_source_file_index>
2136

> <i_lp_mmshare_version>
43012

> <i_f3d_flags>
0

> <s_epik_input>
W0NIM11TKD1PKSg9TylOMVtDSDJdW0NIMl1bQ0gyXVtDSDJdW0NASF0xQyg9TylbTkhdW0NIMl1bQ0gyXWMyW2NIXVtjSF1bY0hdbltjSF0y

> <s_epik_cmdline>
J2VwaWtfcHl0aG9uJywgJy1waCcsICc3LjAnLCAnLXRuJywgJzgnLCAnLW1hJywgJzIwMCcsICctbWV0YWxfYmluZGluZycsICctaW1hZScsICc8aW5maWxlLm1hZT4nLCAnLW9tYWUnLCAnPG91dGZpbGUubWFlPic=

> <r_epik_Ionization_Penalty>
0.0126915

> <r_epik_Ionization_Penalty_Charging>
0

> <r_epik_Ionization_Penalty_Neutral>
0.0126915

> <r_epik_State_Penalty>
0.0098379

> <r_epik_Charging_Adjusted_Penalty>
0.0098379

> <i_epik_Tot_Q>
0

> <i_epik_Tot_abs_Q>
0

> <r_epik_Metal_State_Penalty>
0.00962913

> <b_epik_Metal_Only>
0

> <s_lp_Force_Field>
OPLS_2005

> <r_lp_Energy>
4.41633

> <b_lp_Chiralities_Consistent>
1

> <s_lp_Variant>
AV-unprocessed.smi:2136-1

> <Gold.Version>
5.8.1

> <Gold.Id.Protein>
6NUR|6NUR_protein|mol2

> <Gold.PLP.Fitness>
49.2258

> <Gold.PLP.PLP>
-43.7022

> <Gold.PLP.part.hbond>
-3.1071

> <Gold.PLP.part.metal>
0.0000

> <Gold.PLP.part.buried>
-4.4243

> <Gold.PLP.part.nonpolar>
-35.3590

> <Gold.PLP.part.repulsive>
0.3050

> <Gold.PLP.ligand.clash>
0.0000

> <Gold.PLP.ligand.torsion>
1.9794

> <Gold.PLP.Chemscore.Hbond>
2.4618

> <Gold.PLP.Chemscore.CHOScore>
0.0000

> <Gold.PLP.Chemscore.Metal>
0.0000

> <Gold.Chemscore.Hbonds>
donor molecule, donor type, donor heavy atom, donor atom, acceptor molecule, acceptor atom, score
      L1  H    13    34       P1  8028  1.00
      P1  H  6933  6944       L1     3  0.46
      P1  H  6934  6946       L1     4  0.91

> <Gold.PLP.Chemscore.Internal.Correction>
2.0972

> <Gold.Rescore>
     Score         DG    S(hbond)    S(metal)    S(lipo)     H(rot)  DE(clash)    DE(int)     intcor
     17.75     -21.26       2.27        0.00     104.23       1.56       0.18       3.32       ----

> <Gold.Chemscore.Fitness>
17.7484

> <Gold.Chemscore.DG>
-21.2558

> <Gold.Chemscore.ZeroCoef>
-5.4800

> <Gold.Chemscore.Hbond>
2.2710

> <Gold.Chemscore.Metal>
0.0000

> <Gold.Chemscore.Lipo>
104.2341

> <Gold.Chemscore.Internal_Hbond>
0.0000

> <Gold.Chemscore.DEClash>
0.1830

> <Gold.Chemscore.DEInternal>
3.3244

> <Gold.Chemscore.Rot>
1.5643

> <Gold.Chemscore.Internal.Correction>
   9.000000E+99

> <Gold.Chemscore.Hbonds>
donor molecule, donor type, donor heavy atom, donor atom, acceptor molecule, acceptor atom, score
      L1  H    13    34       P1  8028  1.00
      P1  H  6933  6944       L1     3  0.45
      P1  H  6934  6946       L1     4  0.31

> <Gold.Chemscore.Hbond.Weighted>
-7.5850

> <Gold.Chemscore.Metal.Weighted>
-0.0000

> <Gold.Chemscore.Lipo.Weighted>
-12.1954

> <Gold.Chemscore.Internal_Hbond.Weighted>
0.0000

> <Gold.Chemscore.DEClash.Weighted>
0.1830

> <Gold.Chemscore.DEInternal.Weighted>
3.3244

> <Gold.Chemscore.Rot.Weighted>
4.0046

> <Gold.Chemscore.Internal.Correction.Weighted>
   9.000000E+99

> <Gold.Protein.RotatedTorsions>
[ 6907 6896 6895 6894 ] final  156.48 input  -60.11 | X-H torsion
[ 7974 7965 7964 7962 ] final   38.09 input  175.53 | X-H torsion
[ 8008 7997 7996 7995 ] final   -1.12 input   59.86 | X-H torsion
[ 10167 10162 10161 10158 ] final  -95.64 input  -65.29 | X-H torsion
[ 10718 10713 10712 10709 ] final   29.96 input   66.30 | X-H torsion
[ 10763 10752 10751 10750 ] final -106.22 input  -60.55 | X-H torsion
[ 11005 11000 10999 10996 ] final    3.95 input  -57.11 | X-H torsion

> <Gold.Protein.ActiveResidues>
 VAL166  LYS551  ARG553  GLY616  TRP617  ASP618  TYR619  PRO620  LYS621  CYS622 
 ASP623  PHE694  ASN695  SER759  ASP760  ASP761  ALA762  ILE779  LEU786  VAL792 
 PHE793  MET794  SER795  GLU796  ALA797  LYS798  CYS799  TRP800  GLU811  SER814 

> <Gold.Protein.RotatedAtoms>
  152.0290  133.3929  159.4289 H   0  0  0  0  0  0  0  0  0  0  0  0  # atno 6907 bound_to 6896
  150.6884  134.3542  159.4931 H   0  0  0  0  0  0  0  0  0  0  0  0  # atno 6908 bound_to 6896
  152.1325  134.9123  160.0608 H   0  0  0  0  0  0  0  0  0  0  0  0  # atno 6909 bound_to 6896
  146.1088  139.5814  142.9366 H   0  0  0  0  0  0  0  0  0  0  0  0  # atno 7974 bound_to 7965
  154.6504  140.2567  155.7220 H   0  0  0  0  0  0  0  0  0  0  0  0  # atno 8008 bound_to 7997
  156.2572  140.2869  156.0856 H   0  0  0  0  0  0  0  0  0  0  0  0  # atno 8009 bound_to 7997
  155.1460  140.0381  157.2800 H   0  0  0  0  0  0  0  0  0  0  0  0  # atno 8010 bound_to 7997
  140.3021  143.3156  152.0237 H   0  0  0  0  0  0  0  0  0  0  0  0  # atno 10167 bound_to 10162
  157.2533  130.7126  149.6416 H   0  0  0  0  0  0  0  0  0  0  0  0  # atno 10718 bound_to 10713
  154.7998  135.4720  154.0249 H   0  0  0  0  0  0  0  0  0  0  0  0  # atno 10763 bound_to 10752
  153.1763  135.6833  153.8546 H   0  0  0  0  0  0  0  0  0  0  0  0  # atno 10764 bound_to 10752
  153.8111  135.3217  155.3378 H   0  0  0  0  0  0  0  0  0  0  0  0  # atno 10765 bound_to 10752
  140.5874  133.9956  155.8073 H   0  0  0  0  0  0  0  0  0  0  0  0  # atno 11005 bound_to 11000
  145.5706  141.0394  143.2176 LP  0  0  0  0  0  0  0  0  0  0  0  0  # atno 17320 bound_to 7965
  144.7494  139.7235  143.7279 LP  0  0  0  0  0  0  0  0  0  0  0  0  # atno 17321 bound_to 7965
  139.4912  144.6448  151.6801 LP  0  0  0  0  0  0  0  0  0  0  0  0  # atno 17342 bound_to 10162
  140.5642  144.0218  150.6184 LP  0  0  0  0  0  0  0  0  0  0  0  0  # atno 17343 bound_to 10162
  155.9665  130.4420  150.5365 LP  0  0  0  0  0  0  0  0  0  0  0  0  # atno 17370 bound_to 10713
  157.3254  131.0689  151.1901 LP  0  0  0  0  0  0  0  0  0  0  0  0  # atno 17371 bound_to 10713
  141.0957  133.9847  157.3164 LP  0  0  0  0  0  0  0  0  0  0  0  0  # atno 17394 bound_to 11000
  139.9290  135.0200  156.8333 LP  0  0  0  0  0  0  0  0  0  0  0  0  # atno 17395 bound_to 11000

$$$$
