AV-unprocessed.smi:1236|AV-procd|sdf|5182|dock5
  -GOLD-   22720 4263D 1   1.00000     0.00000
 Structure written by MMmdl.
 40 41  0  0  0  0  0  0  0  0  2 V2000
  147.5312  137.9445  155.3024 C   0  0  0  0  0  0  0  0  0  0  0  0
  146.6531  138.1773  154.0655 C   0  0  1  0  0  0  0  0  0  0  0  0
  146.9790  139.5324  153.3946 C   0  0  0  0  0  0  0  0  0  0  0  0
  146.1823  140.6603  153.9410 N   0  3  0  0  0  0  0  0  0  0  0  0
  145.9152  140.5477  155.3952 C   0  0  0  0  0  0  0  0  0  0  0  0
  145.0109  141.7022  155.8564 C   0  0  0  0  0  0  0  0  0  0  0  0
  145.6329  142.9434  155.5457 O   0  0  0  0  0  0  0  0  0  0  0  0
  145.8339  143.1042  154.1465 C   0  0  0  0  0  0  0  0  0  0  0  0
  146.7545  141.9887  153.6214 C   0  0  0  0  0  0  0  0  0  0  0  0
  146.8357  137.0608  153.1364 N   0  0  0  0  0  0  0  0  0  0  0  0
  145.8958  136.1727  152.7775 C   0  0  0  0  0  0  0  0  0  0  0  0
  144.7344  136.2154  153.1841 O   0  0  0  0  0  0  0  0  0  0  0  0
  146.3870  135.2600  151.9212 N   0  0  0  0  0  0  0  0  0  0  0  0
  145.6926  134.2017  151.2766 C   0  0  0  0  0  0  0  0  0  0  0  0
  146.5139  133.2604  150.6160 C   0  0  0  0  0  0  0  0  0  0  0  0
  145.9204  132.1741  149.9437 C   0  0  0  0  0  0  0  0  0  0  0  0
  144.5190  132.0580  149.9483 C   0  0  0  0  0  0  0  0  0  0  0  0
  143.7745  133.0393  150.6286 C   0  0  0  0  0  0  0  0  0  0  0  0
  144.3412  134.0816  151.2727 N   0  0  0  0  0  0  0  0  0  0  0  0
  147.3928  138.7388  156.0367 H   0  0  0  0  0  0  0  0  0  0  0  0
  148.5895  137.9155  155.0410 H   0  0  0  0  0  0  0  0  0  0  0  0
  147.2823  137.0011  155.7898 H   0  0  0  0  0  0  0  0  0  0  0  0
  145.6189  138.1871  154.4122 H   0  0  0  0  0  0  0  0  0  0  0  0
  148.0422  139.7617  153.4818 H   0  0  0  0  0  0  0  0  0  0  0  0
  146.7776  139.4374  152.3264 H   0  0  0  0  0  0  0  0  0  0  0  0
  145.4331  139.5973  155.6220 H   0  0  0  0  0  0  0  0  0  0  0  0
  146.8570  140.5675  155.9460 H   0  0  0  0  0  0  0  0  0  0  0  0
  144.0295  141.6418  155.3826 H   0  0  0  0  0  0  0  0  0  0  0  0
  144.8491  141.6470  156.9330 H   0  0  0  0  0  0  0  0  0  0  0  0
  144.8746  143.0941  153.6262 H   0  0  0  0  0  0  0  0  0  0  0  0
  146.2848  144.0799  153.9648 H   0  0  0  0  0  0  0  0  0  0  0  0
  147.7468  142.0776  154.0660 H   0  0  0  0  0  0  0  0  0  0  0  0
  146.8735  142.0927  152.5421 H   0  0  0  0  0  0  0  0  0  0  0  0
  147.7618  136.9456  152.7509 H   0  0  0  0  0  0  0  0  0  0  0  0
  147.3670  135.3376  151.6923 H   0  0  0  0  0  0  0  0  0  0  0  0
  147.5893  133.3639  150.6220 H   0  0  0  0  0  0  0  0  0  0  0  0
  146.5310  131.4435  149.4339 H   0  0  0  0  0  0  0  0  0  0  0  0
  144.0276  131.2390  149.4440 H   0  0  0  0  0  0  0  0  0  0  0  0
  142.6960  132.9879  150.6558 H   0  0  0  0  0  0  0  0  0  0  0  0
  145.2852  140.6221  153.4778 H   0  0  0  0  0  0  0  0  0  0  0  0
  1  2  1  0  0  0  0
  1 20  1  0  0  0  0
  1 21  1  0  0  0  0
  1 22  1  0  0  0  0
  2  3  1  0  0  0  0
  2 10  1  0  0  0  0
  2 23  1  0  0  0  0
  3  4  1  0  0  0  0
  3 24  1  0  0  0  0
  3 25  1  0  0  0  0
  4  9  1  0  0  0  0
  4  5  1  0  0  0  0
  4 40  1  0  0  0  0
  5  6  1  0  0  0  0
  5 26  1  0  0  0  0
  5 27  1  0  0  0  0
  6  7  1  0  0  0  0
  6 28  1  0  0  0  0
  6 29  1  0  0  0  0
  7  8  1  0  0  0  0
  8  9  1  0  0  0  0
  8 30  1  0  0  0  0
  8 31  1  0  0  0  0
  9 32  1  0  0  0  0
  9 33  1  0  0  0  0
 10 11  1  0  0  0  0
 10 34  1  0  0  0  0
 11 12  2  0  0  0  0
 11 13  1  0  0  0  0
 13 14  1  0  0  0  0
 13 35  1  0  0  0  0
 14 19  1  0  0  0  0
 14 15  2  0  0  0  0
 15 16  1  0  0  0  0
 15 36  1  0  0  0  0
 16 17  2  0  0  0  0
 16 37  1  0  0  0  0
 17 18  1  0  0  0  0
 17 38  1  0  0  0  0
 18 19  2  0  0  0  0
 18 39  1  0  0  0  0
M  CHG  1   4   1
M  END
> <s_m_source_file>
AV-unprocessed.smi

> <i_m_source_file_index>
1236

> <i_lp_mmshare_version>
43012

> <i_f3d_flags>
0

> <s_epik_input>
W0NIMl0xW0NIMl1PW0NIMl1bQ0gyXU4xW0NIMl1bQ0BASF0oW0NIM10pW05IXUMoPU8pW05IXWMyW2NIXVtjSF1bY0hdW2NIXW4y

> <s_epik_cmdline>
J2VwaWtfcHl0aG9uJywgJy1waCcsICc3LjAnLCAnLXRuJywgJzgnLCAnLW1hJywgJzIwMCcsICctbWV0YWxfYmluZGluZycsICctaW1hZScsICc8aW5maWxlLm1hZT4nLCAnLW9tYWUnLCAnPG91dGZpbGUubWFlPic=

> <r_epik_Ionization_Penalty>
0.602564

> <r_epik_Ionization_Penalty_Charging>
0.602531

> <r_epik_Ionization_Penalty_Neutral>
3.36306e-05

> <r_epik_State_Penalty>
0.617039

> <r_epik_Charging_Adjusted_Penalty>
1.21957

> <i_epik_Tot_Q>
1

> <i_epik_Tot_abs_Q>
1

> <r_epik_Metal_State_Penalty>
0.617041

> <b_epik_Metal_Only>
0

> <s_lp_Force_Field>
OPLS_2005

> <r_lp_Energy>
24.274

> <b_lp_Chiralities_Consistent>
1

> <s_lp_Variant>
AV-unprocessed.smi:1236-4

> <Gold.Version>
5.8.1

> <Gold.Id.Protein>
6NUR|6NUR_protein|mol2

> <Gold.PLP.Fitness>
44.2577

> <Gold.PLP.PLP>
-30.4723

> <Gold.PLP.part.hbond>
-3.0000

> <Gold.PLP.part.metal>
0.0000

> <Gold.PLP.part.buried>
-5.5709

> <Gold.PLP.part.nonpolar>
-22.3616

> <Gold.PLP.part.repulsive>
0.4831

> <Gold.PLP.ligand.clash>
0.0000

> <Gold.PLP.ligand.torsion>
0.6213

> <Gold.PLP.Chemscore.Hbond>
4.0000

> <Gold.PLP.Chemscore.CHOScore>
1.0000

> <Gold.PLP.Chemscore.Metal>
0.0000

> <Gold.Chemscore.Hbonds>
donor molecule, donor type, donor heavy atom, donor atom, acceptor molecule, acceptor atom, score
      L1  H     4    40       P1 10175  2.00
      L1  H    10    34       P1  7948  1.00
      L1  H    13    35       P1  7948  1.00
      L1  C    18    39       P1 10186  1.00

> <Gold.PLP.Chemscore.Internal.Correction>
0.0281

> <Gold.Rescore>
     Score         DG    S(hbond)    S(metal)    S(lipo)     H(rot)  DE(clash)    DE(int)     intcor
     17.13     -18.99       2.94        0.00      65.74       1.56       0.00       1.86       ----

> <Gold.Chemscore.Fitness>
17.1305

> <Gold.Chemscore.DG>
-18.9946

> <Gold.Chemscore.ZeroCoef>
-5.4800

> <Gold.Chemscore.Hbond>
2.9380

> <Gold.Chemscore.Metal>
0.0000

> <Gold.Chemscore.Lipo>
65.7390

> <Gold.Chemscore.Internal_Hbond>
0.0000

> <Gold.Chemscore.DEClash>
0.0038

> <Gold.Chemscore.DEInternal>
1.8604

> <Gold.Chemscore.Rot>
1.5584

> <Gold.Chemscore.Internal.Correction>
   9.000000E+99

> <Gold.Chemscore.Hbonds>
donor molecule, donor type, donor heavy atom, donor atom, acceptor molecule, acceptor atom, score
      L1  H     4    40       P1 10175  0.94
      L1  H    10    34       P1  7948  0.99
      L1  H    13    35       P1  7948  0.91

> <Gold.Chemscore.Hbond.Weighted>
-9.8128

> <Gold.Chemscore.Metal.Weighted>
-0.0000

> <Gold.Chemscore.Lipo.Weighted>
-7.6915

> <Gold.Chemscore.Internal_Hbond.Weighted>
0.0000

> <Gold.Chemscore.DEClash.Weighted>
0.0038

> <Gold.Chemscore.DEInternal.Weighted>
1.8604

> <Gold.Chemscore.Rot.Weighted>
3.9896

> <Gold.Chemscore.Internal.Correction.Weighted>
   9.000000E+99

> <Gold.Protein.RotatedTorsions>
[ 6907 6896 6895 6894 ] final -164.01 input  -60.11 | X-H torsion
[ 7974 7965 7964 7962 ] final   59.40 input  175.53 | X-H torsion
[ 8008 7997 7996 7995 ] final   72.26 input   59.86 | X-H torsion
[ 10167 10162 10161 10158 ] final  -61.81 input  -65.29 | X-H torsion
[ 10718 10713 10712 10709 ] final  -45.76 input   66.30 | X-H torsion
[ 10763 10752 10751 10750 ] final -136.31 input  -60.55 | X-H torsion
[ 11005 11000 10999 10996 ] final -119.80 input  -57.11 | X-H torsion

> <Gold.Protein.ActiveResidues>
 VAL166  LYS551  ARG553  GLY616  TRP617  ASP618  TYR619  PRO620  LYS621  CYS622 
 ASP623  PHE694  ASN695  SER759  ASP760  ASP761  ALA762  ILE779  LEU786  VAL792 
 PHE793  MET794  SER795  GLU796  ALA797  LYS798  CYS799  TRP800  GLU811  SER814 

> <Gold.Protein.RotatedAtoms>
  151.4051  133.3745  159.2736 H   0  0  0  0  0  0  0  0  0  0  0  0  # atno 6907 bound_to 6896
  150.9405  134.8815  159.7619 H   0  0  0  0  0  0  0  0  0  0  0  0  # atno 6908 bound_to 6896
  152.5069  134.4001  159.9465 H   0  0  0  0  0  0  0  0  0  0  0  0  # atno 6909 bound_to 6896
  145.9075  139.3629  143.0555 H   0  0  0  0  0  0  0  0  0  0  0  0  # atno 7974 bound_to 7965
  155.7662  140.3485  155.5223 H   0  0  0  0  0  0  0  0  0  0  0  0  # atno 8008 bound_to 7997
  155.8866  140.1011  157.1469 H   0  0  0  0  0  0  0  0  0  0  0  0  # atno 8009 bound_to 7997
  154.4029  140.1312  156.4250 H   0  0  0  0  0  0  0  0  0  0  0  0  # atno 8010 bound_to 7997
  140.5981  143.2355  151.5990 H   0  0  0  0  0  0  0  0  0  0  0  0  # atno 10167 bound_to 10162
  156.2251  130.4169  149.8944 H   0  0  0  0  0  0  0  0  0  0  0  0  # atno 10718 bound_to 10713
  154.8686  135.3676  154.5040 H   0  0  0  0  0  0  0  0  0  0  0  0  # atno 10763 bound_to 10752
  153.5679  135.7021  153.5522 H   0  0  0  0  0  0  0  0  0  0  0  0  # atno 10764 bound_to 10752
  153.3568  135.4057  155.1651 H   0  0  0  0  0  0  0  0  0  0  0  0  # atno 10765 bound_to 10752
  141.0190  134.0153  157.3310 H   0  0  0  0  0  0  0  0  0  0  0  0  # atno 11005 bound_to 11000
  145.8713  140.9418  143.0649 LP  0  0  0  0  0  0  0  0  0  0  0  0  # atno 17320 bound_to 7965
  144.6740  140.0658  143.7474 LP  0  0  0  0  0  0  0  0  0  0  0  0  # atno 17321 bound_to 7965
  139.5272  144.3023  152.1063 LP  0  0  0  0  0  0  0  0  0  0  0  0  # atno 17342 bound_to 10162
  140.2199  144.4476  150.6346 LP  0  0  0  0  0  0  0  0  0  0  0  0  # atno 17343 bound_to 10162
  156.6577  130.8769  151.3542 LP  0  0  0  0  0  0  0  0  0  0  0  0  # atno 17370 bound_to 10713
  157.7106  130.9436  150.1078 LP  0  0  0  0  0  0  0  0  0  0  0  0  # atno 17371 bound_to 10713
  139.9134  135.0193  156.7785 LP  0  0  0  0  0  0  0  0  0  0  0  0  # atno 17394 bound_to 11000
  140.6606  133.9649  155.7803 LP  0  0  0  0  0  0  0  0  0  0  0  0  # atno 17395 bound_to 11000

$$$$
