AV-unprocessed.smi:1230|AV-procd|sdf|5152|dock7
  -GOLD-   22720 4223D 1   1.00000     0.00000
 Structure written by MMmdl.
 38 39  0  0  0  0  0  0  0  0  2 V2000
  152.0384  145.0268  158.3658 C   0  0  0  0  0  0  0  0  0  0  0  0
  151.8717  144.1006  159.5816 C   0  0  2  0  0  0  0  0  0  0  0  0
  152.2015  144.8524  160.8871 C   0  0  0  0  0  0  0  0  0  0  0  0
  152.0503  143.9484  162.1199 C   0  0  0  0  0  0  0  0  0  0  0  0
  152.9187  142.6896  161.9897 C   0  0  0  0  0  0  0  0  0  0  0  0
  152.5897  141.9270  160.6985 C   0  0  0  0  0  0  0  0  0  0  0  0
  152.7366  142.8265  159.4525 C   0  0  1  0  0  0  0  0  0  0  0  0
  152.2885  142.1028  158.3155 O   0  0  0  0  0  0  0  0  0  0  0  0
  150.8942  141.8336  158.3037 C   0  0  0  0  0  0  0  0  0  0  0  0
  150.4566  141.5662  156.8563 C   0  0  0  0  0  0  0  0  0  0  0  0
  150.7585  140.1835  156.4608 N   0  0  0  0  0  0  0  0  0  0  0  0
  151.1875  139.3006  157.4664 C   0  0  0  0  0  0  0  0  0  0  0  0
  151.5157  138.0240  157.1929 C   0  0  0  0  0  0  0  0  0  0  0  0
  151.9641  137.1120  158.1930 C   0  0  0  0  0  0  0  0  0  0  0  0
  152.3000  136.3738  159.0196 N   0  0  0  0  0  0  0  0  0  0  0  0
  151.4164  137.5561  155.8126 C   0  0  0  0  0  0  0  0  0  0  0  0
  151.7033  136.3924  155.5347 O   0  0  0  0  0  0  0  0  0  0  0  0
  151.0006  138.4577  154.8750 N   0  5  0  0  0  0  0  0  0  0  0  0
  150.6777  139.7571  155.1646 C   0  0  0  0  0  0  0  0  0  0  0  0
  150.3210  140.5548  154.2971 O   0  0  0  0  0  0  0  0  0  0  0  0
  153.0717  145.3580  158.2589 H   0  0  0  0  0  0  0  0  0  0  0  0
  151.4128  145.9145  158.4603 H   0  0  0  0  0  0  0  0  0  0  0  0
  151.7531  144.5240  157.4415 H   0  0  0  0  0  0  0  0  0  0  0  0
  150.8248  143.7961  159.6264 H   0  0  0  0  0  0  0  0  0  0  0  0
  153.2219  145.2360  160.8434 H   0  0  0  0  0  0  0  0  0  0  0  0
  151.5506  145.7211  160.9917 H   0  0  0  0  0  0  0  0  0  0  0  0
  152.3245  144.4977  163.0209 H   0  0  0  0  0  0  0  0  0  0  0  0
  151.0047  143.6612  162.2379 H   0  0  0  0  0  0  0  0  0  0  0  0
  153.9733  142.9683  161.9925 H   0  0  0  0  0  0  0  0  0  0  0  0
  152.7662  142.0413  162.8530 H   0  0  0  0  0  0  0  0  0  0  0  0
  153.2362  141.0531  160.6213 H   0  0  0  0  0  0  0  0  0  0  0  0
  151.5691  141.5460  160.7534 H   0  0  0  0  0  0  0  0  0  0  0  0
  153.7802  143.1235  159.3279 H   0  0  0  0  0  0  0  0  0  0  0  0
  150.6964  140.9604  158.9263 H   0  0  0  0  0  0  0  0  0  0  0  0
  150.3185  142.6604  158.7208 H   0  0  0  0  0  0  0  0  0  0  0  0
  149.3909  141.7723  156.7471 H   0  0  0  0  0  0  0  0  0  0  0  0
  150.9526  142.2687  156.1850 H   0  0  0  0  0  0  0  0  0  0  0  0
  151.2434  139.7257  158.4580 H   0  0  0  0  0  0  0  0  0  0  0  0
  1  2  1  0  0  0  0
  1 21  1  0  0  0  0
  1 22  1  0  0  0  0
  1 23  1  0  0  0  0
  2  7  1  0  0  0  0
  2  3  1  0  0  0  0
  2 24  1  0  0  0  0
  3  4  1  0  0  0  0
  3 25  1  0  0  0  0
  3 26  1  0  0  0  0
  4  5  1  0  0  0  0
  4 27  1  0  0  0  0
  4 28  1  0  0  0  0
  5  6  1  0  0  0  0
  5 29  1  0  0  0  0
  5 30  1  0  0  0  0
  6  7  1  0  0  0  0
  6 31  1  0  0  0  0
  6 32  1  0  0  0  0
  7  8  1  0  0  0  0
  7 33  1  0  0  0  0
  8  9  1  0  0  0  0
  9 10  1  0  0  0  0
  9 34  1  0  0  0  0
  9 35  1  0  0  0  0
 10 11  1  0  0  0  0
 10 36  1  0  0  0  0
 10 37  1  0  0  0  0
 11 19  1  0  0  0  0
 11 12  1  0  0  0  0
 12 13  2  0  0  0  0
 12 38  1  0  0  0  0
 13 14  1  0  0  0  0
 13 16  1  0  0  0  0
 14 15  3  0  0  0  0
 16 17  2  0  0  0  0
 16 18  1  0  0  0  0
 18 19  1  0  0  0  0
 19 20  2  0  0  0  0
M  CHG  1  18  -1
M  END
> <s_m_source_file>
AV-unprocessed.smi

> <i_m_source_file_index>
1230

> <i_lp_mmshare_version>
43012

> <i_f3d_flags>
0

> <s_epik_input>
W0NIM11bQ0BASF0xW0NIMl1bQ0gyXVtDSDJdW0NIMl1bQ0BIXTFPW0NIMl1bQ0gyXW4yW2NIXWMoQyNOKWMoPU8pW25IXWMyPU8=

> <s_epik_cmdline>
J2VwaWtfcHl0aG9uJywgJy1waCcsICc3LjAnLCAnLXRuJywgJzgnLCAnLW1hJywgJzIwMCcsICctbWV0YWxfYmluZGluZycsICctaW1hZScsICc8aW5maWxlLm1hZT4nLCAnLW9tYWUnLCAnPG91dGZpbGUubWFlPic=

> <r_epik_Ionization_Penalty>
0.400014

> <r_epik_Ionization_Penalty_Charging>
4.81474e-10

> <r_epik_Ionization_Penalty_Neutral>
0.400014

> <r_epik_State_Penalty>
0.399305

> <r_epik_Charging_Adjusted_Penalty>
0.399305

> <i_epik_Tot_Q>
-1

> <i_epik_Tot_abs_Q>
1

> <r_epik_Metal_State_Penalty>
0.00056968

> <b_epik_Metal_Only>
0

> <s_lp_Force_Field>
OPLS_2005

> <r_lp_Energy>
24.1099

> <b_lp_Chiralities_Consistent>
1

> <s_lp_Variant>
AV-unprocessed.smi:1230-1

> <Gold.Version>
5.8.1

> <Gold.Id.Protein>
6NUR|6NUR_protein|mol2

> <Gold.PLP.Fitness>
45.5914

> <Gold.PLP.PLP>
-40.6408

> <Gold.PLP.part.hbond>
-2.8151

> <Gold.PLP.part.metal>
0.0000

> <Gold.PLP.part.buried>
-5.0949

> <Gold.PLP.part.nonpolar>
-34.0369

> <Gold.PLP.part.repulsive>
0.3043

> <Gold.PLP.ligand.clash>
2.3782

> <Gold.PLP.ligand.torsion>
0.3371

> <Gold.PLP.Chemscore.Hbond>
2.6640

> <Gold.PLP.Chemscore.CHOScore>
0.0000

> <Gold.PLP.Chemscore.Metal>
0.0000

> <Gold.Chemscore.Hbonds>
donor molecule, donor type, donor heavy atom, donor atom, acceptor molecule, acceptor atom, score
      P1  H  6896  6907       L1    15  0.66
      P1  H  7989  7998       L1    20  0.88
      P1  H 10752 10765       L1    17  1.00

> <Gold.PLP.Chemscore.Internal.Correction>
0.0111

> <Gold.Rescore>
     Score         DG    S(hbond)    S(metal)    S(lipo)     H(rot)  DE(clash)    DE(int)     intcor
     20.76     -21.55       2.59        0.00     105.03       1.90       0.44       0.35       ----

> <Gold.Chemscore.Fitness>
20.7583

> <Gold.Chemscore.DG>
-21.5457

> <Gold.Chemscore.ZeroCoef>
-5.4800

> <Gold.Chemscore.Hbond>
2.5860

> <Gold.Chemscore.Metal>
0.0000

> <Gold.Chemscore.Lipo>
105.0279

> <Gold.Chemscore.Internal_Hbond>
0.0000

> <Gold.Chemscore.DEClash>
0.4412

> <Gold.Chemscore.DEInternal>
0.3462

> <Gold.Chemscore.Rot>
1.8984

> <Gold.Chemscore.Internal.Correction>
   9.000000E+99

> <Gold.Chemscore.Hbonds>
donor molecule, donor type, donor heavy atom, donor atom, acceptor molecule, acceptor atom, score
      P1  H  6896  6907       L1    15  0.66
      P1  H  7989  7998       L1    20  0.46
      P1  H 10752 10765       L1    17  0.97

> <Gold.Chemscore.Hbond.Weighted>
-8.6372

> <Gold.Chemscore.Metal.Weighted>
-0.0000

> <Gold.Chemscore.Lipo.Weighted>
-12.2883

> <Gold.Chemscore.Internal_Hbond.Weighted>
0.0000

> <Gold.Chemscore.DEClash.Weighted>
0.4412

> <Gold.Chemscore.DEInternal.Weighted>
0.3462

> <Gold.Chemscore.Rot.Weighted>
4.8598

> <Gold.Chemscore.Internal.Correction.Weighted>
   9.000000E+99

> <Gold.Protein.RotatedTorsions>
[ 6907 6896 6895 6894 ] final   34.49 input  -60.11 | X-H torsion
[ 7974 7965 7964 7962 ] final  -18.64 input  175.53 | X-H torsion
[ 8008 7997 7996 7995 ] final  111.43 input   59.86 | X-H torsion
[ 10167 10162 10161 10158 ] final  -95.52 input  -65.29 | X-H torsion
[ 10718 10713 10712 10709 ] final   11.51 input   66.30 | X-H torsion
[ 10763 10752 10751 10750 ] final  174.80 input  -60.55 | X-H torsion
[ 11005 11000 10999 10996 ] final -124.71 input  -57.11 | X-H torsion

> <Gold.Protein.ActiveResidues>
 VAL166  LYS551  ARG553  GLY616  TRP617  ASP618  TYR619  PRO620  LYS621  CYS622 
 ASP623  PHE694  ASN695  SER759  ASP760  ASP761  ALA762  ILE779  LEU786  VAL792 
 PHE793  MET794  SER795  GLU796  ALA797  LYS798  CYS799  TRP800  GLU811  SER814 

> <Gold.Protein.RotatedAtoms>
  152.1031  134.9327  160.0568 H   0  0  0  0  0  0  0  0  0  0  0  0  # atno 6907 bound_to 6896
  152.0534  133.4024  159.4395 H   0  0  0  0  0  0  0  0  0  0  0  0  # atno 6908 bound_to 6896
  150.6840  134.3202  159.4827 H   0  0  0  0  0  0  0  0  0  0  0  0  # atno 6909 bound_to 6896
  146.1882  140.3950  142.8468 H   0  0  0  0  0  0  0  0  0  0  0  0  # atno 7974 bound_to 7965
  156.2123  140.3019  155.9760 H   0  0  0  0  0  0  0  0  0  0  0  0  # atno 8008 bound_to 7997
  155.2693  140.0433  157.3022 H   0  0  0  0  0  0  0  0  0  0  0  0  # atno 8009 bound_to 7997
  154.5717  140.2350  155.8190 H   0  0  0  0  0  0  0  0  0  0  0  0  # atno 8010 bound_to 7997
  140.3033  143.3149  152.0226 H   0  0  0  0  0  0  0  0  0  0  0  0  # atno 10167 bound_to 10162
  156.9967  130.6063  149.5692 H   0  0  0  0  0  0  0  0  0  0  0  0  # atno 10718 bound_to 10713
  154.4589  135.2767  155.1727 H   0  0  0  0  0  0  0  0  0  0  0  0  # atno 10763 bound_to 10752
  154.3523  135.6147  153.5653 H   0  0  0  0  0  0  0  0  0  0  0  0  # atno 10764 bound_to 10752
  152.9853  135.5814  154.4947 H   0  0  0  0  0  0  0  0  0  0  0  0  # atno 10765 bound_to 10752
  140.9819  134.0660  157.3755 H   0  0  0  0  0  0  0  0  0  0  0  0  # atno 11005 bound_to 11000
  144.8436  140.6895  143.6213 LP  0  0  0  0  0  0  0  0  0  0  0  0  # atno 17320 bound_to 7965
  145.3875  139.1623  143.4247 LP  0  0  0  0  0  0  0  0  0  0  0  0  # atno 17321 bound_to 7965
  139.4910  144.6440  151.6818 LP  0  0  0  0  0  0  0  0  0  0  0  0  # atno 17342 bound_to 10162
  140.5632  144.0233  150.6180 LP  0  0  0  0  0  0  0  0  0  0  0  0  # atno 17343 bound_to 10162
  156.0186  130.5281  150.8210 LP  0  0  0  0  0  0  0  0  0  0  0  0  # atno 17370 bound_to 10713
  157.5420  131.0941  150.9814 LP  0  0  0  0  0  0  0  0  0  0  0  0  # atno 17371 bound_to 10713
  139.8954  135.0141  156.7000 LP  0  0  0  0  0  0  0  0  0  0  0  0  # atno 17394 bound_to 11000
  140.7173  133.9171  155.8123 LP  0  0  0  0  0  0  0  0  0  0  0  0  # atno 17395 bound_to 11000

$$$$
