#       Name:                AV-unprocessed.smi:3267
#       Creating user name   scv26
#       Creation time:       Fri Mar 27 18:41:20 2020


#       File generated by GOLD software.
#

@<TRIPOS>MOLECULE
AV-unprocessed.smi:3267
    43    44     1
SMALL
NO_CHARGES


@<TRIPOS>ATOM
      1 ****        -2.7561  -1.0551   2.9899 C.3            1 S1                 0.0000
      2 ****        -2.1998  -0.3787   1.7290 C.3            1 S1                 0.0000
      3 ****        -2.7100  -1.0604   0.4350 C.3            1 S1                 0.0000
      4 ****        -3.5044  -0.1578  -0.3767 N.pl3          1 S1                 0.0000
      5 ****        -3.1178   0.5599  -1.4886 C.2            1 S1                 0.0000
      6 ****        -4.2020   1.2779  -1.9049 C.2            1 S1                 0.0000
      7 ****        -5.2174   0.9281  -0.9712 C.2            1 S1                 0.0000
      8 ****        -4.7972   0.0678  -0.0576 N.2            1 S1                 0.0000
      9 ****        -0.7401  -0.3823   1.7874 N.am           1 S1                 0.0000
     10 ****         0.0609   0.4340   1.0875 C.2            1 S1                 0.0000
     11 ****        -0.3428   1.2841   0.2936 O.2            1 S1                 0.0000
     12 ****         1.3549   0.2065   1.3490 N.am           1 S1                 0.0000
     13 ****         2.4674   0.9026   0.7132 C.3            1 S1                 0.0000
     14 ****         2.8051   0.2883  -0.6552 C.3            1 S1                 0.0000
     15 ****         3.9166   1.0243  -1.4021 C.3            1 S1                 0.0000
     16 ****         4.4675  -0.0703  -2.2868 C.3            1 S1                 0.0000
     17 ****         4.3975  -1.2785  -1.3587 C.3            1 S1                 0.0000
     18 ****         3.2827  -1.0473  -0.5012 O.3            1 S1                 0.0000
     19 ****        -3.8462  -1.0283   2.9973 H              1 S1                 0.0000
     20 ****        -2.4095  -0.5515   3.8928 H              1 S1                 0.0000
     21 ****        -2.4478  -2.0994   3.0501 H              1 S1                 0.0000
     22 ****        -2.5292   0.6625   1.7527 H              1 S1                 0.0000
     23 ****        -1.8843  -1.4270  -0.1769 H              1 S1                 0.0000
     24 ****        -3.3171  -1.9373   0.6652 H              1 S1                 0.0000
     25 ****        -2.1138   0.5036  -1.8832 H              1 S1                 0.0000
     26 ****        -4.2598   1.9522  -2.7462 H              1 S1                 0.0000
     27 ****        -6.2402   1.2723  -0.9298 H              1 S1                 0.0000
     28 ****        -0.3107  -1.0504   2.4105 H              1 S1                 0.0000
     29 ****         1.5898  -0.5151   2.0147 H              1 S1                 0.0000
     30 ****         2.2289   1.9618   0.6036 H              1 S1                 0.0000
     31 ****         3.3325   0.8474   1.3744 H              1 S1                 0.0000
     32 ****         1.9179   0.2556  -1.2899 H              1 S1                 0.0000
     33 ****         3.5529   1.8861  -1.9624 H              1 S1                 0.0000
     34 ****         4.6876   1.3661  -0.7099 H              1 S1                 0.0000
     35 ****         3.8168  -0.2191  -3.1496 H              1 S1                 0.0000
     36 ****         5.4760   0.1334  -2.6476 H              1 S1                 0.0000
     37 ****         4.2954  -2.2173  -1.9035 H              1 S1                 0.0000
     38 ****         5.2976  -1.3388  -0.7457 H              1 S1                 0.0000
     39 ****        -5.3194  -0.3264   0.6987 LP             1 S1                 0.0000
     40 ****        -1.3242   1.3977   0.1389 LP             1 S1                 0.0000
     41 ****         0.3107   1.8610  -0.1964 LP             1 S1                 0.0000
     42 ****         2.5504  -1.6878  -0.7327 LP             1 S1                 0.0000
     43 ****         3.5622  -1.1898   0.4483 LP             1 S1                 0.0000
@<TRIPOS>BOND
    1    1    2 1     
    2    1   19 1     
    3    1   20 1     
    4    1   21 1     
    5    2    3 1     
    6    2    9 1     
    7    2   22 1     
    8    3    4 1     
    9    3   23 1     
   10    3   24 1     
   11    4    8 1     
   12    4    5 1     
   13    5    6 2     
   14    5   25 1     
   15    6    7 1     
   16    6   26 1     
   17    7    8 2     
   18    7   27 1     
   19    9   10 am    
   20    9   28 1     
   21   10   11 2     
   22   10   12 am    
   23   12   13 1     
   24   12   29 1     
   25   13   14 1     
   26   13   30 1     
   27   13   31 1     
   28   14   18 1     
   29   14   15 1     
   30   14   32 1     
   31   15   16 1     
   32   15   33 1     
   33   15   34 1     
   34   16   17 1     
   35   16   35 1     
   36   16   36 1     
   37   17   18 1     
   38   17   37 1     
   39   17   38 1     
   40    8   39 1     
   41   11   40 1     
   42   11   41 1     
   43   18   42 1     
   44   18   43 1     
@<TRIPOS>SUBSTRUCTURE
      1 S1             1
@<TRIPOS>SET
LONE_PAIRS      STATIC     ATOMS    <user>   **** ""
5 39 40 41 42 43
DONOR_HYDROGENS      STATIC     ATOMS    <user>   **** ""
2 28 29
ATOM$BLUE        STATIC     ATOMS    COLORGROUP SYSTEM
5 39 40 41 42 43
ATOM$RED        STATIC     ATOMS    COLORGROUP SYSTEM
2 28 29
