AV-unprocessed.smi:2816|AV-procd|sdf|10844|dock7
  -GOLD-   2272015283D 1   1.00000     0.00000
 Structure written by MMmdl.
 43 45  0  0  0  0  0  0  0  0  1 V2000
  149.0553  129.5034  157.1033 C   0  0  0  0  0  0  0  0  0  0  0  0
  149.7517  130.5966  157.9322 C   0  0  0  0  0  0  0  0  0  0  0  0
  148.6996  131.5955  158.4481 C   0  0  0  0  0  0  0  0  0  0  0  0
  150.5019  129.9499  159.1109 C   0  0  0  0  0  0  0  0  0  0  0  0
  150.9669  131.4638  156.8197 S   0  0  0  0  0  0  0  0  0  0  0  0
  151.5707  132.5651  157.5866 O   0  0  0  0  0  0  0  0  0  0  0  0
  151.8427  130.4509  156.2091 O   0  0  0  0  0  0  0  0  0  0  0  0
  149.9923  132.1959  155.5031 C   0  0  0  0  0  0  0  0  0  0  0  0
  149.5815  133.5411  155.5947 C   0  0  0  0  0  0  0  0  0  0  0  0
  148.7807  134.0622  154.5615 C   0  0  0  0  0  0  0  0  0  0  0  0
  148.4133  133.2197  153.4853 C   0  0  0  0  0  0  0  0  0  0  0  0
  147.6135  133.6403  152.4126 N   0  0  0  0  0  0  0  0  0  0  0  0
  146.7307  132.7150  151.7111 C   0  0  2  0  0  0  0  0  0  0  0  0
  146.5488  133.0264  150.2209 C   0  0  0  0  0  0  0  0  0  0  0  0
  145.0201  133.0880  150.0968 C   0  0  2  0  0  0  0  0  0  0  0  0
  144.4613  134.3894  150.6849 C   0  0  0  0  0  0  0  0  0  0  0  0
  144.6380  134.1521  152.1832 C   0  0  0  0  0  0  0  0  0  0  0  0
  145.2759  132.7517  152.2132 C   0  0  1  0  0  0  0  0  0  0  0  0
  144.6280  132.1629  151.0978 O   0  0  0  0  0  0  0  0  0  0  0  0
  148.8794  131.8873  153.5041 C   0  0  0  0  0  0  0  0  0  0  0  0
  149.6461  131.3745  154.4891 N   0  0  0  0  0  0  0  0  0  0  0  0
  148.3243  128.9562  157.6996 H   0  0  0  0  0  0  0  0  0  0  0  0
  149.7739  128.7789  156.7187 H   0  0  0  0  0  0  0  0  0  0  0  0
  148.5303  129.9298  156.2480 H   0  0  0  0  0  0  0  0  0  0  0  0
  148.1970  132.1063  157.6264 H   0  0  0  0  0  0  0  0  0  0  0  0
  149.1432  132.3552  159.0905 H   0  0  0  0  0  0  0  0  0  0  0  0
  147.9329  131.0889  159.0352 H   0  0  0  0  0  0  0  0  0  0  0  0
  149.8207  129.3873  159.7500 H   0  0  0  0  0  0  0  0  0  0  0  0
  150.9881  130.6981  159.7367 H   0  0  0  0  0  0  0  0  0  0  0  0
  151.2708  129.2592  158.7636 H   0  0  0  0  0  0  0  0  0  0  0  0
  149.8664  134.1587  156.4333 H   0  0  0  0  0  0  0  0  0  0  0  0
  148.4603  135.0916  154.6128 H   0  0  0  0  0  0  0  0  0  0  0  0
  147.7919  134.5405  151.9905 H   0  0  0  0  0  0  0  0  0  0  0  0
  147.1055  131.6978  151.8310 H   0  0  0  0  0  0  0  0  0  0  0  0
  147.0204  133.9580  149.9041 H   0  0  0  0  0  0  0  0  0  0  0  0
  146.9572  132.2177  149.6138 H   0  0  0  0  0  0  0  0  0  0  0  0
  144.6472  132.8585  149.0984 H   0  0  0  0  0  0  0  0  0  0  0  0
  144.9956  135.2708  150.3288 H   0  0  0  0  0  0  0  0  0  0  0  0
  143.4054  134.5061  150.4382 H   0  0  0  0  0  0  0  0  0  0  0  0
  145.2499  134.9143  152.6653 H   0  0  0  0  0  0  0  0  0  0  0  0
  143.6669  134.1397  152.6794 H   0  0  0  0  0  0  0  0  0  0  0  0
  145.1212  132.2179  153.1512 H   0  0  0  0  0  0  0  0  0  0  0  0
  148.6228  131.2061  152.7058 H   0  0  0  0  0  0  0  0  0  0  0  0
  1  2  1  0  0  0  0
  1 22  1  0  0  0  0
  1 23  1  0  0  0  0
  1 24  1  0  0  0  0
  2  3  1  0  0  0  0
  2  4  1  0  0  0  0
  2  5  1  0  0  0  0
  3 25  1  0  0  0  0
  3 26  1  0  0  0  0
  3 27  1  0  0  0  0
  4 28  1  0  0  0  0
  4 29  1  0  0  0  0
  4 30  1  0  0  0  0
  5  6  2  0  0  0  0
  5  7  2  0  0  0  0
  5  8  1  0  0  0  0
  8 21  1  0  0  0  0
  8  9  2  0  0  0  0
  9 10  1  0  0  0  0
  9 31  1  0  0  0  0
 10 11  2  0  0  0  0
 10 32  1  0  0  0  0
 11 12  1  0  0  0  0
 11 20  1  0  0  0  0
 12 13  1  0  0  0  0
 12 33  1  0  0  0  0
 13 18  1  0  0  0  0
 13 14  1  0  0  0  0
 13 34  1  0  0  0  0
 14 15  1  0  0  0  0
 14 35  1  0  0  0  0
 14 36  1  0  0  0  0
 15 19  1  0  0  0  0
 15 16  1  0  0  0  0
 15 37  1  0  0  0  0
 16 17  1  0  0  0  0
 16 38  1  0  0  0  0
 16 39  1  0  0  0  0
 17 18  1  0  0  0  0
 17 40  1  0  0  0  0
 17 41  1  0  0  0  0
 18 19  1  0  0  0  0
 18 42  1  0  0  0  0
 20 21  2  0  0  0  0
 20 43  1  0  0  0  0
M  END
> <s_m_source_file>
AV-unprocessed.smi

> <i_m_source_file_index>
2816

> <i_lp_mmshare_version>
43012

> <i_f3d_flags>
0

> <s_epik_input>
W0NIM11DKFtDSDNdKShbQ0gzXSlTKD1PKSg9TyljMVtjSF1bY0hdYyhbY0hdbjEpW05IXVtDQEhdKFtDSDJdW0NAQEhdMjMpW0NAQEhdKE8zKVtDSDJdW0NIMl0y

> <s_epik_cmdline>
J2VwaWtfcHl0aG9uJywgJy1waCcsICc3LjAnLCAnLXRuJywgJzgnLCAnLW1hJywgJzIwMCcsICctbWV0YWxfYmluZGluZycsICctaW1hZScsICc8aW5maWxlLm1hZT4nLCAnLW9tYWUnLCAnPG91dGZpbGUubWFlPic=

> <r_lp_tautomer_probability>
1

> <r_epik_Ionization_Penalty>
1.94439e-07

> <r_epik_Ionization_Penalty_Charging>
0

> <r_epik_Ionization_Penalty_Neutral>
1.94439e-07

> <r_epik_State_Penalty>
-0

> <r_epik_Charging_Adjusted_Penalty>
0

> <i_epik_Tot_Q>
0

> <i_epik_Tot_abs_Q>
0

> <r_epik_Metal_State_Penalty>
-0

> <b_epik_Metal_Only>
0

> <s_lp_Force_Field>
OPLS_2005

> <r_lp_Energy>
43.8741

> <b_lp_Chiralities_Consistent>
1

> <s_lp_Variant>
AV-unprocessed.smi:2816-3

> <Gold.Version>
5.8.1

> <Gold.Id.Protein>
6NUR|6NUR_protein|mol2

> <Gold.PLP.Fitness>
38.6565

> <Gold.PLP.PLP>
-30.7864

> <Gold.PLP.part.hbond>
-2.0000

> <Gold.PLP.part.metal>
0.0000

> <Gold.PLP.part.buried>
-5.1723

> <Gold.PLP.part.nonpolar>
-24.2684

> <Gold.PLP.part.repulsive>
0.1919

> <Gold.PLP.ligand.clash>
0.0000

> <Gold.PLP.ligand.torsion>
1.6653

> <Gold.PLP.Chemscore.Hbond>
1.9920

> <Gold.PLP.Chemscore.CHOScore>
1.0000

> <Gold.PLP.Chemscore.Metal>
0.0000

> <Gold.Chemscore.Hbonds>
donor molecule, donor type, donor heavy atom, donor atom, acceptor molecule, acceptor atom, score
      L1  H    12    33       P1  7948  0.99
      P1  H  6896  6907       L1     6  1.00
      L1  C    20    43       P1 10747  1.00

> <Gold.PLP.Chemscore.Internal.Correction>
2.2246

> <Gold.Rescore>
     Score         DG    S(hbond)    S(metal)    S(lipo)     H(rot)  DE(clash)    DE(int)     intcor
     14.24     -15.88       1.74        0.00      64.28       1.15       0.06       1.58       ----

> <Gold.Chemscore.Fitness>
14.2414

> <Gold.Chemscore.DG>
-15.8753

> <Gold.Chemscore.ZeroCoef>
-5.4800

> <Gold.Chemscore.Hbond>
1.7398

> <Gold.Chemscore.Metal>
0.0000

> <Gold.Chemscore.Lipo>
64.2826

> <Gold.Chemscore.Internal_Hbond>
0.0000

> <Gold.Chemscore.DEClash>
0.0567

> <Gold.Chemscore.DEInternal>
1.5773

> <Gold.Chemscore.Rot>
1.1471

> <Gold.Chemscore.Internal.Correction>
   9.000000E+99

> <Gold.Chemscore.Hbonds>
donor molecule, donor type, donor heavy atom, donor atom, acceptor molecule, acceptor atom, score
      L1  H    12    33       P1  7948  0.31
      P1  H  6896  6907       L1     6  0.95

> <Gold.Chemscore.Hbond.Weighted>
-5.8109

> <Gold.Chemscore.Metal.Weighted>
-0.0000

> <Gold.Chemscore.Lipo.Weighted>
-7.5211

> <Gold.Chemscore.Internal_Hbond.Weighted>
0.0000

> <Gold.Chemscore.DEClash.Weighted>
0.0567

> <Gold.Chemscore.DEInternal.Weighted>
1.5773

> <Gold.Chemscore.Rot.Weighted>
2.9366

> <Gold.Chemscore.Internal.Correction.Weighted>
   9.000000E+99

> <Gold.Protein.RotatedTorsions>
[ 6907 6896 6895 6894 ] final  177.93 input  -60.11 | X-H torsion
[ 7974 7965 7964 7962 ] final -157.50 input  175.53 | X-H torsion
[ 8008 7997 7996 7995 ] final  -35.07 input   59.86 | X-H torsion
[ 10167 10162 10161 10158 ] final -157.22 input  -65.29 | X-H torsion
[ 10718 10713 10712 10709 ] final -111.26 input   66.30 | X-H torsion
[ 10763 10752 10751 10750 ] final -110.98 input  -60.55 | X-H torsion
[ 11005 11000 10999 10996 ] final   -3.02 input  -57.11 | X-H torsion

> <Gold.Protein.ActiveResidues>
 VAL166  LYS551  ARG553  GLY616  TRP617  ASP618  TYR619  PRO620  LYS621  CYS622 
 ASP623  PHE694  ASN695  SER759  ASP760  ASP761  ALA762  ILE779  LEU786  VAL792 
 PHE793  MET794  SER795  GLU796  ALA797  LYS798  CYS799  TRP800  GLU811  SER814 

> <Gold.Protein.RotatedAtoms>
  151.6961  133.3311  159.3254 H   0  0  0  0  0  0  0  0  0  0  0  0  # atno 6907 bound_to 6896
  150.7757  134.6656  159.6373 H   0  0  0  0  0  0  0  0  0  0  0  0  # atno 6908 bound_to 6896
  152.3798  134.6611  160.0199 H   0  0  0  0  0  0  0  0  0  0  0  0  # atno 6909 bound_to 6896
  144.7545  140.3960  143.6022 H   0  0  0  0  0  0  0  0  0  0  0  0  # atno 7974 bound_to 7965
  154.4104  140.1667  156.2152 H   0  0  0  0  0  0  0  0  0  0  0  0  # atno 8008 bound_to 7997
  155.9410  140.3408  155.6304 H   0  0  0  0  0  0  0  0  0  0  0  0  # atno 8009 bound_to 7997
  155.6988  140.0742  157.2409 H   0  0  0  0  0  0  0  0  0  0  0  0  # atno 8010 bound_to 7997
  139.6788  143.9617  152.2325 H   0  0  0  0  0  0  0  0  0  0  0  0  # atno 10167 bound_to 10162
  156.0637  130.5858  150.8350 H   0  0  0  0  0  0  0  0  0  0  0  0  # atno 10718 bound_to 10713
  154.8276  135.4544  154.0969 H   0  0  0  0  0  0  0  0  0  0  0  0  # atno 10763 bound_to 10752
  153.2269  135.6901  153.7941 H   0  0  0  0  0  0  0  0  0  0  0  0  # atno 10764 bound_to 10752
  153.7338  135.3323  155.3267 H   0  0  0  0  0  0  0  0  0  0  0  0  # atno 10765 bound_to 10752
  140.6648  133.9289  155.8458 H   0  0  0  0  0  0  0  0  0  0  0  0  # atno 11005 bound_to 11000
  145.6826  139.1621  143.2692 LP  0  0  0  0  0  0  0  0  0  0  0  0  # atno 17320 bound_to 7965
  146.1539  140.6886  142.9309 LP  0  0  0  0  0  0  0  0  0  0  0  0  # atno 17321 bound_to 7965
  139.9401  144.6687  150.8274 LP  0  0  0  0  0  0  0  0  0  0  0  0  # atno 17342 bound_to 10162
  140.7645  143.3250  151.2536 LP  0  0  0  0  0  0  0  0  0  0  0  0  # atno 17343 bound_to 10162
  157.5664  131.0946  150.9483 LP  0  0  0  0  0  0  0  0  0  0  0  0  # atno 17370 bound_to 10713
  156.9709  130.5490  149.5290 LP  0  0  0  0  0  0  0  0  0  0  0  0  # atno 17371 bound_to 10713
  141.0438  134.0583  157.3869 LP  0  0  0  0  0  0  0  0  0  0  0  0  # atno 17394 bound_to 11000
  139.9001  135.0161  156.7226 LP  0  0  0  0  0  0  0  0  0  0  0  0  # atno 17395 bound_to 11000

$$$$
