AV-unprocessed.smi:2258|AV-procd|sdf|9129|dock5
  -GOLD-   2272012333D 1   1.00000     0.00000
 Structure written by MMmdl.
 40 42  0  0  0  0  0  0  0  0  1 V2000
  146.1245  130.5702  151.6507 C   0  0  0  0  0  0  0  0  0  0  0  0
  145.5103  131.8918  151.5195 N   0  0  0  0  0  0  0  0  0  0  0  0
  144.1315  131.9668  151.2778 C   0  0  0  0  0  0  0  0  0  0  0  0
  143.5203  133.1583  151.1530 C   0  0  0  0  0  0  0  0  0  0  0  0
  144.2425  134.3467  151.2597 N   0  0  0  0  0  0  0  0  0  0  0  0
  145.5292  134.3534  151.4727 C   0  0  0  0  0  0  0  0  0  0  0  0
  146.2902  135.5285  151.5987 N   0  0  0  0  0  0  0  0  0  0  0  0
  145.9188  136.8024  151.8680 C   0  0  0  0  0  0  0  0  0  0  0  0
  144.7425  137.0742  152.1011 O   0  0  0  0  0  0  0  0  0  0  0  0
  146.8974  137.7243  151.9246 N   0  0  0  0  0  0  0  0  0  0  0  0
  146.7229  139.1496  152.1913 C   0  0  0  0  0  0  0  0  0  0  0  0
  147.2899  139.5810  153.5561 C   0  0  0  0  0  0  0  0  0  0  0  0
  147.4840  141.1042  153.5240 C   0  0  0  0  0  0  0  0  0  0  0  0
  147.6027  141.9207  154.7869 C   0  0  0  0  0  0  0  0  0  0  0  0
  146.4114  142.1131  153.8697 C   0  0  0  0  0  0  0  0  0  0  0  0
  146.5425  139.0491  154.8000 C   0  0  0  0  0  0  0  0  0  0  0  0
  147.8807  138.7289  155.4600 C   0  0  0  0  0  0  0  0  0  0  0  0
  148.4779  138.7217  154.0541 C   0  0  0  0  0  0  0  0  0  0  0  0
  146.2641  133.0189  151.6341 C   0  0  0  0  0  0  0  0  0  0  0  0
  147.4768  133.0019  151.8541 O   0  0  0  0  0  0  0  0  0  0  0  0
  145.4131  129.7610  151.4822 H   0  0  0  0  0  0  0  0  0  0  0  0
  146.5393  130.4403  152.6511 H   0  0  0  0  0  0  0  0  0  0  0  0
  146.9330  130.4482  150.9283 H   0  0  0  0  0  0  0  0  0  0  0  0
  143.6157  131.0205  151.2031 H   0  0  0  0  0  0  0  0  0  0  0  0
  142.4600  133.2483  150.9674 H   0  0  0  0  0  0  0  0  0  0  0  0
  147.2896  135.4041  151.5230 H   0  0  0  0  0  0  0  0  0  0  0  0
  147.8403  137.4134  151.7390 H   0  0  0  0  0  0  0  0  0  0  0  0
  147.1660  139.7344  151.3835 H   0  0  0  0  0  0  0  0  0  0  0  0
  145.6543  139.3609  152.1475 H   0  0  0  0  0  0  0  0  0  0  0  0
  148.1305  141.4223  152.7080 H   0  0  0  0  0  0  0  0  0  0  0  0
  147.4300  141.4174  155.7358 H   0  0  0  0  0  0  0  0  0  0  0  0
  148.3574  142.7043  154.8061 H   0  0  0  0  0  0  0  0  0  0  0  0
  146.3775  143.0272  153.2806 H   0  0  0  0  0  0  0  0  0  0  0  0
  145.4478  141.7675  154.2353 H   0  0  0  0  0  0  0  0  0  0  0  0
  145.9449  139.7933  155.3274 H   0  0  0  0  0  0  0  0  0  0  0  0
  145.9603  138.1483  154.5989 H   0  0  0  0  0  0  0  0  0  0  0  0
  148.2517  139.5397  156.0874 H   0  0  0  0  0  0  0  0  0  0  0  0
  147.9167  137.7689  155.9753 H   0  0  0  0  0  0  0  0  0  0  0  0
  148.4853  137.7192  153.6225 H   0  0  0  0  0  0  0  0  0  0  0  0
  149.4645  139.1770  153.9736 H   0  0  0  0  0  0  0  0  0  0  0  0
  1  2  1  0  0  0  0
  1 21  1  0  0  0  0
  1 22  1  0  0  0  0
  1 23  1  0  0  0  0
  2 19  1  0  0  0  0
  2  3  1  0  0  0  0
  3  4  2  0  0  0  0
  3 24  1  0  0  0  0
  4  5  1  0  0  0  0
  4 25  1  0  0  0  0
  5  6  2  0  0  0  0
  6  7  1  0  0  0  0
  6 19  1  0  0  0  0
  7  8  1  0  0  0  0
  7 26  1  0  0  0  0
  8  9  2  0  0  0  0
  8 10  1  0  0  0  0
 10 11  1  0  0  0  0
 10 27  1  0  0  0  0
 11 12  1  0  0  0  0
 11 28  1  0  0  0  0
 11 29  1  0  0  0  0
 12 18  1  0  0  0  0
 12 13  1  0  0  0  0
 12 16  1  0  0  0  0
 13 15  1  0  0  0  0
 13 14  1  0  0  0  0
 13 30  1  0  0  0  0
 14 15  1  0  0  0  0
 14 31  1  0  0  0  0
 14 32  1  0  0  0  0
 15 33  1  0  0  0  0
 15 34  1  0  0  0  0
 16 17  1  0  0  0  0
 16 35  1  0  0  0  0
 16 36  1  0  0  0  0
 17 18  1  0  0  0  0
 17 37  1  0  0  0  0
 17 38  1  0  0  0  0
 18 39  1  0  0  0  0
 18 40  1  0  0  0  0
 19 20  2  0  0  0  0
M  END
> <s_m_source_file>
AV-unprocessed.smi

> <i_m_source_file_index>
2258

> <i_lp_mmshare_version>
43012

> <i_f3d_flags>
0

> <s_epik_input>
W0NIM11uMVtjSF1bY0hdbmMoYzE9TylbTkhdQyg9TylbTkhdW0NIMl1DMihbQ0hdM1tDSDJdW0NIMl0zKVtDSDJdW0NIMl1bQ0gyXTI=

> <s_epik_cmdline>
J2VwaWtfcHl0aG9uJywgJy1waCcsICc3LjAnLCAnLXRuJywgJzgnLCAnLW1hJywgJzIwMCcsICctbWV0YWxfYmluZGluZycsICctaW1hZScsICc8aW5maWxlLm1hZT4nLCAnLW9tYWUnLCAnPG91dGZpbGUubWFlPic=

> <r_lp_tautomer_probability>
1

> <r_epik_Ionization_Penalty>
0.000665538

> <r_epik_Ionization_Penalty_Charging>
1.64466e-07

> <r_epik_Ionization_Penalty_Neutral>
0.000665373

> <r_epik_State_Penalty>
-0

> <r_epik_Charging_Adjusted_Penalty>
1.64466e-07

> <i_epik_Tot_Q>
0

> <i_epik_Tot_abs_Q>
0

> <r_epik_Metal_State_Penalty>
-0

> <b_epik_Metal_Only>
0

> <s_lp_Force_Field>
OPLS_2005

> <r_lp_Energy>
52.1357

> <b_lp_Chiralities_Consistent>
1

> <s_lp_Variant>
AV-unprocessed.smi:2258-1

> <Gold.Version>
5.8.1

> <Gold.Id.Protein>
6NUR|6NUR_protein|mol2

> <Gold.PLP.Fitness>
41.0363

> <Gold.PLP.PLP>
-33.0793

> <Gold.PLP.part.hbond>
-1.8173

> <Gold.PLP.part.metal>
0.0000

> <Gold.PLP.part.buried>
-3.4474

> <Gold.PLP.part.nonpolar>
-29.9759

> <Gold.PLP.part.repulsive>
2.6227

> <Gold.PLP.ligand.clash>
0.0000

> <Gold.PLP.ligand.torsion>
1.2057

> <Gold.PLP.Chemscore.Hbond>
1.8960

> <Gold.PLP.Chemscore.CHOScore>
1.0000

> <Gold.PLP.Chemscore.Metal>
0.0000

> <Gold.Chemscore.Hbonds>
donor molecule, donor type, donor heavy atom, donor atom, acceptor molecule, acceptor atom, score
      L1  H     7    26       P1  7948  0.90
      L1  H    10    27       P1  7948  0.99
      L1  C     4    25       P1 10186  1.00

> <Gold.PLP.Chemscore.Internal.Correction>
1.6803

> <Gold.Rescore>
     Score         DG    S(hbond)    S(metal)    S(lipo)     H(rot)  DE(clash)    DE(int)     intcor
     12.44     -16.20       1.89        0.00      70.00       1.47       1.42       2.34       ----

> <Gold.Chemscore.Fitness>
12.4413

> <Gold.Chemscore.DG>
-16.2008

> <Gold.Chemscore.ZeroCoef>
-5.4800

> <Gold.Chemscore.Hbond>
1.8875

> <Gold.Chemscore.Metal>
0.0000

> <Gold.Chemscore.Lipo>
70.0045

> <Gold.Chemscore.Internal_Hbond>
0.0000

> <Gold.Chemscore.DEClash>
1.4227

> <Gold.Chemscore.DEInternal>
2.3368

> <Gold.Chemscore.Rot>
1.4742

> <Gold.Chemscore.Internal.Correction>
   9.000000E+99

> <Gold.Chemscore.Hbonds>
donor molecule, donor type, donor heavy atom, donor atom, acceptor molecule, acceptor atom, score
      L1  H     7    26       P1  7948  0.83
      L1  H    10    27       P1  7948  0.92

> <Gold.Chemscore.Hbond.Weighted>
-6.3043

> <Gold.Chemscore.Metal.Weighted>
-0.0000

> <Gold.Chemscore.Lipo.Weighted>
-8.1905

> <Gold.Chemscore.Internal_Hbond.Weighted>
0.0000

> <Gold.Chemscore.DEClash.Weighted>
1.4227

> <Gold.Chemscore.DEInternal.Weighted>
2.3368

> <Gold.Chemscore.Rot.Weighted>
3.7740

> <Gold.Chemscore.Internal.Correction.Weighted>
   9.000000E+99

> <Gold.Protein.RotatedTorsions>
[ 6907 6896 6895 6894 ] final  100.63 input  -60.11 | X-H torsion
[ 7974 7965 7964 7962 ] final  113.71 input  175.53 | X-H torsion
[ 8008 7997 7996 7995 ] final  -80.79 input   59.86 | X-H torsion
[ 10167 10162 10161 10158 ] final  -13.99 input  -65.29 | X-H torsion
[ 10718 10713 10712 10709 ] final  169.11 input   66.30 | X-H torsion
[ 10763 10752 10751 10750 ] final -110.02 input  -60.55 | X-H torsion
[ 11005 11000 10999 10996 ] final -169.55 input  -57.11 | X-H torsion

> <Gold.Protein.ActiveResidues>
 VAL166  LYS551  ARG553  GLY616  TRP617  ASP618  TYR619  PRO620  LYS621  CYS622 
 ASP623  PHE694  ASN695  SER759  ASP760  ASP761  ALA762  ILE779  LEU786  VAL792 
 PHE793  MET794  SER795  GLU796  ALA797  LYS798  CYS799  TRP800  GLU811  SER814 

> <Gold.Protein.RotatedAtoms>
  152.5368  134.0248  159.7997 H   0  0  0  0  0  0  0  0  0  0  0  0  # atno 6907 bound_to 6896
  151.0428  133.5683  159.2656 H   0  0  0  0  0  0  0  0  0  0  0  0  # atno 6908 bound_to 6896
  151.2647  135.0673  159.9165 H   0  0  0  0  0  0  0  0  0  0  0  0  # atno 6909 bound_to 6896
  145.2135  139.2895  143.4256 H   0  0  0  0  0  0  0  0  0  0  0  0  # atno 7974 bound_to 7965
  154.5918  140.0657  156.9249 H   0  0  0  0  0  0  0  0  0  0  0  0  # atno 8008 bound_to 7997
  155.2282  140.3335  155.4288 H   0  0  0  0  0  0  0  0  0  0  0  0  # atno 8009 bound_to 7997
  156.2261  140.1820  156.7344 H   0  0  0  0  0  0  0  0  0  0  0  0  # atno 8010 bound_to 7997
  140.7193  143.5368  150.9455 H   0  0  0  0  0  0  0  0  0  0  0  0  # atno 10167 bound_to 10162
  157.0274  131.0249  151.2755 H   0  0  0  0  0  0  0  0  0  0  0  0  # atno 10718 bound_to 10713
  154.8225  135.4579  154.0821 H   0  0  0  0  0  0  0  0  0  0  0  0  # atno 10763 bound_to 10752
  153.2163  135.6888  153.8060 H   0  0  0  0  0  0  0  0  0  0  0  0  # atno 10764 bound_to 10752
  153.7494  135.3300  155.3295 H   0  0  0  0  0  0  0  0  0  0  0  0  # atno 10765 bound_to 10752
  140.5294  134.5631  157.5070 H   0  0  0  0  0  0  0  0  0  0  0  0  # atno 11005 bound_to 11000
  146.3392  140.2418  142.8596 LP  0  0  0  0  0  0  0  0  0  0  0  0  # atno 17320 bound_to 7965
  144.9833  140.8480  143.5384 LP  0  0  0  0  0  0  0  0  0  0  0  0  # atno 17321 bound_to 7965
  139.9090  143.6743  152.3118 LP  0  0  0  0  0  0  0  0  0  0  0  0  # atno 17342 bound_to 10162
  139.7120  144.7618  151.1097 LP  0  0  0  0  0  0  0  0  0  0  0  0  # atno 17343 bound_to 10162
  157.5204  130.7994  149.7802 LP  0  0  0  0  0  0  0  0  0  0  0  0  # atno 17370 bound_to 10713
  156.0081  130.3846  150.2359 LP  0  0  0  0  0  0  0  0  0  0  0  0  # atno 17371 bound_to 10713
  139.9562  134.7531  156.0336 LP  0  0  0  0  0  0  0  0  0  0  0  0  # atno 17394 bound_to 11000
  141.1290  133.6591  156.3412 LP  0  0  0  0  0  0  0  0  0  0  0  0  # atno 17395 bound_to 11000

$$$$
