AV-unprocessed.smi:946|AV-procd|sdf|4235|dock9
  -GOLD-   22720 2143D 1   1.00000     0.00000
 Structure written by MMmdl.
 42 43  0  0  0  0  0  0  0  0  1 V2000
  151.2311  139.3994  155.6491 C   0  0  0  0  0  0  0  0  0  0  0  0
  150.8489  139.3091  157.1337 C   0  0  1  0  0  0  0  0  0  0  0  0
  150.0658  140.4578  157.4461 O   0  0  0  0  0  0  0  0  0  0  0  0
  150.6112  141.7025  157.0233 C   0  0  0  0  0  0  0  0  0  0  0  0
  150.7580  142.6161  158.2473 C   0  0  2  0  0  0  0  0  0  0  0  0
  151.2183  144.0344  157.8573 C   0  0  0  0  0  0  0  0  0  0  0  0
  151.4351  144.8932  159.1086 C   0  0  0  0  0  0  0  0  0  0  0  0
  152.3817  144.1713  160.0735 C   0  0  0  0  0  0  0  0  0  0  0  0
  151.8834  142.7427  160.3438 C   0  0  0  0  0  0  0  0  0  0  0  0
  151.7334  142.0402  159.1139 O   0  0  0  0  0  0  0  0  0  0  0  0
  150.0522  138.0277  157.4264 C   0  0  0  0  0  0  0  0  0  0  0  0
  149.7263  137.2879  156.4975 O   0  0  0  0  0  0  0  0  0  0  0  0
  149.7520  137.8099  158.7206 N   0  0  0  0  0  0  0  0  0  0  0  0
  149.0133  136.7359  159.2830 C   0  0  0  0  0  0  0  0  0  0  0  0
  148.9728  135.5609  158.5005 C   0  0  0  0  0  0  0  0  0  0  0  0
  148.2686  134.4381  158.9749 C   0  0  0  0  0  0  0  0  0  0  0  0
  147.6248  134.5164  160.2225 C   0  0  0  0  0  0  0  0  0  0  0  0
  147.7138  135.7246  160.9463 C   0  0  0  0  0  0  0  0  0  0  0  0
  147.0525  135.8913  162.3072 C   0  0  0  0  0  0  0  0  0  0  0  0
  146.0958  136.8171  162.2327 F   0  0  0  0  0  0  0  0  0  0  0  0
  146.5048  134.7519  162.7324 F   0  0  0  0  0  0  0  0  0  0  0  0
  147.9603  136.2813  163.2023 F   0  0  0  0  0  0  0  0  0  0  0  0
  148.3891  136.8013  160.4845 N   0  0  0  0  0  0  0  0  0  0  0  0
  151.8307  138.5419  155.3415 H   0  0  0  0  0  0  0  0  0  0  0  0
  151.8187  140.2971  155.4556 H   0  0  0  0  0  0  0  0  0  0  0  0
  150.3496  139.4398  155.0078 H   0  0  0  0  0  0  0  0  0  0  0  0
  151.7665  139.3234  157.7251 H   0  0  0  0  0  0  0  0  0  0  0  0
  151.5753  141.5810  156.5279 H   0  0  0  0  0  0  0  0  0  0  0  0
  149.9290  142.1568  156.3034 H   0  0  0  0  0  0  0  0  0  0  0  0
  149.7969  142.6770  158.7616 H   0  0  0  0  0  0  0  0  0  0  0  0
  152.1475  143.9770  157.2884 H   0  0  0  0  0  0  0  0  0  0  0  0
  150.4819  144.5068  157.2064 H   0  0  0  0  0  0  0  0  0  0  0  0
  151.8393  145.8686  158.8366 H   0  0  0  0  0  0  0  0  0  0  0  0
  150.4780  145.0749  159.5993 H   0  0  0  0  0  0  0  0  0  0  0  0
  153.3829  144.1313  159.6427 H   0  0  0  0  0  0  0  0  0  0  0  0
  152.4643  144.7265  161.0083 H   0  0  0  0  0  0  0  0  0  0  0  0
  152.5988  142.2087  160.9692 H   0  0  0  0  0  0  0  0  0  0  0  0
  150.9359  142.7555  160.8847 H   0  0  0  0  0  0  0  0  0  0  0  0
  150.0957  138.4934  159.3790 H   0  0  0  0  0  0  0  0  0  0  0  0
  149.4742  135.5159  157.5444 H   0  0  0  0  0  0  0  0  0  0  0  0
  148.2248  133.5309  158.3907 H   0  0  0  0  0  0  0  0  0  0  0  0
  147.0807  133.6665  160.6069 H   0  0  0  0  0  0  0  0  0  0  0  0
  1  2  1  0  0  0  0
  1 24  1  0  0  0  0
  1 25  1  0  0  0  0
  1 26  1  0  0  0  0
  2  3  1  0  0  0  0
  2 11  1  0  0  0  0
  2 27  1  0  0  0  0
  3  4  1  0  0  0  0
  4  5  1  0  0  0  0
  4 28  1  0  0  0  0
  4 29  1  0  0  0  0
  5 10  1  0  0  0  0
  5  6  1  0  0  0  0
  5 30  1  0  0  0  0
  6  7  1  0  0  0  0
  6 31  1  0  0  0  0
  6 32  1  0  0  0  0
  7  8  1  0  0  0  0
  7 33  1  0  0  0  0
  7 34  1  0  0  0  0
  8  9  1  0  0  0  0
  8 35  1  0  0  0  0
  8 36  1  0  0  0  0
  9 10  1  0  0  0  0
  9 37  1  0  0  0  0
  9 38  1  0  0  0  0
 11 12  2  0  0  0  0
 11 13  1  0  0  0  0
 13 14  1  0  0  0  0
 13 39  1  0  0  0  0
 14 23  1  0  0  0  0
 14 15  2  0  0  0  0
 15 16  1  0  0  0  0
 15 40  1  0  0  0  0
 16 17  2  0  0  0  0
 16 41  1  0  0  0  0
 17 18  1  0  0  0  0
 17 42  1  0  0  0  0
 18 19  1  0  0  0  0
 18 23  2  0  0  0  0
 19 20  1  0  0  0  0
 19 21  1  0  0  0  0
 19 22  1  0  0  0  0
M  END
> <s_m_source_file>
AV-unprocessed.smi

> <i_m_source_file_index>
946

> <i_lp_mmshare_version>
43012

> <i_f3d_flags>
0

> <s_epik_input>
TzFbQ0gyXVtDSDJdW0NIMl1bQ0gyXVtDQEhdMVtDSDJdT1tDQEBIXShbQ0gzXSlDKD1PKVtOSF1jMltjSF1bY0hdW2NIXWMobjIpQyhGKShGKUY=

> <s_epik_cmdline>
J2VwaWtfcHl0aG9uJywgJy1waCcsICc3LjAnLCAnLXRuJywgJzgnLCAnLW1hJywgJzIwMCcsICctbWV0YWxfYmluZGluZycsICctaW1hZScsICc8aW5maWxlLm1hZT4nLCAnLW9tYWUnLCAnPG91dGZpbGUubWFlPic=

> <r_lp_tautomer_probability>
1

> <r_epik_Ionization_Penalty>
1.32683e-06

> <r_epik_Ionization_Penalty_Charging>
0

> <r_epik_Ionization_Penalty_Neutral>
1.32683e-06

> <r_epik_State_Penalty>
-0

> <r_epik_Charging_Adjusted_Penalty>
0

> <i_epik_Tot_Q>
0

> <i_epik_Tot_abs_Q>
0

> <r_epik_Metal_State_Penalty>
-0

> <b_epik_Metal_Only>
0

> <s_lp_Force_Field>
OPLS_2005

> <r_lp_Energy>
15.913

> <b_lp_Chiralities_Consistent>
1

> <s_lp_Variant>
AV-unprocessed.smi:946-2

> <Gold.Version>
5.8.1

> <Gold.Id.Protein>
6NUR|6NUR_protein|mol2

> <Gold.PLP.Fitness>
47.8439

> <Gold.PLP.PLP>
-46.5489

> <Gold.PLP.part.hbond>
-1.5939

> <Gold.PLP.part.metal>
0.0000

> <Gold.PLP.part.buried>
-5.6029

> <Gold.PLP.part.nonpolar>
-39.9829

> <Gold.PLP.part.repulsive>
0.1920

> <Gold.PLP.ligand.clash>
0.0019

> <Gold.PLP.ligand.torsion>
0.6791

> <Gold.PLP.Chemscore.Hbond>
0.8624

> <Gold.PLP.Chemscore.CHOScore>
0.0000

> <Gold.PLP.Chemscore.Metal>
0.0000

> <Gold.Chemscore.Hbonds>
donor molecule, donor type, donor heavy atom, donor atom, acceptor molecule, acceptor atom, score
      P1  H  6931  6943       L1    23  0.69

> <Gold.PLP.Chemscore.Internal.Correction>
0.0679

> <Gold.Rescore>
     Score         DG    S(hbond)    S(metal)    S(lipo)     H(rot)  DE(clash)    DE(int)     intcor
     13.85     -16.73       1.18        0.00     100.99       1.76       0.55       2.33       ----

> <Gold.Chemscore.Fitness>
13.8494

> <Gold.Chemscore.DG>
-16.7290

> <Gold.Chemscore.ZeroCoef>
-5.4800

> <Gold.Chemscore.Hbond>
1.1759

> <Gold.Chemscore.Metal>
0.0000

> <Gold.Chemscore.Lipo>
100.9934

> <Gold.Chemscore.Internal_Hbond>
0.0000

> <Gold.Chemscore.DEClash>
0.5471

> <Gold.Chemscore.DEInternal>
2.3325

> <Gold.Chemscore.Rot>
1.7557

> <Gold.Chemscore.Internal.Correction>
   9.000000E+99

> <Gold.Chemscore.Hbonds>
donor molecule, donor type, donor heavy atom, donor atom, acceptor molecule, acceptor atom, score
      P1  H  6931  6943       L1    23  0.61

> <Gold.Chemscore.Hbond.Weighted>
-3.9274

> <Gold.Chemscore.Metal.Weighted>
-0.0000

> <Gold.Chemscore.Lipo.Weighted>
-11.8162

> <Gold.Chemscore.Internal_Hbond.Weighted>
0.0000

> <Gold.Chemscore.DEClash.Weighted>
0.5471

> <Gold.Chemscore.DEInternal.Weighted>
2.3325

> <Gold.Chemscore.Rot.Weighted>
4.4946

> <Gold.Chemscore.Internal.Correction.Weighted>
   9.000000E+99

> <Gold.Protein.RotatedTorsions>
[ 6907 6896 6895 6894 ] final  113.94 input  -60.11 | X-H torsion
[ 7974 7965 7964 7962 ] final  -32.95 input  175.53 | X-H torsion
[ 8008 7997 7996 7995 ] final -125.92 input   59.86 | X-H torsion
[ 10167 10162 10161 10158 ] final  121.34 input  -65.29 | X-H torsion
[ 10718 10713 10712 10709 ] final   -5.80 input   66.30 | X-H torsion
[ 10763 10752 10751 10750 ] final -124.99 input  -60.55 | X-H torsion
[ 11005 11000 10999 10996 ] final   -4.55 input  -57.11 | X-H torsion

> <Gold.Protein.ActiveResidues>
 VAL166  LYS551  ARG553  GLY616  TRP617  ASP618  TYR619  PRO620  LYS621  CYS622 
 ASP623  PHE694  ASN695  SER759  ASP760  ASP761  ALA762  ILE779  LEU786  VAL792 
 PHE793  MET794  SER795  GLU796  ALA797  LYS798  CYS799  TRP800  GLU811  SER814 

> <Gold.Protein.RotatedAtoms>
  152.4831  133.8305  159.7100 H   0  0  0  0  0  0  0  0  0  0  0  0  # atno 6907 bound_to 6896
  150.8897  133.7251  159.2915 H   0  0  0  0  0  0  0  0  0  0  0  0  # atno 6908 bound_to 6896
  151.4728  135.1050  159.9808 H   0  0  0  0  0  0  0  0  0  0  0  0  # atno 6909 bound_to 6896
  146.0950  140.5856  142.8847 H   0  0  0  0  0  0  0  0  0  0  0  0  # atno 7974 bound_to 7965
  155.2212  140.0422  157.2948 H   0  0  0  0  0  0  0  0  0  0  0  0  # atno 8008 bound_to 7997
  154.5948  140.2436  155.7842 H   0  0  0  0  0  0  0  0  0  0  0  0  # atno 8009 bound_to 7997
  156.2283  140.2947  156.0132 H   0  0  0  0  0  0  0  0  0  0  0  0  # atno 8010 bound_to 7997
  139.5925  144.7030  151.3255 H   0  0  0  0  0  0  0  0  0  0  0  0  # atno 10167 bound_to 10162
  156.7412  130.5210  149.5824 H   0  0  0  0  0  0  0  0  0  0  0  0  # atno 10718 bound_to 10713
  154.8730  135.4044  154.3196 H   0  0  0  0  0  0  0  0  0  0  0  0  # atno 10763 bound_to 10752
  153.4026  135.7018  153.6420 H   0  0  0  0  0  0  0  0  0  0  0  0  # atno 10764 bound_to 10752
  153.5156  135.3698  155.2578 H   0  0  0  0  0  0  0  0  0  0  0  0  # atno 10765 bound_to 10752
  140.6815  133.9149  155.8558 H   0  0  0  0  0  0  0  0  0  0  0  0  # atno 11005 bound_to 11000
  144.7388  140.4884  143.6884 LP  0  0  0  0  0  0  0  0  0  0  0  0  # atno 17320 bound_to 7965
  145.5966  139.1500  143.3152 LP  0  0  0  0  0  0  0  0  0  0  0  0  # atno 17321 bound_to 7965
  140.7185  143.7200  150.7703 LP  0  0  0  0  0  0  0  0  0  0  0  0  # atno 17342 bound_to 10162
  140.0759  143.5015  152.2555 LP  0  0  0  0  0  0  0  0  0  0  0  0  # atno 17343 bound_to 10162
  156.1463  130.6279  151.0536 LP  0  0  0  0  0  0  0  0  0  0  0  0  # atno 17370 bound_to 10713
  157.6818  131.0836  150.7350 LP  0  0  0  0  0  0  0  0  0  0  0  0  # atno 17371 bound_to 10713
  141.0313  134.0751  157.4010 LP  0  0  0  0  0  0  0  0  0  0  0  0  # atno 17394 bound_to 11000
  139.8950  135.0139  156.6980 LP  0  0  0  0  0  0  0  0  0  0  0  0  # atno 17395 bound_to 11000

$$$$
