AV-unprocessed.smi:2523|AV-procd|sdf|9921|dock2
  -GOLD-   2272013553D 1   1.00000     0.00000
 Structure written by MMmdl.
 34 36  0  0  0  0  0  0  0  0  1 V2000
  144.8913  142.6630  157.5739 C   0  0  0  0  0  0  0  0  0  0  0  0
  145.9552  142.2031  156.6843 N   0  0  0  0  0  0  0  0  0  0  0  0
  145.5511  141.9503  155.3682 N   0  0  0  0  0  0  0  0  0  0  0  0
  146.3936  141.5419  154.4715 C   0  0  0  0  0  0  0  0  0  0  0  0
  147.7849  141.3480  154.8682 C   0  0  0  0  0  0  0  0  0  0  0  0
  148.9730  140.9303  154.2080 C   0  0  0  0  0  0  0  0  0  0  0  0
  150.0222  140.9176  155.0281 N   0  0  0  0  0  0  0  0  0  0  0  0
  149.5512  141.3212  156.2363 N   0  0  0  0  0  0  0  0  0  0  0  0
  150.4624  141.4168  157.3663 C   0  0  0  0  0  0  0  0  0  0  0  0
  151.5609  142.4793  157.1608 C   0  0  1  0  0  0  0  0  0  0  0  0
  151.1861  143.3846  156.1401 O   0  0  0  0  0  0  0  0  0  0  0  0
  151.8840  143.1937  158.4636 C   0  0  0  0  0  0  0  0  0  0  0  0
  151.7090  144.5906  158.5764 C   0  0  0  0  0  0  0  0  0  0  0  0
  151.9988  145.2470  159.7882 C   0  0  0  0  0  0  0  0  0  0  0  0
  152.4648  144.5108  160.8943 C   0  0  0  0  0  0  0  0  0  0  0  0
  152.6401  143.1174  160.7880 C   0  0  0  0  0  0  0  0  0  0  0  0
  153.2094  142.2138  162.1431 Cl  0  0  0  0  0  0  0  0  0  0  0  0
  152.3494  142.4604  159.5760 C   0  0  0  0  0  0  0  0  0  0  0  0
  148.1988  141.5829  156.1379 C   0  0  0  0  0  0  0  0  0  0  0  0
  147.2293  142.0537  157.1566 C   0  0  0  0  0  0  0  0  0  0  0  0
  147.5645  142.2846  158.3185 O   0  0  0  0  0  0  0  0  0  0  0  0
  144.7795  141.9865  158.4224 H   0  0  0  0  0  0  0  0  0  0  0  0
  143.9272  142.7159  157.0655 H   0  0  0  0  0  0  0  0  0  0  0  0
  145.1169  143.6589  157.9580 H   0  0  0  0  0  0  0  0  0  0  0  0
  146.0774  141.3468  153.4470 H   0  0  0  0  0  0  0  0  0  0  0  0
  149.1088  140.6410  153.1763 H   0  0  0  0  0  0  0  0  0  0  0  0
  149.8886  141.6200  158.2699 H   0  0  0  0  0  0  0  0  0  0  0  0
  150.9208  140.4381  157.5176 H   0  0  0  0  0  0  0  0  0  0  0  0
  152.4650  141.9783  156.8116 H   0  0  0  0  0  0  0  0  0  0  0  0
  150.3074  143.6852  156.3146 H   0  0  0  0  0  0  0  0  0  0  0  0
  151.3478  145.1619  157.7336 H   0  0  0  0  0  0  0  0  0  0  0  0
  151.8625  146.3154  159.8692 H   0  0  0  0  0  0  0  0  0  0  0  0
  152.6859  145.0160  161.8230 H   0  0  0  0  0  0  0  0  0  0  0  0
  152.4826  141.3909  159.5037 H   0  0  0  0  0  0  0  0  0  0  0  0
  1  2  1  0  0  0  0
  1 22  1  0  0  0  0
  1 23  1  0  0  0  0
  1 24  1  0  0  0  0
  2 20  1  0  0  0  0
  2  3  1  0  0  0  0
  3  4  2  0  0  0  0
  4  5  1  0  0  0  0
  4 25  1  0  0  0  0
  5 19  2  0  0  0  0
  5  6  1  0  0  0  0
  6  7  2  0  0  0  0
  6 26  1  0  0  0  0
  7  8  1  0  0  0  0
  8  9  1  0  0  0  0
  8 19  1  0  0  0  0
  9 10  1  0  0  0  0
  9 27  1  0  0  0  0
  9 28  1  0  0  0  0
 10 11  1  0  0  0  0
 10 12  1  0  0  0  0
 10 29  1  0  0  0  0
 11 30  1  0  0  0  0
 12 18  1  0  0  0  0
 12 13  2  0  0  0  0
 13 14  1  0  0  0  0
 13 31  1  0  0  0  0
 14 15  2  0  0  0  0
 14 32  1  0  0  0  0
 15 16  1  0  0  0  0
 15 33  1  0  0  0  0
 16 17  1  0  0  0  0
 16 18  2  0  0  0  0
 18 34  1  0  0  0  0
 19 20  1  0  0  0  0
 20 21  2  0  0  0  0
M  END
> <s_m_source_file>
AV-unprocessed.smi

> <i_m_source_file_index>
2523

> <i_lp_mmshare_version>
43012

> <i_f3d_flags>
0

> <s_epik_input>
W2NIXTFubihbQ0gzXSljKD1PKWMoYzEyKW4obltjSF0yKVtDSDJdW0NASF0oW09IXSljM1tjSF1bY0hdW2NIXWMoQ2wpW2NIXTM=

> <s_epik_cmdline>
J2VwaWtfcHl0aG9uJywgJy1waCcsICc3LjAnLCAnLXRuJywgJzgnLCAnLW1hJywgJzIwMCcsICctbWV0YWxfYmluZGluZycsICctaW1hZScsICc8aW5maWxlLm1hZT4nLCAnLW9tYWUnLCAnPG91dGZpbGUubWFlPic=

> <r_lp_tautomer_probability>
1

> <r_epik_Ionization_Penalty>
8.52698e-06

> <r_epik_Ionization_Penalty_Charging>
1.65421e-10

> <r_epik_Ionization_Penalty_Neutral>
8.52681e-06

> <r_epik_State_Penalty>
-0

> <r_epik_Charging_Adjusted_Penalty>
1.65421e-10

> <i_epik_Tot_Q>
0

> <i_epik_Tot_abs_Q>
0

> <r_epik_Metal_State_Penalty>
-0

> <b_epik_Metal_Only>
0

> <s_lp_Force_Field>
OPLS_2005

> <r_lp_Energy>
26.9154

> <b_lp_Chiralities_Consistent>
1

> <s_lp_Variant>
AV-unprocessed.smi:2523-2

> <Gold.Version>
5.8.1

> <Gold.Id.Protein>
6NUR|6NUR_protein|mol2

> <Gold.PLP.Fitness>
51.4550

> <Gold.PLP.PLP>
-44.1537

> <Gold.PLP.part.hbond>
-1.5958

> <Gold.PLP.part.metal>
0.0000

> <Gold.PLP.part.buried>
-4.7389

> <Gold.PLP.part.nonpolar>
-37.1024

> <Gold.PLP.part.repulsive>
0.3555

> <Gold.PLP.ligand.clash>
0.0000

> <Gold.PLP.ligand.torsion>
0.5775

> <Gold.PLP.Chemscore.Hbond>
1.1560

> <Gold.PLP.Chemscore.CHOScore>
1.6528

> <Gold.PLP.Chemscore.Metal>
0.0000

> <Gold.Chemscore.Hbonds>
donor molecule, donor type, donor heavy atom, donor atom, acceptor molecule, acceptor atom, score
      L1  H    11    30       P1  8028  0.88
      P1  H  7989  7998       L1     7  0.37
      L1  C     4    25       P1 10175  0.55
      L1  C     6    26       P1  7957  1.00

> <Gold.PLP.Chemscore.Internal.Correction>
0.0297

> <Gold.Rescore>
     Score         DG    S(hbond)    S(metal)    S(lipo)     H(rot)  DE(clash)    DE(int)     intcor
     16.82     -17.71       0.87        0.00     121.79       1.93       0.32       0.57       ----

> <Gold.Chemscore.Fitness>
16.8170

> <Gold.Chemscore.DG>
-17.7085

> <Gold.Chemscore.ZeroCoef>
-5.4800

> <Gold.Chemscore.Hbond>
0.8717

> <Gold.Chemscore.Metal>
0.0000

> <Gold.Chemscore.Lipo>
121.7850

> <Gold.Chemscore.Internal_Hbond>
0.0000

> <Gold.Chemscore.DEClash>
0.3193

> <Gold.Chemscore.DEInternal>
0.5722

> <Gold.Chemscore.Rot>
1.9265

> <Gold.Chemscore.Internal.Correction>
   9.000000E+99

> <Gold.Chemscore.Hbonds>
donor molecule, donor type, donor heavy atom, donor atom, acceptor molecule, acceptor atom, score
      L1  H    11    30       P1  8028  0.86
      P1  H  7989  7998       L1     7  0.07

> <Gold.Chemscore.Hbond.Weighted>
-2.9114

> <Gold.Chemscore.Metal.Weighted>
-0.0000

> <Gold.Chemscore.Lipo.Weighted>
-14.2489

> <Gold.Chemscore.Internal_Hbond.Weighted>
0.0000

> <Gold.Chemscore.DEClash.Weighted>
0.3193

> <Gold.Chemscore.DEInternal.Weighted>
0.5722

> <Gold.Chemscore.Rot.Weighted>
4.9317

> <Gold.Chemscore.Internal.Correction.Weighted>
   9.000000E+99

> <Gold.Protein.RotatedTorsions>
[ 6907 6896 6895 6894 ] final   75.96 input  -60.11 | X-H torsion
[ 7974 7965 7964 7962 ] final   45.27 input  175.53 | X-H torsion
[ 8008 7997 7996 7995 ] final  -94.94 input   59.86 | X-H torsion
[ 10167 10162 10161 10158 ] final   22.27 input  -65.29 | X-H torsion
[ 10718 10713 10712 10709 ] final -151.25 input   66.30 | X-H torsion
[ 10763 10752 10751 10750 ] final  167.88 input  -60.55 | X-H torsion
[ 11005 11000 10999 10996 ] final  144.86 input  -57.11 | X-H torsion

> <Gold.Protein.ActiveResidues>
 VAL166  LYS551  ARG553  GLY616  TRP617  ASP618  TYR619  PRO620  LYS621  CYS622 
 ASP623  PHE694  ASN695  SER759  ASP760  ASP761  ALA762  ILE779  LEU786  VAL792 
 PHE793  MET794  SER795  GLU796  ALA797  LYS798  CYS799  TRP800  GLU811  SER814 

> <Gold.Protein.RotatedAtoms>
  152.5051  134.4041  159.9426 H   0  0  0  0  0  0  0  0  0  0  0  0  # atno 6907 bound_to 6896
  151.4006  133.3752  159.2739 H   0  0  0  0  0  0  0  0  0  0  0  0  # atno 6908 bound_to 6896
  150.9364  134.8798  159.7644 H   0  0  0  0  0  0  0  0  0  0  0  0  # atno 6909 bound_to 6896
  146.0495  139.4982  142.9727 H   0  0  0  0  0  0  0  0  0  0  0  0  # atno 7974 bound_to 7965
  154.7549  140.0484  157.0925 H   0  0  0  0  0  0  0  0  0  0  0  0  # atno 8008 bound_to 7997
  155.0010  140.3124  155.4848 H   0  0  0  0  0  0  0  0  0  0  0  0  # atno 8009 bound_to 7997
  156.2893  140.2201  156.5120 H   0  0  0  0  0  0  0  0  0  0  0  0  # atno 8010 bound_to 7997
  140.5362  143.9757  150.6493 H   0  0  0  0  0  0  0  0  0  0  0  0  # atno 10167 bound_to 10162
  156.4568  130.8194  151.2425 H   0  0  0  0  0  0  0  0  0  0  0  0  # atno 10718 bound_to 10713
  154.3603  135.2753  155.2323 H   0  0  0  0  0  0  0  0  0  0  0  0  # atno 10763 bound_to 10752
  154.4514  135.5930  153.6198 H   0  0  0  0  0  0  0  0  0  0  0  0  # atno 10764 bound_to 10752
  152.9844  135.6043  154.3823 H   0  0  0  0  0  0  0  0  0  0  0  0  # atno 10765 bound_to 10752
  140.0666  134.9175  157.1274 H   0  0  0  0  0  0  0  0  0  0  0  0  # atno 11005 bound_to 11000
  145.6749  141.0206  143.1637 LP  0  0  0  0  0  0  0  0  0  0  0  0  # atno 17320 bound_to 7965
  144.7115  139.8354  143.7413 LP  0  0  0  0  0  0  0  0  0  0  0  0  # atno 17321 bound_to 7965
  140.3145  143.3177  152.0846 LP  0  0  0  0  0  0  0  0  0  0  0  0  # atno 17342 bound_to 10162
  139.4972  144.6614  151.6455 LP  0  0  0  0  0  0  0  0  0  0  0  0  # atno 17343 bound_to 10162
  157.7500  131.0120  150.3367 LP  0  0  0  0  0  0  0  0  0  0  0  0  # atno 17370 bound_to 10713
  156.3758  130.3871  149.7140 LP  0  0  0  0  0  0  0  0  0  0  0  0  # atno 17371 bound_to 10713
  140.3690  134.2411  155.7179 LP  0  0  0  0  0  0  0  0  0  0  0  0  # atno 17394 bound_to 11000
  141.1995  133.8010  157.0533 LP  0  0  0  0  0  0  0  0  0  0  0  0  # atno 17395 bound_to 11000

$$$$
