AV-unprocessed.smi:467|AV-procd|sdf|2649|dock3
  -GOLD-   2262023 63D 1   1.00000     0.00000
 Structure written by MMmdl.
 46 48  0  0  0  0  0  0  0  0  3 V2000
  152.5435  143.0334  160.5893 C   0  0  0  0  0  0  0  0  0  0  0  0
  152.1615  142.2867  159.3223 C   0  0  0  0  0  0  0  0  0  0  0  0
  151.2196  142.8769  158.4500 C   0  0  0  0  0  0  0  0  0  0  0  0
  150.8913  142.1707  157.2991 C   0  0  0  0  0  0  0  0  0  0  0  0
  150.0115  142.4788  156.2596 N   0  3  0  0  0  0  0  0  0  0  0  0
  150.0225  141.4735  155.3418 C   0  0  0  0  0  0  0  0  0  0  0  0
  150.9013  140.5292  155.7762 N   0  0  0  0  0  0  0  0  0  0  0  0
  151.2768  139.2498  155.1572 C   0  0  0  0  0  0  0  0  0  0  0  0
  150.0759  138.3046  154.9521 C   0  0  2  0  0  0  0  0  0  0  0  0
  150.5505  137.1727  154.2514 O   0  0  0  0  0  0  0  0  0  0  0  0
  148.9157  138.9442  154.1562 C   0  0  0  0  0  0  0  0  0  0  0  0
  147.9091  137.9548  153.6927 N   0  3  0  0  0  0  0  0  0  0  0  0
  147.2440  137.2182  154.7969 C   0  0  0  0  0  0  0  0  0  0  0  0
  146.2388  136.1970  154.2361 C   0  0  0  0  0  0  0  0  0  0  0  0
  145.2913  136.8611  153.4094 O   0  0  0  0  0  0  0  0  0  0  0  0
  145.9087  137.4937  152.2958 C   0  0  0  0  0  0  0  0  0  0  0  0
  146.8969  138.5614  152.7949 C   0  0  0  0  0  0  0  0  0  0  0  0
  151.4633  140.9185  156.9994 C   0  0  0  0  0  0  0  0  0  0  0  0
  152.3933  140.3230  157.8497 C   0  0  0  0  0  0  0  0  0  0  0  0
  152.7402  141.0257  159.0261 C   0  0  0  0  0  0  0  0  0  0  0  0
  153.7496  140.3993  159.9734 C   0  0  0  0  0  0  0  0  0  0  0  0
  152.0051  143.9779  160.6729 H   0  0  0  0  0  0  0  0  0  0  0  0
  153.6106  143.2574  160.5948 H   0  0  0  0  0  0  0  0  0  0  0  0
  152.3088  142.4375  161.4716 H   0  0  0  0  0  0  0  0  0  0  0  0
  150.7737  143.8361  158.6704 H   0  0  0  0  0  0  0  0  0  0  0  0
  149.4383  141.4329  154.4336 H   0  0  0  0  0  0  0  0  0  0  0  0
  151.7986  139.4372  154.2189 H   0  0  0  0  0  0  0  0  0  0  0  0
  152.0068  138.7818  155.8195 H   0  0  0  0  0  0  0  0  0  0  0  0
  149.7331  137.9748  155.9323 H   0  0  0  0  0  0  0  0  0  0  0  0
  150.0130  137.0355  153.4867 H   0  0  0  0  0  0  0  0  0  0  0  0
  148.4047  139.7014  154.7517 H   0  0  0  0  0  0  0  0  0  0  0  0
  149.3367  139.4675  153.2960 H   0  0  0  0  0  0  0  0  0  0  0  0
  147.9788  136.6966  155.4086 H   0  0  0  0  0  0  0  0  0  0  0  0
  146.7280  137.9240  155.4499 H   0  0  0  0  0  0  0  0  0  0  0  0
  146.7501  135.4164  153.6705 H   0  0  0  0  0  0  0  0  0  0  0  0
  145.7101  135.7044  155.0525 H   0  0  0  0  0  0  0  0  0  0  0  0
  146.4147  136.7534  151.6738 H   0  0  0  0  0  0  0  0  0  0  0  0
  145.1370  137.9544  151.6786 H   0  0  0  0  0  0  0  0  0  0  0  0
  146.3595  139.3480  153.3270 H   0  0  0  0  0  0  0  0  0  0  0  0
  147.3897  139.0293  151.9416 H   0  0  0  0  0  0  0  0  0  0  0  0
  152.8376  139.3639  157.6294 H   0  0  0  0  0  0  0  0  0  0  0  0
  154.1152  139.4444  159.5947 H   0  0  0  0  0  0  0  0  0  0  0  0
  153.2971  140.2191  160.9490 H   0  0  0  0  0  0  0  0  0  0  0  0
  154.6103  141.0550  160.1067 H   0  0  0  0  0  0  0  0  0  0  0  0
  148.4062  137.2748  153.1351 H   0  0  0  0  0  0  0  0  0  0  0  0
  149.4409  143.3113  156.1822 H   0  0  0  0  0  0  0  0  0  0  0  0
  1  2  1  0  0  0  0
  1 22  1  0  0  0  0
  1 23  1  0  0  0  0
  1 24  1  0  0  0  0
  2 20  1  0  0  0  0
  2  3  2  0  0  0  0
  3  4  1  0  0  0  0
  3 25  1  0  0  0  0
  4 18  2  0  0  0  0
  4  5  1  0  0  0  0
  5  6  2  0  0  0  0
  5 46  1  0  0  0  0
  6  7  1  0  0  0  0
  6 26  1  0  0  0  0
  7  8  1  0  0  0  0
  7 18  1  0  0  0  0
  8  9  1  0  0  0  0
  8 27  1  0  0  0  0
  8 28  1  0  0  0  0
  9 10  1  0  0  0  0
  9 11  1  0  0  0  0
  9 29  1  0  0  0  0
 10 30  1  0  0  0  0
 11 12  1  0  0  0  0
 11 31  1  0  0  0  0
 11 32  1  0  0  0  0
 12 17  1  0  0  0  0
 12 13  1  0  0  0  0
 12 45  1  0  0  0  0
 13 14  1  0  0  0  0
 13 33  1  0  0  0  0
 13 34  1  0  0  0  0
 14 15  1  0  0  0  0
 14 35  1  0  0  0  0
 14 36  1  0  0  0  0
 15 16  1  0  0  0  0
 16 17  1  0  0  0  0
 16 37  1  0  0  0  0
 16 38  1  0  0  0  0
 17 39  1  0  0  0  0
 17 40  1  0  0  0  0
 18 19  1  0  0  0  0
 19 20  2  0  0  0  0
 19 41  1  0  0  0  0
 20 21  1  0  0  0  0
 21 42  1  0  0  0  0
 21 43  1  0  0  0  0
 21 44  1  0  0  0  0
M  CHG  1   5   1
M  CHG  1  12   1
M  END
> <s_m_source_file>
AV-unprocessed.smi

> <i_m_source_file_index>
467

> <i_lp_mmshare_version>
43012

> <i_f3d_flags>
0

> <s_epik_input>
W0NIM11jKFtjSF0xKWMoW0NIM10pW2NIXWMoYzEyKW4oW2NIXW4yKVtDSDJdW0NASF0oW09IXSlbQ0gyXU4zW0NIMl1bQ0gyXU9bQ0gyXVtDSDJdMw==

> <s_epik_cmdline>
J2VwaWtfcHl0aG9uJywgJy1waCcsICc3LjAnLCAnLXRuJywgJzgnLCAnLW1hJywgJzIwMCcsICctbWV0YWxfYmluZGluZycsICctaW1hZScsICc8aW5maWxlLm1hZT4nLCAnLW9tYWUnLCAnPG91dGZpbGUubWFlPic=

> <r_epik_Ionization_Penalty>
1.88533

> <r_epik_Ionization_Penalty_Charging>
1.88531

> <r_epik_Ionization_Penalty_Neutral>
1.42224e-05

> <r_epik_State_Penalty>
1.94609

> <r_epik_Charging_Adjusted_Penalty>
3.8314

> <i_epik_Tot_Q>
2

> <i_epik_Tot_abs_Q>
2

> <r_epik_Metal_State_Penalty>
5.95915

> <b_epik_Metal_Only>
0

> <s_lp_Force_Field>
OPLS_2005

> <r_lp_Energy>
33.5699

> <b_lp_Chiralities_Consistent>
1

> <s_lp_Variant>
AV-unprocessed.smi:467-7

> <Gold.Version>
5.8.1

> <Gold.Id.Protein>
6NUR|6NUR_protein|mol2

> <Gold.PLP.Fitness>
55.4234

> <Gold.PLP.PLP>
-40.6214

> <Gold.PLP.part.hbond>
-4.0000

> <Gold.PLP.part.metal>
0.0000

> <Gold.PLP.part.buried>
-2.6551

> <Gold.PLP.part.nonpolar>
-34.5272

> <Gold.PLP.part.repulsive>
0.2733

> <Gold.PLP.ligand.clash>
0.0000

> <Gold.PLP.ligand.torsion>
0.1113

> <Gold.PLP.Chemscore.Hbond>
5.0000

> <Gold.PLP.Chemscore.CHOScore>
0.0000

> <Gold.PLP.Chemscore.Metal>
0.0000

> <Gold.Chemscore.Hbonds>
donor molecule, donor type, donor heavy atom, donor atom, acceptor molecule, acceptor atom, score
      L1  H     5    46       P1  8028  2.00
      L1  H    10    30       P1  7948  0.94
      L1  H    12    45       P1  7948  2.00

> <Gold.PLP.Chemscore.Internal.Correction>
0.0245

> <Gold.Rescore>
     Score         DG    S(hbond)    S(metal)    S(lipo)     H(rot)  DE(clash)    DE(int)     intcor
     19.69     -20.74       2.67        0.00     101.47       2.16       0.01       1.04       ----

> <Gold.Chemscore.Fitness>
19.6890

> <Gold.Chemscore.DG>
-20.7377

> <Gold.Chemscore.ZeroCoef>
-5.4800

> <Gold.Chemscore.Hbond>
2.6685

> <Gold.Chemscore.Metal>
0.0000

> <Gold.Chemscore.Lipo>
101.4731

> <Gold.Chemscore.Internal_Hbond>
0.0000

> <Gold.Chemscore.DEClash>
0.0098

> <Gold.Chemscore.DEInternal>
1.0389

> <Gold.Chemscore.Rot>
2.1592

> <Gold.Chemscore.Internal.Correction>
   9.000000E+99

> <Gold.Chemscore.Hbonds>
donor molecule, donor type, donor heavy atom, donor atom, acceptor molecule, acceptor atom, score
      L1  H     5    46       P1  8028  0.98
      L1  H    10    30       P1  7948  0.23
      L1  H    12    45       P1  7948  1.00

> <Gold.Chemscore.Hbond.Weighted>
-8.9129

> <Gold.Chemscore.Metal.Weighted>
-0.0000

> <Gold.Chemscore.Lipo.Weighted>
-11.8723

> <Gold.Chemscore.Internal_Hbond.Weighted>
0.0000

> <Gold.Chemscore.DEClash.Weighted>
0.0098

> <Gold.Chemscore.DEInternal.Weighted>
1.0389

> <Gold.Chemscore.Rot.Weighted>
5.5275

> <Gold.Chemscore.Internal.Correction.Weighted>
   9.000000E+99

> <Gold.Protein.RotatedTorsions>
[ 6907 6896 6895 6894 ] final   54.08 input  -60.11 | X-H torsion
[ 7974 7965 7964 7962 ] final  -26.57 input  175.53 | X-H torsion
[ 8008 7997 7996 7995 ] final  164.12 input   59.86 | X-H torsion
[ 10167 10162 10161 10158 ] final   28.61 input  -65.29 | X-H torsion
[ 10718 10713 10712 10709 ] final  -94.50 input   66.30 | X-H torsion
[ 10763 10752 10751 10750 ] final  136.03 input  -60.55 | X-H torsion
[ 11005 11000 10999 10996 ] final   -7.21 input  -57.11 | X-H torsion

> <Gold.Protein.ActiveResidues>
 VAL166  LYS551  ARG553  GLY616  TRP617  ASP618  TYR619  PRO620  LYS621  CYS622 
 ASP623  PHE694  ASN695  SER759  ASP760  ASP761  ALA762  ILE779  LEU786  VAL792 
 PHE793  MET794  SER795  GLU796  ALA797  LYS798  CYS799  TRP800  GLU811  SER814 

> <Gold.Protein.RotatedAtoms>
  152.3403  134.7144  160.0265 H   0  0  0  0  0  0  0  0  0  0  0  0  # atno 6907 bound_to 6896
  151.7531  133.3323  159.3405 H   0  0  0  0  0  0  0  0  0  0  0  0  # atno 6908 bound_to 6896
  150.7475  134.6106  159.6129 H   0  0  0  0  0  0  0  0  0  0  0  0  # atno 6909 bound_to 6896
  146.1417  140.5037  142.8649 H   0  0  0  0  0  0  0  0  0  0  0  0  # atno 7974 bound_to 7965
  156.1905  140.1705  156.8101 H   0  0  0  0  0  0  0  0  0  0  0  0  # atno 8008 bound_to 7997
  154.5465  140.0726  156.8630 H   0  0  0  0  0  0  0  0  0  0  0  0  # atno 8009 bound_to 7997
  155.3111  140.3367  155.4246 H   0  0  0  0  0  0  0  0  0  0  0  0  # atno 8010 bound_to 7997
  140.4837  144.0575  150.6274 H   0  0  0  0  0  0  0  0  0  0  0  0  # atno 10167 bound_to 10162
  156.0028  130.5070  150.5936 H   0  0  0  0  0  0  0  0  0  0  0  0  # atno 10718 bound_to 10713
  153.8498  135.3080  155.3432 H   0  0  0  0  0  0  0  0  0  0  0  0  # atno 10763 bound_to 10752
  154.7896  135.4790  154.0026 H   0  0  0  0  0  0  0  0  0  0  0  0  # atno 10764 bound_to 10752
  153.1525  135.6846  153.8954 H   0  0  0  0  0  0  0  0  0  0  0  0  # atno 10765 bound_to 10752
  140.7103  133.8914  155.8746 H   0  0  0  0  0  0  0  0  0  0  0  0  # atno 11005 bound_to 11000
  144.7799  140.5819  143.6612 LP  0  0  0  0  0  0  0  0  0  0  0  0  # atno 17320 bound_to 7965
  145.5032  139.1482  143.3645 LP  0  0  0  0  0  0  0  0  0  0  0  0  # atno 17321 bound_to 7965
  140.3825  143.2795  152.0154 LP  0  0  0  0  0  0  0  0  0  0  0  0  # atno 17342 bound_to 10162
  139.4838  144.6143  151.7375 LP  0  0  0  0  0  0  0  0  0  0  0  0  # atno 17343 bound_to 10162
  157.3797  131.0779  151.1488 LP  0  0  0  0  0  0  0  0  0  0  0  0  # atno 17370 bound_to 10713
  157.2214  130.6483  149.5813 LP  0  0  0  0  0  0  0  0  0  0  0  0  # atno 17371 bound_to 10713
  141.0090  134.1047  157.4241 LP  0  0  0  0  0  0  0  0  0  0  0  0  # atno 17394 bound_to 11000
  139.8873  135.0089  156.6554 LP  0  0  0  0  0  0  0  0  0  0  0  0  # atno 17395 bound_to 11000

$$$$
