#       Name:                AV-unprocessed.smi:3344
#       Creating user name   scv26
#       Creation time:       Fri Mar 27 19:30:47 2020


#       File generated by GOLD software.
#

@<TRIPOS>MOLECULE
AV-unprocessed.smi:3344
    47    48     1
SMALL
NO_CHARGES


@<TRIPOS>ATOM
      1 ****        -3.8223  -2.8810  -2.9460 C.3            1 S1                 0.0000
      2 ****        -3.2942  -2.0752  -1.7414 C.3            1 S1                 0.0000
      3 ****        -1.7690  -1.8750  -1.7729 C.2            1 S1                 0.0000
      4 ****        -1.0620  -2.5192  -2.5490 O.2            1 S1                 0.0000
      5 ****        -1.2702  -0.9628  -0.9243 N.am           1 S1                 0.0000
      6 ****         0.1427  -0.6277  -0.8135 C.3            1 S1                 0.0000
      7 ****         0.3877   0.2798   0.4043 C.3            1 S1                 0.0000
      8 ****         1.8248   0.6136   0.5999 N.4            1 S1                 1.0000
      9 ****         2.1073   1.1206   1.9723 C.3            1 S1                 0.0000
     10 ****         1.9039   2.6373   2.1517 C.3            1 S1                 0.0000
     11 ****         3.1850   3.4415   1.8795 C.3            1 S1                 0.0000
     12 ****         3.6006   3.4774   0.4033 C.3            1 S1                 0.0000
     13 ****         3.7459   2.0907  -0.2459 C.3            1 S1                 0.0000
     14 ****         2.3900   1.4133  -0.5258 C.3            1 S1                 0.0000
     15 ****        -3.7096  -2.6600  -0.4719 N.pl3          1 S1                 0.0000
     16 ****        -4.2472  -2.0820   0.6045 C.2            1 S1                 0.0000
     17 ****        -4.4678  -2.9162   1.6107 N.2            1 S1                 0.0000
     18 ****        -4.0075  -4.0746   1.0516 C.2            1 S1                 0.0000
     19 ****        -3.5306  -3.9745  -0.1890 N.2            1 S1                 0.0000
     20 ****        -3.5593  -2.3999  -3.8887 H              1 S1                 0.0000
     21 ****        -4.9094  -2.9587  -2.9137 H              1 S1                 0.0000
     22 ****        -3.4205  -3.8949  -2.9684 H              1 S1                 0.0000
     23 ****        -3.7437  -1.0825  -1.7977 H              1 S1                 0.0000
     24 ****        -1.9124  -0.4713  -0.3195 H              1 S1                 0.0000
     25 ****         0.7325  -1.5414  -0.7211 H              1 S1                 0.0000
     26 ****         0.4455  -0.1358  -1.7383 H              1 S1                 0.0000
     27 ****        -0.1938   1.1991   0.3189 H              1 S1                 0.0000
     28 ****         0.0136  -0.2414   1.2869 H              1 S1                 0.0000
     29 ****         1.4838   0.5871   2.6906 H              1 S1                 0.0000
     30 ****         3.1273   0.8471   2.2442 H              1 S1                 0.0000
     31 ****         1.0704   3.0042   1.5517 H              1 S1                 0.0000
     32 ****         1.6212   2.8173   3.1896 H              1 S1                 0.0000
     33 ****         3.0404   4.4663   2.2234 H              1 S1                 0.0000
     34 ****         4.0031   3.0412   2.4798 H              1 S1                 0.0000
     35 ****         2.8876   4.0763  -0.1645 H              1 S1                 0.0000
     36 ****         4.5528   4.0036   0.3279 H              1 S1                 0.0000
     37 ****         4.2437   2.2374  -1.2051 H              1 S1                 0.0000
     38 ****         4.4103   1.4447   0.3291 H              1 S1                 0.0000
     39 ****         2.5227   0.7354  -1.3690 H              1 S1                 0.0000
     40 ****         1.6677   2.1624  -0.8537 H              1 S1                 0.0000
     41 ****        -4.4786  -1.0281   0.6553 H              1 S1                 0.0000
     42 ****        -4.0167  -5.0181   1.5772 H              1 S1                 0.0000
     43 ****         2.3054  -0.2742   0.5660 H              1 S1                 0.0000
     44 ****        -1.4780  -3.1834  -3.1702 LP             1 S1                 0.0000
     45 ****        -0.0721  -2.3781  -2.5579 LP             1 S1                 0.0000
     46 ****        -4.8578  -2.7469   2.5159 LP             1 S1                 0.0000
     47 ****        -3.1386  -4.6901  -0.7671 LP             1 S1                 0.0000
@<TRIPOS>BOND
    1    1    2 1     
    2    1   20 1     
    3    1   21 1     
    4    1   22 1     
    5    2    3 1     
    6    2   15 1     
    7    2   23 1     
    8    3    4 2     
    9    3    5 am    
   10    5    6 1     
   11    5   24 1     
   12    6    7 1     
   13    6   25 1     
   14    6   26 1     
   15    7    8 1     
   16    7   27 1     
   17    7   28 1     
   18    8   14 1     
   19    8    9 1     
   20    8   43 1     
   21    9   10 1     
   22    9   29 1     
   23    9   30 1     
   24   10   11 1     
   25   10   31 1     
   26   10   32 1     
   27   11   12 1     
   28   11   33 1     
   29   11   34 1     
   30   12   13 1     
   31   12   35 1     
   32   12   36 1     
   33   13   14 1     
   34   13   37 1     
   35   13   38 1     
   36   14   39 1     
   37   14   40 1     
   38   15   19 1     
   39   15   16 1     
   40   16   17 2     
   41   16   41 1     
   42   17   18 1     
   43   18   19 2     
   44   18   42 1     
   45    4   44 1     
   46    4   45 1     
   47   17   46 1     
   48   19   47 1     
@<TRIPOS>SUBSTRUCTURE
      1 S1             1
@<TRIPOS>SET
LONE_PAIRS      STATIC     ATOMS    <user>   **** ""
4 44 45 46 47
DONOR_HYDROGENS      STATIC     ATOMS    <user>   **** ""
2 24 43
ATOM$BLUE        STATIC     ATOMS    COLORGROUP SYSTEM
4 44 45 46 47
ATOM$RED        STATIC     ATOMS    COLORGROUP SYSTEM
2 24 43
