#       Name:                AV-unprocessed.smi:1978
#       Creating user name   scv26
#       Creation time:       Fri Mar 27 10:18:23 2020


#       File generated by GOLD software.
#

@<TRIPOS>MOLECULE
AV-unprocessed.smi:1978
    50    51     1
SMALL
NO_CHARGES


@<TRIPOS>ATOM
      1 ****        -3.6685   6.9743  -1.8846 C.3            1 S1                 0.0000
      2 ****        -3.0992   5.6259  -1.6040 C.2            1 S1                 0.0000
      3 ****        -3.1315   4.8120  -0.5065 C.2            1 S1                 0.0000
      4 ****        -2.3888   3.6774  -0.9282 C.2            1 S1                 0.0000
      5 ****        -2.1843   2.5769  -0.0573 N.am           1 S1                 0.0000
      6 ****        -1.5252   1.4362  -0.3215 C.2            1 S1                 0.0000
      7 ****        -0.9857   1.1577  -1.3928 O.2            1 S1                 0.0000
      8 ****        -1.5212   0.6165   0.7399 N.am           1 S1                 0.0000
      9 ****        -0.8969  -0.7036   0.7708 C.3            1 S1                 0.0000
     10 ****         0.6581  -0.6536   0.8481 C.3            1 S1                 0.0000
     11 ****         1.0907   0.1834   2.0780 C.3            1 S1                 0.0000
     12 ****         1.2843  -2.0227   0.8628 N.4            1 S1                 1.0000
     13 ****         2.7795  -2.0012   0.8967 C.3            1 S1                 0.0000
     14 ****         3.3747  -3.4021   1.1152 C.3            1 S1                 0.0000
     15 ****         2.8892  -4.3869   0.0514 C.3            1 S1                 0.0000
     16 ****         1.3581  -4.3945   0.0329 C.3            1 S1                 0.0000
     17 ****         0.7695  -2.9826  -0.1723 C.3            1 S1                 0.0000
     18 ****         0.9568  -2.4816  -1.6222 C.3            1 S1                 0.0000
     19 ****        -1.9417   3.7887  -2.1696 N.2            1 S1                 0.0000
     20 ****        -2.3952   5.0381  -2.6094 O.3            1 S1                 0.0000
     21 ****        -4.1419   7.3903  -0.9951 H              1 S1                 0.0000
     22 ****        -4.4192   6.9196  -2.6731 H              1 S1                 0.0000
     23 ****        -2.8885   7.6647  -2.2062 H              1 S1                 0.0000
     24 ****        -3.6111   5.0007   0.4425 H              1 S1                 0.0000
     25 ****        -2.5846   2.6688   0.8646 H              1 S1                 0.0000
     26 ****        -1.9899   0.9209   1.5809 H              1 S1                 0.0000
     27 ****        -1.2948  -1.2458   1.6291 H              1 S1                 0.0000
     28 ****        -1.2487  -1.2269  -0.1174 H              1 S1                 0.0000
     29 ****         1.0262  -0.1375  -0.0394 H              1 S1                 0.0000
     30 ****         0.5663   1.1365   2.1334 H              1 S1                 0.0000
     31 ****         2.1463   0.4484   2.0521 H              1 S1                 0.0000
     32 ****         0.8944  -0.3493   3.0089 H              1 S1                 0.0000
     33 ****         3.1679  -1.5609  -0.0222 H              1 S1                 0.0000
     34 ****         3.1481  -1.3853   1.7132 H              1 S1                 0.0000
     35 ****         4.4638  -3.3494   1.1024 H              1 S1                 0.0000
     36 ****         3.0961  -3.7671   2.1050 H              1 S1                 0.0000
     37 ****         3.2803  -4.1067  -0.9271 H              1 S1                 0.0000
     38 ****         3.2687  -5.3871   0.2626 H              1 S1                 0.0000
     39 ****         0.9981  -5.0709  -0.7433 H              1 S1                 0.0000
     40 ****         0.9938  -4.8010   0.9775 H              1 S1                 0.0000
     41 ****        -0.2979  -3.1206  -0.0115 H              1 S1                 0.0000
     42 ****         0.5649  -3.2086  -2.3339 H              1 S1                 0.0000
     43 ****         2.0043  -2.3178  -1.8730 H              1 S1                 0.0000
     44 ****         0.4261  -1.5477  -1.8043 H              1 S1                 0.0000
     45 ****         1.0066  -2.4250   1.7466 H              1 S1                 0.0000
     46 ****        -1.0184   1.8068  -2.1528 LP             1 S1                 0.0000
     47 ****        -0.5148   0.2824  -1.5028 LP             1 S1                 0.0000
     48 ****        -1.3978   3.1242  -2.6821 LP             1 S1                 0.0000
     49 ****        -1.6140   5.6126  -2.8537 LP             1 S1                 0.0000
     50 ****        -2.9847   4.9198  -3.4084 LP             1 S1                 0.0000
@<TRIPOS>BOND
    1    1    2 1     
    2    1   21 1     
    3    1   22 1     
    4    1   23 1     
    5    2   20 1     
    6    2    3 2     
    7    3    4 1     
    8    3   24 1     
    9    4    5 1     
   10    4   19 2     
   11    5    6 am    
   12    5   25 1     
   13    6    7 2     
   14    6    8 am    
   15    8    9 1     
   16    8   26 1     
   17    9   10 1     
   18    9   27 1     
   19    9   28 1     
   20   10   11 1     
   21   10   12 1     
   22   10   29 1     
   23   11   30 1     
   24   11   31 1     
   25   11   32 1     
   26   12   17 1     
   27   12   13 1     
   28   12   45 1     
   29   13   14 1     
   30   13   33 1     
   31   13   34 1     
   32   14   15 1     
   33   14   35 1     
   34   14   36 1     
   35   15   16 1     
   36   15   37 1     
   37   15   38 1     
   38   16   17 1     
   39   16   39 1     
   40   16   40 1     
   41   17   18 1     
   42   17   41 1     
   43   18   42 1     
   44   18   43 1     
   45   18   44 1     
   46   19   20 1     
   47    7   46 1     
   48    7   47 1     
   49   19   48 1     
   50   20   49 1     
   51   20   50 1     
@<TRIPOS>SUBSTRUCTURE
      1 S1             1
@<TRIPOS>SET
LONE_PAIRS      STATIC     ATOMS    <user>   **** ""
5 46 47 48 49 50
DONOR_HYDROGENS      STATIC     ATOMS    <user>   **** ""
3 25 26 45
ATOM$BLUE        STATIC     ATOMS    COLORGROUP SYSTEM
5 46 47 48 49 50
ATOM$RED        STATIC     ATOMS    COLORGROUP SYSTEM
3 25 26 45
