AV-unprocessed.smi:870|AV-procd|sdf|4010|dock9
  -GOLD-   22720 1503D 1   1.00000     0.00000
 Structure written by MMmdl.
 47 49  0  0  0  0  0  0  0  0  2 V2000
  147.9469  141.4658  153.8049 C   0  0  0  0  0  0  0  0  0  0  0  0
  149.0780  141.4985  154.6577 O   0  0  0  0  0  0  0  0  0  0  0  0
  148.7746  141.0781  155.9780 C   0  0  0  0  0  0  0  0  0  0  0  0
  149.8713  141.4108  156.9360 C   0  0  0  0  0  0  0  0  0  0  0  0
  150.4048  142.6474  157.1480 N   0  3  0  0  0  0  0  0  0  0  0  0
  151.4068  142.5711  158.1162 C   0  0  0  0  0  0  0  0  0  0  0  0
  152.2258  143.5553  158.6612 C   0  0  0  0  0  0  0  0  0  0  0  0
  153.1513  143.1373  159.6401 C   0  0  0  0  0  0  0  0  0  0  0  0
  153.2376  141.7879  160.0408 C   0  0  0  0  0  0  0  0  0  0  0  0
  152.4024  140.7990  159.4803 C   0  0  0  0  0  0  0  0  0  0  0  0
  151.4899  141.2213  158.5141 C   0  0  0  0  0  0  0  0  0  0  0  0
  150.5251  140.5437  157.7615 N   0  0  0  0  0  0  0  0  0  0  0  0
  150.3547  139.0948  157.9506 C   0  0  0  0  0  0  0  0  0  0  0  0
  148.8919  138.6933  158.2283 C   0  0  1  0  0  0  0  0  0  0  0  0
  148.2854  138.3024  157.0123 O   0  0  0  0  0  0  0  0  0  0  0  0
  148.7986  137.5225  159.2185 C   0  0  0  0  0  0  0  0  0  0  0  0
  147.4998  137.5182  159.7953 O   0  0  0  0  0  0  0  0  0  0  0  0
  147.1751  136.5108  160.6807 C   0  0  0  0  0  0  0  0  0  0  0  0
  147.9955  135.3787  160.9214 C   0  0  0  0  0  0  0  0  0  0  0  0
  147.5981  134.3889  161.8403 C   0  0  0  0  0  0  0  0  0  0  0  0
  146.3798  134.5153  162.5307 C   0  0  0  0  0  0  0  0  0  0  0  0
  145.5587  135.6340  162.3018 C   0  0  0  0  0  0  0  0  0  0  0  0
  145.9519  136.6288  161.3817 C   0  0  0  0  0  0  0  0  0  0  0  0
  145.0531  137.8284  161.1463 C   0  0  0  0  0  0  0  0  0  0  0  0
  148.2287  141.8058  152.8083 H   0  0  0  0  0  0  0  0  0  0  0  0
  147.1557  142.1205  154.1725 H   0  0  0  0  0  0  0  0  0  0  0  0
  147.5502  140.4537  153.7156 H   0  0  0  0  0  0  0  0  0  0  0  0
  147.8553  141.5572  156.3172 H   0  0  0  0  0  0  0  0  0  0  0  0
  148.6104  139.9996  155.9973 H   0  0  0  0  0  0  0  0  0  0  0  0
  152.1613  144.5894  158.3559 H   0  0  0  0  0  0  0  0  0  0  0  0
  153.8078  143.8660  160.0930 H   0  0  0  0  0  0  0  0  0  0  0  0
  153.9588  141.5049  160.7939 H   0  0  0  0  0  0  0  0  0  0  0  0
  152.4746  139.7682  159.7947 H   0  0  0  0  0  0  0  0  0  0  0  0
  150.7200  138.5963  157.0520 H   0  0  0  0  0  0  0  0  0  0  0  0
  151.0088  138.7764  158.7635 H   0  0  0  0  0  0  0  0  0  0  0  0
  148.3528  139.5527  158.6284 H   0  0  0  0  0  0  0  0  0  0  0  0
  147.7457  139.0156  156.7059 H   0  0  0  0  0  0  0  0  0  0  0  0
  149.0255  136.5771  158.7222 H   0  0  0  0  0  0  0  0  0  0  0  0
  149.5292  137.6664  160.0163 H   0  0  0  0  0  0  0  0  0  0  0  0
  148.9383  135.2447  160.4135 H   0  0  0  0  0  0  0  0  0  0  0  0
  148.2303  133.5311  162.0159 H   0  0  0  0  0  0  0  0  0  0  0  0
  146.0754  133.7557  163.2358 H   0  0  0  0  0  0  0  0  0  0  0  0
  144.6242  135.7246  162.8361 H   0  0  0  0  0  0  0  0  0  0  0  0
  144.1425  137.7682  161.7429 H   0  0  0  0  0  0  0  0  0  0  0  0
  144.7657  137.8870  160.0962 H   0  0  0  0  0  0  0  0  0  0  0  0
  145.5730  138.7488  161.4131 H   0  0  0  0  0  0  0  0  0  0  0  0
  150.0983  143.4806  156.6625 H   0  0  0  0  0  0  0  0  0  0  0  0
  1  2  1  0  0  0  0
  1 25  1  0  0  0  0
  1 26  1  0  0  0  0
  1 27  1  0  0  0  0
  2  3  1  0  0  0  0
  3  4  1  0  0  0  0
  3 28  1  0  0  0  0
  3 29  1  0  0  0  0
  4 12  1  0  0  0  0
  4  5  2  0  0  0  0
  5  6  1  0  0  0  0
  5 47  1  0  0  0  0
  6 11  2  0  0  0  0
  6  7  1  0  0  0  0
  7  8  2  0  0  0  0
  7 30  1  0  0  0  0
  8  9  1  0  0  0  0
  8 31  1  0  0  0  0
  9 10  2  0  0  0  0
  9 32  1  0  0  0  0
 10 11  1  0  0  0  0
 10 33  1  0  0  0  0
 11 12  1  0  0  0  0
 12 13  1  0  0  0  0
 13 14  1  0  0  0  0
 13 34  1  0  0  0  0
 13 35  1  0  0  0  0
 14 15  1  0  0  0  0
 14 16  1  0  0  0  0
 14 36  1  0  0  0  0
 15 37  1  0  0  0  0
 16 17  1  0  0  0  0
 16 38  1  0  0  0  0
 16 39  1  0  0  0  0
 17 18  1  0  0  0  0
 18 23  1  0  0  0  0
 18 19  2  0  0  0  0
 19 20  1  0  0  0  0
 19 40  1  0  0  0  0
 20 21  2  0  0  0  0
 20 41  1  0  0  0  0
 21 22  1  0  0  0  0
 21 42  1  0  0  0  0
 22 23  2  0  0  0  0
 22 43  1  0  0  0  0
 23 24  1  0  0  0  0
 24 44  1  0  0  0  0
 24 45  1  0  0  0  0
 24 46  1  0  0  0  0
M  CHG  1   5   1
M  END
> <s_m_source_file>
AV-unprocessed.smi

> <i_m_source_file_index>
870

> <i_lp_mmshare_version>
43012

> <i_f3d_flags>
0

> <s_epik_input>
W2NIXTFbY0hdW2NIXVtjSF1jKGMxMiluKGMobjIpW0NIMl1PW0NIM10pW0NIMl1bQ0BIXShbT0hdKVtDSDJdT2MzW2NIXVtjSF1bY0hdW2NIXWMzW0NIM10=

> <s_epik_cmdline>
J2VwaWtfcHl0aG9uJywgJy1waCcsICc3LjAnLCAnLXRuJywgJzgnLCAnLW1hJywgJzIwMCcsICctbWV0YWxfYmluZGluZycsICctaW1hZScsICc8aW5maWxlLm1hZT4nLCAnLW9tYWUnLCAnPG91dGZpbGUubWFlPic=

> <r_lp_tautomer_probability>
1

> <r_epik_Ionization_Penalty>
1.55338

> <r_epik_Ionization_Penalty_Charging>
1.55338

> <r_epik_Ionization_Penalty_Neutral>
2.3993e-06

> <r_epik_State_Penalty>
1.64778

> <r_epik_Charging_Adjusted_Penalty>
3.20115

> <i_epik_Tot_Q>
1

> <i_epik_Tot_abs_Q>
1

> <r_epik_Metal_State_Penalty>
5.70266

> <b_epik_Metal_Only>
0

> <s_lp_Force_Field>
OPLS_2005

> <r_lp_Energy>
19.1039

> <b_lp_Chiralities_Consistent>
1

> <s_lp_Variant>
AV-unprocessed.smi:870-4

> <Gold.Version>
5.8.1

> <Gold.Id.Protein>
6NUR|6NUR_protein|mol2

> <Gold.PLP.Fitness>
52.1265

> <Gold.PLP.PLP>
-45.3901

> <Gold.PLP.part.hbond>
-2.0996

> <Gold.PLP.part.metal>
0.0000

> <Gold.PLP.part.buried>
-6.7591

> <Gold.PLP.part.nonpolar>
-37.4290

> <Gold.PLP.part.repulsive>
0.1662

> <Gold.PLP.ligand.clash>
0.0000

> <Gold.PLP.ligand.torsion>
0.8874

> <Gold.PLP.Chemscore.Hbond>
2.8160

> <Gold.PLP.Chemscore.CHOScore>
0.0000

> <Gold.PLP.Chemscore.Metal>
0.0000

> <Gold.Chemscore.Hbonds>
donor molecule, donor type, donor heavy atom, donor atom, acceptor molecule, acceptor atom, score
      L1  H     5    47       P1  8028  2.00
      P1  H  6934  6947       L1    17  0.82

> <Gold.PLP.Chemscore.Internal.Correction>
0.0633

> <Gold.Rescore>
     Score         DG    S(hbond)    S(metal)    S(lipo)     H(rot)  DE(clash)    DE(int)     intcor
     17.79     -18.92       1.48        0.00     126.15       2.45       0.25       0.87       ----

> <Gold.Chemscore.Fitness>
17.7904

> <Gold.Chemscore.DG>
-18.9159

> <Gold.Chemscore.ZeroCoef>
-5.4800

> <Gold.Chemscore.Hbond>
1.4810

> <Gold.Chemscore.Metal>
0.0000

> <Gold.Chemscore.Lipo>
126.1529

> <Gold.Chemscore.Internal_Hbond>
0.0000

> <Gold.Chemscore.DEClash>
0.2517

> <Gold.Chemscore.DEInternal>
0.8737

> <Gold.Chemscore.Rot>
2.4494

> <Gold.Chemscore.Internal.Correction>
   9.000000E+99

> <Gold.Chemscore.Hbonds>
donor molecule, donor type, donor heavy atom, donor atom, acceptor molecule, acceptor atom, score
      L1  H     5    47       P1  8028  0.96
      P1  H  6934  6947       L1    17  0.17

> <Gold.Chemscore.Hbond.Weighted>
-4.9464

> <Gold.Chemscore.Metal.Weighted>
-0.0000

> <Gold.Chemscore.Lipo.Weighted>
-14.7599

> <Gold.Chemscore.Internal_Hbond.Weighted>
0.0000

> <Gold.Chemscore.DEClash.Weighted>
0.2517

> <Gold.Chemscore.DEInternal.Weighted>
0.8737

> <Gold.Chemscore.Rot.Weighted>
6.2704

> <Gold.Chemscore.Internal.Correction.Weighted>
   9.000000E+99

> <Gold.Protein.RotatedTorsions>
[ 6907 6896 6895 6894 ] final   69.45 input  -60.11 | X-H torsion
[ 7974 7965 7964 7962 ] final  154.47 input  175.53 | X-H torsion
[ 8008 7997 7996 7995 ] final  -83.30 input   59.86 | X-H torsion
[ 10167 10162 10161 10158 ] final   12.79 input  -65.29 | X-H torsion
[ 10718 10713 10712 10709 ] final  -46.14 input   66.30 | X-H torsion
[ 10763 10752 10751 10750 ] final -127.17 input  -60.55 | X-H torsion
[ 11005 11000 10999 10996 ] final -119.67 input  -57.11 | X-H torsion

> <Gold.Protein.ActiveResidues>
 VAL166  LYS551  ARG553  GLY616  TRP617  ASP618  TYR619  PRO620  LYS621  CYS622 
 ASP623  PHE694  ASN695  SER759  ASP760  ASP761  ALA762  ILE779  LEU786  VAL792 
 PHE793  MET794  SER795  GLU796  ALA797  LYS798  CYS799  TRP800  GLU811  SER814 

> <Gold.Protein.RotatedAtoms>
  152.4687  134.5013  159.9725 H   0  0  0  0  0  0  0  0  0  0  0  0  # atno 6907 bound_to 6896
  151.5045  133.3491  159.2882 H   0  0  0  0  0  0  0  0  0  0  0  0  # atno 6908 bound_to 6896
  150.8685  134.8082  159.7198 H   0  0  0  0  0  0  0  0  0  0  0  0  # atno 6909 bound_to 6896
  144.8086  139.6939  143.6151 H   0  0  0  0  0  0  0  0  0  0  0  0  # atno 7974 bound_to 7965
  154.6176  140.0621  156.9574 H   0  0  0  0  0  0  0  0  0  0  0  0  # atno 8008 bound_to 7997
  155.1870  140.3304  155.4347 H   0  0  0  0  0  0  0  0  0  0  0  0  # atno 8009 bound_to 7997
  156.2413  140.1887  156.6963 H   0  0  0  0  0  0  0  0  0  0  0  0  # atno 8010 bound_to 7997
  140.6045  143.8537  150.6999 H   0  0  0  0  0  0  0  0  0  0  0  0  # atno 10167 bound_to 10162
  156.2213  130.4166  149.8990 H   0  0  0  0  0  0  0  0  0  0  0  0  # atno 10718 bound_to 10713
  154.8751  135.3971  154.3549 H   0  0  0  0  0  0  0  0  0  0  0  0  # atno 10763 bound_to 10752
  153.4330  135.7025  153.6224 H   0  0  0  0  0  0  0  0  0  0  0  0  # atno 10764 bound_to 10752
  153.4837  135.3763  155.2425 H   0  0  0  0  0  0  0  0  0  0  0  0  # atno 10765 bound_to 10752
  141.0198  134.0140  157.3298 H   0  0  0  0  0  0  0  0  0  0  0  0  # atno 11005 bound_to 11000
  146.2382  139.5947  142.9509 LP  0  0  0  0  0  0  0  0  0  0  0  0  # atno 17320 bound_to 7965
  145.5377  141.0423  143.2348 LP  0  0  0  0  0  0  0  0  0  0  0  0  # atno 17321 bound_to 7965
  140.2091  143.3898  152.1732 LP  0  0  0  0  0  0  0  0  0  0  0  0  # atno 17342 bound_to 10162
  139.5315  144.7163  151.5041 LP  0  0  0  0  0  0  0  0  0  0  0  0  # atno 17343 bound_to 10162
  156.6635  130.8791  151.3551 LP  0  0  0  0  0  0  0  0  0  0  0  0  # atno 17370 bound_to 10713
  157.7089  130.9416  150.1021 LP  0  0  0  0  0  0  0  0  0  0  0  0  # atno 17371 bound_to 10713
  139.9139  135.0194  156.7804 LP  0  0  0  0  0  0  0  0  0  0  0  0  # atno 17394 bound_to 11000
  140.6592  133.9661  155.7795 LP  0  0  0  0  0  0  0  0  0  0  0  0  # atno 17395 bound_to 11000

$$$$
