#       Name:                AV-unprocessed.smi:106
#       Creating user name   scv26
#       Creation time:       Thu Mar 26 18:01:11 2020


#       File generated by GOLD software.
#

@<TRIPOS>MOLECULE
AV-unprocessed.smi:106
    61    64     1
SMALL
NO_CHARGES


@<TRIPOS>ATOM
      1 ****        -0.5511   0.7046  -0.5892 O.2            1 S1                 0.0000
      2 ****         0.0393  -0.2139  -0.0167 C.2            1 S1                 0.0000
      3 ****         1.4449   0.0480   0.5684 C.3            1 S1                 0.0000
      4 ****         1.8780   1.4594   0.4623 N.am           1 S1                 0.0000
      5 ****         1.5525   2.3504   1.5149 C.2            1 S1                 0.0000
      6 ****         0.9252   1.9684   2.5039 O.2            1 S1                 0.0000
      7 ****         2.0019   3.7265   1.3373 C.2            1 S1                 0.0000
      8 ****         1.7500   4.6370   2.2930 F              1 S1                 0.0000
      9 ****         2.6698   4.1021   0.2273 C.2            1 S1                 0.0000
     10 ****         2.9649   3.2257  -0.8017 N.am           1 S1                 0.0000
     11 ****         3.7050   3.6662  -2.0470 C.3            1 S1                 0.0000
     12 ****         2.7383   3.7774  -3.2409 C.3            1 S1                 0.0000
     13 ****         3.0272   5.1651  -3.7777 C.3            1 S1                 0.0000
     14 ****         3.4646   5.9036  -2.5217 C.3            1 S1                 0.0000
     15 ****         4.2586   4.9360  -1.8476 O.3            1 S1                 0.0000
     16 ****         2.5724   1.8734  -0.6997 C.2            1 S1                 0.0000
     17 ****         2.8226   1.0774  -1.6076 O.2            1 S1                 0.0000
     18 ****        -0.5000  -1.4505   0.1145 N.am           1 S1                 0.0000
     19 ****         0.2034  -2.5641   0.7711 C.3            1 S1                 0.0000
     20 ****        -0.5165  -3.9241   0.6398 C.3            1 S1                 0.0000
     21 ****        -1.9474  -3.8562   0.9823 N.am           1 S1                 0.0000
     22 ****        -2.5945  -4.9571   1.4431 C.2            1 S1                 0.0000
     23 ****        -2.0515  -6.0624   1.4939 O.2            1 S1                 0.0000
     24 ****        -3.9984  -4.8321   1.9093 C.2            1 S1                 0.0000
     25 ****        -4.6559  -3.8753   2.6448 C.2            1 S1                 0.0000
     26 ****        -6.0210  -4.2000   2.8985 C.2            1 S1                 0.0000
     27 ****        -6.3849  -5.4131   2.3783 C.2            1 S1                 0.0000
     28 ****        -5.0489  -6.1903   1.5748 S.3            1 S1                 0.0000
     29 ****        -2.6257  -2.5971   0.6345 C.3            1 S1                 0.0000
     30 ****        -1.8384  -1.7713  -0.3962 C.3            1 S1                 0.0000
     31 ****         1.4662  -0.2748   1.6103 H              1 S1                 0.0000
     32 ****         2.1607  -0.6064   0.0696 H              1 S1                 0.0000
     33 ****         2.9768   5.1344   0.1603 H              1 S1                 0.0000
     34 ****         4.5080   2.9405  -2.1874 H              1 S1                 0.0000
     35 ****         2.9230   2.9871  -3.9689 H              1 S1                 0.0000
     36 ****         1.7044   3.7097  -2.8984 H              1 S1                 0.0000
     37 ****         3.8487   5.1276  -4.4945 H              1 S1                 0.0000
     38 ****         2.1660   5.6231  -4.2647 H              1 S1                 0.0000
     39 ****         4.0329   6.8082  -2.7389 H              1 S1                 0.0000
     40 ****         2.6019   6.1757  -1.9121 H              1 S1                 0.0000
     41 ****         1.2100  -2.6698   0.3653 H              1 S1                 0.0000
     42 ****         0.3102  -2.3265   1.8306 H              1 S1                 0.0000
     43 ****        -0.4276  -4.2918  -0.3836 H              1 S1                 0.0000
     44 ****         0.0091  -4.6433   1.2704 H              1 S1                 0.0000
     45 ****        -4.2134  -2.9619   3.0124 H              1 S1                 0.0000
     46 ****        -6.6764  -3.5451   3.4535 H              1 S1                 0.0000
     47 ****        -7.3471  -5.9011   2.4277 H              1 S1                 0.0000
     48 ****        -3.6169  -2.7942   0.2234 H              1 S1                 0.0000
     49 ****        -2.7612  -2.0036   1.5390 H              1 S1                 0.0000
     50 ****        -2.4199  -0.8783  -0.6293 H              1 S1                 0.0000
     51 ****        -1.7400  -2.3218  -1.3330 H              1 S1                 0.0000
     52 ****        -0.1195   1.6031  -0.6694 LP             1 S1                 0.0000
     53 ****        -1.4615   0.5511  -0.9733 LP             1 S1                 0.0000
     54 ****         0.6359   1.0137   2.5745 LP             1 S1                 0.0000
     55 ****         0.7053   2.6129   3.2362 LP             1 S1                 0.0000
     56 ****         5.1900   4.9556  -2.2111 LP             1 S1                 0.0000
     57 ****         4.2783   5.1423  -0.8693 LP             1 S1                 0.0000
     58 ****         2.5340   0.1231  -1.5295 LP             1 S1                 0.0000
     59 ****         3.3141   1.3861  -2.4219 LP             1 S1                 0.0000
     60 ****        -1.1048  -6.1689   1.1900 LP             1 S1                 0.0000
     61 ****        -2.5577  -6.8528   1.8391 LP             1 S1                 0.0000
@<TRIPOS>BOND
    1    1    2 2     
    2    2    3 1     
    3    2   18 am    
    4    3    4 1     
    5    3   31 1     
    6    3   32 1     
    7    4   16 am    
    8    4    5 am    
    9    5    6 2     
   10    5    7 1     
   11    7    8 1     
   12    7    9 2     
   13    9   10 1     
   14    9   33 1     
   15   10   11 1     
   16   10   16 am    
   17   11   15 1     
   18   11   12 1     
   19   11   34 1     
   20   12   13 1     
   21   12   35 1     
   22   12   36 1     
   23   13   14 1     
   24   13   37 1     
   25   13   38 1     
   26   14   15 1     
   27   14   39 1     
   28   14   40 1     
   29   16   17 2     
   30   18   30 1     
   31   18   19 1     
   32   19   20 1     
   33   19   41 1     
   34   19   42 1     
   35   20   21 1     
   36   20   43 1     
   37   20   44 1     
   38   21   22 am    
   39   21   29 1     
   40   22   23 2     
   41   22   24 1     
   42   24   28 1     
   43   24   25 2     
   44   25   26 1     
   45   25   45 1     
   46   26   27 2     
   47   26   46 1     
   48   27   28 1     
   49   27   47 1     
   50   29   30 1     
   51   29   48 1     
   52   29   49 1     
   53   30   50 1     
   54   30   51 1     
   55    1   52 1     
   56    1   53 1     
   57    6   54 1     
   58    6   55 1     
   59   15   56 1     
   60   15   57 1     
   61   17   58 1     
   62   17   59 1     
   63   23   60 1     
   64   23   61 1     
@<TRIPOS>SUBSTRUCTURE
      1 S1             1
@<TRIPOS>SET
LONE_PAIRS      STATIC     ATOMS    <user>   **** ""
10 52 53 54 55 56 57 58 59 60 61
ATOM$BLUE        STATIC     ATOMS    COLORGROUP SYSTEM
10 52 53 54 55 56 57 58 59 60 61
