AV-unprocessed.smi:1815|AV-procd|sdf|7361|dock3
  -GOLD-   22720 9 23D 1   1.00000     0.00000
 Structure written by MMmdl.
 39 40  0  0  0  0  0  0  0  0  3 V2000
  148.4485  141.6821  154.3982 C   0  0  0  0  0  0  0  0  0  0  0  0
  148.9640  140.2855  154.7619 C   0  0  1  0  0  0  0  0  0  0  0  0
  148.4535  139.2079  153.7806 C   0  0  0  0  0  0  0  0  0  0  0  0
  149.0545  137.8790  154.0633 N   0  3  2  0  0  0  0  0  0  0  0  0
  148.4693  137.1676  155.2298 C   0  0  0  0  0  0  0  0  0  0  0  0
  147.0892  136.5606  154.9152 C   0  0  0  0  0  0  0  0  0  0  0  0
  147.1502  135.6881  153.7490 N   0  0  0  0  0  0  0  0  0  0  0  0
  146.1603  134.8918  153.3203 C   0  0  0  0  0  0  0  0  0  0  0  0
  145.0855  134.8680  153.9254 O   0  0  0  0  0  0  0  0  0  0  0  0
  146.4798  134.1692  152.2237 N   0  5  0  0  0  0  0  0  0  0  0  0
  145.5252  133.4926  151.5645 C   0  0  0  0  0  0  0  0  0  0  0  0
  145.7857  132.4397  150.7814 N   0  0  0  0  0  0  0  0  0  0  0  0
  144.6445  131.8853  150.1989 C   0  0  0  0  0  0  0  0  0  0  0  0
  143.4873  132.5262  150.5535 C   0  0  0  0  0  0  0  0  0  0  0  0
  143.7982  133.8532  151.6360 S   0  0  0  0  0  0  0  0  0  0  0  0
  150.5328  137.9848  154.1170 C   0  0  0  0  0  0  0  0  0  0  0  0
  150.9795  139.0805  155.1066 C   0  0  1  0  0  0  0  0  0  0  0  0
  152.5011  139.2639  155.1140 C   0  0  0  0  0  0  0  0  0  0  0  0
  150.3872  140.3171  154.7229 O   0  0  0  0  0  0  0  0  0  0  0  0
  147.3591  141.7171  154.4249 H   0  0  0  0  0  0  0  0  0  0  0  0
  148.7689  141.9746  153.3979 H   0  0  0  0  0  0  0  0  0  0  0  0
  148.8212  142.4294  155.0989 H   0  0  0  0  0  0  0  0  0  0  0  0
  148.6381  140.0597  155.7778 H   0  0  0  0  0  0  0  0  0  0  0  0
  147.3655  139.1598  153.7959 H   0  0  0  0  0  0  0  0  0  0  0  0
  148.7279  139.4888  152.7628 H   0  0  0  0  0  0  0  0  0  0  0  0
  149.1331  136.3520  155.5202 H   0  0  0  0  0  0  0  0  0  0  0  0
  148.4154  137.8323  156.0915 H   0  0  0  0  0  0  0  0  0  0  0  0
  146.6916  135.9966  155.7590 H   0  0  0  0  0  0  0  0  0  0  0  0
  146.3720  137.3549  154.7081 H   0  0  0  0  0  0  0  0  0  0  0  0
  148.0120  135.6818  153.2227 H   0  0  0  0  0  0  0  0  0  0  0  0
  144.7492  131.0328  149.5445 H   0  0  0  0  0  0  0  0  0  0  0  0
  142.4772  132.3000  150.2476 H   0  0  0  0  0  0  0  0  0  0  0  0
  150.9759  137.0218  154.3742 H   0  0  0  0  0  0  0  0  0  0  0  0
  150.8931  138.2286  153.1166 H   0  0  0  0  0  0  0  0  0  0  0  0
  150.6604  138.8263  156.1186 H   0  0  0  0  0  0  0  0  0  0  0  0
  153.0056  138.3423  155.4052 H   0  0  0  0  0  0  0  0  0  0  0  0
  152.7961  140.0407  155.8199 H   0  0  0  0  0  0  0  0  0  0  0  0
  152.8703  139.5515  154.1291 H   0  0  0  0  0  0  0  0  0  0  0  0
  148.8475  137.2917  153.2680 H   0  0  0  0  0  0  0  0  0  0  0  0
  1  2  1  0  0  0  0
  1 20  1  0  0  0  0
  1 21  1  0  0  0  0
  1 22  1  0  0  0  0
  2 19  1  0  0  0  0
  2  3  1  0  0  0  0
  2 23  1  0  0  0  0
  3  4  1  0  0  0  0
  3 24  1  0  0  0  0
  3 25  1  0  0  0  0
  4  5  1  0  0  0  0
  4 16  1  0  0  0  0
  4 39  1  0  0  0  0
  5  6  1  0  0  0  0
  5 26  1  0  0  0  0
  5 27  1  0  0  0  0
  6  7  1  0  0  0  0
  6 28  1  0  0  0  0
  6 29  1  0  0  0  0
  7  8  1  0  0  0  0
  7 30  1  0  0  0  0
  8  9  2  0  0  0  0
  8 10  1  0  0  0  0
 10 11  1  0  0  0  0
 11 15  1  0  0  0  0
 11 12  2  0  0  0  0
 12 13  1  0  0  0  0
 13 14  2  0  0  0  0
 13 31  1  0  0  0  0
 14 15  1  0  0  0  0
 14 32  1  0  0  0  0
 16 17  1  0  0  0  0
 16 33  1  0  0  0  0
 16 34  1  0  0  0  0
 17 18  1  0  0  0  0
 17 19  1  0  0  0  0
 17 35  1  0  0  0  0
 18 36  1  0  0  0  0
 18 37  1  0  0  0  0
 18 38  1  0  0  0  0
M  CHG  1   4   1
M  CHG  1  10  -1
M  END
> <s_m_source_file>
AV-unprocessed.smi

> <i_m_source_file_index>
1815

> <i_lp_mmshare_version>
43012

> <i_f3d_flags>
0

> <s_epik_input>
W0NIM11bQ0BASF0xW0NIMl1OKFtDSDJdW0NASF0oTzEpW0NIM10pW0NIMl1bQ0gyXVtOSF1DKD1PKVtOSF1jMm5bY0hdW2NIXXMy

> <s_epik_cmdline>
J2VwaWtfcHl0aG9uJywgJy1waCcsICc3LjAnLCAnLXRuJywgJzgnLCAnLW1hJywgJzIwMCcsICctbWV0YWxfYmluZGluZycsICctaW1hZScsICc8aW5maWxlLm1hZT4nLCAnLW9tYWUnLCAnPG91dGZpbGUubWFlPic=

> <r_lp_tautomer_probability>
0.999

> <r_epik_Ionization_Penalty>
6.71699

> <r_epik_Ionization_Penalty_Charging>
5.88592

> <r_epik_Ionization_Penalty_Neutral>
0.831074

> <r_epik_State_Penalty>
6.08365

> <r_epik_Charging_Adjusted_Penalty>
11.9696

> <i_epik_Tot_Q>
0

> <i_epik_Tot_abs_Q>
2

> <r_epik_Metal_State_Penalty>
2.0947

> <b_epik_Metal_Only>
1

> <s_lp_Force_Field>
OPLS_2005

> <r_lp_Energy>
5.04414

> <b_lp_Chiralities_Consistent>
1

> <s_lp_Variant>
AV-unprocessed.smi:1815-12

> <Gold.Version>
5.8.1

> <Gold.Id.Protein>
6NUR|6NUR_protein|mol2

> <Gold.PLP.Fitness>
46.4156

> <Gold.PLP.PLP>
-31.4882

> <Gold.PLP.part.hbond>
-3.0000

> <Gold.PLP.part.metal>
0.0000

> <Gold.PLP.part.buried>
-2.5828

> <Gold.PLP.part.nonpolar>
-27.0968

> <Gold.PLP.part.repulsive>
0.4175

> <Gold.PLP.ligand.clash>
0.0000

> <Gold.PLP.ligand.torsion>
0.3591

> <Gold.PLP.Chemscore.Hbond>
4.0000

> <Gold.PLP.Chemscore.CHOScore>
1.1999

> <Gold.PLP.Chemscore.Metal>
0.0000

> <Gold.Chemscore.Hbonds>
donor molecule, donor type, donor heavy atom, donor atom, acceptor molecule, acceptor atom, score
      L1  H     4    39       P1  7948  2.00
      L1  H     7    30       P1  7948  1.00
      P1  H  7989  7998       L1    19  1.00
      L1  C    14    32       P1 10186  0.47
      L1  C    14    32       P1 10952  0.73

> <Gold.PLP.Chemscore.Internal.Correction>
0.0460

> <Gold.Rescore>
     Score         DG    S(hbond)    S(metal)    S(lipo)     H(rot)  DE(clash)    DE(int)     intcor
     17.31     -19.15       2.82        0.00      71.40       1.61       0.11       1.74       ----

> <Gold.Chemscore.Fitness>
17.3054

> <Gold.Chemscore.DG>
-19.1536

> <Gold.Chemscore.ZeroCoef>
-5.4800

> <Gold.Chemscore.Hbond>
2.8238

> <Gold.Chemscore.Metal>
0.0000

> <Gold.Chemscore.Lipo>
71.3953

> <Gold.Chemscore.Internal_Hbond>
0.0000

> <Gold.Chemscore.DEClash>
0.1119

> <Gold.Chemscore.DEInternal>
1.7363

> <Gold.Chemscore.Rot>
1.6060

> <Gold.Chemscore.Internal.Correction>
   9.000000E+99

> <Gold.Chemscore.Hbonds>
donor molecule, donor type, donor heavy atom, donor atom, acceptor molecule, acceptor atom, score
      L1  H     4    39       P1  7948  1.00
      L1  H     7    30       P1  7948  0.95
      P1  H  7989  7998       L1    19  0.25

> <Gold.Chemscore.Hbond.Weighted>
-9.4316

> <Gold.Chemscore.Metal.Weighted>
-0.0000

> <Gold.Chemscore.Lipo.Weighted>
-8.3533

> <Gold.Chemscore.Internal_Hbond.Weighted>
0.0000

> <Gold.Chemscore.DEClash.Weighted>
0.1119

> <Gold.Chemscore.DEInternal.Weighted>
1.7363

> <Gold.Chemscore.Rot.Weighted>
4.1112

> <Gold.Chemscore.Internal.Correction.Weighted>
   9.000000E+99

> <Gold.Protein.RotatedTorsions>
[ 6907 6896 6895 6894 ] final  -82.68 input  -60.11 | X-H torsion
[ 7974 7965 7964 7962 ] final   18.64 input  175.53 | X-H torsion
[ 8008 7997 7996 7995 ] final  124.40 input   59.86 | X-H torsion
[ 10167 10162 10161 10158 ] final  157.29 input  -65.29 | X-H torsion
[ 10718 10713 10712 10709 ] final -102.11 input   66.30 | X-H torsion
[ 10763 10752 10751 10750 ] final  111.53 input  -60.55 | X-H torsion
[ 11005 11000 10999 10996 ] final   45.65 input  -57.11 | X-H torsion

> <Gold.Protein.ActiveResidues>
 VAL166  LYS551  ARG553  GLY616  TRP617  ASP618  TYR619  PRO620  LYS621  CYS622 
 ASP623  PHE694  ASN695  SER759  ASP760  ASP761  ALA762  ILE779  LEU786  VAL792 
 PHE793  MET794  SER795  GLU796  ALA797  LYS798  CYS799  TRP800  GLU811  SER814 

> <Gold.Protein.RotatedAtoms>
  150.6894  134.3627  159.4957 H   0  0  0  0  0  0  0  0  0  0  0  0  # atno 6907 bound_to 6896
  152.1454  134.9027  160.0560 H   0  0  0  0  0  0  0  0  0  0  0  0  # atno 6908 bound_to 6896
  152.0145  133.3839  159.4270 H   0  0  0  0  0  0  0  0  0  0  0  0  # atno 6909 bound_to 6896
  146.2178  139.8428  142.8637 H   0  0  0  0  0  0  0  0  0  0  0  0  # atno 7974 bound_to 7965
  156.2800  140.2740  156.1782 H   0  0  0  0  0  0  0  0  0  0  0  0  # atno 8008 bound_to 7997
  155.0584  140.0386  157.2586 H   0  0  0  0  0  0  0  0  0  0  0  0  # atno 8009 bound_to 7997
  154.7137  140.2674  155.6610 H   0  0  0  0  0  0  0  0  0  0  0  0  # atno 8010 bound_to 7997
  139.4823  144.4931  151.8279 H   0  0  0  0  0  0  0  0  0  0  0  0  # atno 10167 bound_to 10162
  156.0217  130.5405  150.7061 H   0  0  0  0  0  0  0  0  0  0  0  0  # atno 10718 bound_to 10713
  153.4647  135.3714  155.2358 H   0  0  0  0  0  0  0  0  0  0  0  0  # atno 10763 bound_to 10752
  154.8757  135.3917  154.3883 H   0  0  0  0  0  0  0  0  0  0  0  0  # atno 10764 bound_to 10752
  153.4462  135.7085  153.6202 H   0  0  0  0  0  0  0  0  0  0  0  0  # atno 10765 bound_to 10752
  140.1440  134.4546  155.8429 H   0  0  0  0  0  0  0  0  0  0  0  0  # atno 11005 bound_to 11000
  145.2881  141.0159  143.3679 LP  0  0  0  0  0  0  0  0  0  0  0  0  # atno 17320 bound_to 7965
  144.9098  139.4543  143.6592 LP  0  0  0  0  0  0  0  0  0  0  0  0  # atno 17321 bound_to 7965
  140.4417  144.1977  150.5892 LP  0  0  0  0  0  0  0  0  0  0  0  0  # atno 17342 bound_to 10162
  140.4676  143.2425  151.9134 LP  0  0  0  0  0  0  0  0  0  0  0  0  # atno 17343 bound_to 10162
  157.4710  131.0893  151.0643 LP  0  0  0  0  0  0  0  0  0  0  0  0  # atno 17370 bound_to 10713
  157.1103  130.6019  149.5480 LP  0  0  0  0  0  0  0  0  0  0  0  0  # atno 17371 bound_to 10713
  141.2190  133.6845  156.7300 LP  0  0  0  0  0  0  0  0  0  0  0  0  # atno 17394 bound_to 11000
  140.2686  134.8410  157.3826 LP  0  0  0  0  0  0  0  0  0  0  0  0  # atno 17395 bound_to 11000

$$$$
