AV-unprocessed.smi:1535|AV-procd|sdf|6174|dock4
  -GOLD-   22720 6323D 1   1.00000     0.00000
 Structure written by MMmdl.
 47 48  0  0  0  0  0  0  0  0  2 V2000
  145.6515  129.9067  152.0705 C   0  0  0  0  0  0  0  0  0  0  0  0
  145.6489  131.4053  151.8210 C   0  0  0  0  0  0  0  0  0  0  0  0
  144.5856  131.9636  151.0772 C   0  0  0  0  0  0  0  0  0  0  0  0
  144.6109  133.3369  150.8663 C   0  0  0  0  0  0  0  0  0  0  0  0
  143.7174  134.1693  150.1911 N   0  3  0  0  0  0  0  0  0  0  0  0
  144.1578  135.4551  150.2554 C   0  0  0  0  0  0  0  0  0  0  0  0
  145.3317  135.4568  150.9459 N   0  0  0  0  0  0  0  0  0  0  0  0
  146.1945  136.5906  151.3223 C   0  0  0  0  0  0  0  0  0  0  0  0
  145.6904  137.3394  152.5715 C   0  0  2  0  0  0  0  0  0  0  0  0
  144.3706  137.7888  152.3287 O   0  0  0  0  0  0  0  0  0  0  0  0
  146.5868  138.5487  152.9011 C   0  0  0  0  0  0  0  0  0  0  0  0
  146.8965  138.7931  154.3161 N   0  0  0  0  0  0  0  0  0  0  0  0
  145.8311  139.5976  154.9023 C   0  0  0  0  0  0  0  0  0  0  0  0
  148.1961  139.4411  154.5253 C   0  0  0  0  0  0  0  0  0  0  0  0
  149.4194  138.5313  154.2956 C   0  0  2  0  0  0  0  0  0  0  0  0
  149.3355  137.2455  155.1295 C   0  0  0  0  0  0  0  0  0  0  0  0
  150.6654  139.2561  154.5889 C   0  0  0  0  0  0  0  0  0  0  0  0
  151.6445  139.8275  154.8201 N   0  0  0  0  0  0  0  0  0  0  0  0
  145.6460  134.1553  151.3627 C   0  0  0  0  0  0  0  0  0  0  0  0
  146.6997  133.6178  152.1012 C   0  0  0  0  0  0  0  0  0  0  0  0
  146.6924  132.2225  152.3264 C   0  0  0  0  0  0  0  0  0  0  0  0
  147.8332  131.6113  153.1225 C   0  0  0  0  0  0  0  0  0  0  0  0
  144.7873  129.4245  151.6130 H   0  0  0  0  0  0  0  0  0  0  0  0
  145.6224  129.6965  153.1400 H   0  0  0  0  0  0  0  0  0  0  0  0
  146.5485  129.4505  151.6513 H   0  0  0  0  0  0  0  0  0  0  0  0
  143.7860  131.3486  150.6905 H   0  0  0  0  0  0  0  0  0  0  0  0
  143.6646  136.3178  149.8311 H   0  0  0  0  0  0  0  0  0  0  0  0
  147.1933  136.1894  151.4986 H   0  0  0  0  0  0  0  0  0  0  0  0
  146.2756  137.2883  150.4904 H   0  0  0  0  0  0  0  0  0  0  0  0
  145.6878  136.6399  153.4059 H   0  0  0  0  0  0  0  0  0  0  0  0
  144.2853  137.9883  151.4089 H   0  0  0  0  0  0  0  0  0  0  0  0
  147.5221  138.4444  152.3485 H   0  0  0  0  0  0  0  0  0  0  0  0
  146.1055  139.4377  152.4907 H   0  0  0  0  0  0  0  0  0  0  0  0
  145.9956  139.7399  155.9710 H   0  0  0  0  0  0  0  0  0  0  0  0
  144.8640  139.1074  154.7854 H   0  0  0  0  0  0  0  0  0  0  0  0
  145.7736  140.5807  154.4326 H   0  0  0  0  0  0  0  0  0  0  0  0
  148.2673  140.3272  153.8925 H   0  0  0  0  0  0  0  0  0  0  0  0
  148.2673  139.8194  155.5466 H   0  0  0  0  0  0  0  0  0  0  0  0
  149.4968  138.2429  153.2507 H   0  0  0  0  0  0  0  0  0  0  0  0
  150.2077  136.6136  154.9598 H   0  0  0  0  0  0  0  0  0  0  0  0
  148.4512  136.6635  154.8679 H   0  0  0  0  0  0  0  0  0  0  0  0
  149.2872  137.4666  156.1962 H   0  0  0  0  0  0  0  0  0  0  0  0
  147.4995  134.2290  152.4909 H   0  0  0  0  0  0  0  0  0  0  0  0
  148.5386  132.3720  153.4588 H   0  0  0  0  0  0  0  0  0  0  0  0
  148.3829  130.8941  152.5125 H   0  0  0  0  0  0  0  0  0  0  0  0
  147.4535  131.0967  154.0056 H   0  0  0  0  0  0  0  0  0  0  0  0
  142.8656  133.8846  149.7248 H   0  0  0  0  0  0  0  0  0  0  0  0
  1  2  1  0  0  0  0
  1 23  1  0  0  0  0
  1 24  1  0  0  0  0
  1 25  1  0  0  0  0
  2 21  1  0  0  0  0
  2  3  2  0  0  0  0
  3  4  1  0  0  0  0
  3 26  1  0  0  0  0
  4 19  2  0  0  0  0
  4  5  1  0  0  0  0
  5  6  2  0  0  0  0
  5 47  1  0  0  0  0
  6  7  1  0  0  0  0
  6 27  1  0  0  0  0
  7  8  1  0  0  0  0
  7 19  1  0  0  0  0
  8  9  1  0  0  0  0
  8 28  1  0  0  0  0
  8 29  1  0  0  0  0
  9 10  1  0  0  0  0
  9 11  1  0  0  0  0
  9 30  1  0  0  0  0
 10 31  1  0  0  0  0
 11 12  1  0  0  0  0
 11 32  1  0  0  0  0
 11 33  1  0  0  0  0
 12 13  1  0  0  0  0
 12 14  1  0  0  0  0
 13 34  1  0  0  0  0
 13 35  1  0  0  0  0
 13 36  1  0  0  0  0
 14 15  1  0  0  0  0
 14 37  1  0  0  0  0
 14 38  1  0  0  0  0
 15 16  1  0  0  0  0
 15 17  1  0  0  0  0
 15 39  1  0  0  0  0
 16 40  1  0  0  0  0
 16 41  1  0  0  0  0
 16 42  1  0  0  0  0
 17 18  3  0  0  0  0
 19 20  1  0  0  0  0
 20 21  2  0  0  0  0
 20 43  1  0  0  0  0
 21 22  1  0  0  0  0
 22 44  1  0  0  0  0
 22 45  1  0  0  0  0
 22 46  1  0  0  0  0
M  CHG  1   5   1
M  END
> <s_m_source_file>
AV-unprocessed.smi

> <i_m_source_file_index>
1535

> <i_lp_mmshare_version>
43012

> <i_f3d_flags>
0

> <s_epik_input>
W0NIM11jKFtjSF0xKWMoW0NIM10pW2NIXWMoYzEyKW4oW2NIXW4yKVtDSDJdW0NASF0oW09IXSlbQ0gyXU4oW0NIM10pW0NIMl1bQ0BIXShbQ0gzXSlDI04=

> <s_epik_cmdline>
J2VwaWtfcHl0aG9uJywgJy1waCcsICc3LjAnLCAnLXRuJywgJzgnLCAnLW1hJywgJzIwMCcsICctbWV0YWxfYmluZGluZycsICctaW1hZScsICc8aW5maWxlLm1hZT4nLCAnLW9tYWUnLCAnPG91dGZpbGUubWFlPic=

> <r_epik_Ionization_Penalty>
1.22846

> <r_epik_Ionization_Penalty_Charging>
1.21333

> <r_epik_Ionization_Penalty_Neutral>
0.0151341

> <r_epik_State_Penalty>
1.27012

> <r_epik_Charging_Adjusted_Penalty>
2.48344

> <i_epik_Tot_Q>
1

> <i_epik_Tot_abs_Q>
1

> <r_epik_Metal_State_Penalty>
5.28751

> <b_epik_Metal_Only>
0

> <s_lp_Force_Field>
OPLS_2005

> <r_lp_Energy>
32.9236

> <b_lp_Chiralities_Consistent>
1

> <s_lp_Variant>
AV-unprocessed.smi:1535-5

> <Gold.Version>
5.8.1

> <Gold.Id.Protein>
6NUR|6NUR_protein|mol2

> <Gold.PLP.Fitness>
49.9361

> <Gold.PLP.PLP>
-38.6873

> <Gold.PLP.part.hbond>
-4.0000

> <Gold.PLP.part.metal>
0.0000

> <Gold.PLP.part.buried>
-2.6286

> <Gold.PLP.part.nonpolar>
-33.6381

> <Gold.PLP.part.repulsive>
0.2167

> <Gold.PLP.ligand.clash>
0.0000

> <Gold.PLP.ligand.torsion>
1.3414

> <Gold.PLP.Chemscore.Hbond>
3.5680

> <Gold.PLP.Chemscore.CHOScore>
1.0000

> <Gold.PLP.Chemscore.Metal>
0.0000

> <Gold.Chemscore.Hbonds>
donor molecule, donor type, donor heavy atom, donor atom, acceptor molecule, acceptor atom, score
      L1  H     5    47       P1 10186  1.60
      L1  H    10    31       P1 10171  1.00
      P1  H  7989  7998       L1    18  0.95
      L1  C     6    27       P1 10171  1.00

> <Gold.PLP.Chemscore.Internal.Correction>
0.2276

> <Gold.Rescore>
     Score         DG    S(hbond)    S(metal)    S(lipo)     H(rot)  DE(clash)    DE(int)     intcor
     15.36     -17.39       2.45        0.00      88.70       2.59       0.71       1.32       ----

> <Gold.Chemscore.Fitness>
15.3597

> <Gold.Chemscore.DG>
-17.3909

> <Gold.Chemscore.ZeroCoef>
-5.4800

> <Gold.Chemscore.Hbond>
2.4455

> <Gold.Chemscore.Metal>
0.0000

> <Gold.Chemscore.Lipo>
88.7009

> <Gold.Chemscore.Internal_Hbond>
0.0000

> <Gold.Chemscore.DEClash>
0.7076

> <Gold.Chemscore.DEInternal>
1.3235

> <Gold.Chemscore.Rot>
2.5918

> <Gold.Chemscore.Internal.Correction>
   9.000000E+99

> <Gold.Chemscore.Hbonds>
donor molecule, donor type, donor heavy atom, donor atom, acceptor molecule, acceptor atom, score
      L1  H     5    47       P1 10186  0.79
      L1  H    10    31       P1 10171  1.00
      P1  H  7989  7998       L1    18  0.21

> <Gold.Chemscore.Hbond.Weighted>
-8.1679

> <Gold.Chemscore.Metal.Weighted>
-0.0000

> <Gold.Chemscore.Lipo.Weighted>
-10.3780

> <Gold.Chemscore.Internal_Hbond.Weighted>
0.0000

> <Gold.Chemscore.DEClash.Weighted>
0.7076

> <Gold.Chemscore.DEInternal.Weighted>
1.3235

> <Gold.Chemscore.Rot.Weighted>
6.6351

> <Gold.Chemscore.Internal.Correction.Weighted>
   9.000000E+99

> <Gold.Protein.RotatedTorsions>
[ 6907 6896 6895 6894 ] final  -34.09 input  -60.11 | X-H torsion
[ 7974 7965 7964 7962 ] final  165.57 input  175.53 | X-H torsion
[ 8008 7997 7996 7995 ] final   -9.64 input   59.86 | X-H torsion
[ 10167 10162 10161 10158 ] final  -58.38 input  -65.29 | X-H torsion
[ 10718 10713 10712 10709 ] final  -52.11 input   66.30 | X-H torsion
[ 10763 10752 10751 10750 ] final   36.44 input  -60.55 | X-H torsion
[ 11005 11000 10999 10996 ] final  -81.68 input  -57.11 | X-H torsion

> <Gold.Protein.ActiveResidues>
 VAL166  LYS551  ARG553  GLY616  TRP617  ASP618  TYR619  PRO620  LYS621  CYS622 
 ASP623  PHE694  ASN695  SER759  ASP760  ASP761  ALA762  ILE779  LEU786  VAL792 
 PHE793  MET794  SER795  GLU796  ALA797  LYS798  CYS799  TRP800  GLU811  SER814 

> <Gold.Protein.RotatedAtoms>
  151.0571  134.9712  159.8241 H   0  0  0  0  0  0  0  0  0  0  0  0  # atno 6907 bound_to 6896
  152.5390  134.2464  159.8892 H   0  0  0  0  0  0  0  0  0  0  0  0  # atno 6908 bound_to 6896
  151.2482  133.4321  159.2644 H   0  0  0  0  0  0  0  0  0  0  0  0  # atno 6909 bound_to 6896
  144.7497  139.8490  143.6370 H   0  0  0  0  0  0  0  0  0  0  0  0  # atno 7974 bound_to 7965
  154.5628  140.2350  155.8309 H   0  0  0  0  0  0  0  0  0  0  0  0  # atno 8008 bound_to 7997
  156.2043  140.3044  155.9553 H   0  0  0  0  0  0  0  0  0  0  0  0  # atno 8009 bound_to 7997
  155.2857  140.0424  157.3009 H   0  0  0  0  0  0  0  0  0  0  0  0  # atno 8010 bound_to 7997
  140.6201  143.2416  151.5502 H   0  0  0  0  0  0  0  0  0  0  0  0  # atno 10167 bound_to 10162
  156.1651  130.4149  149.9733 H   0  0  0  0  0  0  0  0  0  0  0  0  # atno 10718 bound_to 10713
  153.0077  135.6305  154.1986 H   0  0  0  0  0  0  0  0  0  0  0  0  # atno 10763 bound_to 10752
  154.1730  135.2817  155.3077 H   0  0  0  0  0  0  0  0  0  0  0  0  # atno 10764 bound_to 10752
  154.5894  135.5622  153.7323 H   0  0  0  0  0  0  0  0  0  0  0  0  # atno 10765 bound_to 10752
  141.1666  133.7208  156.8458 H   0  0  0  0  0  0  0  0  0  0  0  0  # atno 11005 bound_to 11000
  146.1429  139.4491  143.0097 LP  0  0  0  0  0  0  0  0  0  0  0  0  # atno 17320 bound_to 7965
  145.6990  141.0142  143.1514 LP  0  0  0  0  0  0  0  0  0  0  0  0  # atno 17321 bound_to 7965
  139.5431  144.2593  152.1390 LP  0  0  0  0  0  0  0  0  0  0  0  0  # atno 17342 bound_to 10162
  140.1812  144.4843  150.6527 LP  0  0  0  0  0  0  0  0  0  0  0  0  # atno 17343 bound_to 10162
  156.7551  130.9130  151.3639 LP  0  0  0  0  0  0  0  0  0  0  0  0  # atno 17370 bound_to 10713
  157.6761  130.9096  150.0155 LP  0  0  0  0  0  0  0  0  0  0  0  0  # atno 17371 bound_to 10713
  140.1951  134.8938  157.3105 LP  0  0  0  0  0  0  0  0  0  0  0  0  # atno 17394 bound_to 11000
  140.2248  134.3980  155.7549 LP  0  0  0  0  0  0  0  0  0  0  0  0  # atno 17395 bound_to 11000

$$$$
