AV-unprocessed.smi:1273|AV-procd|sdf|5339|dock7
  -GOLD-   22720 4473D 1   1.00000     0.00000
 Structure written by MMmdl.
 40 41  0  0  0  0  0  0  0  0  1 V2000
  156.1929  135.1249  162.8207 C   0  0  0  0  0  0  0  0  0  0  0  0
  154.9443  135.3917  161.9641 C   0  0  1  0  0  0  0  0  0  0  0  0
  154.5051  136.8604  162.0419 C   0  0  0  0  0  0  0  0  0  0  0  0
  154.2586  137.3707  163.1347 O   0  0  0  0  0  0  0  0  0  0  0  0
  154.4345  137.5137  160.8669 N   0  0  0  0  0  0  0  0  0  0  0  0
  154.0444  138.8588  160.6334 C   0  0  0  0  0  0  0  0  0  0  0  0
  154.5175  139.8530  161.5112 C   0  0  0  0  0  0  0  0  0  0  0  0
  154.1640  141.1964  161.2835 C   0  0  0  0  0  0  0  0  0  0  0  0
  153.3499  141.5169  160.1713 C   0  0  0  0  0  0  0  0  0  0  0  0
  152.9823  142.8571  159.9213 N   0  0  0  0  0  0  0  0  0  0  0  0
  152.4051  143.5765  161.0544 C   0  0  0  0  0  0  0  0  0  0  0  0
  152.3314  145.0834  160.7522 C   0  0  0  0  0  0  0  0  0  0  0  0
  151.6200  145.2992  159.5381 O   0  0  0  0  0  0  0  0  0  0  0  0
  152.2668  144.6831  158.4297 C   0  0  0  0  0  0  0  0  0  0  0  0
  152.3306  143.1622  158.6486 C   0  0  0  0  0  0  0  0  0  0  0  0
  152.9141  140.5609  159.3145 N   0  0  0  0  0  0  0  0  0  0  0  0
  153.2512  139.2736  159.5383 C   0  0  0  0  0  0  0  0  0  0  0  0
  155.2740  134.9147  160.2027 S   0  0  0  0  0  0  0  0  0  0  0  0
  155.6658  133.1183  160.3210 C   0  0  0  0  0  0  0  0  0  0  0  0
  154.0329  135.0599  159.4262 O   0  0  0  0  0  0  0  0  0  0  0  0
  156.4867  135.6200  159.7604 O   0  0  0  0  0  0  0  0  0  0  0  0
  156.0414  135.4406  163.8536 H   0  0  0  0  0  0  0  0  0  0  0  0
  157.0652  135.6526  162.4329 H   0  0  0  0  0  0  0  0  0  0  0  0
  156.4328  134.0616  162.8353 H   0  0  0  0  0  0  0  0  0  0  0  0
  154.1357  134.7543  162.3239 H   0  0  0  0  0  0  0  0  0  0  0  0
  154.7556  137.0074  160.0547 H   0  0  0  0  0  0  0  0  0  0  0  0
  155.1439  139.5931  162.3520 H   0  0  0  0  0  0  0  0  0  0  0  0
  154.5329  141.9615  161.9501 H   0  0  0  0  0  0  0  0  0  0  0  0
  151.4049  143.1858  161.2455 H   0  0  0  0  0  0  0  0  0  0  0  0
  152.9831  143.4267  161.9651 H   0  0  0  0  0  0  0  0  0  0  0  0
  151.8175  145.6031  161.5610 H   0  0  0  0  0  0  0  0  0  0  0  0
  153.3313  145.5149  160.6816 H   0  0  0  0  0  0  0  0  0  0  0  0
  151.7077  144.9081  157.5215 H   0  0  0  0  0  0  0  0  0  0  0  0
  153.2670  145.1000  158.2999 H   0  0  0  0  0  0  0  0  0  0  0  0
  152.8765  142.7019  157.8240 H   0  0  0  0  0  0  0  0  0  0  0  0
  151.3234  142.7430  158.6485 H   0  0  0  0  0  0  0  0  0  0  0  0
  152.8893  138.5757  158.7993 H   0  0  0  0  0  0  0  0  0  0  0  0
  155.9682  132.7528  159.3397 H   0  0  0  0  0  0  0  0  0  0  0  0
  154.7858  132.5657  160.6488 H   0  0  0  0  0  0  0  0  0  0  0  0
  156.4805  132.9659  161.0283 H   0  0  0  0  0  0  0  0  0  0  0  0
  1  2  1  0  0  0  0
  1 22  1  0  0  0  0
  1 23  1  0  0  0  0
  1 24  1  0  0  0  0
  2  3  1  0  0  0  0
  2 18  1  0  0  0  0
  2 25  1  0  0  0  0
  3  4  2  0  0  0  0
  3  5  1  0  0  0  0
  5  6  1  0  0  0  0
  5 26  1  0  0  0  0
  6 17  1  0  0  0  0
  6  7  2  0  0  0  0
  7  8  1  0  0  0  0
  7 27  1  0  0  0  0
  8  9  2  0  0  0  0
  8 28  1  0  0  0  0
  9 10  1  0  0  0  0
  9 16  1  0  0  0  0
 10 15  1  0  0  0  0
 10 11  1  0  0  0  0
 11 12  1  0  0  0  0
 11 29  1  0  0  0  0
 11 30  1  0  0  0  0
 12 13  1  0  0  0  0
 12 31  1  0  0  0  0
 12 32  1  0  0  0  0
 13 14  1  0  0  0  0
 14 15  1  0  0  0  0
 14 33  1  0  0  0  0
 14 34  1  0  0  0  0
 15 35  1  0  0  0  0
 15 36  1  0  0  0  0
 16 17  2  0  0  0  0
 17 37  1  0  0  0  0
 18 19  1  0  0  0  0
 18 20  2  0  0  0  0
 18 21  2  0  0  0  0
 19 38  1  0  0  0  0
 19 39  1  0  0  0  0
 19 40  1  0  0  0  0
M  END
> <s_m_source_file>
AV-unprocessed.smi

> <i_m_source_file_index>
1273

> <i_lp_mmshare_version>
43012

> <i_f3d_flags>
0

> <s_epik_input>
W0NIM11TKD1PKSg9TylbQ0BIXShbQ0gzXSlDKD1PKVtOSF1jMVtjSF1bY0hdYyhuW2NIXTEpTjJbQ0gyXVtDSDJdT1tDSDJdW0NIMl0y

> <s_epik_cmdline>
J2VwaWtfcHl0aG9uJywgJy1waCcsICc3LjAnLCAnLXRuJywgJzgnLCAnLW1hJywgJzIwMCcsICctbWV0YWxfYmluZGluZycsICctaW1hZScsICc8aW5maWxlLm1hZT4nLCAnLW9tYWUnLCAnPG91dGZpbGUubWFlPic=

> <r_lp_tautomer_probability>
1

> <r_epik_Ionization_Penalty>
0.000253983

> <r_epik_Ionization_Penalty_Charging>
0

> <r_epik_Ionization_Penalty_Neutral>
0.000253983

> <r_epik_State_Penalty>
-0

> <r_epik_Charging_Adjusted_Penalty>
0

> <i_epik_Tot_Q>
0

> <i_epik_Tot_abs_Q>
0

> <r_epik_Metal_State_Penalty>
-0

> <b_epik_Metal_Only>
0

> <s_lp_Force_Field>
OPLS_2005

> <r_lp_Energy>
19.0029

> <b_lp_Chiralities_Consistent>
1

> <s_lp_Variant>
AV-unprocessed.smi:1273-2

> <Gold.Version>
5.8.1

> <Gold.Id.Protein>
6NUR|6NUR_protein|mol2

> <Gold.PLP.Fitness>
39.7154

> <Gold.PLP.PLP>
-37.3845

> <Gold.PLP.part.hbond>
-1.0000

> <Gold.PLP.part.metal>
0.0000

> <Gold.PLP.part.buried>
-6.7074

> <Gold.PLP.part.nonpolar>
-29.5588

> <Gold.PLP.part.repulsive>
0.1440

> <Gold.PLP.ligand.clash>
0.0000

> <Gold.PLP.ligand.torsion>
0.5813

> <Gold.PLP.Chemscore.Hbond>
1.0000

> <Gold.PLP.Chemscore.CHOScore>
0.0000

> <Gold.PLP.Chemscore.Metal>
0.0000

> <Gold.Chemscore.Hbonds>
donor molecule, donor type, donor heavy atom, donor atom, acceptor molecule, acceptor atom, score
      P1  H  6896  6908       L1    20  1.00

> <Gold.PLP.Chemscore.Internal.Correction>
0.4935

> <Gold.Rescore>
     Score         DG    S(hbond)    S(metal)    S(lipo)     H(rot)  DE(clash)    DE(int)     intcor
     11.56     -15.79       0.98        0.00      94.42       1.56       0.21       4.01       ----

> <Gold.Chemscore.Fitness>
11.5626

> <Gold.Chemscore.DG>
-15.7914

> <Gold.Chemscore.ZeroCoef>
-5.4800

> <Gold.Chemscore.Hbond>
0.9774

> <Gold.Chemscore.Metal>
0.0000

> <Gold.Chemscore.Lipo>
94.4153

> <Gold.Chemscore.Internal_Hbond>
0.0000

> <Gold.Chemscore.DEClash>
0.2147

> <Gold.Chemscore.DEInternal>
4.0141

> <Gold.Chemscore.Rot>
1.5624

> <Gold.Chemscore.Internal.Correction>
   9.000000E+99

> <Gold.Chemscore.Hbonds>
donor molecule, donor type, donor heavy atom, donor atom, acceptor molecule, acceptor atom, score
      P1  H  6896  6908       L1    20  0.99

> <Gold.Chemscore.Hbond.Weighted>
-3.2644

> <Gold.Chemscore.Metal.Weighted>
-0.0000

> <Gold.Chemscore.Lipo.Weighted>
-11.0466

> <Gold.Chemscore.Internal_Hbond.Weighted>
0.0000

> <Gold.Chemscore.DEClash.Weighted>
0.2147

> <Gold.Chemscore.DEInternal.Weighted>
4.0141

> <Gold.Chemscore.Rot.Weighted>
3.9996

> <Gold.Chemscore.Internal.Correction.Weighted>
   9.000000E+99

> <Gold.Protein.RotatedTorsions>
[ 6907 6896 6895 6894 ] final  -37.93 input  -60.11 | X-H torsion
[ 7974 7965 7964 7962 ] final -159.14 input  175.53 | X-H torsion
[ 8008 7997 7996 7995 ] final -117.42 input   59.86 | X-H torsion
[ 10167 10162 10161 10158 ] final   59.42 input  -65.29 | X-H torsion
[ 10718 10713 10712 10709 ] final  103.67 input   66.30 | X-H torsion
[ 10763 10752 10751 10750 ] final  170.46 input  -60.55 | X-H torsion
[ 11005 11000 10999 10996 ] final -166.29 input  -57.11 | X-H torsion

> <Gold.Protein.ActiveResidues>
 VAL166  LYS551  ARG553  GLY616  TRP617  ASP618  TYR619  PRO620  LYS621  CYS622 
 ASP623  PHE694  ASN695  SER759  ASP760  ASP761  ALA762  ILE779  LEU786  VAL792 
 PHE793  MET794  SER795  GLU796  ALA797  LYS798  CYS799  TRP800  GLU811  SER814 

> <Gold.Protein.RotatedAtoms>
  151.0086  134.9379  159.7994 H   0  0  0  0  0  0  0  0  0  0  0  0  # atno 6907 bound_to 6896
  152.5297  134.3058  159.9105 H   0  0  0  0  0  0  0  0  0  0  0  0  # atno 6908 bound_to 6896
  151.3064  133.4058  159.2678 H   0  0  0  0  0  0  0  0  0  0  0  0  # atno 6909 bound_to 6896
  144.7477  140.3728  143.6072 H   0  0  0  0  0  0  0  0  0  0  0  0  # atno 7974 bound_to 7965
  155.0835  140.0394  157.2646 H   0  0  0  0  0  0  0  0  0  0  0  0  # atno 8008 bound_to 7997
  154.6888  140.2649  155.6808 H   0  0  0  0  0  0  0  0  0  0  0  0  # atno 8009 bound_to 7997
  156.2721  140.2763  156.1459 H   0  0  0  0  0  0  0  0  0  0  0  0  # atno 8010 bound_to 7997
  140.1766  144.4223  150.6635 H   0  0  0  0  0  0  0  0  0  0  0  0  # atno 10167 bound_to 10162
  157.6765  131.0785  150.5590 H   0  0  0  0  0  0  0  0  0  0  0  0  # atno 10718 bound_to 10713
  154.3979  135.2754  155.2114 H   0  0  0  0  0  0  0  0  0  0  0  0  # atno 10763 bound_to 10752
  154.4153  135.6013  153.5980 H   0  0  0  0  0  0  0  0  0  0  0  0  # atno 10764 bound_to 10752
  152.9831  135.5959  154.4243 H   0  0  0  0  0  0  0  0  0  0  0  0  # atno 10765 bound_to 10752
  140.5661  134.5284  157.5153 H   0  0  0  0  0  0  0  0  0  0  0  0  # atno 11005 bound_to 11000
  145.7060  139.1673  143.2566 LP  0  0  0  0  0  0  0  0  0  0  0  0  # atno 17320 bound_to 7965
  146.1381  140.7095  142.9380 LP  0  0  0  0  0  0  0  0  0  0  0  0  # atno 17321 bound_to 7965
  140.6547  143.2234  151.5996 LP  0  0  0  0  0  0  0  0  0  0  0  0  # atno 17342 bound_to 10162
  139.5314  144.2905  152.1156 LP  0  0  0  0  0  0  0  0  0  0  0  0  # atno 17343 bound_to 10162
  156.5893  130.4325  149.5943 LP  0  0  0  0  0  0  0  0  0  0  0  0  # atno 17370 bound_to 10713
  156.2596  130.6955  151.1719 LP  0  0  0  0  0  0  0  0  0  0  0  0  # atno 17371 bound_to 10713
  139.9384  134.7832  156.0742 LP  0  0  0  0  0  0  0  0  0  0  0  0  # atno 17394 bound_to 11000
  141.1085  133.6651  156.2921 LP  0  0  0  0  0  0  0  0  0  0  0  0  # atno 17395 bound_to 11000

$$$$
