AV-unprocessed.smi:868|AV-procd|sdf|4002|dock10
  -GOLD-   22720 1483D 1   1.00000     0.00000
 Structure written by MMmdl.
 47 49  0  0  0  0  0  0  0  0  1 V2000
  148.9172  133.3479  154.2664 C   0  0  0  0  0  0  0  0  0  0  0  0
  150.2364  133.3057  155.0552 C   0  0  0  0  0  0  0  0  0  0  0  0
  150.6470  131.8511  155.3300 C   0  0  0  0  0  0  0  0  0  0  0  0
  150.1900  134.1114  156.3804 C   0  0  0  0  0  0  0  0  0  0  0  0
  149.6934  135.5728  156.3090 C   0  0  0  0  0  0  0  0  0  0  0  0
  149.9816  136.3058  157.6432 C   0  0  0  0  0  0  0  0  0  0  0  0
  149.4407  135.9541  158.6921 O   0  0  0  0  0  0  0  0  0  0  0  0
  150.8304  137.3445  157.5800 N   0  0  0  0  0  0  0  0  0  0  0  0
  151.1820  138.2101  158.6984 C   0  0  0  0  0  0  0  0  0  0  0  0
  152.1803  139.2970  158.2694 C   0  0  0  0  0  0  0  0  0  0  0  0
  151.6281  140.1941  157.2064 C   0  0  0  0  0  0  0  0  0  0  0  0
  151.2828  139.7654  155.9862 N   0  0  0  0  0  0  0  0  0  0  0  0
  150.7715  140.8697  155.3349 N   0  0  0  0  0  0  0  0  0  0  0  0
  150.8510  141.8529  156.2302 C   0  0  0  0  0  0  0  0  0  0  0  0
  151.3898  141.5065  157.4103 N   0  0  0  0  0  0  0  0  0  0  0  0
  151.5699  142.3149  158.6049 C   0  0  0  0  0  0  0  0  0  0  0  0
  152.3628  143.5876  158.4054 C   0  0  0  0  0  0  0  0  0  0  0  0
  152.9985  142.3990  159.0909 C   0  0  0  0  0  0  0  0  0  0  0  0
  150.0810  136.4000  155.0543 C   0  0  0  0  0  0  0  0  0  0  0  0
  148.6486  136.9204  154.9458 C   0  0  0  0  0  0  0  0  0  0  0  0
  148.2220  135.7874  155.8787 C   0  0  0  0  0  0  0  0  0  0  0  0
  148.0794  133.0047  154.8741 H   0  0  0  0  0  0  0  0  0  0  0  0
  148.9688  132.7107  153.3831 H   0  0  0  0  0  0  0  0  0  0  0  0
  148.6915  134.3541  153.9158 H   0  0  0  0  0  0  0  0  0  0  0  0
  151.0122  133.7269  154.4155 H   0  0  0  0  0  0  0  0  0  0  0  0
  149.9134  131.3436  155.9574 H   0  0  0  0  0  0  0  0  0  0  0  0
  151.6106  131.8028  155.8379 H   0  0  0  0  0  0  0  0  0  0  0  0
  150.7391  131.2858  154.4022 H   0  0  0  0  0  0  0  0  0  0  0  0
  149.5635  133.5625  157.0847 H   0  0  0  0  0  0  0  0  0  0  0  0
  151.1835  134.0945  156.8310 H   0  0  0  0  0  0  0  0  0  0  0  0
  151.2384  137.5676  156.6836 H   0  0  0  0  0  0  0  0  0  0  0  0
  150.2840  138.6593  159.1265 H   0  0  0  0  0  0  0  0  0  0  0  0
  151.6219  137.5890  159.4790 H   0  0  0  0  0  0  0  0  0  0  0  0
  152.4825  139.8927  159.1304 H   0  0  0  0  0  0  0  0  0  0  0  0
  153.0921  138.8359  157.8873 H   0  0  0  0  0  0  0  0  0  0  0  0
  150.5014  142.8528  156.0192 H   0  0  0  0  0  0  0  0  0  0  0  0
  150.7369  142.2675  159.3034 H   0  0  0  0  0  0  0  0  0  0  0  0
  152.7225  143.8333  157.4080 H   0  0  0  0  0  0  0  0  0  0  0  0
  152.1026  144.4415  159.0273 H   0  0  0  0  0  0  0  0  0  0  0  0
  153.1590  142.4669  160.1648 H   0  0  0  0  0  0  0  0  0  0  0  0
  153.7625  141.8532  158.5401 H   0  0  0  0  0  0  0  0  0  0  0  0
  150.8220  137.1879  155.1908 H   0  0  0  0  0  0  0  0  0  0  0  0
  150.3540  135.7687  154.2074 H   0  0  0  0  0  0  0  0  0  0  0  0
  148.5228  137.9070  155.3944 H   0  0  0  0  0  0  0  0  0  0  0  0
  148.2213  136.8711  153.9440 H   0  0  0  0  0  0  0  0  0  0  0  0
  147.8160  134.9320  155.3364 H   0  0  0  0  0  0  0  0  0  0  0  0
  147.5335  136.1057  156.6630 H   0  0  0  0  0  0  0  0  0  0  0  0
  1  2  1  0  0  0  0
  1 22  1  0  0  0  0
  1 23  1  0  0  0  0
  1 24  1  0  0  0  0
  2  3  1  0  0  0  0
  2  4  1  0  0  0  0
  2 25  1  0  0  0  0
  3 26  1  0  0  0  0
  3 27  1  0  0  0  0
  3 28  1  0  0  0  0
  4  5  1  0  0  0  0
  4 29  1  0  0  0  0
  4 30  1  0  0  0  0
  5 21  1  0  0  0  0
  5  6  1  0  0  0  0
  5 19  1  0  0  0  0
  6  7  2  0  0  0  0
  6  8  1  0  0  0  0
  8  9  1  0  0  0  0
  8 31  1  0  0  0  0
  9 10  1  0  0  0  0
  9 32  1  0  0  0  0
  9 33  1  0  0  0  0
 10 11  1  0  0  0  0
 10 34  1  0  0  0  0
 10 35  1  0  0  0  0
 11 15  1  0  0  0  0
 11 12  2  0  0  0  0
 12 13  1  0  0  0  0
 13 14  2  0  0  0  0
 14 15  1  0  0  0  0
 14 36  1  0  0  0  0
 15 16  1  0  0  0  0
 16 18  1  0  0  0  0
 16 17  1  0  0  0  0
 16 37  1  0  0  0  0
 17 18  1  0  0  0  0
 17 38  1  0  0  0  0
 17 39  1  0  0  0  0
 18 40  1  0  0  0  0
 18 41  1  0  0  0  0
 19 20  1  0  0  0  0
 19 42  1  0  0  0  0
 19 43  1  0  0  0  0
 20 21  1  0  0  0  0
 20 44  1  0  0  0  0
 20 45  1  0  0  0  0
 21 46  1  0  0  0  0
 21 47  1  0  0  0  0
M  END
> <s_m_source_file>
AV-unprocessed.smi

> <i_m_source_file_index>
868

> <i_lp_mmshare_version>
43012

> <i_f3d_flags>
0

> <s_epik_input>
W0NIM11bQ0hdKFtDSDNdKVtDSDJdQzEoW0NIMl1bQ0gyXVtDSDJdMSlDKD1PKVtOSF1bQ0gyXVtDSDJdYzJubltjSF1uMltDSF0zW0NIMl1bQ0gyXTM=

> <s_epik_cmdline>
J2VwaWtfcHl0aG9uJywgJy1waCcsICc3LjAnLCAnLXRuJywgJzgnLCAnLW1hJywgJzIwMCcsICctbWV0YWxfYmluZGluZycsICctaW1hZScsICc8aW5maWxlLm1hZT4nLCAnLW9tYWUnLCAnPG91dGZpbGUubWFlPic=

> <r_lp_tautomer_probability>
1

> <r_epik_Ionization_Penalty>
0.000232087

> <r_epik_Ionization_Penalty_Charging>
0

> <r_epik_Ionization_Penalty_Neutral>
0.000232087

> <r_epik_State_Penalty>
-0

> <r_epik_Charging_Adjusted_Penalty>
0

> <i_epik_Tot_Q>
0

> <i_epik_Tot_abs_Q>
0

> <r_epik_Metal_State_Penalty>
-0

> <b_epik_Metal_Only>
0

> <s_lp_Force_Field>
OPLS_2005

> <r_lp_Energy>
30.4352

> <b_lp_Chiralities_Consistent>
1

> <s_lp_Variant>
AV-unprocessed.smi:868-1

> <Gold.Version>
5.8.1

> <Gold.Id.Protein>
6NUR|6NUR_protein|mol2

> <Gold.PLP.Fitness>
41.7292

> <Gold.PLP.PLP>
-33.5382

> <Gold.PLP.part.hbond>
-2.0000

> <Gold.PLP.part.metal>
0.0000

> <Gold.PLP.part.buried>
-4.3317

> <Gold.PLP.part.nonpolar>
-26.4477

> <Gold.PLP.part.repulsive>
0.1222

> <Gold.PLP.ligand.clash>
0.0000

> <Gold.PLP.ligand.torsion>
0.5618

> <Gold.PLP.Chemscore.Hbond>
1.8160

> <Gold.PLP.Chemscore.CHOScore>
1.0000

> <Gold.PLP.Chemscore.Metal>
0.0000

> <Gold.Chemscore.Hbonds>
donor molecule, donor type, donor heavy atom, donor atom, acceptor molecule, acceptor atom, score
      P1  H  6896  6908       L1     7  0.98
      P1  H  7989  7998       L1    13  0.78
      L1  C    14    36       P1  8028  1.00

> <Gold.PLP.Chemscore.Internal.Correction>
0.8666

> <Gold.Rescore>
     Score         DG    S(hbond)    S(metal)    S(lipo)     H(rot)  DE(clash)    DE(int)     intcor
     11.32     -14.41       1.62        0.00      77.42       2.17       0.25       2.84       ----

> <Gold.Chemscore.Fitness>
11.3162

> <Gold.Chemscore.DG>
-14.4095

> <Gold.Chemscore.ZeroCoef>
-5.4800

> <Gold.Chemscore.Hbond>
1.6220

> <Gold.Chemscore.Metal>
0.0000

> <Gold.Chemscore.Lipo>
77.4200

> <Gold.Chemscore.Internal_Hbond>
0.0000

> <Gold.Chemscore.DEClash>
0.2524

> <Gold.Chemscore.DEInternal>
2.8409

> <Gold.Chemscore.Rot>
2.1664

> <Gold.Chemscore.Internal.Correction>
   9.000000E+99

> <Gold.Chemscore.Hbonds>
donor molecule, donor type, donor heavy atom, donor atom, acceptor molecule, acceptor atom, score
      P1  H  6896  6908       L1     7  0.50
      P1  H  7989  7998       L1    13  0.40

> <Gold.Chemscore.Hbond.Weighted>
-5.4174

> <Gold.Chemscore.Metal.Weighted>
-0.0000

> <Gold.Chemscore.Lipo.Weighted>
-9.0581

> <Gold.Chemscore.Internal_Hbond.Weighted>
0.0000

> <Gold.Chemscore.DEClash.Weighted>
0.2524

> <Gold.Chemscore.DEInternal.Weighted>
2.8409

> <Gold.Chemscore.Rot.Weighted>
5.5461

> <Gold.Chemscore.Internal.Correction.Weighted>
   9.000000E+99

> <Gold.Protein.RotatedTorsions>
[ 6907 6896 6895 6894 ] final  166.87 input  -60.11 | X-H torsion
[ 7974 7965 7964 7962 ] final -132.58 input  175.53 | X-H torsion
[ 8008 7997 7996 7995 ] final -104.94 input   59.86 | X-H torsion
[ 10167 10162 10161 10158 ] final -143.00 input  -65.29 | X-H torsion
[ 10718 10713 10712 10709 ] final  -35.88 input   66.30 | X-H torsion
[ 10763 10752 10751 10750 ] final  -37.03 input  -60.55 | X-H torsion
[ 11005 11000 10999 10996 ] final -131.70 input  -57.11 | X-H torsion

> <Gold.Protein.ActiveResidues>
 VAL166  LYS551  ARG553  GLY616  TRP617  ASP618  TYR619  PRO620  LYS621  CYS622 
 ASP623  PHE694  ASN695  SER759  ASP760  ASP761  ALA762  ILE779  LEU786  VAL792 
 PHE793  MET794  SER795  GLU796  ALA797  LYS798  CYS799  TRP800  GLU811  SER814 

> <Gold.Protein.RotatedAtoms>
  151.8722  133.3478  159.3738 H   0  0  0  0  0  0  0  0  0  0  0  0  # atno 6907 bound_to 6896
  150.7150  134.5102  159.5613 H   0  0  0  0  0  0  0  0  0  0  0  0  # atno 6908 bound_to 6896
  152.2637  134.8008  160.0477 H   0  0  0  0  0  0  0  0  0  0  0  0  # atno 6909 bound_to 6896
  144.9273  140.7086  143.4928 H   0  0  0  0  0  0  0  0  0  0  0  0  # atno 7974 bound_to 7965
  154.8926  140.0415  157.1847 H   0  0  0  0  0  0  0  0  0  0  0  0  # atno 8008 bound_to 7997
  154.8525  140.2931  155.5568 H   0  0  0  0  0  0  0  0  0  0  0  0  # atno 8009 bound_to 7997
  156.2996  140.2462  156.3486 H   0  0  0  0  0  0  0  0  0  0  0  0  # atno 8010 bound_to 7997
  139.8034  143.7801  152.2659 H   0  0  0  0  0  0  0  0  0  0  0  0  # atno 10167 bound_to 10162
  156.3334  130.4282  149.7852 H   0  0  0  0  0  0  0  0  0  0  0  0  # atno 10718 bound_to 10713
  153.8895  135.6813  153.4761 H   0  0  0  0  0  0  0  0  0  0  0  0  # atno 10763 bound_to 10752
  153.1189  135.4749  154.9159 H   0  0  0  0  0  0  0  0  0  0  0  0  # atno 10764 bound_to 10752
  154.7629  135.3216  154.8296 H   0  0  0  0  0  0  0  0  0  0  0  0  # atno 10765 bound_to 10752
  140.9236  134.1412  157.4294 H   0  0  0  0  0  0  0  0  0  0  0  0  # atno 11005 bound_to 11000
  145.3199  139.1791  143.4593 LP  0  0  0  0  0  0  0  0  0  0  0  0  # atno 17320 bound_to 7965
  146.3231  140.3215  142.8633 LP  0  0  0  0  0  0  0  0  0  0  0  0  # atno 17321 bound_to 7965
  139.7928  144.7404  150.9931 LP  0  0  0  0  0  0  0  0  0  0  0  0  # atno 17342 bound_to 10162
  140.7820  143.4424  151.0532 LP  0  0  0  0  0  0  0  0  0  0  0  0  # atno 17343 bound_to 10162
  156.5116  130.8174  151.3171 LP  0  0  0  0  0  0  0  0  0  0  0  0  # atno 17370 bound_to 10713
  157.7434  130.9912  150.2592 LP  0  0  0  0  0  0  0  0  0  0  0  0  # atno 17371 bound_to 10713
  139.8780  134.9980  156.5877 LP  0  0  0  0  0  0  0  0  0  0  0  0  # atno 17394 bound_to 11000
  140.7956  133.8547  155.8683 LP  0  0  0  0  0  0  0  0  0  0  0  0  # atno 17395 bound_to 11000

$$$$
