AV-unprocessed.smi:199|AV-procd|sdf|1571|dock6
  -GOLD-   2262019453D 1   1.00000     0.00000
 Structure written by MMmdl.
 51 55  0  0  0  0  0  0  0  0  1 V2000
  149.4191  141.2888  156.9519 C   0  0  0  0  0  0  0  0  0  0  0  0
  150.1625  140.9027  155.6636 C   0  0  1  0  0  0  0  0  0  0  0  0
  151.2519  140.0603  156.0317 O   0  0  0  0  0  0  0  0  0  0  0  0
  151.5062  139.1507  154.9758 C   0  0  0  0  0  0  0  0  0  0  0  0
  150.1038  138.7801  154.5194 C   0  0  0  0  0  0  0  0  0  0  0  0
  149.3547  140.1075  154.5985 C   0  0  2  0  0  0  0  0  0  0  0  0
  149.5177  140.7696  153.3550 O   0  0  0  0  0  0  0  0  0  0  0  0
  147.8325  139.9504  154.8572 C   0  0  0  0  0  0  0  0  0  0  0  0
  147.1953  138.9851  153.9738 N   0  0  0  0  0  0  0  0  0  0  0  0
  147.0404  139.0904  152.6111 C   0  0  0  0  0  0  0  0  0  0  0  0
  146.4383  138.0831  152.0419 N   0  0  0  0  0  0  0  0  0  0  0  0
  146.1528  137.2125  153.0878 C   0  0  0  0  0  0  0  0  0  0  0  0
  145.5234  135.9359  153.1859 C   0  0  0  0  0  0  0  0  0  0  0  0
  145.0325  135.2360  152.1251 N   0  0  0  0  0  0  0  0  0  0  0  0
  145.8992  134.8470  151.0212 C   0  0  1  0  0  0  0  0  0  0  0  0
  146.7530  133.7043  151.6045 C   0  0  0  0  0  0  0  0  0  0  0  0
  145.7423  133.0269  152.5423 C   0  0  0  0  0  0  0  0  0  0  0  0
  144.4846  133.8988  152.3164 C   0  0  2  0  0  0  0  0  0  0  0  0
  143.8493  133.6301  150.9351 C   0  0  2  0  0  0  0  0  0  0  0  0
  143.4759  132.1682  150.6265 C   0  0  0  0  0  0  0  0  0  0  0  0
  142.9674  132.0676  149.3136 O   0  0  0  0  0  0  0  0  0  0  0  0
  144.9062  134.2542  150.0048 C   0  0  0  0  0  0  0  0  0  0  0  0
  145.3919  135.4048  154.4309 N   0  0  0  0  0  0  0  0  0  0  0  0
  145.8629  136.0504  155.5004 C   0  0  0  0  0  0  0  0  0  0  0  0
  146.4866  137.2272  155.5545 N   0  0  0  0  0  0  0  0  0  0  0  0
  146.6087  137.7787  154.3138 C   0  0  0  0  0  0  0  0  0  0  0  0
  148.5720  141.9423  156.7430 H   0  0  0  0  0  0  0  0  0  0  0  0
  150.0826  141.8233  157.6319 H   0  0  0  0  0  0  0  0  0  0  0  0
  149.0522  140.4092  157.4812 H   0  0  0  0  0  0  0  0  0  0  0  0
  150.5816  141.8100  155.2241 H   0  0  0  0  0  0  0  0  0  0  0  0
  152.0622  139.6507  154.1810 H   0  0  0  0  0  0  0  0  0  0  0  0
  152.0822  138.2897  155.3152 H   0  0  0  0  0  0  0  0  0  0  0  0
  150.0797  138.3164  153.5322 H   0  0  0  0  0  0  0  0  0  0  0  0
  149.6839  138.0685  155.2313 H   0  0  0  0  0  0  0  0  0  0  0  0
  149.4453  140.1299  152.6635 H   0  0  0  0  0  0  0  0  0  0  0  0
  147.6496  139.6278  155.8823 H   0  0  0  0  0  0  0  0  0  0  0  0
  147.3231  140.9078  154.7402 H   0  0  0  0  0  0  0  0  0  0  0  0
  147.3957  139.9409  152.0475 H   0  0  0  0  0  0  0  0  0  0  0  0
  146.4933  135.6447  150.5801 H   0  0  0  0  0  0  0  0  0  0  0  0
  147.1388  133.0319  150.8378 H   0  0  0  0  0  0  0  0  0  0  0  0
  147.6001  134.0961  152.1689 H   0  0  0  0  0  0  0  0  0  0  0  0
  145.5933  131.9704  152.3244 H   0  0  0  0  0  0  0  0  0  0  0  0
  146.0822  133.0975  153.5761 H   0  0  0  0  0  0  0  0  0  0  0  0
  143.7554  133.8178  153.1233 H   0  0  0  0  0  0  0  0  0  0  0  0
  142.9394  134.2309  150.8781 H   0  0  0  0  0  0  0  0  0  0  0  0
  144.3339  131.5027  150.7178 H   0  0  0  0  0  0  0  0  0  0  0  0
  142.7125  131.8176  151.3213 H   0  0  0  0  0  0  0  0  0  0  0  0
  142.2420  132.6670  149.2257 H   0  0  0  0  0  0  0  0  0  0  0  0
  144.4590  135.0367  149.3907 H   0  0  0  0  0  0  0  0  0  0  0  0
  145.3786  133.5330  149.3369 H   0  0  0  0  0  0  0  0  0  0  0  0
  145.7199  135.5523  156.4479 H   0  0  0  0  0  0  0  0  0  0  0  0
  1  2  1  0  0  0  0
  1 27  1  0  0  0  0
  1 28  1  0  0  0  0
  1 29  1  0  0  0  0
  2  6  1  0  0  0  0
  2  3  1  0  0  0  0
  2 30  1  0  0  0  0
  3  4  1  0  0  0  0
  4  5  1  0  0  0  0
  4 31  1  0  0  0  0
  4 32  1  0  0  0  0
  5  6  1  0  0  0  0
  5 33  1  0  0  0  0
  5 34  1  0  0  0  0
  6  7  1  0  0  0  0
  6  8  1  0  0  0  0
  7 35  1  0  0  0  0
  8  9  1  0  0  0  0
  8 36  1  0  0  0  0
  8 37  1  0  0  0  0
  9 26  1  0  0  0  0
  9 10  1  0  0  0  0
 10 11  2  0  0  0  0
 10 38  1  0  0  0  0
 11 12  1  0  0  0  0
 12 26  2  0  0  0  0
 12 13  1  0  0  0  0
 13 14  1  0  0  0  0
 13 23  2  0  0  0  0
 14 18  1  0  0  0  0
 14 15  1  0  0  0  0
 15 22  1  0  0  0  0
 15 16  1  0  0  0  0
 15 39  1  0  0  0  0
 16 17  1  0  0  0  0
 16 40  1  0  0  0  0
 16 41  1  0  0  0  0
 17 18  1  0  0  0  0
 17 42  1  0  0  0  0
 17 43  1  0  0  0  0
 18 19  1  0  0  0  0
 18 44  1  0  0  0  0
 19 20  1  0  0  0  0
 19 22  1  0  0  0  0
 19 45  1  0  0  0  0
 20 21  1  0  0  0  0
 20 46  1  0  0  0  0
 20 47  1  0  0  0  0
 21 48  1  0  0  0  0
 22 49  1  0  0  0  0
 22 50  1  0  0  0  0
 23 24  1  0  0  0  0
 24 25  2  0  0  0  0
 24 51  1  0  0  0  0
 25 26  1  0  0  0  0
M  END
> <s_m_source_file>
AV-unprocessed.smi

> <i_m_source_file_index>
199

> <i_lp_mmshare_version>
43012

> <i_f3d_flags>
0

> <s_epik_input>
W0NIMl0xW0NIMl1PW0NAQEhdKFtDSDNdKVtDQEBdMShbT0hdKVtDSDJdbihbY0hdbjIpYyhjMjMpbltjSF1uYzNOKFtDQEBIXTQ1KVtDQEhdKFtDSDJdW0NIMl00KVtDQEhdKFtDSDJdNSlbQ0gyXVtPSF0=

> <s_epik_cmdline>
J2VwaWtfcHl0aG9uJywgJy1waCcsICc3LjAnLCAnLXRuJywgJzgnLCAnLW1hJywgJzIwMCcsICctbWV0YWxfYmluZGluZycsICctaW1hZScsICc8aW5maWxlLm1hZT4nLCAnLW9tYWUnLCAnPG91dGZpbGUubWFlPic=

> <r_lp_tautomer_probability>
1

> <r_epik_Ionization_Penalty>
0.00583903

> <r_epik_Ionization_Penalty_Charging>
0

> <r_epik_Ionization_Penalty_Neutral>
0.00583903

> <r_epik_State_Penalty>
-0

> <r_epik_Charging_Adjusted_Penalty>
0

> <i_epik_Tot_Q>
0

> <i_epik_Tot_abs_Q>
0

> <r_epik_Metal_State_Penalty>
-0

> <b_epik_Metal_Only>
0

> <s_lp_Force_Field>
OPLS_2005

> <r_lp_Energy>
83.1527

> <b_lp_Chiralities_Consistent>
1

> <s_lp_Variant>
AV-unprocessed.smi:199-12

> <Gold.Version>
5.8.1

> <Gold.Id.Protein>
6NUR|6NUR_protein|mol2

> <Gold.PLP.Fitness>
51.8356

> <Gold.PLP.PLP>
-38.7553

> <Gold.PLP.part.hbond>
-5.2297

> <Gold.PLP.part.metal>
0.0000

> <Gold.PLP.part.buried>
-3.9130

> <Gold.PLP.part.nonpolar>
-30.7560

> <Gold.PLP.part.repulsive>
0.4946

> <Gold.PLP.ligand.clash>
0.0000

> <Gold.PLP.ligand.torsion>
0.1508

> <Gold.PLP.Chemscore.Hbond>
3.6673

> <Gold.PLP.Chemscore.CHOScore>
0.7875

> <Gold.PLP.Chemscore.Metal>
0.0000

> <Gold.Chemscore.Hbonds>
donor molecule, donor type, donor heavy atom, donor atom, acceptor molecule, acceptor atom, score
      L1  H     7    35       P1  7957  0.75
      L1  H    21    48       P1 10186  0.68
      P1  H  7989  7998       L1     7  0.20
      P1  H  8011  8017       L1     7  1.00
      P1  H 10785 10796       L1    21  1.00
      L1  C    10    38       P1  7957  0.85

> <Gold.PLP.Chemscore.Internal.Correction>
0.0174

> <Gold.Rescore>
     Score         DG    S(hbond)    S(metal)    S(lipo)     H(rot)  DE(clash)    DE(int)     intcor
     15.13     -16.55       2.66        0.00      85.86       3.07       0.45       0.97       ----

> <Gold.Chemscore.Fitness>
15.1310

> <Gold.Chemscore.DG>
-16.5469

> <Gold.Chemscore.ZeroCoef>
-5.4800

> <Gold.Chemscore.Hbond>
2.6611

> <Gold.Chemscore.Metal>
0.0000

> <Gold.Chemscore.Lipo>
85.8610

> <Gold.Chemscore.Internal_Hbond>
0.0000

> <Gold.Chemscore.DEClash>
0.4450

> <Gold.Chemscore.DEInternal>
0.9709

> <Gold.Chemscore.Rot>
3.0729

> <Gold.Chemscore.Internal.Correction>
   9.000000E+99

> <Gold.Chemscore.Hbonds>
donor molecule, donor type, donor heavy atom, donor atom, acceptor molecule, acceptor atom, score
      L1  H     7    35       P1  7957  0.71
      L1  H    21    48       P1 10186  0.68
      P1  H  7989  7998       L1     7  0.01
      P1  H  8011  8017       L1     7  0.30
      P1  H 10785 10796       L1    21  0.57

> <Gold.Chemscore.Hbond.Weighted>
-8.8879

> <Gold.Chemscore.Metal.Weighted>
-0.0000

> <Gold.Chemscore.Lipo.Weighted>
-10.0457

> <Gold.Chemscore.Internal_Hbond.Weighted>
0.0000

> <Gold.Chemscore.DEClash.Weighted>
0.4450

> <Gold.Chemscore.DEInternal.Weighted>
0.9709

> <Gold.Chemscore.Rot.Weighted>
7.8667

> <Gold.Chemscore.Internal.Correction.Weighted>
   9.000000E+99

> <Gold.Protein.RotatedTorsions>
[ 6907 6896 6895 6894 ] final -106.39 input  -60.11 | X-H torsion
[ 7974 7965 7964 7962 ] final   42.91 input  175.53 | X-H torsion
[ 8008 7997 7996 7995 ] final  -49.40 input   59.86 | X-H torsion
[ 10167 10162 10161 10158 ] final  149.52 input  -65.29 | X-H torsion
[ 10718 10713 10712 10709 ] final  -43.14 input   66.30 | X-H torsion
[ 10763 10752 10751 10750 ] final  155.47 input  -60.55 | X-H torsion
[ 11005 11000 10999 10996 ] final  167.82 input  -57.11 | X-H torsion

> <Gold.Protein.ActiveResidues>
 VAL166  LYS551  ARG553  GLY616  TRP617  ASP618  TYR619  PRO620  LYS621  CYS622 
 ASP623  PHE694  ASN695  SER759  ASP760  ASP761  ALA762  ILE779  LEU786  VAL792 
 PHE793  MET794  SER795  GLU796  ALA797  LYS798  CYS799  TRP800  GLU811  SER814 

> <Gold.Protein.RotatedAtoms>
  150.7387  133.9983  159.3629 H   0  0  0  0  0  0  0  0  0  0  0  0  # atno 6907 bound_to 6896
  151.7935  135.0727  160.0400 H   0  0  0  0  0  0  0  0  0  0  0  0  # atno 6908 bound_to 6896
  152.3191  133.5797  159.5768 H   0  0  0  0  0  0  0  0  0  0  0  0  # atno 6909 bound_to 6896
  146.0700  139.5246  142.9603 H   0  0  0  0  0  0  0  0  0  0  0  0  # atno 7974 bound_to 7965
  154.4043  140.1298  156.4496 H   0  0  0  0  0  0  0  0  0  0  0  0  # atno 8008 bound_to 7997
  155.7379  140.3490  155.5070 H   0  0  0  0  0  0  0  0  0  0  0  0  # atno 8009 bound_to 7997
  155.9066  140.1028  157.1300 H   0  0  0  0  0  0  0  0  0  0  0  0  # atno 8010 bound_to 7997
  139.4860  144.5595  151.7257 H   0  0  0  0  0  0  0  0  0  0  0  0  # atno 10167 bound_to 10162
  156.2521  130.4189  149.8638 H   0  0  0  0  0  0  0  0  0  0  0  0  # atno 10718 bound_to 10713
  154.1689  135.2805  155.3087 H   0  0  0  0  0  0  0  0  0  0  0  0  # atno 10763 bound_to 10752
  154.6090  135.5505  153.7457 H   0  0  0  0  0  0  0  0  0  0  0  0  # atno 10764 bound_to 10752
  153.0170  135.6411  154.1829 H   0  0  0  0  0  0  0  0  0  0  0  0  # atno 10765 bound_to 10752
  140.2808  134.7751  157.3757 H   0  0  0  0  0  0  0  0  0  0  0  0  # atno 11005 bound_to 11000
  145.6408  141.0284  143.1813 LP  0  0  0  0  0  0  0  0  0  0  0  0  # atno 17320 bound_to 7965
  144.7226  139.7980  143.7376 LP  0  0  0  0  0  0  0  0  0  0  0  0  # atno 17321 bound_to 7965
  140.5162  144.0949  150.6009 LP  0  0  0  0  0  0  0  0  0  0  0  0  # atno 17342 bound_to 10162
  140.3891  143.2762  152.0081 LP  0  0  0  0  0  0  0  0  0  0  0  0  # atno 17343 bound_to 10162
  156.6182  130.8615  151.3469 LP  0  0  0  0  0  0  0  0  0  0  0  0  # atno 17370 bound_to 10713
  157.7218  130.9569  150.1471 LP  0  0  0  0  0  0  0  0  0  0  0  0  # atno 17371 bound_to 10713
  140.1285  134.5126  155.8125 LP  0  0  0  0  0  0  0  0  0  0  0  0  # atno 17394 bound_to 11000
  141.2163  133.6781  156.6996 LP  0  0  0  0  0  0  0  0  0  0  0  0  # atno 17395 bound_to 11000

$$$$
