AV-unprocessed.smi:3335|AV-procd|sdf|12852|dock8
  -GOLD-   2272019243D 1   1.00000     0.00000
 Structure written by MMmdl.
 46 47  0  0  0  0  0  0  0  0  1 V2000
  153.7437  143.2853  164.0128 C   0  0  0  0  0  0  0  0  0  0  0  0
  153.4928  142.6391  162.6810 C   0  0  0  0  0  0  0  0  0  0  0  0
  154.0283  141.4163  162.1857 C   0  0  0  0  0  0  0  0  0  0  0  0
  153.6064  141.1273  160.9660 N   0  0  0  0  0  0  0  0  0  0  0  0
  152.7855  142.1505  160.6382 N   0  0  0  0  0  0  0  0  0  0  0  0
  152.1234  142.1775  159.3396 C   0  0  1  0  0  0  0  0  0  0  0  0
  152.5124  143.4608  158.5793 C   0  0  0  0  0  0  0  0  0  0  0  0
  152.3963  140.8911  158.5134 C   0  0  1  0  0  0  0  0  0  0  0  0
  151.7786  139.6218  159.1383 C   0  0  0  0  0  0  0  0  0  0  0  0
  151.8276  141.0839  157.1772 N   0  0  0  0  0  0  0  0  0  0  0  0
  150.3599  140.9542  157.0823 C   0  0  1  0  0  0  0  0  0  0  0  0
  149.7022  142.2575  157.5612 C   0  0  0  0  0  0  0  0  0  0  0  0
  149.8715  140.6187  155.6548 C   0  0  0  0  0  0  0  0  0  0  0  0
  150.7064  140.4984  154.7561 O   0  0  0  0  0  0  0  0  0  0  0  0
  148.5500  140.4644  155.4223 N   0  0  0  0  0  0  0  0  0  0  0  0
  148.0054  140.1239  154.1088 C   0  0  0  0  0  0  0  0  0  0  0  0
  146.5234  139.8250  154.3351 C   0  0  0  0  0  0  0  0  0  0  0  0
  146.1739  140.6126  155.5895 C   0  0  0  0  0  0  0  0  0  0  0  0
  147.4713  140.6220  156.3980 C   0  0  0  0  0  0  0  0  0  0  0  0
  152.7025  143.0772  161.6566 C   0  0  0  0  0  0  0  0  0  0  0  0
  154.3673  142.6629  164.6552 H   0  0  0  0  0  0  0  0  0  0  0  0
  152.8139  143.4710  164.5506 H   0  0  0  0  0  0  0  0  0  0  0  0
  154.2502  144.2444  163.9047 H   0  0  0  0  0  0  0  0  0  0  0  0
  154.7082  140.7338  162.6741 H   0  0  0  0  0  0  0  0  0  0  0  0
  151.0522  142.2278  159.5432 H   0  0  0  0  0  0  0  0  0  0  0  0
  151.9371  143.5727  157.6604 H   0  0  0  0  0  0  0  0  0  0  0  0
  153.5686  143.4610  158.3081 H   0  0  0  0  0  0  0  0  0  0  0  0
  152.3254  144.3468  159.1871 H   0  0  0  0  0  0  0  0  0  0  0  0
  153.4768  140.7559  158.4626 H   0  0  0  0  0  0  0  0  0  0  0  0
  152.1974  139.4132  160.1226 H   0  0  0  0  0  0  0  0  0  0  0  0
  151.9648  138.7359  158.5322 H   0  0  0  0  0  0  0  0  0  0  0  0
  150.6990  139.7237  159.2535 H   0  0  0  0  0  0  0  0  0  0  0  0
  152.2811  140.4521  156.5324 H   0  0  0  0  0  0  0  0  0  0  0  0
  150.0572  140.1683  157.7713 H   0  0  0  0  0  0  0  0  0  0  0  0
  148.6141  142.1868  157.5379 H   0  0  0  0  0  0  0  0  0  0  0  0
  149.9930  143.1057  156.9398 H   0  0  0  0  0  0  0  0  0  0  0  0
  149.9908  142.4855  158.5878 H   0  0  0  0  0  0  0  0  0  0  0  0
  148.1260  140.9788  153.4417 H   0  0  0  0  0  0  0  0  0  0  0  0
  148.5169  139.2698  153.6614 H   0  0  0  0  0  0  0  0  0  0  0  0
  145.9022  140.0925  153.4799 H   0  0  0  0  0  0  0  0  0  0  0  0
  146.3896  138.7593  154.5249 H   0  0  0  0  0  0  0  0  0  0  0  0
  145.9068  141.6343  155.3162 H   0  0  0  0  0  0  0  0  0  0  0  0
  145.3359  140.1842  156.1397 H   0  0  0  0  0  0  0  0  0  0  0  0
  147.4925  139.7802  157.0917 H   0  0  0  0  0  0  0  0  0  0  0  0
  147.5634  141.5441  156.9735 H   0  0  0  0  0  0  0  0  0  0  0  0
  152.0923  143.9640  161.5700 H   0  0  0  0  0  0  0  0  0  0  0  0
  1  2  1  0  0  0  0
  1 21  1  0  0  0  0
  1 22  1  0  0  0  0
  1 23  1  0  0  0  0
  2 20  2  0  0  0  0
  2  3  1  0  0  0  0
  3  4  2  0  0  0  0
  3 24  1  0  0  0  0
  4  5  1  0  0  0  0
  5  6  1  0  0  0  0
  5 20  1  0  0  0  0
  6  7  1  0  0  0  0
  6  8  1  0  0  0  0
  6 25  1  0  0  0  0
  7 26  1  0  0  0  0
  7 27  1  0  0  0  0
  7 28  1  0  0  0  0
  8  9  1  0  0  0  0
  8 10  1  0  0  0  0
  8 29  1  0  0  0  0
  9 30  1  0  0  0  0
  9 31  1  0  0  0  0
  9 32  1  0  0  0  0
 10 11  1  0  0  0  0
 10 33  1  0  0  0  0
 11 12  1  0  0  0  0
 11 13  1  0  0  0  0
 11 34  1  0  0  0  0
 12 35  1  0  0  0  0
 12 36  1  0  0  0  0
 12 37  1  0  0  0  0
 13 14  2  0  0  0  0
 13 15  1  0  0  0  0
 15 19  1  0  0  0  0
 15 16  1  0  0  0  0
 16 17  1  0  0  0  0
 16 38  1  0  0  0  0
 16 39  1  0  0  0  0
 17 18  1  0  0  0  0
 17 40  1  0  0  0  0
 17 41  1  0  0  0  0
 18 19  1  0  0  0  0
 18 42  1  0  0  0  0
 18 43  1  0  0  0  0
 19 44  1  0  0  0  0
 19 45  1  0  0  0  0
 20 46  1  0  0  0  0
M  END
> <s_m_source_file>
AV-unprocessed.smi

> <i_m_source_file_index>
3335

> <i_lp_mmshare_version>
43012

> <i_f3d_flags>
0

> <s_epik_input>
W0NIM11jMVtjSF1ubihbY0hdMSlbQ0BIXShbQ0gzXSlbQ0BIXShbQ0gzXSlbTkhdW0NASF0oW0NIM10pQyg9TylOMltDSDJdW0NIMl1bQ0gyXVtDSDJdMg==

> <s_epik_cmdline>
J2VwaWtfcHl0aG9uJywgJy1waCcsICc3LjAnLCAnLXRuJywgJzgnLCAnLW1hJywgJzIwMCcsICctbWV0YWxfYmluZGluZycsICctaW1hZScsICc8aW5maWxlLm1hZT4nLCAnLW9tYWUnLCAnPG91dGZpbGUubWFlPic=

> <r_lp_tautomer_probability>
1

> <r_epik_Ionization_Penalty>
0.918803

> <r_epik_Ionization_Penalty_Charging>
0

> <r_epik_Ionization_Penalty_Neutral>
0.918803

> <r_epik_State_Penalty>
0.958258

> <r_epik_Charging_Adjusted_Penalty>
0.958258

> <i_epik_Tot_Q>
0

> <i_epik_Tot_abs_Q>
0

> <r_epik_Metal_State_Penalty>
0.956786

> <b_epik_Metal_Only>
0

> <s_lp_Force_Field>
OPLS_2005

> <r_lp_Energy>
36.4187

> <b_lp_Chiralities_Consistent>
1

> <s_lp_Variant>
AV-unprocessed.smi:3335-16

> <Gold.Version>
5.8.1

> <Gold.Id.Protein>
6NUR|6NUR_protein|mol2

> <Gold.PLP.Fitness>
40.6135

> <Gold.PLP.PLP>
-38.3490

> <Gold.PLP.part.hbond>
-0.9542

> <Gold.PLP.part.metal>
0.0000

> <Gold.PLP.part.buried>
-3.0964

> <Gold.PLP.part.nonpolar>
-34.3145

> <Gold.PLP.part.repulsive>
0.0926

> <Gold.PLP.ligand.clash>
0.0000

> <Gold.PLP.ligand.torsion>
0.4236

> <Gold.PLP.Chemscore.Hbond>
1.0000

> <Gold.PLP.Chemscore.CHOScore>
0.0000

> <Gold.PLP.Chemscore.Metal>
0.0000

> <Gold.Chemscore.Hbonds>
donor molecule, donor type, donor heavy atom, donor atom, acceptor molecule, acceptor atom, score
      P1  H  7989  7998       L1    14  1.00

> <Gold.PLP.Chemscore.Internal.Correction>
0.1117

> <Gold.Rescore>
     Score         DG    S(hbond)    S(metal)    S(lipo)     H(rot)  DE(clash)    DE(int)     intcor
     14.82     -16.79       1.00        0.00     103.60       1.62       0.06       1.91       ----

> <Gold.Chemscore.Fitness>
14.8172

> <Gold.Chemscore.DG>
-16.7884

> <Gold.Chemscore.ZeroCoef>
-5.4800

> <Gold.Chemscore.Hbond>
0.9985

> <Gold.Chemscore.Metal>
0.0000

> <Gold.Chemscore.Lipo>
103.6020

> <Gold.Chemscore.Internal_Hbond>
0.0000

> <Gold.Chemscore.DEClash>
0.0570

> <Gold.Chemscore.DEInternal>
1.9141

> <Gold.Chemscore.Rot>
1.6204

> <Gold.Chemscore.Internal.Correction>
   9.000000E+99

> <Gold.Chemscore.Hbonds>
donor molecule, donor type, donor heavy atom, donor atom, acceptor molecule, acceptor atom, score
      P1  H  7989  7998       L1    14  0.96

> <Gold.Chemscore.Hbond.Weighted>
-3.3351

> <Gold.Chemscore.Metal.Weighted>
-0.0000

> <Gold.Chemscore.Lipo.Weighted>
-12.1214

> <Gold.Chemscore.Internal_Hbond.Weighted>
0.0000

> <Gold.Chemscore.DEClash.Weighted>
0.0570

> <Gold.Chemscore.DEInternal.Weighted>
1.9141

> <Gold.Chemscore.Rot.Weighted>
4.1482

> <Gold.Chemscore.Internal.Correction.Weighted>
   9.000000E+99

> <Gold.Protein.RotatedTorsions>
[ 6907 6896 6895 6894 ] final  -80.07 input  -60.11 | X-H torsion
[ 7974 7965 7964 7962 ] final   85.05 input  175.53 | X-H torsion
[ 8008 7997 7996 7995 ] final  -70.03 input   59.86 | X-H torsion
[ 10167 10162 10161 10158 ] final  -94.80 input  -65.29 | X-H torsion
[ 10718 10713 10712 10709 ] final  -38.29 input   66.30 | X-H torsion
[ 10763 10752 10751 10750 ] final   25.36 input  -60.55 | X-H torsion
[ 11005 11000 10999 10996 ] final  -79.44 input  -57.11 | X-H torsion

> <Gold.Protein.ActiveResidues>
 VAL166  LYS551  ARG553  GLY616  TRP617  ASP618  TYR619  PRO620  LYS621  CYS622 
 ASP623  PHE694  ASN695  SER759  ASP760  ASP761  ALA762  ILE779  LEU786  VAL792 
 PHE793  MET794  SER795  GLU796  ALA797  LYS798  CYS799  TRP800  GLU811  SER814 

> <Gold.Protein.RotatedAtoms>
  150.6936  134.4025  159.5124 H   0  0  0  0  0  0  0  0  0  0  0  0  # atno 6907 bound_to 6896
  152.1796  134.8763  160.0536 H   0  0  0  0  0  0  0  0  0  0  0  0  # atno 6908 bound_to 6896
  151.9758  133.3706  159.4125 H   0  0  0  0  0  0  0  0  0  0  0  0  # atno 6909 bound_to 6896
  145.5907  139.2337  143.2301 H   0  0  0  0  0  0  0  0  0  0  0  0  # atno 7974 bound_to 7965
  154.4982  140.0842  156.7742 H   0  0  0  0  0  0  0  0  0  0  0  0  # atno 8008 bound_to 7997
  155.4065  140.3439  155.4242 H   0  0  0  0  0  0  0  0  0  0  0  0  # atno 8009 bound_to 7997
  156.1422  140.1533  156.8891 H   0  0  0  0  0  0  0  0  0  0  0  0  # atno 8010 bound_to 7997
  140.3107  143.3106  152.0151 H   0  0  0  0  0  0  0  0  0  0  0  0  # atno 10167 bound_to 10162
  156.3055  130.4245  149.8101 H   0  0  0  0  0  0  0  0  0  0  0  0  # atno 10718 bound_to 10713
  153.0697  135.6585  154.0274 H   0  0  0  0  0  0  0  0  0  0  0  0  # atno 10763 bound_to 10752
  153.9923  135.2945  155.3412 H   0  0  0  0  0  0  0  0  0  0  0  0  # atno 10764 bound_to 10752
  154.7068  135.5222  153.8676 H   0  0  0  0  0  0  0  0  0  0  0  0  # atno 10765 bound_to 10752
  141.1667  133.7106  156.8122 H   0  0  0  0  0  0  0  0  0  0  0  0  # atno 11005 bound_to 11000
  146.1649  140.6733  142.9260 LP  0  0  0  0  0  0  0  0  0  0  0  0  # atno 17320 bound_to 7965
  144.7353  140.4789  143.6908 LP  0  0  0  0  0  0  0  0  0  0  0  0  # atno 17321 bound_to 7965
  139.4894  144.6386  151.6923 LP  0  0  0  0  0  0  0  0  0  0  0  0  # atno 17342 bound_to 10162
  140.5570  144.0331  150.6152 LP  0  0  0  0  0  0  0  0  0  0  0  0  # atno 17343 bound_to 10162
  156.5464  130.8322  151.3285 LP  0  0  0  0  0  0  0  0  0  0  0  0  # atno 17370 bound_to 10713
  157.7378  130.9803  150.2217 LP  0  0  0  0  0  0  0  0  0  0  0  0  # atno 17371 bound_to 10713
  140.2179  134.8779  157.3346 LP  0  0  0  0  0  0  0  0  0  0  0  0  # atno 17394 bound_to 11000
  140.2018  134.4245  155.7658 LP  0  0  0  0  0  0  0  0  0  0  0  0  # atno 17395 bound_to 11000

$$$$
