AV-unprocessed.smi:1182|AV-procd|sdf|4967|dock4
  -GOLD-   22720 3563D 1   1.00000     0.00000
 Structure written by MMmdl.
 37 38  0  0  0  0  0  0  0  0  1 V2000
  144.3153  136.4819  152.3434 O   0  0  0  0  0  0  0  0  0  0  0  0
  145.5357  136.3847  152.2113 C   0  0  0  0  0  0  0  0  0  0  0  0
  146.4103  137.2504  152.7442 N   0  0  0  0  0  0  0  0  0  0  0  0
  146.0715  138.4161  153.5594 C   0  0  0  0  0  0  0  0  0  0  0  0
  147.1224  139.5509  153.4731 C   0  0  0  0  0  0  0  0  0  0  0  0
  147.3876  139.7584  152.0968 O   0  0  0  0  0  0  0  0  0  0  0  0
  146.6415  140.8810  154.1080 C   0  0  0  0  0  0  0  0  0  0  0  0
  147.7370  141.9616  154.1479 C   0  0  0  0  0  0  0  0  0  0  0  0
  149.0068  141.4517  154.8429 C   0  0  0  0  0  0  0  0  0  0  0  0
  149.5249  140.1757  154.1664 C   0  0  0  0  0  0  0  0  0  0  0  0
  148.4414  139.0831  154.1344 C   0  0  0  0  0  0  0  0  0  0  0  0
  146.1691  135.4200  151.5212 N   0  0  0  0  0  0  0  0  0  0  0  0
  145.6012  134.3220  150.8214 C   0  0  0  0  0  0  0  0  0  0  0  0
  146.5026  133.2778  150.5135 C   0  0  0  0  0  0  0  0  0  0  0  0
  146.0378  132.1420  149.8224 C   0  0  0  0  0  0  0  0  0  0  0  0
  144.6816  132.0795  149.4559 C   0  0  0  0  0  0  0  0  0  0  0  0
  143.8514  133.1621  149.8003 C   0  0  0  0  0  0  0  0  0  0  0  0
  144.2948  134.2514  150.4627 N   0  0  0  0  0  0  0  0  0  0  0  0
  147.3929  137.0957  152.5736 H   0  0  0  0  0  0  0  0  0  0  0  0
  145.0918  138.7992  153.2685 H   0  0  0  0  0  0  0  0  0  0  0  0
  145.9593  138.0852  154.5927 H   0  0  0  0  0  0  0  0  0  0  0  0
  148.3083  139.9462  151.9960 H   0  0  0  0  0  0  0  0  0  0  0  0
  145.7773  141.2749  153.5723 H   0  0  0  0  0  0  0  0  0  0  0  0
  146.3038  140.6871  155.1270 H   0  0  0  0  0  0  0  0  0  0  0  0
  147.9782  142.2803  153.1331 H   0  0  0  0  0  0  0  0  0  0  0  0
  147.3628  142.8457  154.6645 H   0  0  0  0  0  0  0  0  0  0  0  0
  149.7776  142.2228  154.8237 H   0  0  0  0  0  0  0  0  0  0  0  0
  148.7950  141.2506  155.8938 H   0  0  0  0  0  0  0  0  0  0  0  0
  149.8529  140.4047  153.1519 H   0  0  0  0  0  0  0  0  0  0  0  0
  150.4041  139.8076  154.6958 H   0  0  0  0  0  0  0  0  0  0  0  0
  148.2368  138.7723  155.1599 H   0  0  0  0  0  0  0  0  0  0  0  0
  148.8275  138.1992  153.6250 H   0  0  0  0  0  0  0  0  0  0  0  0
  147.1763  135.4748  151.4987 H   0  0  0  0  0  0  0  0  0  0  0  0
  147.5417  133.3419  150.8025 H   0  0  0  0  0  0  0  0  0  0  0  0
  146.7110  131.3334  149.5788 H   0  0  0  0  0  0  0  0  0  0  0  0
  144.2878  131.2251  148.9257 H   0  0  0  0  0  0  0  0  0  0  0  0
  142.8040  133.1537  149.5377 H   0  0  0  0  0  0  0  0  0  0  0  0
  1  2  2  0  0  0  0
  2  3  1  0  0  0  0
  2 12  1  0  0  0  0
  3  4  1  0  0  0  0
  3 19  1  0  0  0  0
  4  5  1  0  0  0  0
  4 20  1  0  0  0  0
  4 21  1  0  0  0  0
  5 11  1  0  0  0  0
  5  6  1  0  0  0  0
  5  7  1  0  0  0  0
  6 22  1  0  0  0  0
  7  8  1  0  0  0  0
  7 23  1  0  0  0  0
  7 24  1  0  0  0  0
  8  9  1  0  0  0  0
  8 25  1  0  0  0  0
  8 26  1  0  0  0  0
  9 10  1  0  0  0  0
  9 27  1  0  0  0  0
  9 28  1  0  0  0  0
 10 11  1  0  0  0  0
 10 29  1  0  0  0  0
 10 30  1  0  0  0  0
 11 31  1  0  0  0  0
 11 32  1  0  0  0  0
 12 13  1  0  0  0  0
 12 33  1  0  0  0  0
 13 18  1  0  0  0  0
 13 14  2  0  0  0  0
 14 15  1  0  0  0  0
 14 34  1  0  0  0  0
 15 16  2  0  0  0  0
 15 35  1  0  0  0  0
 16 17  1  0  0  0  0
 16 36  1  0  0  0  0
 17 18  2  0  0  0  0
 17 37  1  0  0  0  0
M  END
> <s_m_source_file>
AV-unprocessed.smi

> <i_m_source_file_index>
1182

> <i_lp_mmshare_version>
43012

> <i_f3d_flags>
0

> <s_epik_input>
bjFbY0hdW2NIXVtjSF1bY0hdYzFbTkhdQyg9TylbTkhdW0NIMl1DMihbT0hdKVtDSDJdW0NIMl1bQ0gyXVtDSDJdW0NIMl0y

> <s_epik_cmdline>
J2VwaWtfcHl0aG9uJywgJy1waCcsICc3LjAnLCAnLXRuJywgJzgnLCAnLW1hJywgJzIwMCcsICctbWV0YWxfYmluZGluZycsICctaW1hZScsICc8aW5maWxlLm1hZT4nLCAnLW9tYWUnLCAnPG91dGZpbGUubWFlPic=

> <r_lp_tautomer_probability>
1

> <r_epik_Ionization_Penalty>
5.55141e-05

> <r_epik_Ionization_Penalty_Charging>
0

> <r_epik_Ionization_Penalty_Neutral>
5.55141e-05

> <r_epik_State_Penalty>
-0

> <r_epik_Charging_Adjusted_Penalty>
0

> <i_epik_Tot_Q>
0

> <i_epik_Tot_abs_Q>
0

> <r_epik_Metal_State_Penalty>
-0

> <b_epik_Metal_Only>
0

> <s_lp_Force_Field>
OPLS_2005

> <r_lp_Energy>
16.5718

> <b_lp_Chiralities_Consistent>
1

> <s_lp_Variant>
AV-unprocessed.smi:1182-1

> <Gold.Version>
5.8.1

> <Gold.Id.Protein>
6NUR|6NUR_protein|mol2

> <Gold.PLP.Fitness>
44.4189

> <Gold.PLP.PLP>
-33.1149

> <Gold.PLP.part.hbond>
-2.5282

> <Gold.PLP.part.metal>
0.0000

> <Gold.PLP.part.buried>
-2.0209

> <Gold.PLP.part.nonpolar>
-29.2901

> <Gold.PLP.part.repulsive>
0.4668

> <Gold.PLP.ligand.clash>
0.0000

> <Gold.PLP.ligand.torsion>
0.3259

> <Gold.PLP.Chemscore.Hbond>
2.9833

> <Gold.PLP.Chemscore.CHOScore>
1.0000

> <Gold.PLP.Chemscore.Metal>
0.0000

> <Gold.Chemscore.Hbonds>
donor molecule, donor type, donor heavy atom, donor atom, acceptor molecule, acceptor atom, score
      L1  H     3    19       P1  7948  1.00
      L1  H     6    22       P1  7957  0.99
      L1  H    12    33       P1  7948  1.00
      L1  C    17    37       P1 10186  1.00

> <Gold.PLP.Chemscore.Internal.Correction>
0.0058

> <Gold.Rescore>
     Score         DG    S(hbond)    S(metal)    S(lipo)     H(rot)  DE(clash)    DE(int)     intcor
     18.47     -20.08       2.83        0.00      83.04       1.79       0.06       1.55       ----

> <Gold.Chemscore.Fitness>
18.4682

> <Gold.Chemscore.DG>
-20.0822

> <Gold.Chemscore.ZeroCoef>
-5.4800

> <Gold.Chemscore.Hbond>
2.8316

> <Gold.Chemscore.Metal>
0.0000

> <Gold.Chemscore.Lipo>
83.0360

> <Gold.Chemscore.Internal_Hbond>
0.0000

> <Gold.Chemscore.DEClash>
0.0604

> <Gold.Chemscore.DEInternal>
1.5536

> <Gold.Chemscore.Rot>
1.7853

> <Gold.Chemscore.Internal.Correction>
   9.000000E+99

> <Gold.Chemscore.Hbonds>
donor molecule, donor type, donor heavy atom, donor atom, acceptor molecule, acceptor atom, score
      L1  H     3    19       P1  7948  0.99
      L1  H     6    22       P1  7957  0.88
      L1  H    12    33       P1  7948  0.96

> <Gold.Chemscore.Hbond.Weighted>
-9.4575

> <Gold.Chemscore.Metal.Weighted>
-0.0000

> <Gold.Chemscore.Lipo.Weighted>
-9.7152

> <Gold.Chemscore.Internal_Hbond.Weighted>
0.0000

> <Gold.Chemscore.DEClash.Weighted>
0.0604

> <Gold.Chemscore.DEInternal.Weighted>
1.5536

> <Gold.Chemscore.Rot.Weighted>
4.5704

> <Gold.Chemscore.Internal.Correction.Weighted>
   9.000000E+99

> <Gold.Protein.RotatedTorsions>
[ 6907 6896 6895 6894 ] final -111.70 input  -60.11 | X-H torsion
[ 7974 7965 7964 7962 ] final  -87.96 input  175.53 | X-H torsion
[ 8008 7997 7996 7995 ] final -160.36 input   59.86 | X-H torsion
[ 10167 10162 10161 10158 ] final -172.46 input  -65.29 | X-H torsion
[ 10718 10713 10712 10709 ] final   -8.52 input   66.30 | X-H torsion
[ 10763 10752 10751 10750 ] final -145.77 input  -60.55 | X-H torsion
[ 11005 11000 10999 10996 ] final  177.78 input  -57.11 | X-H torsion

> <Gold.Protein.ActiveResidues>
 VAL166  LYS551  ARG553  GLY616  TRP617  ASP618  TYR619  PRO620  LYS621  CYS622 
 ASP623  PHE694  ASN695  SER759  ASP760  ASP761  ALA762  ILE779  LEU786  VAL792 
 PHE793  MET794  SER795  GLU796  ALA797  LYS798  CYS799  TRP800  GLU811  SER814 

> <Gold.Protein.RotatedAtoms>
  150.7708  133.9197  159.3393 H   0  0  0  0  0  0  0  0  0  0  0  0  # atno 6907 bound_to 6896
  151.7083  135.0915  160.0272 H   0  0  0  0  0  0  0  0  0  0  0  0  # atno 6908 bound_to 6896
  152.3725  133.6399  159.6133 H   0  0  0  0  0  0  0  0  0  0  0  0  # atno 6909 bound_to 6896
  145.4596  140.9561  143.1977 H   0  0  0  0  0  0  0  0  0  0  0  0  # atno 7974 bound_to 7965
  155.7763  140.0859  157.2082 H   0  0  0  0  0  0  0  0  0  0  0  0  # atno 8008 bound_to 7997
  154.3993  140.1516  156.3057 H   0  0  0  0  0  0  0  0  0  0  0  0  # atno 8009 bound_to 7997
  155.8698  140.3426  155.5816 H   0  0  0  0  0  0  0  0  0  0  0  0  # atno 8010 bound_to 7997
  139.5743  144.1568  152.1429 H   0  0  0  0  0  0  0  0  0  0  0  0  # atno 10167 bound_to 10162
  156.7014  130.5094  149.5916 H   0  0  0  0  0  0  0  0  0  0  0  0  # atno 10718 bound_to 10713
  154.8368  135.3404  154.6557 H   0  0  0  0  0  0  0  0  0  0  0  0  # atno 10763 bound_to 10752
  153.7171  135.6960  153.5027 H   0  0  0  0  0  0  0  0  0  0  0  0  # atno 10764 bound_to 10752
  153.2408  135.4385  155.0649 H   0  0  0  0  0  0  0  0  0  0  0  0  # atno 10765 bound_to 10752
  140.3879  134.6888  157.4490 H   0  0  0  0  0  0  0  0  0  0  0  0  # atno 11005 bound_to 11000
  144.8011  139.6139  143.7071 LP  0  0  0  0  0  0  0  0  0  0  0  0  # atno 17320 bound_to 7965
  146.2459  139.6096  142.9460 LP  0  0  0  0  0  0  0  0  0  0  0  0  # atno 17321 bound_to 7965
  140.1107  144.5459  150.6927 LP  0  0  0  0  0  0  0  0  0  0  0  0  # atno 17342 bound_to 10162
  140.7027  143.2446  151.4818 LP  0  0  0  0  0  0  0  0  0  0  0  0  # atno 17343 bound_to 10162
  156.1726  130.6447  151.0856 LP  0  0  0  0  0  0  0  0  0  0  0  0  # atno 17370 bound_to 10713
  157.6971  131.0790  150.6934 LP  0  0  0  0  0  0  0  0  0  0  0  0  # atno 17371 bound_to 10713
  140.0429  134.6242  155.8958 LP  0  0  0  0  0  0  0  0  0  0  0  0  # atno 17394 bound_to 11000
  141.1901  133.6567  156.5397 LP  0  0  0  0  0  0  0  0  0  0  0  0  # atno 17395 bound_to 11000

$$$$
