AV-unprocessed.smi:77|AV-procd|sdf|773|dock7
  -GOLD-   2262017123D 1   1.00000     0.00000
 Structure written by MMmdl.
 57 61  0  0  0  0  0  0  0  0  1 V2000
  147.6135  137.0705  160.6712 O   0  0  0  0  0  0  0  0  0  0  0  0
  147.8476  136.2846  159.7515 C   0  0  0  0  0  0  0  0  0  0  0  0
  146.8479  135.1815  159.3792 C   0  0  0  0  0  0  0  0  0  0  0  0
  147.4413  133.8380  159.3847 N   0  0  0  0  0  0  0  0  0  0  0  0
  148.0335  133.4004  158.2366 C   0  0  0  0  0  0  0  0  0  0  0  0
  149.3910  133.4324  158.1403 N   0  0  0  0  0  0  0  0  0  0  0  0
  150.0096  133.0159  157.0327 C   0  0  0  0  0  0  0  0  0  0  0  0
  149.4744  132.5327  155.9118 N   0  0  0  0  0  0  0  0  0  0  0  0
  148.1145  132.4900  155.9949 C   0  0  0  0  0  0  0  0  0  0  0  0
  147.3203  132.8982  157.1059 C   0  0  0  0  0  0  0  0  0  0  0  0
  145.9762  132.6896  156.8133 N   0  0  0  0  0  0  0  0  0  0  0  0
  145.9761  132.1937  155.6070 C   0  0  0  0  0  0  0  0  0  0  0  0
  147.2194  132.0364  155.0417 N   0  0  0  0  0  0  0  0  0  0  0  0
  147.5090  131.5102  153.7188 C   0  0  0  0  0  0  0  0  0  0  0  0
  146.2828  130.8579  153.0309 C   0  0  2  0  0  0  0  0  0  0  0  0
  146.5014  129.3374  152.8171 C   0  0  0  0  0  0  0  0  0  0  0  0
  147.7333  129.0668  152.1820 O   0  0  0  0  0  0  0  0  0  0  0  0
  145.9596  131.6015  151.7050 C   0  0  1  0  0  0  0  0  0  0  0  0
  144.7318  131.1169  150.9525 C   0  0  0  0  0  0  0  0  0  0  0  0
  144.4411  132.2865  150.0204 C   0  0  0  0  0  0  0  0  0  0  0  0
  144.8098  133.4497  150.7498 O   0  0  0  0  0  0  0  0  0  0  0  0
  145.6062  133.0855  151.8731 C   0  0  0  0  0  0  0  0  0  0  0  0
  147.9639  133.3518  160.6618 C   0  0  0  0  0  0  0  0  0  0  0  0
  147.0264  132.6625  161.6292 C   0  0  0  0  0  0  0  0  0  0  0  0
  147.5477  134.0450  161.9393 C   0  0  0  0  0  0  0  0  0  0  0  0
  148.9651  136.3287  159.0121 N   0  0  0  0  0  0  0  0  0  0  0  0
  150.0270  137.2689  159.1701 C   0  0  0  0  0  0  0  0  0  0  0  0
  149.9129  138.5856  158.4332 C   0  0  0  0  0  0  0  0  0  0  0  0
  150.9013  137.5523  157.9681 C   0  0  0  0  0  0  0  0  0  0  0  0
  145.9830  135.2389  160.0418 H   0  0  0  0  0  0  0  0  0  0  0  0
  146.4639  135.3947  158.3803 H   0  0  0  0  0  0  0  0  0  0  0  0
  151.0876  133.0779  157.0484 H   0  0  0  0  0  0  0  0  0  0  0  0
  145.0640  131.9236  155.0949 H   0  0  0  0  0  0  0  0  0  0  0  0
  147.8915  132.3392  153.1236 H   0  0  0  0  0  0  0  0  0  0  0  0
  148.3232  130.7887  153.7980 H   0  0  0  0  0  0  0  0  0  0  0  0
  145.4348  130.9806  153.7069 H   0  0  0  0  0  0  0  0  0  0  0  0
  146.4500  128.8006  153.7647 H   0  0  0  0  0  0  0  0  0  0  0  0
  145.7360  128.9076  152.1730 H   0  0  0  0  0  0  0  0  0  0  0  0
  147.9024  129.7507  151.5520 H   0  0  0  0  0  0  0  0  0  0  0  0
  146.8183  131.5278  151.0353 H   0  0  0  0  0  0  0  0  0  0  0  0
  144.8980  130.1887  150.4054 H   0  0  0  0  0  0  0  0  0  0  0  0
  143.8963  130.9681  151.6384 H   0  0  0  0  0  0  0  0  0  0  0  0
  145.0641  132.2237  149.1272 H   0  0  0  0  0  0  0  0  0  0  0  0
  143.3980  132.3231  149.7055 H   0  0  0  0  0  0  0  0  0  0  0  0
  145.0122  133.2429  152.7743 H   0  0  0  0  0  0  0  0  0  0  0  0
  146.4914  133.7186  151.9392 H   0  0  0  0  0  0  0  0  0  0  0  0
  148.9856  132.9766  160.6378 H   0  0  0  0  0  0  0  0  0  0  0  0
  145.9790  132.5744  161.3467 H   0  0  0  0  0  0  0  0  0  0  0  0
  147.4253  131.8312  162.2064 H   0  0  0  0  0  0  0  0  0  0  0  0
  148.2949  134.1367  162.7246 H   0  0  0  0  0  0  0  0  0  0  0  0
  146.8402  134.8686  161.8730 H   0  0  0  0  0  0  0  0  0  0  0  0
  149.0710  135.6441  158.2774 H   0  0  0  0  0  0  0  0  0  0  0  0
  150.5189  137.3095  160.1411 H   0  0  0  0  0  0  0  0  0  0  0  0
  149.0310  138.7500  157.8169 H   0  0  0  0  0  0  0  0  0  0  0  0
  150.3076  139.4717  158.9263 H   0  0  0  0  0  0  0  0  0  0  0  0
  151.9561  137.7470  158.1510 H   0  0  0  0  0  0  0  0  0  0  0  0
  150.6796  137.0258  157.0414 H   0  0  0  0  0  0  0  0  0  0  0  0
  1  2  2  0  0  0  0
  2  3  1  0  0  0  0
  2 26  1  0  0  0  0
  3  4  1  0  0  0  0
  3 30  1  0  0  0  0
  3 31  1  0  0  0  0
  4  5  1  0  0  0  0
  4 23  1  0  0  0  0
  5 10  1  0  0  0  0
  5  6  2  0  0  0  0
  6  7  1  0  0  0  0
  7  8  2  0  0  0  0
  7 32  1  0  0  0  0
  8  9  1  0  0  0  0
  9 13  1  0  0  0  0
  9 10  2  0  0  0  0
 10 11  1  0  0  0  0
 11 12  2  0  0  0  0
 12 13  1  0  0  0  0
 12 33  1  0  0  0  0
 13 14  1  0  0  0  0
 14 15  1  0  0  0  0
 14 34  1  0  0  0  0
 14 35  1  0  0  0  0
 15 16  1  0  0  0  0
 15 18  1  0  0  0  0
 15 36  1  0  0  0  0
 16 17  1  0  0  0  0
 16 37  1  0  0  0  0
 16 38  1  0  0  0  0
 17 39  1  0  0  0  0
 18 22  1  0  0  0  0
 18 19  1  0  0  0  0
 18 40  1  0  0  0  0
 19 20  1  0  0  0  0
 19 41  1  0  0  0  0
 19 42  1  0  0  0  0
 20 21  1  0  0  0  0
 20 43  1  0  0  0  0
 20 44  1  0  0  0  0
 21 22  1  0  0  0  0
 22 45  1  0  0  0  0
 22 46  1  0  0  0  0
 23 25  1  0  0  0  0
 23 24  1  0  0  0  0
 23 47  1  0  0  0  0
 24 25  1  0  0  0  0
 24 48  1  0  0  0  0
 24 49  1  0  0  0  0
 25 50  1  0  0  0  0
 25 51  1  0  0  0  0
 26 27  1  0  0  0  0
 26 52  1  0  0  0  0
 27 29  1  0  0  0  0
 27 28  1  0  0  0  0
 27 53  1  0  0  0  0
 28 29  1  0  0  0  0
 28 54  1  0  0  0  0
 28 55  1  0  0  0  0
 29 56  1  0  0  0  0
 29 57  1  0  0  0  0
M  END
> <s_m_source_file>
AV-unprocessed.smi

> <i_m_source_file_index>
77

> <i_lp_mmshare_version>
43012

> <i_f3d_flags>
0

> <s_epik_input>
W0NIMl0xW0NIMl1bQ0hdMVtOSF1DKD1PKVtDSDJdTihbQ0hdMltDSDJdW0NIMl0yKWMobltjSF1uMyljKGMzNCluW2NIXW40W0NIMl1bQ0BIXShbQ0gyXVtPSF0pW0NAQEhdNVtDSDJdW0NIMl1PW0NIMl01

> <s_epik_cmdline>
J2VwaWtfcHl0aG9uJywgJy1waCcsICc3LjAnLCAnLXRuJywgJzgnLCAnLW1hJywgJzIwMCcsICctbWV0YWxfYmluZGluZycsICctaW1hZScsICc8aW5maWxlLm1hZT4nLCAnLW9tYWUnLCAnPG91dGZpbGUubWFlPic=

> <r_lp_tautomer_probability>
1

> <r_epik_Ionization_Penalty>
0.000703847

> <r_epik_Ionization_Penalty_Charging>
0

> <r_epik_Ionization_Penalty_Neutral>
0.000703847

> <r_epik_State_Penalty>
0.00034025

> <r_epik_Charging_Adjusted_Penalty>
0.00034025

> <i_epik_Tot_Q>
0

> <i_epik_Tot_abs_Q>
0

> <r_epik_Metal_State_Penalty>
-0

> <b_epik_Metal_Only>
0

> <s_lp_Force_Field>
OPLS_2005

> <r_lp_Energy>
53.8068

> <b_lp_Chiralities_Consistent>
1

> <s_lp_Variant>
AV-unprocessed.smi:77-3

> <Gold.Version>
5.8.1

> <Gold.Id.Protein>
6NUR|6NUR_protein|mol2

> <Gold.PLP.Fitness>
47.0158

> <Gold.PLP.PLP>
-37.2567

> <Gold.PLP.part.hbond>
-4.0000

> <Gold.PLP.part.metal>
0.0000

> <Gold.PLP.part.buried>
-7.8228

> <Gold.PLP.part.nonpolar>
-27.0736

> <Gold.PLP.part.repulsive>
0.3657

> <Gold.PLP.ligand.clash>
0.0000

> <Gold.PLP.ligand.torsion>
3.0046

> <Gold.PLP.Chemscore.Hbond>
3.7440

> <Gold.PLP.Chemscore.CHOScore>
1.0000

> <Gold.PLP.Chemscore.Metal>
0.0000

> <Gold.Chemscore.Hbonds>
donor molecule, donor type, donor heavy atom, donor atom, acceptor molecule, acceptor atom, score
      L1  H    17    39       P1 10747  1.00
      P1  H  6896  6907       L1     6  1.00
      P1  H  6931  6943       L1     1  0.45
      P1  H  6934  6947       L1     1  0.98
      L1  C    12    33       P1 10957  1.00

> <Gold.PLP.Chemscore.Internal.Correction>
1.5362

> <Gold.Rescore>
     Score         DG    S(hbond)    S(metal)    S(lipo)     H(rot)  DE(clash)    DE(int)     intcor
     14.81     -17.94       3.32        0.00      87.64       3.47       0.02       3.11       ----

> <Gold.Chemscore.Fitness>
14.8088

> <Gold.Chemscore.DG>
-17.9408

> <Gold.Chemscore.ZeroCoef>
-5.4800

> <Gold.Chemscore.Hbond>
3.3202

> <Gold.Chemscore.Metal>
0.0000

> <Gold.Chemscore.Lipo>
87.6364

> <Gold.Chemscore.Internal_Hbond>
0.0000

> <Gold.Chemscore.DEClash>
0.0202

> <Gold.Chemscore.DEInternal>
3.1118

> <Gold.Chemscore.Rot>
3.4695

> <Gold.Chemscore.Internal.Correction>
   9.000000E+99

> <Gold.Chemscore.Hbonds>
donor molecule, donor type, donor heavy atom, donor atom, acceptor molecule, acceptor atom, score
      L1  H    17    39       P1 10747  0.90
      P1  H  6896  6907       L1     6  0.35
      P1  H  6931  6943       L1     1  0.45
      P1  H  6934  6947       L1     1  0.89

> <Gold.Chemscore.Hbond.Weighted>
-11.0893

> <Gold.Chemscore.Metal.Weighted>
-0.0000

> <Gold.Chemscore.Lipo.Weighted>
-10.2535

> <Gold.Chemscore.Internal_Hbond.Weighted>
0.0000

> <Gold.Chemscore.DEClash.Weighted>
0.0202

> <Gold.Chemscore.DEInternal.Weighted>
3.1118

> <Gold.Chemscore.Rot.Weighted>
8.8820

> <Gold.Chemscore.Internal.Correction.Weighted>
   9.000000E+99

> <Gold.Protein.RotatedTorsions>
[ 6907 6896 6895 6894 ] final -121.31 input  -60.11 | X-H torsion
[ 7974 7965 7964 7962 ] final    2.52 input  175.53 | X-H torsion
[ 8008 7997 7996 7995 ] final   38.49 input   59.86 | X-H torsion
[ 10167 10162 10161 10158 ] final  -71.59 input  -65.29 | X-H torsion
[ 10718 10713 10712 10709 ] final  169.43 input   66.30 | X-H torsion
[ 10763 10752 10751 10750 ] final -168.20 input  -60.55 | X-H torsion
[ 11005 11000 10999 10996 ] final   78.37 input  -57.11 | X-H torsion

> <Gold.Protein.ActiveResidues>
 VAL166  LYS551  ARG553  GLY616  TRP617  ASP618  TYR619  PRO620  LYS621  CYS622 
 ASP623  PHE694  ASN695  SER759  ASP760  ASP761  ALA762  ILE779  LEU786  VAL792 
 PHE793  MET794  SER795  GLU796  ALA797  LYS798  CYS799  TRP800  GLU811  SER814 

> <Gold.Protein.RotatedAtoms>
  150.8471  133.7844  159.3038 H   0  0  0  0  0  0  0  0  0  0  0  0  # atno 6907 bound_to 6896
  151.5527  135.1065  159.9963 H   0  0  0  0  0  0  0  0  0  0  0  0  # atno 6908 bound_to 6896
  152.4523  133.7610  159.6802 H   0  0  0  0  0  0  0  0  0  0  0  0  # atno 6909 bound_to 6896
  146.2444  140.0823  142.8356 H   0  0  0  0  0  0  0  0  0  0  0  0  # atno 7974 bound_to 7965
  155.2211  140.3331  155.4315 H   0  0  0  0  0  0  0  0  0  0  0  0  # atno 8008 bound_to 7997
  156.2333  140.1860  156.7234 H   0  0  0  0  0  0  0  0  0  0  0  0  # atno 8009 bound_to 7997
  154.6015  140.0622  156.9360 H   0  0  0  0  0  0  0  0  0  0  0  0  # atno 8010 bound_to 7997
  140.5260  143.2326  151.7346 H   0  0  0  0  0  0  0  0  0  0  0  0  # atno 10167 bound_to 10162
  157.0228  131.0237  151.2769 H   0  0  0  0  0  0  0  0  0  0  0  0  # atno 10718 bound_to 10713
  154.6653  135.2931  154.9813 H   0  0  0  0  0  0  0  0  0  0  0  0  # atno 10763 bound_to 10752
  154.0858  135.6598  153.4849 H   0  0  0  0  0  0  0  0  0  0  0  0  # atno 10764 bound_to 10752
  153.0454  135.5208  154.7624 H   0  0  0  0  0  0  0  0  0  0  0  0  # atno 10765 bound_to 10752
  139.9215  134.7758  156.1641 H   0  0  0  0  0  0  0  0  0  0  0  0  # atno 11005 bound_to 11000
  145.0722  140.9163  143.4875 LP  0  0  0  0  0  0  0  0  0  0  0  0  # atno 17320 bound_to 7965
  145.0959  139.2857  143.5711 LP  0  0  0  0  0  0  0  0  0  0  0  0  # atno 17321 bound_to 7965
  139.4938  144.4184  152.0004 LP  0  0  0  0  0  0  0  0  0  0  0  0  # atno 17342 bound_to 10162
  140.3284  144.3346  150.5993 LP  0  0  0  0  0  0  0  0  0  0  0  0  # atno 17343 bound_to 10162
  157.5237  130.8014  149.7837 LP  0  0  0  0  0  0  0  0  0  0  0  0  # atno 17370 bound_to 10713
  156.0096  130.3839  150.2310 LP  0  0  0  0  0  0  0  0  0  0  0  0  # atno 17371 bound_to 10713
  141.0740  133.6784  156.2198 LP  0  0  0  0  0  0  0  0  0  0  0  0  # atno 17394 bound_to 11000
  140.6460  134.5117  157.5573 LP  0  0  0  0  0  0  0  0  0  0  0  0  # atno 17395 bound_to 11000

$$$$
