AV-unprocessed.smi:2626|AV-procd|sdf|10238|dock5
  -GOLD-   2272014243D 1   1.00000     0.00000
 Structure written by MMmdl.
 26 27  0  0  0  0  0  0  0  0  2 V2000
  152.6341  144.1287  159.7702 C   0  0  0  0  0  0  0  0  0  0  0  0
  152.7875  142.6768  159.3674 C   0  0  0  0  0  0  0  0  0  0  0  0
  153.5681  141.8119  160.0615 C   0  0  0  0  0  0  0  0  0  0  0  0
  153.6679  140.4222  159.6143 C   0  0  0  0  0  0  0  0  0  0  0  0
  154.3752  139.6360  160.2411 O   0  0  0  0  0  0  0  0  0  0  0  0
  152.9572  140.0669  158.5047 N   0  5  0  0  0  0  0  0  0  0  0  0
  152.1814  141.0096  157.8490 C   0  0  0  0  0  0  0  0  0  0  0  0
  151.5084  140.5252  156.7378 N   0  0  0  0  0  0  0  0  0  0  0  0
  150.6879  141.4540  155.9680 C   0  0  0  0  0  0  0  0  0  0  0  0
  149.7312  140.6966  155.0322 C   0  0  0  0  0  0  0  0  0  0  0  0
  150.4770  139.8263  154.1893 O   0  0  0  0  0  0  0  0  0  0  0  0
  151.1951  138.8577  154.9442 C   0  0  0  0  0  0  0  0  0  0  0  0
  152.1918  139.5658  155.8772 C   0  0  0  0  0  0  0  0  0  0  0  0
  152.0819  142.2482  158.2320 N   0  0  0  0  0  0  0  0  0  0  0  0
  153.2202  144.3584  160.6607 H   0  0  0  0  0  0  0  0  0  0  0  0
  151.5886  144.3527  159.9831 H   0  0  0  0  0  0  0  0  0  0  0  0
  152.9691  144.7815  158.9638 H   0  0  0  0  0  0  0  0  0  0  0  0
  154.1122  142.1383  160.9357 H   0  0  0  0  0  0  0  0  0  0  0  0
  150.1152  142.0916  156.6432 H   0  0  0  0  0  0  0  0  0  0  0  0
  151.3389  142.1080  155.3862 H   0  0  0  0  0  0  0  0  0  0  0  0
  148.9975  140.1273  155.6049 H   0  0  0  0  0  0  0  0  0  0  0  0
  149.1756  141.4011  154.4132 H   0  0  0  0  0  0  0  0  0  0  0  0
  150.5023  138.2373  155.5152 H   0  0  0  0  0  0  0  0  0  0  0  0
  151.7261  138.1958  154.2602 H   0  0  0  0  0  0  0  0  0  0  0  0
  152.9473  140.0881  155.2885 H   0  0  0  0  0  0  0  0  0  0  0  0
  152.7151  138.8274  156.4864 H   0  0  0  0  0  0  0  0  0  0  0  0
  1  2  1  0  0  0  0
  1 15  1  0  0  0  0
  1 16  1  0  0  0  0
  1 17  1  0  0  0  0
  2 14  1  0  0  0  0
  2  3  2  0  0  0  0
  3  4  1  0  0  0  0
  3 18  1  0  0  0  0
  4  5  2  0  0  0  0
  4  6  1  0  0  0  0
  6  7  1  0  0  0  0
  7  8  1  0  0  0  0
  7 14  2  0  0  0  0
  8 13  1  0  0  0  0
  8  9  1  0  0  0  0
  9 10  1  0  0  0  0
  9 19  1  0  0  0  0
  9 20  1  0  0  0  0
 10 11  1  0  0  0  0
 10 21  1  0  0  0  0
 10 22  1  0  0  0  0
 11 12  1  0  0  0  0
 12 13  1  0  0  0  0
 12 23  1  0  0  0  0
 12 24  1  0  0  0  0
 13 25  1  0  0  0  0
 13 26  1  0  0  0  0
M  CHG  1   6  -1
M  END
> <s_m_source_file>
AV-unprocessed.smi

> <i_m_source_file_index>
2626

> <i_lp_mmshare_version>
43012

> <i_f3d_flags>
0

> <s_epik_input>
W0NIM11jMVtjSF1jKD1PKVtuSF1jKG4xKU4yW0NIMl1bQ0gyXU9bQ0gyXVtDSDJdMg==

> <s_epik_cmdline>
J2VwaWtfcHl0aG9uJywgJy1waCcsICc3LjAnLCAnLXRuJywgJzgnLCAnLW1hJywgJzIwMCcsICctbWV0YWxfYmluZGluZycsICctaW1hZScsICc8aW5maWxlLm1hZT4nLCAnLW9tYWUnLCAnPG91dGZpbGUubWFlPic=

> <r_lp_tautomer_probability>
1

> <r_epik_Ionization_Penalty>
4.9386

> <r_epik_Ionization_Penalty_Charging>
6.70104e-08

> <r_epik_Ionization_Penalty_Neutral>
4.9386

> <r_epik_State_Penalty>
2.49781

> <r_epik_Charging_Adjusted_Penalty>
2.49781

> <i_epik_Tot_Q>
-1

> <i_epik_Tot_abs_Q>
1

> <r_epik_Metal_State_Penalty>
0.117146

> <b_epik_Metal_Only>
0

> <s_lp_Force_Field>
OPLS_2005

> <r_lp_Energy>
25.1924

> <b_lp_Chiralities_Consistent>
1

> <s_lp_Variant>
AV-unprocessed.smi:2626-3

> <Gold.Version>
5.8.1

> <Gold.Id.Protein>
6NUR|6NUR_protein|mol2

> <Gold.PLP.Fitness>
38.1102

> <Gold.PLP.PLP>
-29.3426

> <Gold.PLP.part.hbond>
-2.0000

> <Gold.PLP.part.metal>
0.0000

> <Gold.PLP.part.buried>
-3.2437

> <Gold.PLP.part.nonpolar>
-23.9286

> <Gold.PLP.part.repulsive>
0.1568

> <Gold.PLP.ligand.clash>
0.0000

> <Gold.PLP.ligand.torsion>
0.3079

> <Gold.PLP.Chemscore.Hbond>
3.0000

> <Gold.PLP.Chemscore.CHOScore>
0.0000

> <Gold.PLP.Chemscore.Metal>
0.0000

> <Gold.Chemscore.Hbonds>
donor molecule, donor type, donor heavy atom, donor atom, acceptor molecule, acceptor atom, score
      P1  H  7989  7998       L1    11  1.00
      P1  H  7997  8008       L1     6  0.89

> <Gold.PLP.Chemscore.Internal.Correction>
0.3834

> <Gold.Rescore>
     Score         DG    S(hbond)    S(metal)    S(lipo)     H(rot)  DE(clash)    DE(int)     intcor
     11.82     -12.09       0.55        0.00      62.67       1.00       0.08       0.19       ----

> <Gold.Chemscore.Fitness>
11.8194

> <Gold.Chemscore.DG>
-12.0898

> <Gold.Chemscore.ZeroCoef>
-5.4800

> <Gold.Chemscore.Hbond>
0.5503

> <Gold.Chemscore.Metal>
0.0000

> <Gold.Chemscore.Lipo>
62.6657

> <Gold.Chemscore.Internal_Hbond>
0.0000

> <Gold.Chemscore.DEClash>
0.0787

> <Gold.Chemscore.DEInternal>
0.1917

> <Gold.Chemscore.Rot>
1.0000

> <Gold.Chemscore.Internal.Correction>
   9.000000E+99

> <Gold.Chemscore.Hbonds>
donor molecule, donor type, donor heavy atom, donor atom, acceptor molecule, acceptor atom, score
      P1  H  7989  7998       L1    11  0.24
      P1  H  7997  8008       L1     6  0.01

> <Gold.Chemscore.Hbond.Weighted>
-1.8380

> <Gold.Chemscore.Metal.Weighted>
-0.0000

> <Gold.Chemscore.Lipo.Weighted>
-7.3319

> <Gold.Chemscore.Internal_Hbond.Weighted>
0.0000

> <Gold.Chemscore.DEClash.Weighted>
0.0787

> <Gold.Chemscore.DEInternal.Weighted>
0.1917

> <Gold.Chemscore.Rot.Weighted>
2.5600

> <Gold.Chemscore.Internal.Correction.Weighted>
   9.000000E+99

> <Gold.Protein.RotatedTorsions>
[ 6907 6896 6895 6894 ] final  -44.78 input  -60.11 | X-H torsion
[ 7974 7965 7964 7962 ] final -169.43 input  175.53 | X-H torsion
[ 8008 7997 7996 7995 ] final  -86.65 input   59.86 | X-H torsion
[ 10167 10162 10161 10158 ] final   81.81 input  -65.29 | X-H torsion
[ 10718 10713 10712 10709 ] final   14.70 input   66.30 | X-H torsion
[ 10763 10752 10751 10750 ] final  -93.41 input  -60.55 | X-H torsion
[ 11005 11000 10999 10996 ] final  113.23 input  -57.11 | X-H torsion

> <Gold.Protein.ActiveResidues>
 VAL166  LYS551  ARG553  GLY616  TRP617  ASP618  TYR619  PRO620  LYS621  CYS622 
 ASP623  PHE694  ASN695  SER759  ASP760  ASP761  ALA762  ILE779  LEU786  VAL792 
 PHE793  MET794  SER795  GLU796  ALA797  LYS798  CYS799  TRP800  GLU811  SER814 

> <Gold.Protein.RotatedAtoms>
  150.9291  134.8707  159.7539 H   0  0  0  0  0  0  0  0  0  0  0  0  # atno 6907 bound_to 6896
  152.5029  134.4105  159.9457 H   0  0  0  0  0  0  0  0  0  0  0  0  # atno 6908 bound_to 6896
  151.4133  133.3681  159.2782 H   0  0  0  0  0  0  0  0  0  0  0  0  # atno 6909 bound_to 6896
  144.7186  140.2223  143.6314 H   0  0  0  0  0  0  0  0  0  0  0  0  # atno 7974 bound_to 7965
  154.6542  140.0576  156.9990 H   0  0  0  0  0  0  0  0  0  0  0  0  # atno 8008 bound_to 7997
  155.1325  140.3258  155.4452 H   0  0  0  0  0  0  0  0  0  0  0  0  # atno 8009 bound_to 7997
  156.2590  140.1978  156.6444 H   0  0  0  0  0  0  0  0  0  0  0  0  # atno 8010 bound_to 7997
  139.9353  144.6125  150.8304 H   0  0  0  0  0  0  0  0  0  0  0  0  # atno 10167 bound_to 10162
  157.0429  130.6239  149.5754 H   0  0  0  0  0  0  0  0  0  0  0  0  # atno 10718 bound_to 10713
  154.6956  135.5195  153.8453 H   0  0  0  0  0  0  0  0  0  0  0  0  # atno 10763 bound_to 10752
  153.0664  135.6586  154.0353 H   0  0  0  0  0  0  0  0  0  0  0  0  # atno 10764 bound_to 10752
  154.0221  135.2993  155.3359 H   0  0  0  0  0  0  0  0  0  0  0  0  # atno 10765 bound_to 10752
  139.8947  134.9546  156.6707 H   0  0  0  0  0  0  0  0  0  0  0  0  # atno 11005 bound_to 11000
  145.8489  139.2166  143.1783 LP  0  0  0  0  0  0  0  0  0  0  0  0  # atno 17320 bound_to 7965
  146.0278  140.8287  142.9891 LP  0  0  0  0  0  0  0  0  0  0  0  0  # atno 17321 bound_to 7965
  140.7626  143.3202  151.2639 LP  0  0  0  0  0  0  0  0  0  0  0  0  # atno 17342 bound_to 10162
  139.6748  143.9956  152.2775 LP  0  0  0  0  0  0  0  0  0  0  0  0  # atno 17343 bound_to 10162
  156.0032  130.5115  150.7738 LP  0  0  0  0  0  0  0  0  0  0  0  0  # atno 17370 bound_to 10713
  157.5090  131.0924  151.0222 LP  0  0  0  0  0  0  0  0  0  0  0  0  # atno 17371 bound_to 10713
  140.7375  133.9006  155.8255 LP  0  0  0  0  0  0  0  0  0  0  0  0  # atno 17394 bound_to 11000
  141.0104  134.1028  157.4227 LP  0  0  0  0  0  0  0  0  0  0  0  0  # atno 17395 bound_to 11000

$$$$
