#       Name:                AV-unprocessed.smi:573
#       Creating user name   scv26
#       Creation time:       Thu Mar 26 23:47:39 2020


#       File generated by GOLD software.
#

@<TRIPOS>MOLECULE
AV-unprocessed.smi:573
    49    51     1
SMALL
NO_CHARGES


@<TRIPOS>ATOM
      1 ****        -2.6959   1.3016   1.6782 C.3            1 S1                 0.0000
      2 ****        -3.6439   0.4271   0.8416 C.3            1 S1                 0.0000
      3 ****        -3.6811   0.8863  -0.4935 O.3            1 S1                 0.0000
      4 ****        -3.3484  -1.0895   0.8800 C.3            1 S1                 0.0000
      5 ****        -1.9291  -1.4203   0.8546 N.pl3          1 S1                 0.0000
      6 ****        -1.2241  -1.3828  -0.3540 C.cat          1 S1                 0.0000
      7 ****        -1.7656  -1.3691  -1.6009 N.pl3          1 S1                 1.0000
      8 ****        -0.7252  -1.3097  -2.5318 C.ar           1 S1                 0.0000
      9 ****        -0.7541  -1.2641  -3.9223 C.ar           1 S1                 0.0000
     10 ****         0.4914  -1.1962  -4.5803 C.ar           1 S1                 0.0000
     11 ****         1.7031  -1.1747  -3.8598 C.ar           1 S1                 0.0000
     12 ****         1.7235  -1.2239  -2.4506 C.ar           1 S1                 0.0000
     13 ****         0.4895  -1.2946  -1.8043 C.ar           1 S1                 0.0000
     14 ****         0.1297  -1.3542  -0.4512 N.pl3          1 S1                 0.0000
     15 ****         1.1658  -1.3487   0.5919 C.3            1 S1                 0.0000
     16 ****         1.4132   0.0633   1.1461 C.3            1 S1                 0.0000
     17 ****         2.5449   0.0908   2.1898 C.3            1 S1                 0.0000
     18 ****         2.7892   1.5242   2.6756 C.3            1 S1                 0.0000
     19 ****         3.0136   2.4482   1.4736 C.3            1 S1                 0.0000
     20 ****         1.8667   2.2986   0.4614 C.3            1 S1                 0.0000
     21 ****         1.7451   0.9358   0.0674 O.3            1 S1                 0.0000
     22 ****        -2.6441   0.9500   2.7087 H              1 S1                 0.0000
     23 ****        -3.0385   2.3366   1.7001 H              1 S1                 0.0000
     24 ****        -1.6848   1.3033   1.2712 H              1 S1                 0.0000
     25 ****        -4.6540   0.5700   1.2267 H              1 S1                 0.0000
     26 ****        -4.4113   0.4763  -0.9313 H              1 S1                 0.0000
     27 ****        -3.7336  -1.4905   1.8177 H              1 S1                 0.0000
     28 ****        -3.8846  -1.6160   0.0895 H              1 S1                 0.0000
     29 ****        -1.4125  -1.3739   1.7213 H              1 S1                 0.0000
     30 ****        -1.6806  -1.2751  -4.4774 H              1 S1                 0.0000
     31 ****         0.5181  -1.1564  -5.6597 H              1 S1                 0.0000
     32 ****         2.6377  -1.1174  -4.3987 H              1 S1                 0.0000
     33 ****         2.6586  -1.1988  -1.9112 H              1 S1                 0.0000
     34 ****         0.8344  -2.0143   1.3897 H              1 S1                 0.0000
     35 ****         2.0821  -1.7823   0.1922 H              1 S1                 0.0000
     36 ****         0.4907   0.4148   1.6105 H              1 S1                 0.0000
     37 ****         2.2963  -0.5517   3.0349 H              1 S1                 0.0000
     38 ****         3.4610  -0.3073   1.7516 H              1 S1                 0.0000
     39 ****         1.9271   1.8700   3.2476 H              1 S1                 0.0000
     40 ****         3.6469   1.5578   3.3479 H              1 S1                 0.0000
     41 ****         3.0942   3.4845   1.8032 H              1 S1                 0.0000
     42 ****         3.9590   2.1982   0.9908 H              1 S1                 0.0000
     43 ****         0.9242   2.6518   0.8826 H              1 S1                 0.0000
     44 ****         2.0653   2.9037  -0.4233 H              1 S1                 0.0000
     45 ****        -2.7580  -1.3831  -1.7957 H              1 S1                 0.0000
     46 ****        -2.8296   0.6430  -0.9578 LP             1 S1                 0.0000
     47 ****        -3.7952   1.8797  -0.5055 LP             1 S1                 0.0000
     48 ****         1.0284   0.8690  -0.6268 LP             1 S1                 0.0000
     49 ****         2.6165   0.6397  -0.3236 LP             1 S1                 0.0000
@<TRIPOS>BOND
    1    1    2 1     
    2    1   22 1     
    3    1   23 1     
    4    1   24 1     
    5    2    3 1     
    6    2    4 1     
    7    2   25 1     
    8    3   26 1     
    9    4    5 1     
   10    4   27 1     
   11    4   28 1     
   12    5    6 ar    
   13    5   29 1     
   14    6   14 ar    
   15    6    7 ar    
   16    7    8 1     
   17    7   45 1     
   18    8   13 ar    
   19    8    9 ar    
   20    9   10 ar    
   21    9   30 1     
   22   10   11 ar    
   23   10   31 1     
   24   11   12 ar    
   25   11   32 1     
   26   12   13 ar    
   27   12   33 1     
   28   13   14 1     
   29   14   15 1     
   30   15   16 1     
   31   15   34 1     
   32   15   35 1     
   33   16   21 1     
   34   16   17 1     
   35   16   36 1     
   36   17   18 1     
   37   17   37 1     
   38   17   38 1     
   39   18   19 1     
   40   18   39 1     
   41   18   40 1     
   42   19   20 1     
   43   19   41 1     
   44   19   42 1     
   45   20   21 1     
   46   20   43 1     
   47   20   44 1     
   48    3   46 1     
   49    3   47 1     
   50   21   48 1     
   51   21   49 1     
@<TRIPOS>SUBSTRUCTURE
      1 S1             1
@<TRIPOS>SET
LONE_PAIRS      STATIC     ATOMS    <user>   **** ""
4 46 47 48 49
DONOR_HYDROGENS      STATIC     ATOMS    <user>   **** ""
3 26 29 45
ATOM$BLUE        STATIC     ATOMS    COLORGROUP SYSTEM
4 46 47 48 49
ATOM$RED        STATIC     ATOMS    COLORGROUP SYSTEM
3 26 29 45
