AV-unprocessed.smi:2906|AV-procd|sdf|11165|dock2
  -GOLD-   2272016 53D 1   1.00000     0.00000
 Structure written by MMmdl.
 39 40  0  0  0  0  0  0  0  0  2 V2000
  151.3380  137.3589  155.9921 C   0  0  0  0  0  0  0  0  0  0  0  0
  150.9680  138.0103  154.6499 C   0  0  0  0  0  0  0  0  0  0  0  0
  150.5390  139.4822  154.7732 C   0  0  0  0  0  0  0  0  0  0  0  0
  151.3199  140.3110  155.2435 O   0  0  0  0  0  0  0  0  0  0  0  0
  149.3010  139.8216  154.3574 N   0  0  0  0  0  0  0  0  0  0  0  0
  148.7197  141.1610  154.4158 C   0  0  0  0  0  0  0  0  0  0  0  0
  147.2436  140.9935  154.0561 C   0  0  0  0  0  0  0  0  0  0  0  0
  147.1859  139.7009  153.2424 C   0  0  2  0  0  0  0  0  0  0  0  0
  145.9183  138.9942  153.4022 N   0  0  0  0  0  0  0  0  0  0  0  0
  145.5320  137.9135  152.7097 C   0  0  0  0  0  0  0  0  0  0  0  0
  146.2764  137.4347  151.8509 O   0  0  0  0  0  0  0  0  0  0  0  0
  144.3059  137.4572  153.0533 N   0  5  0  0  0  0  0  0  0  0  0  0
  143.9509  136.1963  152.7576 C   0  0  0  0  0  0  0  0  0  0  0  0
  144.5151  135.4919  151.7702 N   0  0  0  0  0  0  0  0  0  0  0  0
  144.0022  134.1982  151.6413 C   0  0  0  0  0  0  0  0  0  0  0  0
  144.5250  133.2886  150.5714 C   0  0  0  0  0  0  0  0  0  0  0  0
  143.8567  131.9096  150.6020 C   0  0  0  0  0  0  0  0  0  0  0  0
  143.0280  133.9125  152.5620 C   0  0  0  0  0  0  0  0  0  0  0  0
  142.7262  135.2618  153.6190 S   0  0  0  0  0  0  0  0  0  0  0  0
  148.3567  138.8693  153.7779 C   0  0  0  0  0  0  0  0  0  0  0  0
  151.6202  136.3157  155.8483 H   0  0  0  0  0  0  0  0  0  0  0  0
  150.4998  137.3792  156.6894 H   0  0  0  0  0  0  0  0  0  0  0  0
  152.1818  137.8651  156.4623 H   0  0  0  0  0  0  0  0  0  0  0  0
  151.8226  137.9486  153.9754 H   0  0  0  0  0  0  0  0  0  0  0  0
  150.1583  137.4415  154.1919 H   0  0  0  0  0  0  0  0  0  0  0  0
  148.8313  141.6208  155.3984 H   0  0  0  0  0  0  0  0  0  0  0  0
  149.2173  141.7970  153.6825 H   0  0  0  0  0  0  0  0  0  0  0  0
  146.6636  140.8844  154.9741 H   0  0  0  0  0  0  0  0  0  0  0  0
  146.8428  141.8502  153.5134 H   0  0  0  0  0  0  0  0  0  0  0  0
  147.3679  139.9263  152.1899 H   0  0  0  0  0  0  0  0  0  0  0  0
  145.2787  139.3532  154.0959 H   0  0  0  0  0  0  0  0  0  0  0  0
  144.3718  133.7405  149.5908 H   0  0  0  0  0  0  0  0  0  0  0  0
  145.6033  133.1665  150.6788 H   0  0  0  0  0  0  0  0  0  0  0  0
  144.2555  131.2672  149.8171 H   0  0  0  0  0  0  0  0  0  0  0  0
  142.7797  131.9905  150.4511 H   0  0  0  0  0  0  0  0  0  0  0  0
  144.0247  131.4132  151.5580 H   0  0  0  0  0  0  0  0  0  0  0  0
  142.4712  132.9956  152.6827 H   0  0  0  0  0  0  0  0  0  0  0  0
  148.8127  138.2765  152.9835 H   0  0  0  0  0  0  0  0  0  0  0  0
  148.0312  138.1847  154.5633 H   0  0  0  0  0  0  0  0  0  0  0  0
  1  2  1  0  0  0  0
  1 21  1  0  0  0  0
  1 22  1  0  0  0  0
  1 23  1  0  0  0  0
  2  3  1  0  0  0  0
  2 24  1  0  0  0  0
  2 25  1  0  0  0  0
  3  4  2  0  0  0  0
  3  5  1  0  0  0  0
  5 20  1  0  0  0  0
  5  6  1  0  0  0  0
  6  7  1  0  0  0  0
  6 26  1  0  0  0  0
  6 27  1  0  0  0  0
  7  8  1  0  0  0  0
  7 28  1  0  0  0  0
  7 29  1  0  0  0  0
  8  9  1  0  0  0  0
  8 20  1  0  0  0  0
  8 30  1  0  0  0  0
  9 10  1  0  0  0  0
  9 31  1  0  0  0  0
 10 11  2  0  0  0  0
 10 12  1  0  0  0  0
 12 13  1  0  0  0  0
 13 19  1  0  0  0  0
 13 14  2  0  0  0  0
 14 15  1  0  0  0  0
 15 16  1  0  0  0  0
 15 18  2  0  0  0  0
 16 17  1  0  0  0  0
 16 32  1  0  0  0  0
 16 33  1  0  0  0  0
 17 34  1  0  0  0  0
 17 35  1  0  0  0  0
 17 36  1  0  0  0  0
 18 19  1  0  0  0  0
 18 37  1  0  0  0  0
 20 38  1  0  0  0  0
 20 39  1  0  0  0  0
M  CHG  1  12  -1
M  END
> <s_m_source_file>
AV-unprocessed.smi

> <i_m_source_file_index>
2906

> <i_lp_mmshare_version>
43012

> <i_f3d_flags>
0

> <s_epik_input>
W0NIM11bQ0gyXUMoPU8pTjFbQ0gyXVtDSDJdW0NASF0oW0NIMl0xKVtOSF1DKD1PKVtOSF1jMm5jKFtjSF1zMilbQ0gyXVtDSDNd

> <s_epik_cmdline>
J2VwaWtfcHl0aG9uJywgJy1waCcsICc3LjAnLCAnLXRuJywgJzgnLCAnLW1hJywgJzIwMCcsICctbWV0YWxfYmluZGluZycsICctaW1hZScsICc8aW5maWxlLm1hZT4nLCAnLW9tYWUnLCAnPG91dGZpbGUubWFlPic=

> <r_lp_tautomer_probability>
1

> <r_epik_Ionization_Penalty>
7.20119

> <r_epik_Ionization_Penalty_Charging>
5.87168

> <r_epik_Ionization_Penalty_Neutral>
1.32951

> <r_epik_State_Penalty>
5.87165

> <r_epik_Charging_Adjusted_Penalty>
11.7433

> <i_epik_Tot_Q>
-1

> <i_epik_Tot_abs_Q>
1

> <r_epik_Metal_State_Penalty>
1.83511

> <b_epik_Metal_Only>
1

> <s_lp_Force_Field>
OPLS_2005

> <r_lp_Energy>
18.7216

> <b_lp_Chiralities_Consistent>
1

> <s_lp_Variant>
AV-unprocessed.smi:2906-4

> <Gold.Version>
5.8.1

> <Gold.Id.Protein>
6NUR|6NUR_protein|mol2

> <Gold.PLP.Fitness>
37.0664

> <Gold.PLP.PLP>
-33.7685

> <Gold.PLP.part.hbond>
-2.0000

> <Gold.PLP.part.metal>
0.0000

> <Gold.PLP.part.buried>
-3.2533

> <Gold.PLP.part.nonpolar>
-30.9792

> <Gold.PLP.part.repulsive>
1.5189

> <Gold.PLP.ligand.clash>
0.0000

> <Gold.PLP.ligand.torsion>
0.2934

> <Gold.PLP.Chemscore.Hbond>
0.5000

> <Gold.PLP.Chemscore.CHOScore>
0.7589

> <Gold.PLP.Chemscore.Metal>
0.0000

> <Gold.Chemscore.Hbonds>
donor molecule, donor type, donor heavy atom, donor atom, acceptor molecule, acceptor atom, score
      P1  H  7989  7998       L1     4  0.40
      L1  C    18    37       P1 10957  0.80

> <Gold.PLP.Chemscore.Internal.Correction>
0.1079

> <Gold.Rescore>
     Score         DG    S(hbond)    S(metal)    S(lipo)     H(rot)  DE(clash)    DE(int)     intcor
      8.57     -10.61       0.02        0.00      73.76       1.39       0.13       1.91       ----

> <Gold.Chemscore.Fitness>
8.5699

> <Gold.Chemscore.DG>
-10.6130

> <Gold.Chemscore.ZeroCoef>
-5.4800

> <Gold.Chemscore.Hbond>
0.0152

> <Gold.Chemscore.Metal>
0.0000

> <Gold.Chemscore.Lipo>
73.7558

> <Gold.Chemscore.Internal_Hbond>
0.0000

> <Gold.Chemscore.DEClash>
0.1309

> <Gold.Chemscore.DEInternal>
1.9121

> <Gold.Chemscore.Rot>
1.3856

> <Gold.Chemscore.Internal.Correction>
   9.000000E+99

> <Gold.Chemscore.Hbonds>
donor molecule, donor type, donor heavy atom, donor atom, acceptor molecule, acceptor atom, score
      P1  H  7989  7998       L1     4  0.01

> <Gold.Chemscore.Hbond.Weighted>
-0.0506

> <Gold.Chemscore.Metal.Weighted>
-0.0000

> <Gold.Chemscore.Lipo.Weighted>
-8.6294

> <Gold.Chemscore.Internal_Hbond.Weighted>
0.0000

> <Gold.Chemscore.DEClash.Weighted>
0.1309

> <Gold.Chemscore.DEInternal.Weighted>
1.9121

> <Gold.Chemscore.Rot.Weighted>
3.5471

> <Gold.Chemscore.Internal.Correction.Weighted>
   9.000000E+99

> <Gold.Protein.RotatedTorsions>
[ 6907 6896 6895 6894 ] final   45.02 input  -60.11 | X-H torsion
[ 7974 7965 7964 7962 ] final  116.44 input  175.53 | X-H torsion
[ 8008 7997 7996 7995 ] final  127.91 input   59.86 | X-H torsion
[ 10167 10162 10161 10158 ] final -112.10 input  -65.29 | X-H torsion
[ 10718 10713 10712 10709 ] final  -19.50 input   66.30 | X-H torsion
[ 10763 10752 10751 10750 ] final  163.50 input  -60.55 | X-H torsion
[ 11005 11000 10999 10996 ] final   60.58 input  -57.11 | X-H torsion

> <Gold.Protein.ActiveResidues>
 VAL166  LYS551  ARG553  GLY616  TRP617  ASP618  TYR619  PRO620  LYS621  CYS622 
 ASP623  PHE694  ASN695  SER759  ASP760  ASP761  ALA762  ILE779  LEU786  VAL792 
 PHE793  MET794  SER795  GLU796  ALA797  LYS798  CYS799  TRP800  GLU811  SER814 

> <Gold.Protein.RotatedAtoms>
  152.2395  134.8242  160.0462 H   0  0  0  0  0  0  0  0  0  0  0  0  # atno 6907 bound_to 6896
  151.8962  133.3522  159.3823 H   0  0  0  0  0  0  0  0  0  0  0  0  # atno 6908 bound_to 6896
  150.7049  134.4801  159.5510 H   0  0  0  0  0  0  0  0  0  0  0  0  # atno 6909 bound_to 6896
  145.1795  139.3057  143.4425 H   0  0  0  0  0  0  0  0  0  0  0  0  # atno 7974 bound_to 7965
  156.2902  140.2657  156.2349 H   0  0  0  0  0  0  0  0  0  0  0  0  # atno 8008 bound_to 7997
  155.0035  140.0387  157.2388 H   0  0  0  0  0  0  0  0  0  0  0  0  # atno 8009 bound_to 7997
  154.7581  140.2755  155.6242 H   0  0  0  0  0  0  0  0  0  0  0  0  # atno 8010 bound_to 7997
  140.1264  143.4399  152.1657 H   0  0  0  0  0  0  0  0  0  0  0  0  # atno 10167 bound_to 10162
  156.5448  130.4687  149.6480 H   0  0  0  0  0  0  0  0  0  0  0  0  # atno 10718 bound_to 10713
  154.2946  135.2760  155.2639 H   0  0  0  0  0  0  0  0  0  0  0  0  # atno 10763 bound_to 10752
  154.5103  135.5784  153.6603 H   0  0  0  0  0  0  0  0  0  0  0  0  # atno 10764 bound_to 10752
  152.9909  135.6179  154.3113 H   0  0  0  0  0  0  0  0  0  0  0  0  # atno 10765 bound_to 10752
  140.0221  134.6137  155.9624 H   0  0  0  0  0  0  0  0  0  0  0  0  # atno 11005 bound_to 11000
  146.3455  140.1970  142.8589 LP  0  0  0  0  0  0  0  0  0  0  0  0  # atno 17320 bound_to 7965
  145.0150  140.8746  143.5201 LP  0  0  0  0  0  0  0  0  0  0  0  0  # atno 17321 bound_to 7965
  139.5542  144.7360  151.4344 LP  0  0  0  0  0  0  0  0  0  0  0  0  # atno 17342 bound_to 10162
  140.6842  143.8011  150.7163 LP  0  0  0  0  0  0  0  0  0  0  0  0  # atno 17343 bound_to 10162
  156.2938  130.7139  151.1994 LP  0  0  0  0  0  0  0  0  0  0  0  0  # atno 17370 bound_to 10713
  157.7398  131.0524  150.5205 LP  0  0  0  0  0  0  0  0  0  0  0  0  # atno 17371 bound_to 10713
  141.1780  133.6542  156.4906 LP  0  0  0  0  0  0  0  0  0  0  0  0  # atno 17394 bound_to 11000
  140.4369  134.7051  157.4971 LP  0  0  0  0  0  0  0  0  0  0  0  0  # atno 17395 bound_to 11000

$$$$
