AV-unprocessed.smi:109|AV-procd|sdf|1051|dock1
  -GOLD-   2262018103D 1   1.00000     0.00000
 Structure written by MMmdl.
 58 61  0  0  0  0  0  0  0  0  1 V2000
  151.1036  140.0560  154.8612 O   0  0  0  0  0  0  0  0  0  0  0  0
  151.5916  140.3380  156.1549 C   0  0  0  0  0  0  0  0  0  0  0  0
  150.4344  140.3091  157.1684 C   0  0  0  0  0  0  0  0  0  0  0  0
  149.8789  141.7069  157.5378 C   0  0  2  0  0  0  0  0  0  0  0  0
  149.0793  142.2219  156.4236 N   0  0  0  0  0  0  0  0  0  0  0  0
  148.4912  141.4085  155.5177 C   0  0  0  0  0  0  0  0  0  0  0  0
  148.6387  141.6070  154.1824 N   0  0  0  0  0  0  0  0  0  0  0  0
  148.0410  140.7863  153.3142 C   0  0  0  0  0  0  0  0  0  0  0  0
  147.2683  139.7277  153.5648 N   0  0  0  0  0  0  0  0  0  0  0  0
  147.1142  139.5220  154.9048 C   0  0  0  0  0  0  0  0  0  0  0  0
  147.6902  140.3149  155.9367 C   0  0  0  0  0  0  0  0  0  0  0  0
  147.3164  139.8174  157.1778 N   0  0  0  0  0  0  0  0  0  0  0  0
  146.5634  138.7898  156.8913 C   0  0  0  0  0  0  0  0  0  0  0  0
  146.3863  138.5396  155.5486 N   0  0  0  0  0  0  0  0  0  0  0  0
  145.5811  137.4330  154.9349 C   0  0  2  0  0  0  0  0  0  0  0  0
  146.0606  137.1676  153.6498 O   0  0  0  0  0  0  0  0  0  0  0  0
  145.0276  137.3484  152.6850 C   0  0  1  0  0  0  0  0  0  0  0  0
  145.2465  136.4277  151.4719 C   0  0  0  0  0  0  0  0  0  0  0  0
  146.3009  136.9134  150.6686 O   0  0  0  0  0  0  0  0  0  0  0  0
  143.7204  137.1711  153.4713 C   0  0  1  0  0  0  0  0  0  0  0  0
  143.3686  135.8052  153.5935 O   0  0  0  0  0  0  0  0  0  0  0  0
  144.0747  137.7521  154.8310 C   0  0  2  0  0  0  0  0  0  0  0  0
  143.7731  139.1357  154.8777 O   0  0  0  0  0  0  0  0  0  0  0  0
  150.9839  142.7405  157.9012 C   0  0  0  0  0  0  0  0  0  0  0  0
  152.0754  142.1661  158.8390 C   0  0  0  0  0  0  0  0  0  0  0  0
  153.1351  143.2134  159.2191 C   0  0  0  0  0  0  0  0  0  0  0  0
  152.4976  144.4532  159.8574 C   0  0  0  0  0  0  0  0  0  0  0  0
  151.4331  145.0504  158.9296 C   0  0  0  0  0  0  0  0  0  0  0  0
  150.3706  144.0041  158.5585 C   0  0  0  0  0  0  0  0  0  0  0  0
  145.7815  136.5656  155.5653 H   0  0  0  0  0  0  0  0  0  0  0  0
  145.0818  138.3846  152.3498 H   0  0  0  0  0  0  0  0  0  0  0  0
  142.8867  137.6918  152.9979 H   0  0  0  0  0  0  0  0  0  0  0  0
  143.5394  137.2649  155.6471 H   0  0  0  0  0  0  0  0  0  0  0  0
  150.1591  140.0651  154.8875 H   0  0  0  0  0  0  0  0  0  0  0  0
  152.3549  139.6006  156.4033 H   0  0  0  0  0  0  0  0  0  0  0  0
  152.0714  141.3170  156.1468 H   0  0  0  0  0  0  0  0  0  0  0  0
  149.6460  139.7037  156.7246 H   0  0  0  0  0  0  0  0  0  0  0  0
  150.7503  139.7886  158.0736 H   0  0  0  0  0  0  0  0  0  0  0  0
  149.2650  141.5881  158.4302 H   0  0  0  0  0  0  0  0  0  0  0  0
  149.0361  143.2285  156.3539 H   0  0  0  0  0  0  0  0  0  0  0  0
  148.2047  141.0091  152.2703 H   0  0  0  0  0  0  0  0  0  0  0  0
  146.1109  138.1802  157.6598 H   0  0  0  0  0  0  0  0  0  0  0  0
  145.5099  135.4261  151.8125 H   0  0  0  0  0  0  0  0  0  0  0  0
  144.3412  136.3293  150.8728 H   0  0  0  0  0  0  0  0  0  0  0  0
  147.1153  136.5702  151.0033 H   0  0  0  0  0  0  0  0  0  0  0  0
  142.4817  135.6988  153.2839 H   0  0  0  0  0  0  0  0  0  0  0  0
  143.9035  139.4992  154.0155 H   0  0  0  0  0  0  0  0  0  0  0  0
  151.4737  143.0484  156.9758 H   0  0  0  0  0  0  0  0  0  0  0  0
  151.6126  141.7696  159.7436 H   0  0  0  0  0  0  0  0  0  0  0  0
  152.5964  141.3355  158.3658 H   0  0  0  0  0  0  0  0  0  0  0  0
  153.8598  142.7753  159.9063 H   0  0  0  0  0  0  0  0  0  0  0  0
  153.6930  143.5073  158.3289 H   0  0  0  0  0  0  0  0  0  0  0  0
  152.0445  144.1839  160.8124 H   0  0  0  0  0  0  0  0  0  0  0  0
  153.2640  145.1975  160.0754 H   0  0  0  0  0  0  0  0  0  0  0  0
  150.9591  145.9053  159.4127 H   0  0  0  0  0  0  0  0  0  0  0  0
  151.9060  145.4301  158.0230 H   0  0  0  0  0  0  0  0  0  0  0  0
  149.6468  144.4748  157.8929 H   0  0  0  0  0  0  0  0  0  0  0  0
  149.8178  143.7173  159.4541 H   0  0  0  0  0  0  0  0  0  0  0  0
  1  2  1  0  0  0  0
  1 34  1  0  0  0  0
  2  3  1  0  0  0  0
  2 35  1  0  0  0  0
  2 36  1  0  0  0  0
  3  4  1  0  0  0  0
  3 37  1  0  0  0  0
  3 38  1  0  0  0  0
  4  5  1  0  0  0  0
  4 24  1  0  0  0  0
  4 39  1  0  0  0  0
  5  6  1  0  0  0  0
  5 40  1  0  0  0  0
  6 11  1  0  0  0  0
  6  7  2  0  0  0  0
  7  8  1  0  0  0  0
  8  9  2  0  0  0  0
  8 41  1  0  0  0  0
  9 10  1  0  0  0  0
 10 14  1  0  0  0  0
 10 11  2  0  0  0  0
 11 12  1  0  0  0  0
 12 13  2  0  0  0  0
 13 14  1  0  0  0  0
 13 42  1  0  0  0  0
 14 15  1  0  0  0  0
 15 30  1  0  0  0  0
 15 22  1  0  0  0  0
 15 16  1  0  0  0  0
 16 17  1  0  0  0  0
 17 31  1  0  0  0  0
 17 18  1  0  0  0  0
 17 20  1  0  0  0  0
 18 19  1  0  0  0  0
 18 43  1  0  0  0  0
 18 44  1  0  0  0  0
 19 45  1  0  0  0  0
 20 32  1  0  0  0  0
 20 21  1  0  0  0  0
 20 22  1  0  0  0  0
 21 46  1  0  0  0  0
 22 33  1  0  0  0  0
 22 23  1  0  0  0  0
 23 47  1  0  0  0  0
 24 29  1  0  0  0  0
 24 25  1  0  0  0  0
 24 48  1  0  0  0  0
 25 26  1  0  0  0  0
 25 49  1  0  0  0  0
 25 50  1  0  0  0  0
 26 27  1  0  0  0  0
 26 51  1  0  0  0  0
 26 52  1  0  0  0  0
 27 28  1  0  0  0  0
 27 53  1  0  0  0  0
 27 54  1  0  0  0  0
 28 29  1  0  0  0  0
 28 55  1  0  0  0  0
 28 56  1  0  0  0  0
 29 57  1  0  0  0  0
 29 58  1  0  0  0  0
M  END
> <s_m_source_file>
AV-unprocessed.smi

> <i_m_source_file_index>
109

> <i_lp_mmshare_version>
43012

> <i_f3d_flags>
0

> <s_epik_input>
W0NIMl0xW0NIMl1bQ0gyXVtDSDJdW0NIMl1bQ0hdMVtDQEhdKFtDSDJdW0NIMl1bT0hdKVtOSF1jKG5bY0hdbjIpYyhjMjMpbltjSF1uM1tDQEBIXTRPW0NASF0oW0NIMl1bT0hdKVtDQEBIXShbT0hdKVtDQEhdNFtPSF0=

> <s_epik_cmdline>
J2VwaWtfcHl0aG9uJywgJy1waCcsICc3LjAnLCAnLXRuJywgJzgnLCAnLW1hJywgJzIwMCcsICctbWV0YWxfYmluZGluZycsICctaW1hZScsICc8aW5maWxlLm1hZT4nLCAnLW9tYWUnLCAnPG91dGZpbGUubWFlPic=

> <r_lp_tautomer_probability>
1

> <r_epik_Ionization_Penalty>
0.000793976

> <r_epik_Ionization_Penalty_Charging>
0

> <r_epik_Ionization_Penalty_Neutral>
0.000793976

> <r_epik_State_Penalty>
-0

> <r_epik_Charging_Adjusted_Penalty>
0

> <i_epik_Tot_Q>
0

> <i_epik_Tot_abs_Q>
0

> <r_epik_Metal_State_Penalty>
-0

> <b_epik_Metal_Only>
0

> <s_epik_Chemistry_Notes>
This compound contains an acetal/aminal-like group ( X-CH(R)-Y where X, Y are N, S, or O) that may be acid/base labile, releasing an aldehyde.

> <s_lp_Force_Field>
OPLS_2005

> <r_lp_Energy>
55.8609

> <b_lp_Chiralities_Consistent>
1

> <s_lp_Variant>
AV-unprocessed.smi:109-21

> <Gold.Version>
5.8.1

> <Gold.Id.Protein>
6NUR|6NUR_protein|mol2

> <Gold.PLP.Fitness>
50.3438

> <Gold.PLP.PLP>
-39.2952

> <Gold.PLP.part.hbond>
-6.7154

> <Gold.PLP.part.metal>
0.0000

> <Gold.PLP.part.buried>
-3.5762

> <Gold.PLP.part.nonpolar>
-31.0114

> <Gold.PLP.part.repulsive>
0.5302

> <Gold.PLP.ligand.clash>
0.0000

> <Gold.PLP.ligand.torsion>
2.0980

> <Gold.PLP.Chemscore.Hbond>
4.0477

> <Gold.PLP.Chemscore.CHOScore>
0.8447

> <Gold.PLP.Chemscore.Metal>
0.0000

> <Gold.Chemscore.Hbonds>
donor molecule, donor type, donor heavy atom, donor atom, acceptor molecule, acceptor atom, score
      L1  H     5    40       P1  8028  1.00
      L1  H    19    45       P1  7948  1.00
      L1  H    23    47       P1 10175  1.00
      P1  H  7989  7998       L1     1  1.00
      P1  H  8011  8017       L1     7  0.05
      L1  C     8    41       P1  7957  0.84

> <Gold.PLP.Chemscore.Internal.Correction>
0.5672

> <Gold.Rescore>
     Score         DG    S(hbond)    S(metal)    S(lipo)     H(rot)  DE(clash)    DE(int)     intcor
     10.42     -16.16       3.89        0.00      99.98       5.47       1.43       4.32       ----

> <Gold.Chemscore.Fitness>
10.4193

> <Gold.Chemscore.DG>
-16.1637

> <Gold.Chemscore.ZeroCoef>
-5.4800

> <Gold.Chemscore.Hbond>
3.8861

> <Gold.Chemscore.Metal>
0.0000

> <Gold.Chemscore.Lipo>
99.9787

> <Gold.Chemscore.Internal_Hbond>
0.0000

> <Gold.Chemscore.DEClash>
1.4251

> <Gold.Chemscore.DEInternal>
4.3193

> <Gold.Chemscore.Rot>
5.4662

> <Gold.Chemscore.Internal.Correction>
   9.000000E+99

> <Gold.Chemscore.Hbonds>
donor molecule, donor type, donor heavy atom, donor atom, acceptor molecule, acceptor atom, score
      L1  H     5    40       P1  8028  0.99
      L1  H    19    45       P1  7948  0.95
      L1  H    23    47       P1 10175  1.00
      P1  H  7989  7998       L1     1  0.73

> <Gold.Chemscore.Hbond.Weighted>
-12.9797

> <Gold.Chemscore.Metal.Weighted>
-0.0000

> <Gold.Chemscore.Lipo.Weighted>
-11.6975

> <Gold.Chemscore.Internal_Hbond.Weighted>
0.0000

> <Gold.Chemscore.DEClash.Weighted>
1.4251

> <Gold.Chemscore.DEInternal.Weighted>
4.3193

> <Gold.Chemscore.Rot.Weighted>
13.9935

> <Gold.Chemscore.Internal.Correction.Weighted>
   9.000000E+99

> <Gold.Protein.RotatedTorsions>
[ 6907 6896 6895 6894 ] final   62.57 input  -60.11 | X-H torsion
[ 7974 7965 7964 7962 ] final -128.14 input  175.53 | X-H torsion
[ 8008 7997 7996 7995 ] final  -38.55 input   59.86 | X-H torsion
[ 10167 10162 10161 10158 ] final -133.32 input  -65.29 | X-H torsion
[ 10718 10713 10712 10709 ] final  -92.11 input   66.30 | X-H torsion
[ 10763 10752 10751 10750 ] final -120.88 input  -60.55 | X-H torsion
[ 11005 11000 10999 10996 ] final   74.96 input  -57.11 | X-H torsion

> <Gold.Protein.ActiveResidues>
 VAL166  LYS551  ARG553  GLY616  TRP617  ASP618  TYR619  PRO620  LYS621  CYS622 
 ASP623  PHE694  ASN695  SER759  ASP760  ASP761  ALA762  ILE779  LEU786  VAL792 
 PHE793  MET794  SER795  GLU796  ALA797  LYS798  CYS799  TRP800  GLU811  SER814 

> <Gold.Protein.RotatedAtoms>
  152.4182  134.6002  159.9997 H   0  0  0  0  0  0  0  0  0  0  0  0  # atno 6907 bound_to 6896
  151.6160  133.3337  159.3085 H   0  0  0  0  0  0  0  0  0  0  0  0  # atno 6908 bound_to 6896
  150.8071  134.7241  159.6720 H   0  0  0  0  0  0  0  0  0  0  0  0  # atno 6909 bound_to 6896
  144.9701  140.7536  143.4676 H   0  0  0  0  0  0  0  0  0  0  0  0  # atno 7974 bound_to 7965
  154.4035  140.1575  156.2718 H   0  0  0  0  0  0  0  0  0  0  0  0  # atno 8008 bound_to 7997
  155.8946  140.3436  155.5959 H   0  0  0  0  0  0  0  0  0  0  0  0  # atno 8009 bound_to 7997
  155.7518  140.0806  157.2188 H   0  0  0  0  0  0  0  0  0  0  0  0  # atno 8010 bound_to 7997
  139.8994  143.6625  152.2597 H   0  0  0  0  0  0  0  0  0  0  0  0  # atno 10167 bound_to 10162
  155.9999  130.4974  150.5576 H   0  0  0  0  0  0  0  0  0  0  0  0  # atno 10718 bound_to 10713
  154.8655  135.4187  154.2531 H   0  0  0  0  0  0  0  0  0  0  0  0  # atno 10763 bound_to 10752
  153.3474  135.6997  153.6822 H   0  0  0  0  0  0  0  0  0  0  0  0  # atno 10764 bound_to 10752
  153.5776  135.3579  155.2835 H   0  0  0  0  0  0  0  0  0  0  0  0  # atno 10765 bound_to 10752
  139.9366  134.7477  156.1211 H   0  0  0  0  0  0  0  0  0  0  0  0  # atno 11005 bound_to 11000
  145.2572  139.2007  143.4911 LP  0  0  0  0  0  0  0  0  0  0  0  0  # atno 17320 bound_to 7965
  146.3379  140.2496  142.8598 LP  0  0  0  0  0  0  0  0  0  0  0  0  # atno 17321 bound_to 7965
  139.7038  144.7631  151.1227 LP  0  0  0  0  0  0  0  0  0  0  0  0  # atno 17342 bound_to 10162
  140.7710  143.5421  150.9300 LP  0  0  0  0  0  0  0  0  0  0  0  0  # atno 17343 bound_to 10162
  157.3490  131.0730  151.1728 LP  0  0  0  0  0  0  0  0  0  0  0  0  # atno 17370 bound_to 10713
  157.2551  130.6632  149.5949 LP  0  0  0  0  0  0  0  0  0  0  0  0  # atno 17371 bound_to 10713
  141.0983  133.6687  156.2695 LP  0  0  0  0  0  0  0  0  0  0  0  0  # atno 17394 bound_to 11000
  140.6059  134.5507  157.5525 LP  0  0  0  0  0  0  0  0  0  0  0  0  # atno 17395 bound_to 11000

$$$$
