#       Name:                AV-unprocessed.smi:235
#       Creating user name   scv26
#       Creation time:       Thu Mar 26 20:37:46 2020


#       File generated by GOLD software.
#

@<TRIPOS>MOLECULE
AV-unprocessed.smi:235
    64    68     1
SMALL
NO_CHARGES


@<TRIPOS>ATOM
      1 ****        -4.0821   1.6553  -2.3105 O.2            1 S1                 0.0000
      2 ****        -3.3709   0.6687  -2.5060 C.2            1 S1                 0.0000
      3 ****        -2.9644   0.2800  -3.7232 N.am           1 S1                 0.0000
      4 ****        -3.2735   0.9375  -4.9511 C.3            1 S1                 0.0000
      5 ****        -3.4698   0.0749  -6.1790 C.3            1 S1                 0.0000
      6 ****        -2.2270   0.9106  -6.0438 C.3            1 S1                 0.0000
      7 ****        -2.9115  -0.2089  -1.3332 C.3            1 S1                 0.0000
      8 ****        -3.9780  -1.2348  -0.9291 C.3            1 S1                 0.0000
      9 ****        -3.6204  -1.5436   0.5193 C.3            1 S1                 0.0000
     10 ****        -3.1395  -0.1932   1.0504 C.3            1 S1                 0.0000
     11 ****        -2.6855   0.5666  -0.1113 N.3            1 S1                 0.0000
     12 ****        -1.4649   1.1353   0.0008 C.ar           1 S1                 0.0000
     13 ****        -1.4026   2.4875  -0.0603 N.ar           1 S1                 0.0000
     14 ****        -0.2218   3.1057   0.0388 C.ar           1 S1                 0.0000
     15 ****         0.9910   2.5704   0.1993 N.ar           1 S1                 0.0000
     16 ****         0.9282   1.2090   0.2627 C.ar           1 S1                 0.0000
     17 ****        -0.2491   0.4155   0.1711 C.ar           1 S1                 0.0000
     18 ****         0.0759  -0.9322   0.2702 N.2            1 S1                 0.0000
     19 ****         1.3734  -0.9350   0.4123 C.2            1 S1                 0.0000
     20 ****         1.9655   0.3083   0.4272 N.pl3          1 S1                 0.0000
     21 ****         3.3829   0.5965   0.5768 C.3            1 S1                 0.0000
     22 ****         3.8259   0.7985   2.0433 C.3            1 S1                 0.0000
     23 ****         3.1868   1.9459   2.5676 O.3            1 S1                 0.0000
     24 ****         3.5108  -0.3988   2.9628 C.3            1 S1                 0.0000
     25 ****         4.0921  -0.2881   4.3729 C.3            1 S1                 0.0000
     26 ****         4.2205  -1.7360   4.8212 C.3            1 S1                 0.0000
     27 ****         4.0889  -2.5413   3.5254 C.3            1 S1                 0.0000
     28 ****         4.1378  -1.5780   2.4828 O.3            1 S1                 0.0000
     29 ****        -2.3880  -0.5467  -3.7843 H              1 S1                 0.0000
     30 ****        -3.8834   1.8383  -4.8971 H              1 S1                 0.0000
     31 ****        -3.3641  -1.0026  -6.0673 H              1 S1                 0.0000
     32 ****        -4.2152   0.3966  -6.9034 H              1 S1                 0.0000
     33 ****        -2.1423   1.7903  -6.6789 H              1 S1                 0.0000
     34 ****        -1.2925   0.3902  -5.8426 H              1 S1                 0.0000
     35 ****        -1.9988  -0.7387  -1.6138 H              1 S1                 0.0000
     36 ****        -4.9790  -0.8016  -0.9756 H              1 S1                 0.0000
     37 ****        -3.9659  -2.1242  -1.5598 H              1 S1                 0.0000
     38 ****        -4.4543  -1.9532   1.0897 H              1 S1                 0.0000
     39 ****        -2.8025  -2.2648   0.5486 H              1 S1                 0.0000
     40 ****        -3.9704   0.3515   1.4995 H              1 S1                 0.0000
     41 ****        -2.3784  -0.3167   1.8228 H              1 S1                 0.0000
     42 ****        -0.2535   4.1837  -0.0184 H              1 S1                 0.0000
     43 ****         1.9385  -1.8497   0.5195 H              1 S1                 0.0000
     44 ****         3.9445  -0.2251   0.1306 H              1 S1                 0.0000
     45 ****         3.6211   1.4814  -0.0149 H              1 S1                 0.0000
     46 ****         4.9001   0.9864   2.0526 H              1 S1                 0.0000
     47 ****         3.3655   2.6773   1.9965 H              1 S1                 0.0000
     48 ****         2.4346  -0.5711   3.0249 H              1 S1                 0.0000
     49 ****         5.0807   0.1719   4.3402 H              1 S1                 0.0000
     50 ****         3.4670   0.3080   5.0385 H              1 S1                 0.0000
     51 ****         5.1799  -1.9091   5.3100 H              1 S1                 0.0000
     52 ****         3.4312  -2.0082   5.5228 H              1 S1                 0.0000
     53 ****         4.8793  -3.2834   3.4106 H              1 S1                 0.0000
     54 ****         3.1286  -3.0579   3.4908 H              1 S1                 0.0000
     55 ****        -4.3865   2.2132  -3.0826 LP             1 S1                 0.0000
     56 ****        -4.3551   1.8984  -1.3797 LP             1 S1                 0.0000
     57 ****        -3.2563   1.3857  -0.1688 LP             1 S1                 0.0000
     58 ****        -2.2392   3.0223  -0.1794 LP             1 S1                 0.0000
     59 ****         1.8369   3.0997   0.2647 LP             1 S1                 0.0000
     60 ****        -0.5417  -1.7181   0.2397 LP             1 S1                 0.0000
     61 ****         3.5393   2.1393   3.4832 LP             1 S1                 0.0000
     62 ****         2.2003   1.7896   2.6164 LP             1 S1                 0.0000
     63 ****         5.0886  -1.3849   2.2405 LP             1 S1                 0.0000
     64 ****         3.6518  -1.9201   1.6786 LP             1 S1                 0.0000
@<TRIPOS>BOND
    1    1    2 2     
    2    2    3 am    
    3    2    7 1     
    4    3    4 1     
    5    3   29 1     
    6    4    6 1     
    7    4    5 1     
    8    4   30 1     
    9    5    6 1     
   10    5   31 1     
   11    5   32 1     
   12    6   33 1     
   13    6   34 1     
   14    7   11 1     
   15    7    8 1     
   16    7   35 1     
   17    8    9 1     
   18    8   36 1     
   19    8   37 1     
   20    9   10 1     
   21    9   38 1     
   22    9   39 1     
   23   10   11 1     
   24   10   40 1     
   25   10   41 1     
   26   11   12 1     
   27   12   17 ar    
   28   12   13 ar    
   29   13   14 ar    
   30   14   15 ar    
   31   14   42 1     
   32   15   16 ar    
   33   16   20 1     
   34   16   17 ar    
   35   17   18 1     
   36   18   19 2     
   37   19   20 1     
   38   19   43 1     
   39   20   21 1     
   40   21   22 1     
   41   21   44 1     
   42   21   45 1     
   43   22   23 1     
   44   22   24 1     
   45   22   46 1     
   46   23   47 1     
   47   24   28 1     
   48   24   25 1     
   49   24   48 1     
   50   25   26 1     
   51   25   49 1     
   52   25   50 1     
   53   26   27 1     
   54   26   51 1     
   55   26   52 1     
   56   27   28 1     
   57   27   53 1     
   58   27   54 1     
   59    1   55 1     
   60    1   56 1     
   61   11   57 1     
   62   13   58 1     
   63   15   59 1     
   64   18   60 1     
   65   23   61 1     
   66   23   62 1     
   67   28   63 1     
   68   28   64 1     
@<TRIPOS>SUBSTRUCTURE
      1 S1             1
@<TRIPOS>SET
LONE_PAIRS      STATIC     ATOMS    <user>   **** ""
10 55 56 57 58 59 60 61 62 63 64
DONOR_HYDROGENS      STATIC     ATOMS    <user>   **** ""
2 29 47
ATOM$BLUE        STATIC     ATOMS    COLORGROUP SYSTEM
10 55 56 57 58 59 60 61 62 63 64
ATOM$RED        STATIC     ATOMS    COLORGROUP SYSTEM
2 29 47
