AV-unprocessed.smi:2921|AV-procd|sdf|11197|dock5
  -GOLD-   2272016 93D 1   1.00000     0.00000
 Structure written by MMmdl.
 41 42  0  0  0  0  0  0  0  0  1 V2000
  150.5501  137.1281  155.4068 C   0  0  0  0  0  0  0  0  0  0  0  0
  151.0051  138.2072  154.4121 C   0  0  0  0  0  0  0  0  0  0  0  0
  152.4327  138.6954  154.7089 C   0  0  0  0  0  0  0  0  0  0  0  0
  150.0591  139.3185  154.3788 N   0  0  0  0  0  0  0  0  0  0  0  0
  150.4359  140.5437  154.8146 N   0  0  0  0  0  0  0  0  0  0  0  0
  149.3650  141.3118  154.6670 C   0  0  0  0  0  0  0  0  0  0  0  0
  148.2465  140.6105  154.1356 C   0  0  0  0  0  0  0  0  0  0  0  0
  148.7398  139.3448  153.9705 C   0  0  0  0  0  0  0  0  0  0  0  0
  148.0989  138.2407  153.5025 N   0  0  0  0  0  0  0  0  0  0  0  0
  146.7831  137.9645  153.5114 C   0  0  0  0  0  0  0  0  0  0  0  0
  145.9021  138.6947  153.9655 O   0  0  0  0  0  0  0  0  0  0  0  0
  146.5365  136.7770  152.9406 N   0  0  0  0  0  0  0  0  0  0  0  0
  145.2118  136.1990  152.7408 C   0  0  0  0  0  0  0  0  0  0  0  0
  144.9901  135.6832  151.3051 C   0  0  0  0  0  0  0  0  0  0  0  0
  145.0523  134.1707  151.1690 C   0  0  0  0  0  0  0  0  0  0  0  0
  144.1109  133.3886  150.6419 C   0  0  0  0  0  0  0  0  0  0  0  0
  144.5010  131.9362  150.6270 C   0  0  0  0  0  0  0  0  0  0  0  0
  145.9433  131.9325  151.1787 C   0  0  0  0  0  0  0  0  0  0  0  0
  146.2650  133.3834  151.6001 C   0  0  0  0  0  0  0  0  0  0  0  0
  151.2213  136.2692  155.3863 H   0  0  0  0  0  0  0  0  0  0  0  0
  149.5489  136.7698  155.1651 H   0  0  0  0  0  0  0  0  0  0  0  0
  150.5302  137.5084  156.4286 H   0  0  0  0  0  0  0  0  0  0  0  0
  151.0207  137.7527  153.4214 H   0  0  0  0  0  0  0  0  0  0  0  0
  153.1463  137.8730  154.6510 H   0  0  0  0  0  0  0  0  0  0  0  0
  152.5113  139.1294  155.7063 H   0  0  0  0  0  0  0  0  0  0  0  0
  152.7449  139.4529  153.9895 H   0  0  0  0  0  0  0  0  0  0  0  0
  149.4299  142.3513  154.9529 H   0  0  0  0  0  0  0  0  0  0  0  0
  147.2582  140.9898  153.9245 H   0  0  0  0  0  0  0  0  0  0  0  0
  148.6937  137.5504  153.0689 H   0  0  0  0  0  0  0  0  0  0  0  0
  147.3205  136.2418  152.5970 H   0  0  0  0  0  0  0  0  0  0  0  0
  145.0775  135.3847  153.4534 H   0  0  0  0  0  0  0  0  0  0  0  0
  144.4538  136.9448  152.9857 H   0  0  0  0  0  0  0  0  0  0  0  0
  144.0056  136.0110  150.9697 H   0  0  0  0  0  0  0  0  0  0  0  0
  145.7065  136.1312  150.6156 H   0  0  0  0  0  0  0  0  0  0  0  0
  143.1614  133.7302  150.2568 H   0  0  0  0  0  0  0  0  0  0  0  0
  143.8239  131.3633  151.2613 H   0  0  0  0  0  0  0  0  0  0  0  0
  144.4535  131.5355  149.6140 H   0  0  0  0  0  0  0  0  0  0  0  0
  146.0434  131.2452  152.0194 H   0  0  0  0  0  0  0  0  0  0  0  0
  146.6403  131.6029  150.4073 H   0  0  0  0  0  0  0  0  0  0  0  0
  147.1632  133.7581  151.1083 H   0  0  0  0  0  0  0  0  0  0  0  0
  146.4047  133.4511  152.6784 H   0  0  0  0  0  0  0  0  0  0  0  0
  1  2  1  0  0  0  0
  1 20  1  0  0  0  0
  1 21  1  0  0  0  0
  1 22  1  0  0  0  0
  2  3  1  0  0  0  0
  2  4  1  0  0  0  0
  2 23  1  0  0  0  0
  3 24  1  0  0  0  0
  3 25  1  0  0  0  0
  3 26  1  0  0  0  0
  4  8  1  0  0  0  0
  4  5  1  0  0  0  0
  5  6  2  0  0  0  0
  6  7  1  0  0  0  0
  6 27  1  0  0  0  0
  7  8  2  0  0  0  0
  7 28  1  0  0  0  0
  8  9  1  0  0  0  0
  9 10  1  0  0  0  0
  9 29  1  0  0  0  0
 10 11  2  0  0  0  0
 10 12  1  0  0  0  0
 12 13  1  0  0  0  0
 12 30  1  0  0  0  0
 13 14  1  0  0  0  0
 13 31  1  0  0  0  0
 13 32  1  0  0  0  0
 14 15  1  0  0  0  0
 14 33  1  0  0  0  0
 14 34  1  0  0  0  0
 15 19  1  0  0  0  0
 15 16  2  0  0  0  0
 16 17  1  0  0  0  0
 16 35  1  0  0  0  0
 17 18  1  0  0  0  0
 17 36  1  0  0  0  0
 17 37  1  0  0  0  0
 18 19  1  0  0  0  0
 18 38  1  0  0  0  0
 18 39  1  0  0  0  0
 19 40  1  0  0  0  0
 19 41  1  0  0  0  0
M  END
> <s_m_source_file>
AV-unprocessed.smi

> <i_m_source_file_index>
2921

> <i_lp_mmshare_version>
43012

> <i_f3d_flags>
0

> <s_epik_input>
W0NIM11bQ0hdKFtDSDNdKW4xbltjSF1bY0hdYzFbTkhdQyg9TylbTkhdW0NIMl1bQ0gyXUMyPVtDSF1bQ0gyXVtDSDJdW0NIMl0y

> <s_epik_cmdline>
J2VwaWtfcHl0aG9uJywgJy1waCcsICc3LjAnLCAnLXRuJywgJzgnLCAnLW1hJywgJzIwMCcsICctbWV0YWxfYmluZGluZycsICctaW1hZScsICc8aW5maWxlLm1hZT4nLCAnLW9tYWUnLCAnPG91dGZpbGUubWFlPic=

> <r_lp_tautomer_probability>
1

> <r_epik_Ionization_Penalty>
4.14613e-05

> <r_epik_Ionization_Penalty_Charging>
0

> <r_epik_Ionization_Penalty_Neutral>
4.14613e-05

> <r_epik_State_Penalty>
-0

> <r_epik_Charging_Adjusted_Penalty>
0

> <i_epik_Tot_Q>
0

> <i_epik_Tot_abs_Q>
0

> <r_epik_Metal_State_Penalty>
-0

> <b_epik_Metal_Only>
0

> <s_lp_Force_Field>
OPLS_2005

> <r_lp_Energy>
26.255

> <b_lp_Chiralities_Consistent>
1

> <s_lp_Variant>
AV-unprocessed.smi:2921-1

> <Gold.Version>
5.8.1

> <Gold.Id.Protein>
6NUR|6NUR_protein|mol2

> <Gold.PLP.Fitness>
49.8753

> <Gold.PLP.PLP>
-39.6351

> <Gold.PLP.part.hbond>
-3.1660

> <Gold.PLP.part.metal>
0.0000

> <Gold.PLP.part.buried>
-5.0276

> <Gold.PLP.part.nonpolar>
-32.4736

> <Gold.PLP.part.repulsive>
0.2811

> <Gold.PLP.ligand.clash>
0.0000

> <Gold.PLP.ligand.torsion>
0.6571

> <Gold.PLP.Chemscore.Hbond>
2.8432

> <Gold.PLP.Chemscore.CHOScore>
0.9894

> <Gold.PLP.Chemscore.Metal>
0.0000

> <Gold.Chemscore.Hbonds>
donor molecule, donor type, donor heavy atom, donor atom, acceptor molecule, acceptor atom, score
      L1  H     9    29       P1  7948  1.00
      L1  H    12    30       P1  7948  0.98
      P1  H  7989  7998       L1     5  0.83
      L1  C     6    27       P1  8028  1.00

> <Gold.PLP.Chemscore.Internal.Correction>
0.0567

> <Gold.Rescore>
     Score         DG    S(hbond)    S(metal)    S(lipo)     H(rot)  DE(clash)    DE(int)     intcor
     16.75     -18.54       2.04        0.00      86.14       1.50       0.17       1.61       ----

> <Gold.Chemscore.Fitness>
16.7509

> <Gold.Chemscore.DG>
-18.5367

> <Gold.Chemscore.ZeroCoef>
-5.4800

> <Gold.Chemscore.Hbond>
2.0428

> <Gold.Chemscore.Metal>
0.0000

> <Gold.Chemscore.Lipo>
86.1397

> <Gold.Chemscore.Internal_Hbond>
0.0000

> <Gold.Chemscore.DEClash>
0.1737

> <Gold.Chemscore.DEInternal>
1.6121

> <Gold.Chemscore.Rot>
1.5018

> <Gold.Chemscore.Internal.Correction>
   9.000000E+99

> <Gold.Chemscore.Hbonds>
donor molecule, donor type, donor heavy atom, donor atom, acceptor molecule, acceptor atom, score
      L1  H     9    29       P1  7948  0.95
      L1  H    12    30       P1  7948  0.93
      P1  H  7989  7998       L1     5  0.10

> <Gold.Chemscore.Hbond.Weighted>
-6.8230

> <Gold.Chemscore.Metal.Weighted>
-0.0000

> <Gold.Chemscore.Lipo.Weighted>
-10.0783

> <Gold.Chemscore.Internal_Hbond.Weighted>
0.0000

> <Gold.Chemscore.DEClash.Weighted>
0.1737

> <Gold.Chemscore.DEInternal.Weighted>
1.6121

> <Gold.Chemscore.Rot.Weighted>
3.8446

> <Gold.Chemscore.Internal.Correction.Weighted>
   9.000000E+99

> <Gold.Protein.RotatedTorsions>
[ 6907 6896 6895 6894 ] final  112.88 input  -60.11 | X-H torsion
[ 7974 7965 7964 7962 ] final   36.32 input  175.53 | X-H torsion
[ 8008 7997 7996 7995 ] final  -33.10 input   59.86 | X-H torsion
[ 10167 10162 10161 10158 ] final  -97.84 input  -65.29 | X-H torsion
[ 10718 10713 10712 10709 ] final   71.60 input   66.30 | X-H torsion
[ 10763 10752 10751 10750 ] final -178.83 input  -60.55 | X-H torsion
[ 11005 11000 10999 10996 ] final    0.36 input  -57.11 | X-H torsion

> <Gold.Protein.ActiveResidues>
 VAL166  LYS551  ARG553  GLY616  TRP617  ASP618  TYR619  PRO620  LYS621  CYS622 
 ASP623  PHE694  ASN695  SER759  ASP760  ASP761  ALA762  ILE779  LEU786  VAL792 
 PHE793  MET794  SER795  GLU796  ALA797  LYS798  CYS799  TRP800  GLU811  SER814 

> <Gold.Protein.RotatedAtoms>
  152.4892  133.8454  159.7173 H   0  0  0  0  0  0  0  0  0  0  0  0  # atno 6907 bound_to 6896
  150.9006  133.7114  159.2886 H   0  0  0  0  0  0  0  0  0  0  0  0  # atno 6908 bound_to 6896
  151.4557  135.1038  159.9763 H   0  0  0  0  0  0  0  0  0  0  0  0  # atno 6909 bound_to 6896
  146.1219  139.6032  142.9284 H   0  0  0  0  0  0  0  0  0  0  0  0  # atno 7974 bound_to 7965
  154.4159  140.1720  156.1833 H   0  0  0  0  0  0  0  0  0  0  0  0  # atno 8008 bound_to 7997
  155.9664  140.3389  155.6512 H   0  0  0  0  0  0  0  0  0  0  0  0  # atno 8009 bound_to 7997
  155.6682  140.0708  157.2520 H   0  0  0  0  0  0  0  0  0  0  0  0  # atno 8010 bound_to 7997
  140.2792  143.3293  152.0458 H   0  0  0  0  0  0  0  0  0  0  0  0  # atno 10167 bound_to 10162
  157.6459  130.9536  150.0811 H   0  0  0  0  0  0  0  0  0  0  0  0  # atno 10718 bound_to 10713
  154.5428  135.2807  155.1080 H   0  0  0  0  0  0  0  0  0  0  0  0  # atno 10763 bound_to 10752
  154.2556  135.6331  153.5260 H   0  0  0  0  0  0  0  0  0  0  0  0  # atno 10764 bound_to 10752
  152.9983  135.5593  154.5972 H   0  0  0  0  0  0  0  0  0  0  0  0  # atno 10765 bound_to 10752
  140.6274  133.9606  155.8256 H   0  0  0  0  0  0  0  0  0  0  0  0  # atno 11005 bound_to 11000
  145.5447  141.0418  143.2311 LP  0  0  0  0  0  0  0  0  0  0  0  0  # atno 17320 bound_to 7965
  144.7605  139.6967  143.7236 LP  0  0  0  0  0  0  0  0  0  0  0  0  # atno 17321 bound_to 7965
  139.4967  144.6603  151.6480 LP  0  0  0  0  0  0  0  0  0  0  0  0  # atno 17342 bound_to 10162
  140.5825  143.9920  150.6277 LP  0  0  0  0  0  0  0  0  0  0  0  0  # atno 17343 bound_to 10162
  156.1787  130.3649  149.9064 LP  0  0  0  0  0  0  0  0  0  0  0  0  # atno 17370 bound_to 10713
  156.7022  130.8937  151.3600 LP  0  0  0  0  0  0  0  0  0  0  0  0  # atno 17371 bound_to 10713
  141.0699  134.0220  157.3540 LP  0  0  0  0  0  0  0  0  0  0  0  0  # atno 17394 bound_to 11000
  139.9129  135.0193  156.7766 LP  0  0  0  0  0  0  0  0  0  0  0  0  # atno 17395 bound_to 11000

$$$$
