#       Name:                AV-unprocessed.smi:1867
#       Creating user name   scv26
#       Creation time:       Fri Mar 27 09:29:16 2020


#       File generated by GOLD software.
#

@<TRIPOS>MOLECULE
AV-unprocessed.smi:1867
    55    58     1
SMALL
NO_CHARGES


@<TRIPOS>ATOM
      1 ****        -0.4628   2.4807  -0.9044 O.2            1 S1                 0.0000
      2 ****        -0.9109   1.4627  -0.3832 C.2            1 S1                 0.0000
      3 ****        -0.0807   0.6450   0.3114 N.am           1 S1                 0.0000
      4 ****         1.3147   0.7388   0.5771 C.ar           1 S1                 0.0000
      5 ****         1.8993  -0.3245   1.2965 C.ar           1 S1                 0.0000
      6 ****         3.2759  -0.2998   1.5985 C.ar           1 S1                 0.0000
      7 ****         4.0650   0.7950   1.1751 C.ar           1 S1                 0.0000
      8 ****         5.4433   0.8952   1.4432 N.pl3          1 S1                 0.0000
      9 ****         6.2044  -0.2338   1.9515 C.3            1 S1                 0.0000
     10 ****         7.6566   0.2419   1.9389 C.3            1 S1                 0.0000
     11 ****         7.7003   1.1938   0.7432 C.3            1 S1                 0.0000
     12 ****         6.3006   1.8183   0.7107 C.3            1 S1                 0.0000
     13 ****         3.4634   1.7975   0.4928 N.pl3          1 S1                 1.0000
     14 ****         2.1489   1.8138   0.1832 C.ar           1 S1                 0.0000
     15 ****        -2.2358   1.1441  -0.4957 N.pl3          1 S1                -1.0000
     16 ****        -2.9669  -0.0307   0.0129 C.3            1 S1                 0.0000
     17 ****        -4.1329   0.4353   0.8867 C.3            1 S1                 0.0000
     18 ****        -5.2646   0.7460  -0.0995 C.3            1 S1                 0.0000
     19 ****        -4.9818  -0.0361  -1.3265 N.4            1 S1                 1.0000
     20 ****        -6.1176  -0.8751  -1.7965 C.3            1 S1                 0.0000
     21 ****        -5.6379  -1.9423  -2.7924 C.3            1 S1                 0.0000
     22 ****        -4.6229  -2.9041  -2.1439 C.3            1 S1                 0.0000
     23 ****        -3.8930  -2.2683  -0.9438 C.3            1 S1                 0.0000
     24 ****        -3.6810  -0.7464  -1.1537 C.3            1 S1                 0.0000
     25 ****        -0.5291  -0.1721   0.6991 H              1 S1                 0.0000
     26 ****         1.2958  -1.1605   1.6191 H              1 S1                 0.0000
     27 ****         3.7062  -1.1206   2.1524 H              1 S1                 0.0000
     28 ****         5.8845  -0.5185   2.9543 H              1 S1                 0.0000
     29 ****         6.0730  -1.0892   1.2876 H              1 S1                 0.0000
     30 ****         7.8738   0.7927   2.8552 H              1 S1                 0.0000
     31 ****         8.3716  -0.5775   1.8603 H              1 S1                 0.0000
     32 ****         8.4938   1.9378   0.8198 H              1 S1                 0.0000
     33 ****         7.8663   0.6213  -0.1705 H              1 S1                 0.0000
     34 ****         5.9664   1.9724  -0.3162 H              1 S1                 0.0000
     35 ****         6.2948   2.7821   1.2209 H              1 S1                 0.0000
     36 ****         1.8358   2.6902  -0.3615 H              1 S1                 0.0000
     37 ****        -2.3279  -0.7227   0.5632 H              1 S1                 0.0000
     38 ****        -4.4401  -0.3841   1.5379 H              1 S1                 0.0000
     39 ****        -3.8866   1.2820   1.5290 H              1 S1                 0.0000
     40 ****        -6.2390   0.5191   0.3357 H              1 S1                 0.0000
     41 ****        -5.2705   1.8054  -0.3627 H              1 S1                 0.0000
     42 ****        -6.5963  -1.3690  -0.9492 H              1 S1                 0.0000
     43 ****        -6.8694  -0.2309  -2.2532 H              1 S1                 0.0000
     44 ****        -6.4836  -2.5043  -3.1896 H              1 S1                 0.0000
     45 ****        -5.1751  -1.4449  -3.6461 H              1 S1                 0.0000
     46 ****        -5.1264  -3.8123  -1.8109 H              1 S1                 0.0000
     47 ****        -3.9002  -3.2176  -2.8980 H              1 S1                 0.0000
     48 ****        -4.4828  -2.4485  -0.0421 H              1 S1                 0.0000
     49 ****        -2.9439  -2.7863  -0.7918 H              1 S1                 0.0000
     50 ****        -3.1042  -0.6298  -2.0735 H              1 S1                 0.0000
     51 ****        -4.8045   0.6483  -2.0480 H              1 S1                 0.0000
     52 ****         4.0340   2.5884   0.1945 H              1 S1                 0.0000
     53 ****         0.5083   2.7022  -0.8152 LP             1 S1                 0.0000
     54 ****        -1.0691   3.0880  -1.4178 LP             1 S1                 0.0000
     55 ****        -2.7916   1.8067  -0.9977 LP             1 S1                 0.0000
@<TRIPOS>BOND
    1    1    2 2     
    2    2    3 am    
    3    2   15 1     
    4    3    4 1     
    5    3   25 1     
    6    4   14 ar    
    7    4    5 ar    
    8    5    6 ar    
    9    5   26 1     
   10    6    7 ar    
   11    6   27 1     
   12    7    8 1     
   13    7   13 ar    
   14    8   12 1     
   15    8    9 1     
   16    9   10 1     
   17    9   28 1     
   18    9   29 1     
   19   10   11 1     
   20   10   30 1     
   21   10   31 1     
   22   11   12 1     
   23   11   32 1     
   24   11   33 1     
   25   12   34 1     
   26   12   35 1     
   27   13   14 ar    
   28   13   52 1     
   29   14   36 1     
   30   15   16 1     
   31   16   24 1     
   32   16   17 1     
   33   16   37 1     
   34   17   18 1     
   35   17   38 1     
   36   17   39 1     
   37   18   19 1     
   38   18   40 1     
   39   18   41 1     
   40   19   24 1     
   41   19   20 1     
   42   19   51 1     
   43   20   21 1     
   44   20   42 1     
   45   20   43 1     
   46   21   22 1     
   47   21   44 1     
   48   21   45 1     
   49   22   23 1     
   50   22   46 1     
   51   22   47 1     
   52   23   24 1     
   53   23   48 1     
   54   23   49 1     
   55   24   50 1     
   56    1   53 1     
   57    1   54 1     
   58   15   55 1     
@<TRIPOS>SUBSTRUCTURE
      1 S1             1
@<TRIPOS>SET
LONE_PAIRS      STATIC     ATOMS    <user>   **** ""
3 53 54 55
DONOR_HYDROGENS      STATIC     ATOMS    <user>   **** ""
3 25 52 51
ATOM$BLUE        STATIC     ATOMS    COLORGROUP SYSTEM
3 53 54 55
ATOM$RED        STATIC     ATOMS    COLORGROUP SYSTEM
3 25 52 51
