AV-unprocessed.smi:2567|AV-procd|sdf|10084|dock10
  -GOLD-   2272014113D 1   1.00000     0.00000
 Structure written by MMmdl.
 33 34  0  0  0  0  0  0  0  0  3 V2000
  152.4432  143.2181  160.2941 C   0  0  0  0  0  0  0  0  0  0  0  0
  151.4967  144.0955  159.4548 C   0  0  0  0  0  0  0  0  0  0  0  0
  150.4934  144.7750  160.4108 C   0  0  0  0  0  0  0  0  0  0  0  0
  152.2821  145.1956  158.7174 C   0  0  0  0  0  0  0  0  0  0  0  0
  150.7620  143.2242  158.4401 C   0  0  0  0  0  0  0  0  0  0  0  0
  149.4282  143.0446  158.3852 N   0  5  0  0  0  0  0  0  0  0  0  0
  149.1191  142.2354  157.3937 N   0  0  0  0  0  0  0  0  0  0  0  0
  150.2877  141.9172  156.8194 C   0  0  0  0  0  0  0  0  0  0  0  0
  150.4369  140.9681  155.6490 C   0  0  2  0  0  0  0  0  0  0  0  0
  149.0601  140.5214  155.1197 C   0  0  0  0  0  0  0  0  0  0  0  0
  149.2259  139.5865  153.9902 N   0  3  0  0  0  0  0  0  0  0  0  0
  150.0810  138.4406  154.3550 C   0  0  0  0  0  0  0  0  0  0  0  0
  151.4248  138.9424  154.9089 C   0  0  0  0  0  0  0  0  0  0  0  0
  151.1915  139.8124  156.0102 O   0  0  0  0  0  0  0  0  0  0  0  0
  151.3069  142.5061  157.4599 N   0  0  0  0  0  0  0  0  0  0  0  0
  152.9784  143.8086  161.0384 H   0  0  0  0  0  0  0  0  0  0  0  0
  153.1893  142.7276  159.6679 H   0  0  0  0  0  0  0  0  0  0  0  0
  151.8941  142.4381  160.8226 H   0  0  0  0  0  0  0  0  0  0  0  0
  149.9067  144.0390  160.9620 H   0  0  0  0  0  0  0  0  0  0  0  0
  149.7949  145.4131  159.8681 H   0  0  0  0  0  0  0  0  0  0  0  0
  151.0037  145.4001  161.1442 H   0  0  0  0  0  0  0  0  0  0  0  0
  152.8131  145.8416  159.4168 H   0  0  0  0  0  0  0  0  0  0  0  0
  151.6187  145.8253  158.1233 H   0  0  0  0  0  0  0  0  0  0  0  0
  153.0229  144.7688  158.0402 H   0  0  0  0  0  0  0  0  0  0  0  0
  150.9744  141.5041  154.8645 H   0  0  0  0  0  0  0  0  0  0  0  0
  148.4903  140.0310  155.9106 H   0  0  0  0  0  0  0  0  0  0  0  0
  148.4772  141.3817  154.7889 H   0  0  0  0  0  0  0  0  0  0  0  0
  148.3198  139.2518  153.6955 H   0  0  0  0  0  0  0  0  0  0  0  0
  149.5684  137.8340  155.1026 H   0  0  0  0  0  0  0  0  0  0  0  0
  150.2364  137.8104  153.4791 H   0  0  0  0  0  0  0  0  0  0  0  0
  152.0308  138.1009  155.2453 H   0  0  0  0  0  0  0  0  0  0  0  0
  151.9974  139.4592  154.1371 H   0  0  0  0  0  0  0  0  0  0  0  0
  149.6597  140.0831  153.2251 H   0  0  0  0  0  0  0  0  0  0  0  0
  1  2  1  0  0  0  0
  1 16  1  0  0  0  0
  1 17  1  0  0  0  0
  1 18  1  0  0  0  0
  2  3  1  0  0  0  0
  2  4  1  0  0  0  0
  2  5  1  0  0  0  0
  3 19  1  0  0  0  0
  3 20  1  0  0  0  0
  3 21  1  0  0  0  0
  4 22  1  0  0  0  0
  4 23  1  0  0  0  0
  4 24  1  0  0  0  0
  5 15  2  0  0  0  0
  5  6  1  0  0  0  0
  6  7  1  0  0  0  0
  7  8  2  0  0  0  0
  8  9  1  0  0  0  0
  8 15  1  0  0  0  0
  9 14  1  0  0  0  0
  9 10  1  0  0  0  0
  9 25  1  0  0  0  0
 10 11  1  0  0  0  0
 10 26  1  0  0  0  0
 10 27  1  0  0  0  0
 11 12  1  0  0  0  0
 11 28  1  0  0  0  0
 11 33  1  0  0  0  0
 12 13  1  0  0  0  0
 12 29  1  0  0  0  0
 12 30  1  0  0  0  0
 13 14  1  0  0  0  0
 13 31  1  0  0  0  0
 13 32  1  0  0  0  0
M  CHG  1   6  -1
M  CHG  1  11   1
M  END
> <s_m_source_file>
AV-unprocessed.smi

> <i_m_source_file_index>
2567

> <i_lp_mmshare_version>
43012

> <i_f3d_flags>
0

> <s_epik_input>
W0NIM11DKFtDSDNdKShbQ0gzXSljMW5bbkhdYyhuMSlbQ0BASF0yW0NIMl1bTkhdW0NIMl1bQ0gyXU8y

> <s_epik_cmdline>
J2VwaWtfcHl0aG9uJywgJy1waCcsICc3LjAnLCAnLXRuJywgJzgnLCAnLW1hJywgJzIwMCcsICctbWV0YWxfYmluZGluZycsICctaW1hZScsICc8aW5maWxlLm1hZT4nLCAnLW9tYWUnLCAnPG91dGZpbGUubWFlPic=

> <r_lp_tautomer_probability>
0.948284

> <r_epik_Ionization_Penalty>
5.01189

> <r_epik_Ionization_Penalty_Charging>
5.01189

> <r_epik_Ionization_Penalty_Neutral>
8.99859e-14

> <r_epik_State_Penalty>
2.75157

> <r_epik_Charging_Adjusted_Penalty>
7.76346

> <i_epik_Tot_Q>
0

> <i_epik_Tot_abs_Q>
2

> <r_epik_Metal_State_Penalty>
0.54282

> <b_epik_Metal_Only>
1

> <s_lp_Force_Field>
OPLS_2005

> <r_lp_Energy>
6.85935

> <b_lp_Chiralities_Consistent>
1

> <s_lp_Variant>
AV-unprocessed.smi:2567-9

> <Gold.Version>
5.8.1

> <Gold.Id.Protein>
6NUR|6NUR_protein|mol2

> <Gold.PLP.Fitness>
33.3733

> <Gold.PLP.PLP>
-31.2058

> <Gold.PLP.part.hbond>
-1.0000

> <Gold.PLP.part.metal>
0.0000

> <Gold.PLP.part.buried>
-4.8350

> <Gold.PLP.part.nonpolar>
-26.2200

> <Gold.PLP.part.repulsive>
0.9662

> <Gold.PLP.ligand.clash>
0.0000

> <Gold.PLP.ligand.torsion>
0.0282

> <Gold.PLP.Chemscore.Hbond>
0.7360

> <Gold.PLP.Chemscore.CHOScore>
0.0000

> <Gold.PLP.Chemscore.Metal>
0.0000

> <Gold.Chemscore.Hbonds>
donor molecule, donor type, donor heavy atom, donor atom, acceptor molecule, acceptor atom, score
      L1  H    11    33       P1  7957  0.68

> <Gold.PLP.Chemscore.Internal.Correction>
0.0159

> <Gold.Rescore>
     Score         DG    S(hbond)    S(metal)    S(lipo)     H(rot)  DE(clash)    DE(int)     intcor
     13.58     -13.93       0.80        0.00      76.59       1.25       0.33       0.03       ----

> <Gold.Chemscore.Fitness>
13.5790

> <Gold.Chemscore.DG>
-13.9319

> <Gold.Chemscore.ZeroCoef>
-5.4800

> <Gold.Chemscore.Hbond>
0.8044

> <Gold.Chemscore.Metal>
0.0000

> <Gold.Chemscore.Lipo>
76.5942

> <Gold.Chemscore.Internal_Hbond>
0.0000

> <Gold.Chemscore.DEClash>
0.3254

> <Gold.Chemscore.DEInternal>
0.0275

> <Gold.Chemscore.Rot>
1.2486

> <Gold.Chemscore.Internal.Correction>
   9.000000E+99

> <Gold.Chemscore.Hbonds>
donor molecule, donor type, donor heavy atom, donor atom, acceptor molecule, acceptor atom, score
      L1  H    11    33       P1  7957  0.67

> <Gold.Chemscore.Hbond.Weighted>
-2.6868

> <Gold.Chemscore.Metal.Weighted>
-0.0000

> <Gold.Chemscore.Lipo.Weighted>
-8.9615

> <Gold.Chemscore.Internal_Hbond.Weighted>
0.0000

> <Gold.Chemscore.DEClash.Weighted>
0.3254

> <Gold.Chemscore.DEInternal.Weighted>
0.0275

> <Gold.Chemscore.Rot.Weighted>
3.1964

> <Gold.Chemscore.Internal.Correction.Weighted>
   9.000000E+99

> <Gold.Protein.RotatedTorsions>
[ 6907 6896 6895 6894 ] final   22.65 input  -60.11 | X-H torsion
[ 7974 7965 7964 7962 ] final -146.44 input  175.53 | X-H torsion
[ 8008 7997 7996 7995 ] final  -35.91 input   59.86 | X-H torsion
[ 10167 10162 10161 10158 ] final   55.84 input  -65.29 | X-H torsion
[ 10718 10713 10712 10709 ] final  -48.30 input   66.30 | X-H torsion
[ 10763 10752 10751 10750 ] final   61.42 input  -60.55 | X-H torsion
[ 11005 11000 10999 10996 ] final  -99.63 input  -57.11 | X-H torsion

> <Gold.Protein.ActiveResidues>
 VAL166  LYS551  ARG553  GLY616  TRP617  ASP618  TYR619  PRO620  LYS621  CYS622 
 ASP623  PHE694  ASN695  SER759  ASP760  ASP761  ALA762  ILE779  LEU786  VAL792 
 PHE793  MET794  SER795  GLU796  ALA797  LYS798  CYS799  TRP800  GLU811  SER814 

> <Gold.Protein.RotatedAtoms>
  151.9303  135.0259  160.0528 H   0  0  0  0  0  0  0  0  0  0  0  0  # atno 6907 bound_to 6896
  152.2124  133.4917  159.5126 H   0  0  0  0  0  0  0  0  0  0  0  0  # atno 6908 bound_to 6896
  150.6979  134.1366  159.4132 H   0  0  0  0  0  0  0  0  0  0  0  0  # atno 6909 bound_to 6896
  144.8159  140.5455  143.5611 H   0  0  0  0  0  0  0  0  0  0  0  0  # atno 7974 bound_to 7965
  154.4084  140.1644  156.2289 H   0  0  0  0  0  0  0  0  0  0  0  0  # atno 8008 bound_to 7997
  155.9300  140.3415  155.6218 H   0  0  0  0  0  0  0  0  0  0  0  0  # atno 8009 bound_to 7997
  155.7118  140.0757  157.2358 H   0  0  0  0  0  0  0  0  0  0  0  0  # atno 8010 bound_to 7997
  140.2151  144.3848  150.6473 H   0  0  0  0  0  0  0  0  0  0  0  0  # atno 10167 bound_to 10162
  156.2001  130.4156  149.9253 H   0  0  0  0  0  0  0  0  0  0  0  0  # atno 10718 bound_to 10713
  152.9950  135.5501  154.6031 H   0  0  0  0  0  0  0  0  0  0  0  0  # atno 10763 bound_to 10752
  154.5368  135.2817  155.1133 H   0  0  0  0  0  0  0  0  0  0  0  0  # atno 10764 bound_to 10752
  154.2427  135.6413  153.5265 H   0  0  0  0  0  0  0  0  0  0  0  0  # atno 10765 bound_to 10752
  141.1301  133.8336  157.0997 H   0  0  0  0  0  0  0  0  0  0  0  0  # atno 11005 bound_to 11000
  145.5215  139.1476  143.3549 LP  0  0  0  0  0  0  0  0  0  0  0  0  # atno 17320 bound_to 7965
  146.2462  140.5356  142.8913 LP  0  0  0  0  0  0  0  0  0  0  0  0  # atno 17321 bound_to 7965
  140.6295  143.2185  151.6525 LP  0  0  0  0  0  0  0  0  0  0  0  0  # atno 17342 bound_to 10162
  139.5165  144.3345  152.0796 LP  0  0  0  0  0  0  0  0  0  0  0  0  # atno 17343 bound_to 10162
  156.6965  130.8916  151.3594 LP  0  0  0  0  0  0  0  0  0  0  0  0  # atno 17370 bound_to 10713
  157.6980  130.9303  150.0702 LP  0  0  0  0  0  0  0  0  0  0  0  0  # atno 17371 bound_to 10713
  140.0341  134.9887  157.0837 LP  0  0  0  0  0  0  0  0  0  0  0  0  # atno 17394 bound_to 11000
  140.4238  134.1852  155.7165 LP  0  0  0  0  0  0  0  0  0  0  0  0  # atno 17395 bound_to 11000

$$$$
