AV-unprocessed.smi:288|AV-procd|sdf|2210|dock9
  -GOLD-   2262022 43D 1   1.00000     0.00000
 Structure written by MMmdl.
 33 34  0  0  0  0  0  0  0  0  1 V2000
  149.4132  134.5159  157.9554 O   0  0  0  0  0  0  0  0  0  0  0  0
  149.8522  135.5675  157.4864 C   0  0  0  0  0  0  0  0  0  0  0  0
  149.7218  136.8598  158.1507 C   0  0  0  0  0  0  0  0  0  0  0  0
  149.0730  136.9401  159.3249 F   0  0  0  0  0  0  0  0  0  0  0  0
  150.2440  137.9804  157.6070 C   0  0  0  0  0  0  0  0  0  0  0  0
  150.9306  137.9869  156.4035 N   0  0  0  0  0  0  0  0  0  0  0  0
  151.5133  139.2556  155.8183 C   0  0  1  0  0  0  0  0  0  0  0  0
  150.4050  140.2952  155.5730 C   0  0  0  0  0  0  0  0  0  0  0  0
  150.9731  141.5434  156.2172 C   0  0  0  0  0  0  0  0  0  0  0  0
  151.8227  140.9583  157.3355 C   0  0  0  0  0  0  0  0  0  0  0  0
  152.4199  139.8237  156.7208 O   0  0  0  0  0  0  0  0  0  0  0  0
  151.1041  136.7806  155.6904 C   0  0  0  0  0  0  0  0  0  0  0  0
  151.7270  136.7625  154.6262 O   0  0  0  0  0  0  0  0  0  0  0  0
  150.5431  135.6089  156.2501 N   0  0  0  0  0  0  0  0  0  0  0  0
  150.7207  134.3571  155.5325 C   0  0  0  0  0  0  0  0  0  0  0  0
  149.8914  134.2764  154.2309 C   0  0  2  0  0  0  0  0  0  0  0  0
  148.9059  135.2910  154.2608 O   0  0  0  0  0  0  0  0  0  0  0  0
  149.1727  132.9221  154.0743 C   0  0  0  0  0  0  0  0  0  0  0  0
  148.7277  132.7785  152.8256 F   0  0  0  0  0  0  0  0  0  0  0  0
  150.0323  131.9327  154.3180 F   0  0  0  0  0  0  0  0  0  0  0  0
  148.1526  132.8201  154.9277 F   0  0  0  0  0  0  0  0  0  0  0  0
  150.1117  138.9015  158.1532 H   0  0  0  0  0  0  0  0  0  0  0  0
  152.0491  138.9520  154.9171 H   0  0  0  0  0  0  0  0  0  0  0  0
  150.2038  140.4106  154.5075 H   0  0  0  0  0  0  0  0  0  0  0  0
  149.4859  139.9926  156.0779 H   0  0  0  0  0  0  0  0  0  0  0  0
  151.6052  142.0787  155.5074 H   0  0  0  0  0  0  0  0  0  0  0  0
  150.2043  142.2277  156.5771 H   0  0  0  0  0  0  0  0  0  0  0  0
  152.5739  141.6560  157.7054 H   0  0  0  0  0  0  0  0  0  0  0  0
  151.1982  140.6470  158.1740 H   0  0  0  0  0  0  0  0  0  0  0  0
  151.7887  134.2713  155.3271 H   0  0  0  0  0  0  0  0  0  0  0  0
  150.5171  133.5275  156.2117 H   0  0  0  0  0  0  0  0  0  0  0  0
  150.5287  134.4359  153.3599 H   0  0  0  0  0  0  0  0  0  0  0  0
  148.7396  135.5740  153.3745 H   0  0  0  0  0  0  0  0  0  0  0  0
  1  2  2  0  0  0  0
  2 14  1  0  0  0  0
  2  3  1  0  0  0  0
  3  4  1  0  0  0  0
  3  5  2  0  0  0  0
  5  6  1  0  0  0  0
  5 22  1  0  0  0  0
  6  7  1  0  0  0  0
  6 12  1  0  0  0  0
  7 11  1  0  0  0  0
  7  8  1  0  0  0  0
  7 23  1  0  0  0  0
  8  9  1  0  0  0  0
  8 24  1  0  0  0  0
  8 25  1  0  0  0  0
  9 10  1  0  0  0  0
  9 26  1  0  0  0  0
  9 27  1  0  0  0  0
 10 11  1  0  0  0  0
 10 28  1  0  0  0  0
 10 29  1  0  0  0  0
 12 13  2  0  0  0  0
 12 14  1  0  0  0  0
 14 15  1  0  0  0  0
 15 16  1  0  0  0  0
 15 30  1  0  0  0  0
 15 31  1  0  0  0  0
 16 17  1  0  0  0  0
 16 18  1  0  0  0  0
 16 32  1  0  0  0  0
 17 33  1  0  0  0  0
 18 19  1  0  0  0  0
 18 20  1  0  0  0  0
 18 21  1  0  0  0  0
M  END
> <s_m_source_file>
AV-unprocessed.smi

> <i_m_source_file_index>
288

> <i_lp_mmshare_version>
43012

> <i_f3d_flags>
0

> <s_epik_input>
TzFbQ0gyXVtDSDJdW0NIMl1bQ0BIXTFuKFtjSF1jKEYpYzI9TyljKD1PKW4yW0NIMl1bQ0BIXShbT0hdKUMoRikoRilG

> <s_epik_cmdline>
J2VwaWtfcHl0aG9uJywgJy1waCcsICc3LjAnLCAnLXRuJywgJzgnLCAnLW1hJywgJzIwMCcsICctbWV0YWxfYmluZGluZycsICctaW1hZScsICc8aW5maWxlLm1hZT4nLCAnLW9tYWUnLCAnPG91dGZpbGUubWFlPic=

> <r_lp_tautomer_probability>
1

> <r_epik_Ionization_Penalty>
0.000551119

> <r_epik_Ionization_Penalty_Charging>
2.51184e-08

> <r_epik_Ionization_Penalty_Neutral>
0.000551094

> <r_epik_State_Penalty>
0.000345115

> <r_epik_Charging_Adjusted_Penalty>
0.00034514

> <i_epik_Tot_Q>
0

> <i_epik_Tot_abs_Q>
0

> <r_epik_Metal_State_Penalty>
-0

> <b_epik_Metal_Only>
0

> <s_epik_Chemistry_Notes>
This compound contains an acetal/aminal-like group ( X-CH(R)-Y where X, Y are N, S, or O) that may be acid/base labile, releasing an aldehyde.

> <s_lp_Force_Field>
OPLS_2005

> <r_lp_Energy>
35.1555

> <b_lp_Chiralities_Consistent>
1

> <s_lp_Variant>
AV-unprocessed.smi:288-2

> <Gold.Version>
5.8.1

> <Gold.Id.Protein>
6NUR|6NUR_protein|mol2

> <Gold.PLP.Fitness>
42.5259

> <Gold.PLP.PLP>
-32.5199

> <Gold.PLP.part.hbond>
-4.0000

> <Gold.PLP.part.metal>
0.0000

> <Gold.PLP.part.buried>
-4.5744

> <Gold.PLP.part.nonpolar>
-24.6770

> <Gold.PLP.part.repulsive>
0.1543

> <Gold.PLP.ligand.clash>
0.0000

> <Gold.PLP.ligand.torsion>
0.9899

> <Gold.PLP.Chemscore.Hbond>
3.9920

> <Gold.PLP.Chemscore.CHOScore>
0.0000

> <Gold.PLP.Chemscore.Metal>
0.0000

> <Gold.Chemscore.Hbonds>
donor molecule, donor type, donor heavy atom, donor atom, acceptor molecule, acceptor atom, score
      L1  H    17    33       P1  7948  1.00
      P1  H  6896  6907       L1     1  1.00
      P1  H  7997  8009       L1    11  0.99
      P1  H 10752 10765       L1    13  1.00

> <Gold.PLP.Chemscore.Internal.Correction>
0.0098

> <Gold.Rescore>
     Score         DG    S(hbond)    S(metal)    S(lipo)     H(rot)  DE(clash)    DE(int)     intcor
     12.71     -15.55       3.47        0.00      43.13       2.57       0.06       2.78       ----

> <Gold.Chemscore.Fitness>
12.7134

> <Gold.Chemscore.DG>
-15.5535

> <Gold.Chemscore.ZeroCoef>
-5.4800

> <Gold.Chemscore.Hbond>
3.4716

> <Gold.Chemscore.Metal>
0.0000

> <Gold.Chemscore.Lipo>
43.1301

> <Gold.Chemscore.Internal_Hbond>
0.0000

> <Gold.Chemscore.DEClash>
0.0577

> <Gold.Chemscore.DEInternal>
2.7824

> <Gold.Chemscore.Rot>
2.5656

> <Gold.Chemscore.Internal.Correction>
   9.000000E+99

> <Gold.Chemscore.Hbonds>
donor molecule, donor type, donor heavy atom, donor atom, acceptor molecule, acceptor atom, score
      L1  H    17    33       P1  7948  0.94
      P1  H  6896  6907       L1     1  0.48
      P1  H  7997  8009       L1    11  0.57
      P1  H 10752 10765       L1    13  0.80

> <Gold.Chemscore.Hbond.Weighted>
-11.5952

> <Gold.Chemscore.Metal.Weighted>
-0.0000

> <Gold.Chemscore.Lipo.Weighted>
-5.0462

> <Gold.Chemscore.Internal_Hbond.Weighted>
0.0000

> <Gold.Chemscore.DEClash.Weighted>
0.0577

> <Gold.Chemscore.DEInternal.Weighted>
2.7824

> <Gold.Chemscore.Rot.Weighted>
6.5679

> <Gold.Chemscore.Internal.Correction.Weighted>
   9.000000E+99

> <Gold.Protein.RotatedTorsions>
[ 6907 6896 6895 6894 ] final -110.05 input  -60.11 | X-H torsion
[ 7974 7965 7964 7962 ] final   42.40 input  175.53 | X-H torsion
[ 8008 7997 7996 7995 ] final  169.89 input   59.86 | X-H torsion
[ 10167 10162 10161 10158 ] final   48.67 input  -65.29 | X-H torsion
[ 10718 10713 10712 10709 ] final  -42.88 input   66.30 | X-H torsion
[ 10763 10752 10751 10750 ] final -177.18 input  -60.55 | X-H torsion
[ 11005 11000 10999 10996 ] final -108.66 input  -57.11 | X-H torsion

> <Gold.Protein.ActiveResidues>
 VAL166  LYS551  ARG553  GLY616  TRP617  ASP618  TYR619  PRO620  LYS621  CYS622 
 ASP623  PHE694  ASN695  SER759  ASP760  ASP761  ALA762  ILE779  LEU786  VAL792 
 PHE793  MET794  SER795  GLU796  ALA797  LYS798  CYS799  TRP800  GLU811  SER814 

> <Gold.Protein.RotatedAtoms>
  150.7600  133.9439  159.3464 H   0  0  0  0  0  0  0  0  0  0  0  0  # atno 6907 bound_to 6896
  151.7350  135.0865  160.0316 H   0  0  0  0  0  0  0  0  0  0  0  0  # atno 6908 bound_to 6896
  152.3565  133.6206  159.6019 H   0  0  0  0  0  0  0  0  0  0  0  0  # atno 6909 bound_to 6896
  146.0744  139.5305  142.9577 H   0  0  0  0  0  0  0  0  0  0  0  0  # atno 7974 bound_to 7965
  156.1416  140.1552  156.8912 H   0  0  0  0  0  0  0  0  0  0  0  0  # atno 8008 bound_to 7997
  154.4992  140.0830  156.7800 H   0  0  0  0  0  0  0  0  0  0  0  0  # atno 8009 bound_to 7997
  155.4068  140.3417  155.4263 H   0  0  0  0  0  0  0  0  0  0  0  0  # atno 8010 bound_to 7997
  140.2909  144.3047  150.6241 H   0  0  0  0  0  0  0  0  0  0  0  0  # atno 10167 bound_to 10162
  156.2549  130.4191  149.8608 H   0  0  0  0  0  0  0  0  0  0  0  0  # atno 10718 bound_to 10713
  154.5632  135.2822  155.0899 H   0  0  0  0  0  0  0  0  0  0  0  0  # atno 10763 bound_to 10752
  154.2300  135.6376  153.5176 H   0  0  0  0  0  0  0  0  0  0  0  0  # atno 10764 bound_to 10752
  153.0035  135.5535  154.6233 H   0  0  0  0  0  0  0  0  0  0  0  0  # atno 10765 bound_to 10752
  141.0890  133.9089  157.2120 H   0  0  0  0  0  0  0  0  0  0  0  0  # atno 11005 bound_to 11000
  145.6333  141.0299  143.1851 LP  0  0  0  0  0  0  0  0  0  0  0  0  # atno 17320 bound_to 7965
  144.7252  139.7900  143.7367 LP  0  0  0  0  0  0  0  0  0  0  0  0  # atno 17321 bound_to 7965
  140.5733  143.2179  151.7560 LP  0  0  0  0  0  0  0  0  0  0  0  0  # atno 17342 bound_to 10162
  139.4938  144.4186  152.0003 LP  0  0  0  0  0  0  0  0  0  0  0  0  # atno 17343 bound_to 10162
  156.6143  130.8600  151.3461 LP  0  0  0  0  0  0  0  0  0  0  0  0  # atno 17370 bound_to 10713
  157.7229  130.9582  150.1511 LP  0  0  0  0  0  0  0  0  0  0  0  0  # atno 17371 bound_to 10713
  139.9712  135.0127  156.9517 LP  0  0  0  0  0  0  0  0  0  0  0  0  # atno 17394 bound_to 11000
  140.5297  134.0826  155.7312 LP  0  0  0  0  0  0  0  0  0  0  0  0  # atno 17395 bound_to 11000

$$$$
