AV-unprocessed.smi:203|AV-procd|sdf|1590|dock3
  -GOLD-   2262019483D 1   1.00000     0.00000
 Structure written by MMmdl.
 57 61  0  0  0  0  0  0  0  0  1 V2000
  143.0021  132.1168  161.0422 O   0  0  0  0  0  0  0  0  0  0  0  0
  144.2219  132.0498  160.9109 C   0  0  0  0  0  0  0  0  0  0  0  0
  145.0037  132.8800  159.9079 C   0  0  0  0  0  0  0  0  0  0  0  0
  146.4757  132.6058  160.2769 C   0  0  1  0  0  0  0  0  0  0  0  0
  147.2377  133.8357  160.8681 C   0  0  2  0  0  0  0  0  0  0  0  0
  146.6753  134.2928  162.2398 C   0  0  0  0  0  0  0  0  0  0  0  0
  147.4561  135.4891  162.8008 C   0  0  0  0  0  0  0  0  0  0  0  0
  147.4603  136.6354  161.7830 C   0  0  0  0  0  0  0  0  0  0  0  0
  148.0193  136.1543  160.4371 C   0  0  0  0  0  0  0  0  0  0  0  0
  147.2892  134.9862  159.9471 N   0  0  0  0  0  0  0  0  0  0  0  0
  147.6341  134.7075  158.6710 C   0  0  0  0  0  0  0  0  0  0  0  0
  148.9450  134.4696  158.4216 N   0  0  0  0  0  0  0  0  0  0  0  0
  149.3554  134.2528  157.1685 C   0  0  0  0  0  0  0  0  0  0  0  0
  148.6353  134.2394  156.0444 N   0  0  0  0  0  0  0  0  0  0  0  0
  147.3140  134.4644  156.2986 C   0  0  0  0  0  0  0  0  0  0  0  0
  146.7283  134.6928  157.5739 C   0  0  0  0  0  0  0  0  0  0  0  0
  145.3576  134.8826  157.4415 N   0  0  0  0  0  0  0  0  0  0  0  0
  145.1491  134.8014  156.1559 C   0  0  0  0  0  0  0  0  0  0  0  0
  146.2728  134.5750  155.3947 N   0  0  0  0  0  0  0  0  0  0  0  0
  146.3421  134.5135  153.9472 C   0  0  0  0  0  0  0  0  0  0  0  0
  145.2267  133.6347  153.3384 C   0  0  2  0  0  0  0  0  0  0  0  0
  145.3848  132.3310  153.8611 O   0  0  0  0  0  0  0  0  0  0  0  0
  145.2325  133.5708  151.7926 C   0  0  1  0  0  0  0  0  0  0  0  0
  146.3843  132.7672  151.1839 C   0  0  0  0  0  0  0  0  0  0  0  0
  145.8484  132.3329  149.8271 C   0  0  0  0  0  0  0  0  0  0  0  0
  144.3419  132.5811  149.9261 C   0  0  0  0  0  0  0  0  0  0  0  0
  144.1141  132.8446  151.3011 O   0  0  0  0  0  0  0  0  0  0  0  0
  146.4307  131.3942  161.2325 C   0  0  0  0  0  0  0  0  0  0  0  0
  145.0362  131.2576  161.6048 N   0  0  0  0  0  0  0  0  0  0  0  0
  144.7811  132.5303  158.8993 H   0  0  0  0  0  0  0  0  0  0  0  0
  144.7319  133.9340  159.9661 H   0  0  0  0  0  0  0  0  0  0  0  0
  146.9945  132.2633  159.3812 H   0  0  0  0  0  0  0  0  0  0  0  0
  148.2685  133.5229  161.0385 H   0  0  0  0  0  0  0  0  0  0  0  0
  145.6262  134.5736  162.1444 H   0  0  0  0  0  0  0  0  0  0  0  0
  146.7074  133.4805  162.9648 H   0  0  0  0  0  0  0  0  0  0  0  0
  147.0136  135.8213  163.7402 H   0  0  0  0  0  0  0  0  0  0  0  0
  148.4805  135.1891  163.0249 H   0  0  0  0  0  0  0  0  0  0  0  0
  146.4451  137.0102  161.6460 H   0  0  0  0  0  0  0  0  0  0  0  0
  148.0536  137.4697  162.1579 H   0  0  0  0  0  0  0  0  0  0  0  0
  147.9596  136.9638  159.7078 H   0  0  0  0  0  0  0  0  0  0  0  0
  149.0751  135.9022  160.5464 H   0  0  0  0  0  0  0  0  0  0  0  0
  150.4142  134.0766  157.0478 H   0  0  0  0  0  0  0  0  0  0  0  0
  144.1685  134.9323  155.7220 H   0  0  0  0  0  0  0  0  0  0  0  0
  146.2783  135.5304  153.5572 H   0  0  0  0  0  0  0  0  0  0  0  0
  147.3248  134.1332  153.6654 H   0  0  0  0  0  0  0  0  0  0  0  0
  144.2561  134.0042  153.6722 H   0  0  0  0  0  0  0  0  0  0  0  0
  144.5972  132.0962  154.3274 H   0  0  0  0  0  0  0  0  0  0  0  0
  145.2224  134.5778  151.3708 H   0  0  0  0  0  0  0  0  0  0  0  0
  147.3054  133.3456  151.1082 H   0  0  0  0  0  0  0  0  0  0  0  0
  146.5908  131.8857  151.7925 H   0  0  0  0  0  0  0  0  0  0  0  0
  146.2823  132.9190  149.0166 H   0  0  0  0  0  0  0  0  0  0  0  0
  146.0725  131.2821  149.6401 H   0  0  0  0  0  0  0  0  0  0  0  0
  144.0528  133.4555  149.3412 H   0  0  0  0  0  0  0  0  0  0  0  0
  143.7504  131.7316  149.5848 H   0  0  0  0  0  0  0  0  0  0  0  0
  146.7457  130.4845  160.7201 H   0  0  0  0  0  0  0  0  0  0  0  0
  147.0665  131.5114  162.1101 H   0  0  0  0  0  0  0  0  0  0  0  0
  144.7257  130.6204  162.3242 H   0  0  0  0  0  0  0  0  0  0  0  0
  1  2  2  0  0  0  0
  2 29  1  0  0  0  0
  2  3  1  0  0  0  0
  3  4  1  0  0  0  0
  3 30  1  0  0  0  0
  3 31  1  0  0  0  0
  4  5  1  0  0  0  0
  4 28  1  0  0  0  0
  4 32  1  0  0  0  0
  5 10  1  0  0  0  0
  5  6  1  0  0  0  0
  5 33  1  0  0  0  0
  6  7  1  0  0  0  0
  6 34  1  0  0  0  0
  6 35  1  0  0  0  0
  7  8  1  0  0  0  0
  7 36  1  0  0  0  0
  7 37  1  0  0  0  0
  8  9  1  0  0  0  0
  8 38  1  0  0  0  0
  8 39  1  0  0  0  0
  9 10  1  0  0  0  0
  9 40  1  0  0  0  0
  9 41  1  0  0  0  0
 10 11  1  0  0  0  0
 11 16  1  0  0  0  0
 11 12  2  0  0  0  0
 12 13  1  0  0  0  0
 13 14  2  0  0  0  0
 13 42  1  0  0  0  0
 14 15  1  0  0  0  0
 15 19  1  0  0  0  0
 15 16  2  0  0  0  0
 16 17  1  0  0  0  0
 17 18  2  0  0  0  0
 18 19  1  0  0  0  0
 18 43  1  0  0  0  0
 19 20  1  0  0  0  0
 20 21  1  0  0  0  0
 20 44  1  0  0  0  0
 20 45  1  0  0  0  0
 21 22  1  0  0  0  0
 21 23  1  0  0  0  0
 21 46  1  0  0  0  0
 22 47  1  0  0  0  0
 23 27  1  0  0  0  0
 23 24  1  0  0  0  0
 23 48  1  0  0  0  0
 24 25  1  0  0  0  0
 24 49  1  0  0  0  0
 24 50  1  0  0  0  0
 25 26  1  0  0  0  0
 25 51  1  0  0  0  0
 25 52  1  0  0  0  0
 26 27  1  0  0  0  0
 26 53  1  0  0  0  0
 26 54  1  0  0  0  0
 28 29  1  0  0  0  0
 28 55  1  0  0  0  0
 28 56  1  0  0  0  0
 29 57  1  0  0  0  0
M  END
> <s_m_source_file>
AV-unprocessed.smi

> <i_m_source_file_index>
203

> <i_lp_mmshare_version>
43012

> <i_f3d_flags>
0

> <s_epik_input>
Tz1DMVtDSDJdW0NASF0oW0NIMl1bTkhdMSlbQ0BASF0yW0NIMl1bQ0gyXVtDSDJdW0NIMl1OMmMobltjSF1uMyljKGMzNCluW2NIXW40W0NIMl1bQ0BIXShbT0hdKVtDQEBIXTVbQ0gyXVtDSDJdW0NIMl1PNQ==

> <s_epik_cmdline>
J2VwaWtfcHl0aG9uJywgJy1waCcsICc3LjAnLCAnLXRuJywgJzgnLCAnLW1hJywgJzIwMCcsICctbWV0YWxfYmluZGluZycsICctaW1hZScsICc8aW5maWxlLm1hZT4nLCAnLW9tYWUnLCAnPG91dGZpbGUubWFlPic=

> <r_lp_tautomer_probability>
1

> <r_epik_Ionization_Penalty>
0.00175146

> <r_epik_Ionization_Penalty_Charging>
0

> <r_epik_Ionization_Penalty_Neutral>
0.00175146

> <r_epik_State_Penalty>
0.00109045

> <r_epik_Charging_Adjusted_Penalty>
0.00109045

> <i_epik_Tot_Q>
0

> <i_epik_Tot_abs_Q>
0

> <r_epik_Metal_State_Penalty>
-0

> <b_epik_Metal_Only>
0

> <s_lp_Force_Field>
OPLS_2005

> <r_lp_Energy>
55.9411

> <b_lp_Chiralities_Consistent>
1

> <s_lp_Variant>
AV-unprocessed.smi:203-9

> <Gold.Version>
5.8.1

> <Gold.Id.Protein>
6NUR|6NUR_protein|mol2

> <Gold.PLP.Fitness>
41.2555

> <Gold.PLP.PLP>
-35.7820

> <Gold.PLP.part.hbond>
-2.7573

> <Gold.PLP.part.metal>
0.0000

> <Gold.PLP.part.buried>
-5.2680

> <Gold.PLP.part.nonpolar>
-28.4691

> <Gold.PLP.part.repulsive>
0.2558

> <Gold.PLP.ligand.clash>
0.0000

> <Gold.PLP.ligand.torsion>
0.4566

> <Gold.PLP.Chemscore.Hbond>
2.0000

> <Gold.PLP.Chemscore.CHOScore>
0.0000

> <Gold.PLP.Chemscore.Metal>
0.0000

> <Gold.Chemscore.Hbonds>
donor molecule, donor type, donor heavy atom, donor atom, acceptor molecule, acceptor atom, score
      L1  H    22    47       P1 10957  0.95
      P1  H  6896  6907       L1    12  1.00

> <Gold.PLP.Chemscore.Internal.Correction>
0.3867

> <Gold.Rescore>
     Score         DG    S(hbond)    S(metal)    S(lipo)     H(rot)  DE(clash)    DE(int)     intcor
     13.54     -14.08       1.62        0.00      86.58       2.72       0.06       0.49       ----

> <Gold.Chemscore.Fitness>
13.5369

> <Gold.Chemscore.DG>
-14.0812

> <Gold.Chemscore.ZeroCoef>
-5.4800

> <Gold.Chemscore.Hbond>
1.6249

> <Gold.Chemscore.Metal>
0.0000

> <Gold.Chemscore.Lipo>
86.5775

> <Gold.Chemscore.Internal_Hbond>
0.0000

> <Gold.Chemscore.DEClash>
0.0554

> <Gold.Chemscore.DEInternal>
0.4889

> <Gold.Chemscore.Rot>
2.7171

> <Gold.Chemscore.Internal.Correction>
   9.000000E+99

> <Gold.Chemscore.Hbonds>
donor molecule, donor type, donor heavy atom, donor atom, acceptor molecule, acceptor atom, score
      L1  H    22    47       P1 10957  0.21
      P1  H  6896  6907       L1    12  0.29

> <Gold.Chemscore.Hbond.Weighted>
-5.4273

> <Gold.Chemscore.Metal.Weighted>
-0.0000

> <Gold.Chemscore.Lipo.Weighted>
-10.1296

> <Gold.Chemscore.Internal_Hbond.Weighted>
0.0000

> <Gold.Chemscore.DEClash.Weighted>
0.0554

> <Gold.Chemscore.DEInternal.Weighted>
0.4889

> <Gold.Chemscore.Rot.Weighted>
6.9557

> <Gold.Chemscore.Internal.Correction.Weighted>
   9.000000E+99

> <Gold.Protein.RotatedTorsions>
[ 6907 6896 6895 6894 ] final  -91.23 input  -60.11 | X-H torsion
[ 7974 7965 7964 7962 ] final   75.82 input  175.53 | X-H torsion
[ 8008 7997 7996 7995 ] final  -72.79 input   59.86 | X-H torsion
[ 10167 10162 10161 10158 ] final  -71.37 input  -65.29 | X-H torsion
[ 10718 10713 10712 10709 ] final  -47.14 input   66.30 | X-H torsion
[ 10763 10752 10751 10750 ] final   82.81 input  -60.55 | X-H torsion
[ 11005 11000 10999 10996 ] final -135.32 input  -57.11 | X-H torsion

> <Gold.Protein.ActiveResidues>
 VAL166  LYS551  ARG553  GLY616  TRP617  ASP618  TYR619  PRO620  LYS621  CYS622 
 ASP623  PHE694  ASN695  SER759  ASP760  ASP761  ALA762  ILE779  LEU786  VAL792 
 PHE793  MET794  SER795  GLU796  ALA797  LYS798  CYS799  TRP800  GLU811  SER814 

> <Gold.Protein.RotatedAtoms>
  150.6890  134.2310  159.4433 H   0  0  0  0  0  0  0  0  0  0  0  0  # atno 6907 bound_to 6896
  152.0260  134.9793  160.0581 H   0  0  0  0  0  0  0  0  0  0  0  0  # atno 6908 bound_to 6896
  152.1351  133.4396  159.4776 H   0  0  0  0  0  0  0  0  0  0  0  0  # atno 6909 bound_to 6896
  145.7107  139.2614  143.1652 H   0  0  0  0  0  0  0  0  0  0  0  0  # atno 7974 bound_to 7965
  154.5195  140.0791  156.8144 H   0  0  0  0  0  0  0  0  0  0  0  0  # atno 8008 bound_to 7997
  155.3608  140.3418  155.4222 H   0  0  0  0  0  0  0  0  0  0  0  0  # atno 8009 bound_to 7997
  156.1665  140.1605  156.8510 H   0  0  0  0  0  0  0  0  0  0  0  0  # atno 8010 bound_to 7997
  140.5279  143.2324  151.7315 H   0  0  0  0  0  0  0  0  0  0  0  0  # atno 10167 bound_to 10162
  156.2114  130.4161  149.9110 H   0  0  0  0  0  0  0  0  0  0  0  0  # atno 10718 bound_to 10713
  153.1235  135.4714  154.9234 H   0  0  0  0  0  0  0  0  0  0  0  0  # atno 10763 bound_to 10752
  154.7598  135.3128  154.8403 H   0  0  0  0  0  0  0  0  0  0  0  0  # atno 10764 bound_to 10752
  153.8961  135.6880  153.4811 H   0  0  0  0  0  0  0  0  0  0  0  0  # atno 10765 bound_to 10752
  140.8909  134.1813  157.4528 H   0  0  0  0  0  0  0  0  0  0  0  0  # atno 11005 bound_to 11000
  146.0715  140.7864  142.9686 LP  0  0  0  0  0  0  0  0  0  0  0  0  # atno 17320 bound_to 7965
  144.6943  140.3349  143.7209 LP  0  0  0  0  0  0  0  0  0  0  0  0  # atno 17321 bound_to 7965
  139.4944  144.4159  152.0031 LP  0  0  0  0  0  0  0  0  0  0  0  0  # atno 17342 bound_to 10162
  140.3259  144.3373  150.5998 LP  0  0  0  0  0  0  0  0  0  0  0  0  # atno 17343 bound_to 10162
  156.6787  130.8849  151.3573 LP  0  0  0  0  0  0  0  0  0  0  0  0  # atno 17370 bound_to 10713
  157.7040  130.9364  150.0873 LP  0  0  0  0  0  0  0  0  0  0  0  0  # atno 17371 bound_to 10713
  139.8729  134.9858  156.5296 LP  0  0  0  0  0  0  0  0  0  0  0  0  # atno 17394 bound_to 11000
  140.8348  133.8250  155.9019 LP  0  0  0  0  0  0  0  0  0  0  0  0  # atno 17395 bound_to 11000

$$$$
