AV-unprocessed.smi:3158|AV-procd|sdf|12041|dock2
  -GOLD-   2272017463D 1   1.00000     0.00000
 Structure written by MMmdl.
 40 40  0  0  0  0  0  0  0  0  2 V2000
  149.9072  140.4672  154.8680 C   0  0  0  0  0  0  0  0  0  0  0  0
  149.5032  139.1020  154.2921 C   0  0  0  0  0  0  0  0  0  0  0  0
  150.3339  137.9276  154.8422 C   0  0  2  0  0  0  0  0  0  0  0  0
  151.6982  137.8220  154.1427 C   0  0  0  0  0  0  0  0  0  0  0  0
  149.5964  136.6750  154.6918 N   0  0  0  0  0  0  0  0  0  0  0  0
  150.0222  135.4672  155.0930 C   0  0  0  0  0  0  0  0  0  0  0  0
  151.1106  135.2801  155.6387 O   0  0  0  0  0  0  0  0  0  0  0  0
  149.0648  134.2921  154.8460 C   0  0  2  0  0  0  0  0  0  0  0  0
  149.7081  132.9817  155.3255 C   0  0  0  0  0  0  0  0  0  0  0  0
  148.6985  134.1750  153.4168 N   0  3  0  0  0  0  0  0  0  0  0  0
  147.3666  133.5864  153.1528 C   0  0  0  0  0  0  0  0  0  0  0  0
  147.2600  133.0662  151.7116 C   0  0  0  0  0  0  0  0  0  0  0  0
  145.8865  132.7711  151.3454 N   0  0  0  0  0  0  0  0  0  0  0  0
  145.3530  131.5755  150.9122 C   0  0  0  0  0  0  0  0  0  0  0  0
  144.0178  131.7768  150.7096 C   0  0  0  0  0  0  0  0  0  0  0  0
  143.8263  133.1451  151.0501 C   0  0  0  0  0  0  0  0  0  0  0  0
  144.9464  133.7369  151.4332 N   0  0  0  0  0  0  0  0  0  0  0  0
  149.3214  141.2665  154.4139 H   0  0  0  0  0  0  0  0  0  0  0  0
  150.9595  140.6781  154.6763 H   0  0  0  0  0  0  0  0  0  0  0  0
  149.7464  140.5138  155.9453 H   0  0  0  0  0  0  0  0  0  0  0  0
  148.4434  138.9293  154.4850 H   0  0  0  0  0  0  0  0  0  0  0  0
  149.6105  139.1381  153.2073 H   0  0  0  0  0  0  0  0  0  0  0  0
  150.5097  138.1146  155.9031 H   0  0  0  0  0  0  0  0  0  0  0  0
  152.2701  138.7429  154.2591 H   0  0  0  0  0  0  0  0  0  0  0  0
  151.5840  137.6350  153.0744 H   0  0  0  0  0  0  0  0  0  0  0  0
  152.2962  137.0120  154.5613 H   0  0  0  0  0  0  0  0  0  0  0  0
  148.6864  136.7375  154.2585 H   0  0  0  0  0  0  0  0  0  0  0  0
  148.1502  134.4524  155.4199 H   0  0  0  0  0  0  0  0  0  0  0  0
  149.9591  133.0264  156.3863 H   0  0  0  0  0  0  0  0  0  0  0  0
  150.6244  132.7603  154.7761 H   0  0  0  0  0  0  0  0  0  0  0  0
  149.0287  132.1401  155.1883 H   0  0  0  0  0  0  0  0  0  0  0  0
  148.7293  135.0998  153.0096 H   0  0  0  0  0  0  0  0  0  0  0  0
  147.1981  132.7701  153.8559 H   0  0  0  0  0  0  0  0  0  0  0  0
  146.5831  134.3241  153.3305 H   0  0  0  0  0  0  0  0  0  0  0  0
  147.6747  133.7879  151.0059 H   0  0  0  0  0  0  0  0  0  0  0  0
  147.8439  132.1515  151.6030 H   0  0  0  0  0  0  0  0  0  0  0  0
  145.9596  130.6904  150.7885 H   0  0  0  0  0  0  0  0  0  0  0  0
  143.2881  131.0564  150.3704 H   0  0  0  0  0  0  0  0  0  0  0  0
  142.9128  133.7211  151.0320 H   0  0  0  0  0  0  0  0  0  0  0  0
  149.3871  133.5990  152.9546 H   0  0  0  0  0  0  0  0  0  0  0  0
  1  2  1  0  0  0  0
  1 18  1  0  0  0  0
  1 19  1  0  0  0  0
  1 20  1  0  0  0  0
  2  3  1  0  0  0  0
  2 21  1  0  0  0  0
  2 22  1  0  0  0  0
  3  4  1  0  0  0  0
  3  5  1  0  0  0  0
  3 23  1  0  0  0  0
  4 24  1  0  0  0  0
  4 25  1  0  0  0  0
  4 26  1  0  0  0  0
  5  6  1  0  0  0  0
  5 27  1  0  0  0  0
  6  7  2  0  0  0  0
  6  8  1  0  0  0  0
  8  9  1  0  0  0  0
  8 10  1  0  0  0  0
  8 28  1  0  0  0  0
  9 29  1  0  0  0  0
  9 30  1  0  0  0  0
  9 31  1  0  0  0  0
 10 11  1  0  0  0  0
 10 32  1  0  0  0  0
 10 40  1  0  0  0  0
 11 12  1  0  0  0  0
 11 33  1  0  0  0  0
 11 34  1  0  0  0  0
 12 13  1  0  0  0  0
 12 35  1  0  0  0  0
 12 36  1  0  0  0  0
 13 17  1  0  0  0  0
 13 14  1  0  0  0  0
 14 15  2  0  0  0  0
 14 37  1  0  0  0  0
 15 16  1  0  0  0  0
 15 38  1  0  0  0  0
 16 17  2  0  0  0  0
 16 39  1  0  0  0  0
M  CHG  1  10   1
M  END
> <s_m_source_file>
AV-unprocessed.smi

> <i_m_source_file_index>
3158

> <i_lp_mmshare_version>
43012

> <i_f3d_flags>
0

> <s_epik_input>
W0NIM11bQ0gyXVtDQEhdKFtDSDNdKVtOSF1DKD1PKVtDQEhdKFtDSDNdKVtOSF1bQ0gyXVtDSDJdbjFbY0hdW2NIXVtjSF1uMQ==

> <s_epik_cmdline>
J2VwaWtfcHl0aG9uJywgJy1waCcsICc3LjAnLCAnLXRuJywgJzgnLCAnLW1hJywgJzIwMCcsICctbWV0YWxfYmluZGluZycsICctaW1hZScsICc8aW5maWxlLm1hZT4nLCAnLW9tYWUnLCAnPG91dGZpbGUubWFlPic=

> <r_lp_tautomer_probability>
1

> <r_epik_Ionization_Penalty>
0.20724

> <r_epik_Ionization_Penalty_Charging>
0.207237

> <r_epik_Ionization_Penalty_Neutral>
3.33806e-06

> <r_epik_State_Penalty>
0.197234

> <r_epik_Charging_Adjusted_Penalty>
0.404471

> <i_epik_Tot_Q>
1

> <i_epik_Tot_abs_Q>
1

> <r_epik_Metal_State_Penalty>
0.197524

> <b_epik_Metal_Only>
0

> <s_lp_Force_Field>
OPLS_2005

> <r_lp_Energy>
5.42496

> <b_lp_Chiralities_Consistent>
1

> <s_lp_Variant>
AV-unprocessed.smi:3158-1

> <Gold.Version>
5.8.1

> <Gold.Id.Protein>
6NUR|6NUR_protein|mol2

> <Gold.PLP.Fitness>
43.2843

> <Gold.PLP.PLP>
-32.5517

> <Gold.PLP.part.hbond>
-2.9577

> <Gold.PLP.part.metal>
0.0000

> <Gold.PLP.part.buried>
-2.0895

> <Gold.PLP.part.nonpolar>
-27.7486

> <Gold.PLP.part.repulsive>
0.2082

> <Gold.PLP.ligand.clash>
0.0000

> <Gold.PLP.ligand.torsion>
0.6933

> <Gold.PLP.Chemscore.Hbond>
3.0000

> <Gold.PLP.Chemscore.CHOScore>
1.0000

> <Gold.PLP.Chemscore.Metal>
0.0000

> <Gold.Chemscore.Hbonds>
donor molecule, donor type, donor heavy atom, donor atom, acceptor molecule, acceptor atom, score
      L1  H    10    32       P1  7948  2.00
      P1  H 10752 10765       L1     7  0.91
      L1  C    16    39       P1 10186  1.00

> <Gold.PLP.Chemscore.Internal.Correction>
0.1191

> <Gold.Rescore>
     Score         DG    S(hbond)    S(metal)    S(lipo)     H(rot)  DE(clash)    DE(int)     intcor
     12.99     -14.22       1.60        0.00      77.53       2.21       0.52       0.71       ----

> <Gold.Chemscore.Fitness>
12.9893

> <Gold.Chemscore.DG>
-14.2209

> <Gold.Chemscore.ZeroCoef>
-5.4800

> <Gold.Chemscore.Hbond>
1.5976

> <Gold.Chemscore.Metal>
0.0000

> <Gold.Chemscore.Lipo>
77.5263

> <Gold.Chemscore.Internal_Hbond>
0.0000

> <Gold.Chemscore.DEClash>
0.5180

> <Gold.Chemscore.DEInternal>
0.7136

> <Gold.Chemscore.Rot>
2.2132

> <Gold.Chemscore.Internal.Correction>
   9.000000E+99

> <Gold.Chemscore.Hbonds>
donor molecule, donor type, donor heavy atom, donor atom, acceptor molecule, acceptor atom, score
      L1  H     5    27       P1  7948  0.01
      L1  H    10    32       P1  7948  0.48
      P1  H 10752 10765       L1     7  0.84

> <Gold.Chemscore.Hbond.Weighted>
-5.3361

> <Gold.Chemscore.Metal.Weighted>
-0.0000

> <Gold.Chemscore.Lipo.Weighted>
-9.0706

> <Gold.Chemscore.Internal_Hbond.Weighted>
0.0000

> <Gold.Chemscore.DEClash.Weighted>
0.5180

> <Gold.Chemscore.DEInternal.Weighted>
0.7136

> <Gold.Chemscore.Rot.Weighted>
5.6658

> <Gold.Chemscore.Internal.Correction.Weighted>
   9.000000E+99

> <Gold.Protein.RotatedTorsions>
[ 6907 6896 6895 6894 ] final  -10.83 input  -60.11 | X-H torsion
[ 7974 7965 7964 7962 ] final   20.68 input  175.53 | X-H torsion
[ 8008 7997 7996 7995 ] final    3.47 input   59.86 | X-H torsion
[ 10167 10162 10161 10158 ] final  112.55 input  -65.29 | X-H torsion
[ 10718 10713 10712 10709 ] final   22.65 input   66.30 | X-H torsion
[ 10763 10752 10751 10750 ] final -161.53 input  -60.55 | X-H torsion
[ 11005 11000 10999 10996 ] final  104.30 input  -57.11 | X-H torsion

> <Gold.Protein.ActiveResidues>
 VAL166  LYS551  ARG553  GLY616  TRP617  ASP618  TYR619  PRO620  LYS621  CYS622 
 ASP623  PHE694  ASN695  SER759  ASP760  ASP761  ALA762  ILE779  LEU786  VAL792 
 PHE793  MET794  SER795  GLU796  ALA797  LYS798  CYS799  TRP800  GLU811  SER814 

> <Gold.Protein.RotatedAtoms>
  151.3957  135.0963  159.9539 H   0  0  0  0  0  0  0  0  0  0  0  0  # atno 6907 bound_to 6896
  152.5066  133.8936  159.7417 H   0  0  0  0  0  0  0  0  0  0  0  0  # atno 6908 bound_to 6896
  150.9400  133.6612  159.2821 H   0  0  0  0  0  0  0  0  0  0  0  0  # atno 6909 bound_to 6896
  146.2102  139.8135  142.8695 H   0  0  0  0  0  0  0  0  0  0  0  0  # atno 7974 bound_to 7965
  154.7040  140.2679  155.6692 H   0  0  0  0  0  0  0  0  0  0  0  0  # atno 8008 bound_to 7997
  156.2774  140.2766  156.1584 H   0  0  0  0  0  0  0  0  0  0  0  0  # atno 8009 bound_to 7997
  155.0725  140.0372  157.2603 H   0  0  0  0  0  0  0  0  0  0  0  0  # atno 8010 bound_to 7997
  139.6527  144.7128  151.2017 H   0  0  0  0  0  0  0  0  0  0  0  0  # atno 10167 bound_to 10162
  157.1552  130.6692  149.6025 H   0  0  0  0  0  0  0  0  0  0  0  0  # atno 10718 bound_to 10713
  154.7295  135.3043  154.8915 H   0  0  0  0  0  0  0  0  0  0  0  0  # atno 10763 bound_to 10752
  153.9762  135.6736  153.4752 H   0  0  0  0  0  0  0  0  0  0  0  0  # atno 10764 bound_to 10752
  153.0905  135.4961  154.8602 H   0  0  0  0  0  0  0  0  0  0  0  0  # atno 10765 bound_to 10752
  139.8791  134.9295  156.5341 H   0  0  0  0  0  0  0  0  0  0  0  0  # atno 11005 bound_to 11000
  145.3171  141.0234  143.3522 LP  0  0  0  0  0  0  0  0  0  0  0  0  # atno 17320 bound_to 7965
  144.8894  139.4795  143.6685 LP  0  0  0  0  0  0  0  0  0  0  0  0  # atno 17321 bound_to 7965
  140.7545  143.6123  150.8593 LP  0  0  0  0  0  0  0  0  0  0  0  0  # atno 17342 bound_to 10162
  139.9773  143.5990  152.2954 LP  0  0  0  0  0  0  0  0  0  0  0  0  # atno 17343 bound_to 10162
  155.9763  130.4731  150.6521 LP  0  0  0  0  0  0  0  0  0  0  0  0  # atno 17370 bound_to 10713
  157.4184  131.0833  151.1155 LP  0  0  0  0  0  0  0  0  0  0  0  0  # atno 17371 bound_to 10713
  140.8359  133.8243  155.9028 LP  0  0  0  0  0  0  0  0  0  0  0  0  # atno 17394 bound_to 11000
  140.9284  134.2053  157.4880 LP  0  0  0  0  0  0  0  0  0  0  0  0  # atno 17395 bound_to 11000

$$$$
