AV-unprocessed.smi:1225|AV-procd|sdf|5138|dock9
  -GOLD-   22720 4203D 1   1.00000     0.00000
 Structure written by MMmdl.
 49 51  0  0  0  0  0  0  0  0  2 V2000
  150.2059  130.5627  154.7781 C   0  0  0  0  0  0  0  0  0  0  0  0
  149.8276  132.0043  154.7906 C   0  0  0  0  0  0  0  0  0  0  0  0
  149.0989  132.5863  153.8355 N   0  0  0  0  0  0  0  0  0  0  0  0
  148.8822  133.9438  154.0833 C   0  0  0  0  0  0  0  0  0  0  0  0
  149.4522  134.3942  155.2485 C   0  0  0  0  0  0  0  0  0  0  0  0
  149.4120  135.7828  155.8035 C   0  0  0  0  0  0  0  0  0  0  0  0
  150.6794  136.5053  155.6835 N   0  0  0  0  0  0  0  0  0  0  0  0
  151.3878  136.5411  156.9629 C   0  0  0  0  0  0  0  0  0  0  0  0
  150.4512  137.8521  155.1544 C   0  0  0  0  0  0  0  0  0  0  0  0
  151.7205  138.6900  154.9036 C   0  0  2  0  0  0  0  0  0  0  0  0
  152.7424  137.8166  154.4673 O   0  0  0  0  0  0  0  0  0  0  0  0
  152.1971  139.4284  156.1712 C   0  0  0  0  0  0  0  0  0  0  0  0
  151.5019  140.7041  156.3840 N   0  0  0  0  0  0  0  0  0  0  0  0
  150.5783  141.3399  155.6130 C   0  0  0  0  0  0  0  0  0  0  0  0
  150.2422  142.4973  156.2479 N   0  3  0  0  0  0  0  0  0  0  0  0
  150.9652  142.6028  157.4384 C   0  0  0  0  0  0  0  0  0  0  0  0
  150.9716  143.5896  158.4170 C   0  0  0  0  0  0  0  0  0  0  0  0
  151.8325  143.3971  159.5215 C   0  0  0  0  0  0  0  0  0  0  0  0
  151.8633  144.4572  160.6094 C   0  0  0  0  0  0  0  0  0  0  0  0
  152.6511  142.2416  159.6171 C   0  0  0  0  0  0  0  0  0  0  0  0
  153.5727  142.0444  160.8088 C   0  0  0  0  0  0  0  0  0  0  0  0
  152.6307  141.2498  158.6107 C   0  0  0  0  0  0  0  0  0  0  0  0
  151.7763  141.4556  157.5306 C   0  0  0  0  0  0  0  0  0  0  0  0
  150.3002  133.1108  156.0741 S   0  0  0  0  0  0  0  0  0  0  0  0
  149.9021  130.0931  153.8419 H   0  0  0  0  0  0  0  0  0  0  0  0
  149.7192  130.0438  155.6039 H   0  0  0  0  0  0  0  0  0  0  0  0
  151.2857  130.4595  154.8863 H   0  0  0  0  0  0  0  0  0  0  0  0
  148.3044  134.5185  153.3746 H   0  0  0  0  0  0  0  0  0  0  0  0
  148.6314  136.3296  155.2735 H   0  0  0  0  0  0  0  0  0  0  0  0
  149.1002  135.7542  156.8487 H   0  0  0  0  0  0  0  0  0  0  0  0
  152.3672  137.0062  156.8640 H   0  0  0  0  0  0  0  0  0  0  0  0
  151.5596  135.5357  157.3475 H   0  0  0  0  0  0  0  0  0  0  0  0
  150.8207  137.0956  157.7116 H   0  0  0  0  0  0  0  0  0  0  0  0
  149.9142  137.7783  154.2074 H   0  0  0  0  0  0  0  0  0  0  0  0
  149.7861  138.3940  155.8293 H   0  0  0  0  0  0  0  0  0  0  0  0
  151.5527  139.4008  154.0956 H   0  0  0  0  0  0  0  0  0  0  0  0
  152.3814  137.2365  153.8147 H   0  0  0  0  0  0  0  0  0  0  0  0
  152.0588  138.8127  157.0610 H   0  0  0  0  0  0  0  0  0  0  0  0
  153.2650  139.6420  156.1077 H   0  0  0  0  0  0  0  0  0  0  0  0
  150.1829  140.9887  154.6705 H   0  0  0  0  0  0  0  0  0  0  0  0
  150.3459  144.4665  158.3371 H   0  0  0  0  0  0  0  0  0  0  0  0
  151.5414  144.0362  161.5621 H   0  0  0  0  0  0  0  0  0  0  0  0
  151.2020  145.2912  160.3725 H   0  0  0  0  0  0  0  0  0  0  0  0
  152.8710  144.8558  160.7290 H   0  0  0  0  0  0  0  0  0  0  0  0
  154.1103  141.0979  160.7449 H   0  0  0  0  0  0  0  0  0  0  0  0
  153.0032  142.0407  161.7383 H   0  0  0  0  0  0  0  0  0  0  0  0
  154.3113  142.8449  160.8573 H   0  0  0  0  0  0  0  0  0  0  0  0
  153.2537  140.3702  158.6812 H   0  0  0  0  0  0  0  0  0  0  0  0
  149.5700  143.1648  155.8917 H   0  0  0  0  0  0  0  0  0  0  0  0
  1  2  1  0  0  0  0
  1 25  1  0  0  0  0
  1 26  1  0  0  0  0
  1 27  1  0  0  0  0
  2 24  1  0  0  0  0
  2  3  2  0  0  0  0
  3  4  1  0  0  0  0
  4  5  2  0  0  0  0
  4 28  1  0  0  0  0
  5  6  1  0  0  0  0
  5 24  1  0  0  0  0
  6  7  1  0  0  0  0
  6 29  1  0  0  0  0
  6 30  1  0  0  0  0
  7  8  1  0  0  0  0
  7  9  1  0  0  0  0
  8 31  1  0  0  0  0
  8 32  1  0  0  0  0
  8 33  1  0  0  0  0
  9 10  1  0  0  0  0
  9 34  1  0  0  0  0
  9 35  1  0  0  0  0
 10 11  1  0  0  0  0
 10 12  1  0  0  0  0
 10 36  1  0  0  0  0
 11 37  1  0  0  0  0
 12 13  1  0  0  0  0
 12 38  1  0  0  0  0
 12 39  1  0  0  0  0
 13 23  1  0  0  0  0
 13 14  1  0  0  0  0
 14 15  2  0  0  0  0
 14 40  1  0  0  0  0
 15 16  1  0  0  0  0
 15 49  1  0  0  0  0
 16 23  2  0  0  0  0
 16 17  1  0  0  0  0
 17 18  2  0  0  0  0
 17 41  1  0  0  0  0
 18 19  1  0  0  0  0
 18 20  1  0  0  0  0
 19 42  1  0  0  0  0
 19 43  1  0  0  0  0
 19 44  1  0  0  0  0
 20 21  1  0  0  0  0
 20 22  2  0  0  0  0
 21 45  1  0  0  0  0
 21 46  1  0  0  0  0
 21 47  1  0  0  0  0
 22 23  1  0  0  0  0
 22 48  1  0  0  0  0
M  CHG  1  15   1
M  END
> <s_m_source_file>
AV-unprocessed.smi

> <i_m_source_file_index>
1225

> <i_lp_mmshare_version>
43012

> <i_f3d_flags>
0

> <s_epik_input>
W0NIM11jMW5bY0hdYyhzMSlbQ0gyXU4oW0NIM10pW0NIMl1bQ0BIXShbT0hdKVtDSDJdbihbY0hdbjIpYyhjMjMpW2NIXWMoW0NIM10pYyhbY0hdMylbQ0gzXQ==

> <s_epik_cmdline>
J2VwaWtfcHl0aG9uJywgJy1waCcsICc3LjAnLCAnLXRuJywgJzgnLCAnLW1hJywgJzIwMCcsICctbWV0YWxfYmluZGluZycsICctaW1hZScsICc8aW5maWxlLm1hZT4nLCAnLW9tYWUnLCAnPG91dGZpbGUubWFlPic=

> <r_epik_Ionization_Penalty>
1.25968

> <r_epik_Ionization_Penalty_Charging>
1.21782

> <r_epik_Ionization_Penalty_Neutral>
0.0418565

> <r_epik_State_Penalty>
1.29962

> <r_epik_Charging_Adjusted_Penalty>
2.51745

> <i_epik_Tot_Q>
1

> <i_epik_Tot_abs_Q>
1

> <r_epik_Metal_State_Penalty>
1.36802

> <b_epik_Metal_Only>
0

> <s_lp_Force_Field>
OPLS_2005

> <r_lp_Energy>
21.2232

> <b_lp_Chiralities_Consistent>
1

> <s_lp_Variant>
AV-unprocessed.smi:1225-3

> <Gold.Version>
5.8.1

> <Gold.Id.Protein>
6NUR|6NUR_protein|mol2

> <Gold.PLP.Fitness>
57.1840

> <Gold.PLP.PLP>
-50.6328

> <Gold.PLP.part.hbond>
-2.0000

> <Gold.PLP.part.metal>
0.0000

> <Gold.PLP.part.buried>
-6.5240

> <Gold.PLP.part.nonpolar>
-40.9599

> <Gold.PLP.part.repulsive>
0.2932

> <Gold.PLP.ligand.clash>
0.0000

> <Gold.PLP.ligand.torsion>
1.3434

> <Gold.PLP.Chemscore.Hbond>
2.0000

> <Gold.PLP.Chemscore.CHOScore>
1.0000

> <Gold.PLP.Chemscore.Metal>
0.0000

> <Gold.Chemscore.Hbonds>
donor molecule, donor type, donor heavy atom, donor atom, acceptor molecule, acceptor atom, score
      L1  H    15    49       P1  8028  2.00
      L1  C     4    28       P1  7948  1.00

> <Gold.PLP.Chemscore.Internal.Correction>
0.2379

> <Gold.Rescore>
     Score         DG    S(hbond)    S(metal)    S(lipo)     H(rot)  DE(clash)    DE(int)     intcor
     16.89     -18.22       1.00        0.00     132.13       2.36       0.02       1.31       ----

> <Gold.Chemscore.Fitness>
16.8905

> <Gold.Chemscore.DG>
-18.2219

> <Gold.Chemscore.ZeroCoef>
-5.4800

> <Gold.Chemscore.Hbond>
0.9991

> <Gold.Chemscore.Metal>
0.0000

> <Gold.Chemscore.Lipo>
132.1277

> <Gold.Chemscore.Internal_Hbond>
0.0000

> <Gold.Chemscore.DEClash>
0.0219

> <Gold.Chemscore.DEInternal>
1.3094

> <Gold.Chemscore.Rot>
2.3649

> <Gold.Chemscore.Internal.Correction>
   9.000000E+99

> <Gold.Chemscore.Hbonds>
donor molecule, donor type, donor heavy atom, donor atom, acceptor molecule, acceptor atom, score
      L1  H    15    49       P1  8028  0.98

> <Gold.Chemscore.Hbond.Weighted>
-3.3369

> <Gold.Chemscore.Metal.Weighted>
-0.0000

> <Gold.Chemscore.Lipo.Weighted>
-15.4589

> <Gold.Chemscore.Internal_Hbond.Weighted>
0.0000

> <Gold.Chemscore.DEClash.Weighted>
0.0219

> <Gold.Chemscore.DEInternal.Weighted>
1.3094

> <Gold.Chemscore.Rot.Weighted>
6.0540

> <Gold.Chemscore.Internal.Correction.Weighted>
   9.000000E+99

> <Gold.Protein.RotatedTorsions>
[ 6907 6896 6895 6894 ] final  123.34 input  -60.11 | X-H torsion
[ 7974 7965 7964 7962 ] final    9.16 input  175.53 | X-H torsion
[ 8008 7997 7996 7995 ] final   43.37 input   59.86 | X-H torsion
[ 10167 10162 10161 10158 ] final  -89.00 input  -65.29 | X-H torsion
[ 10718 10713 10712 10709 ] final   39.59 input   66.30 | X-H torsion
[ 10763 10752 10751 10750 ] final  -43.69 input  -60.55 | X-H torsion
[ 11005 11000 10999 10996 ] final  -25.03 input  -57.11 | X-H torsion

> <Gold.Protein.ActiveResidues>
 VAL166  LYS551  ARG553  GLY616  TRP617  ASP618  TYR619  PRO620  LYS621  CYS622 
 ASP623  PHE694  ASN695  SER759  ASP760  ASP761  ALA762  ILE779  LEU786  VAL792 
 PHE793  MET794  SER795  GLU796  ALA797  LYS798  CYS799  TRP800  GLU811  SER814 

> <Gold.Protein.RotatedAtoms>
  152.4169  133.7053  159.6447 H   0  0  0  0  0  0  0  0  0  0  0  0  # atno 6907 bound_to 6896
  150.8046  133.8523  159.3217 H   0  0  0  0  0  0  0  0  0  0  0  0  # atno 6908 bound_to 6896
  151.6250  135.1030  160.0161 H   0  0  0  0  0  0  0  0  0  0  0  0  # atno 6909 bound_to 6896
  146.2407  139.9825  142.8434 H   0  0  0  0  0  0  0  0  0  0  0  0  # atno 7974 bound_to 7965
  155.3016  140.3385  155.4247 H   0  0  0  0  0  0  0  0  0  0  0  0  # atno 8008 bound_to 7997
  156.1998  140.1729  156.7961 H   0  0  0  0  0  0  0  0  0  0  0  0  # atno 8009 bound_to 7997
  154.5545  140.0699  156.8705 H   0  0  0  0  0  0  0  0  0  0  0  0  # atno 8010 bound_to 7997
  140.3692  143.2803  151.9521 H   0  0  0  0  0  0  0  0  0  0  0  0  # atno 10167 bound_to 10162
  157.3723  130.7708  149.7128 H   0  0  0  0  0  0  0  0  0  0  0  0  # atno 10718 bound_to 10713
  153.9997  135.6695  153.4758 H   0  0  0  0  0  0  0  0  0  0  0  0  # atno 10763 bound_to 10752
  153.0668  135.4996  154.8213 H   0  0  0  0  0  0  0  0  0  0  0  0  # atno 10764 bound_to 10752
  154.7060  135.3088  154.9233 H   0  0  0  0  0  0  0  0  0  0  0  0  # atno 10765 bound_to 10752
  140.8900  133.7595  156.0409 H   0  0  0  0  0  0  0  0  0  0  0  0  # atno 11005 bound_to 11000
  145.1578  140.9657  143.4395 LP  0  0  0  0  0  0  0  0  0  0  0  0  # atno 17320 bound_to 7965
  145.0144  139.3480  143.6104 LP  0  0  0  0  0  0  0  0  0  0  0  0  # atno 17321 bound_to 7965
  139.4805  144.5922  151.7751 LP  0  0  0  0  0  0  0  0  0  0  0  0  # atno 17342 bound_to 10162
  140.5050  144.1111  150.5980 LP  0  0  0  0  0  0  0  0  0  0  0  0  # atno 17343 bound_to 10162
  155.9758  130.4084  150.3824 LP  0  0  0  0  0  0  0  0  0  0  0  0  # atno 17370 bound_to 10713
  157.1916  131.0416  151.2697 LP  0  0  0  0  0  0  0  0  0  0  0  0  # atno 17371 bound_to 10713
  140.8358  134.3125  157.5332 LP  0  0  0  0  0  0  0  0  0  0  0  0  # atno 17394 bound_to 11000
  139.8728  134.9388  156.3726 LP  0  0  0  0  0  0  0  0  0  0  0  0  # atno 17395 bound_to 11000

$$$$
