AV-unprocessed.smi:1539|AV-procd|sdf|6197|dock6
  -GOLD-   22720 6363D 1   1.00000     0.00000
 Structure written by MMmdl.
 41 42  0  0  0  0  0  0  0  0  1 V2000
  153.3852  137.8577  156.2735 C   0  0  0  0  0  0  0  0  0  0  0  0
  152.5327  138.5413  155.2017 C   0  0  0  0  0  0  0  0  0  0  0  0
  152.9623  139.5761  154.6908 O   0  0  0  0  0  0  0  0  0  0  0  0
  151.3375  137.9999  154.8596 N   0  0  0  0  0  0  0  0  0  0  0  0
  150.4498  138.6501  153.8840 C   0  0  0  0  0  0  0  0  0  0  0  0
  149.5418  139.6996  154.5602 C   0  0  0  0  0  0  0  0  0  0  0  0
  148.6584  139.1182  155.6865 C   0  0  0  0  0  0  0  0  0  0  0  0
  149.4729  138.5557  156.7810 N   0  0  0  0  0  0  0  0  0  0  0  0
  149.9903  139.2716  157.8137 C   0  0  0  0  0  0  0  0  0  0  0  0
  150.4075  138.7566  158.8522 O   0  0  0  0  0  0  0  0  0  0  0  0
  150.0383  140.5994  157.6082 N   0  0  0  0  0  0  0  0  0  0  0  0
  150.5718  141.5757  158.5501 C   0  0  0  0  0  0  0  0  0  0  0  0
  151.0331  142.8534  157.8312 C   0  0  0  0  0  0  0  0  0  0  0  0
  151.3718  143.8998  158.7737 N   0  0  0  0  0  0  0  0  0  0  0  0
  152.3183  143.8383  159.7876 C   0  0  0  0  0  0  0  0  0  0  0  0
  152.2947  145.0599  160.4217 C   0  0  0  0  0  0  0  0  0  0  0  0
  151.3480  145.8839  159.8171 N   0  0  0  0  0  0  0  0  0  0  0  0
  150.8428  145.1286  158.8501 C   0  0  0  0  0  0  0  0  0  0  0  0
  149.7504  137.1159  156.6244 C   0  0  0  0  0  0  0  0  0  0  0  0
  150.7586  136.7983  155.4865 C   0  0  0  0  0  0  0  0  0  0  0  0
  152.8132  137.7007  157.1879 H   0  0  0  0  0  0  0  0  0  0  0  0
  154.2498  138.4727  156.5256 H   0  0  0  0  0  0  0  0  0  0  0  0
  153.7523  136.8955  155.9161 H   0  0  0  0  0  0  0  0  0  0  0  0
  151.0296  139.1206  153.0880 H   0  0  0  0  0  0  0  0  0  0  0  0
  149.8301  137.9083  153.3793 H   0  0  0  0  0  0  0  0  0  0  0  0
  150.1525  140.5147  154.9501 H   0  0  0  0  0  0  0  0  0  0  0  0
  148.8988  140.1476  153.8023 H   0  0  0  0  0  0  0  0  0  0  0  0
  147.9730  139.8804  156.0600 H   0  0  0  0  0  0  0  0  0  0  0  0
  148.0105  138.3472  155.2676 H   0  0  0  0  0  0  0  0  0  0  0  0
  149.6900  140.9543  156.7294 H   0  0  0  0  0  0  0  0  0  0  0  0
  149.8249  141.8108  159.3106 H   0  0  0  0  0  0  0  0  0  0  0  0
  151.4119  141.1177  159.0731 H   0  0  0  0  0  0  0  0  0  0  0  0
  151.9059  142.6492  157.2094 H   0  0  0  0  0  0  0  0  0  0  0  0
  150.2514  143.2278  157.1685 H   0  0  0  0  0  0  0  0  0  0  0  0
  152.9134  142.9550  159.9682 H   0  0  0  0  0  0  0  0  0  0  0  0
  152.8821  145.4068  161.2592 H   0  0  0  0  0  0  0  0  0  0  0  0
  150.0709  145.4785  158.1800 H   0  0  0  0  0  0  0  0  0  0  0  0
  150.1201  136.6758  157.5515 H   0  0  0  0  0  0  0  0  0  0  0  0
  148.8130  136.5898  156.4379 H   0  0  0  0  0  0  0  0  0  0  0  0
  150.2476  136.2131  154.7208 H   0  0  0  0  0  0  0  0  0  0  0  0
  151.5275  136.1191  155.8539 H   0  0  0  0  0  0  0  0  0  0  0  0
  1  2  1  0  0  0  0
  1 21  1  0  0  0  0
  1 22  1  0  0  0  0
  1 23  1  0  0  0  0
  2  3  2  0  0  0  0
  2  4  1  0  0  0  0
  4 20  1  0  0  0  0
  4  5  1  0  0  0  0
  5  6  1  0  0  0  0
  5 24  1  0  0  0  0
  5 25  1  0  0  0  0
  6  7  1  0  0  0  0
  6 26  1  0  0  0  0
  6 27  1  0  0  0  0
  7  8  1  0  0  0  0
  7 28  1  0  0  0  0
  7 29  1  0  0  0  0
  8  9  1  0  0  0  0
  8 19  1  0  0  0  0
  9 10  2  0  0  0  0
  9 11  1  0  0  0  0
 11 12  1  0  0  0  0
 11 30  1  0  0  0  0
 12 13  1  0  0  0  0
 12 31  1  0  0  0  0
 12 32  1  0  0  0  0
 13 14  1  0  0  0  0
 13 33  1  0  0  0  0
 13 34  1  0  0  0  0
 14 18  1  0  0  0  0
 14 15  1  0  0  0  0
 15 16  2  0  0  0  0
 15 35  1  0  0  0  0
 16 17  1  0  0  0  0
 16 36  1  0  0  0  0
 17 18  2  0  0  0  0
 18 37  1  0  0  0  0
 19 20  1  0  0  0  0
 19 38  1  0  0  0  0
 19 39  1  0  0  0  0
 20 40  1  0  0  0  0
 20 41  1  0  0  0  0
M  END
> <s_m_source_file>
AV-unprocessed.smi

> <i_m_source_file_index>
1539

> <i_lp_mmshare_version>
43012

> <i_f3d_flags>
0

> <s_epik_input>
W0NIM11DKD1PKU4xW0NIMl1bQ0gyXVtDSDJdTihbQ0gyXVtDSDJdMSlDKD1PKVtOSF1bQ0gyXVtDSDJdbjJbY0hdW2NIXW5bY0hdMg==

> <s_epik_cmdline>
J2VwaWtfcHl0aG9uJywgJy1waCcsICc3LjAnLCAnLXRuJywgJzgnLCAnLW1hJywgJzIwMCcsICctbWV0YWxfYmluZGluZycsICctaW1hZScsICc8aW5maWxlLm1hZT4nLCAnLW9tYWUnLCAnPG91dGZpbGUubWFlPic=

> <r_lp_tautomer_probability>
1

> <r_epik_Ionization_Penalty>
0.624284

> <r_epik_Ionization_Penalty_Charging>
0.624238

> <r_epik_Ionization_Penalty_Neutral>
4.66445e-05

> <r_epik_State_Penalty>
0.64053

> <r_epik_Charging_Adjusted_Penalty>
1.26477

> <i_epik_Tot_Q>
0

> <i_epik_Tot_abs_Q>
0

> <r_epik_Metal_State_Penalty>
0.307534

> <b_epik_Metal_Only>
0

> <s_lp_Force_Field>
OPLS_2005

> <r_lp_Energy>
41.7081

> <b_lp_Chiralities_Consistent>
1

> <s_lp_Variant>
AV-unprocessed.smi:1539-2

> <Gold.Version>
5.8.1

> <Gold.Id.Protein>
6NUR|6NUR_protein|mol2

> <Gold.PLP.Fitness>
41.2994

> <Gold.PLP.PLP>
-35.1473

> <Gold.PLP.part.hbond>
-4.2393

> <Gold.PLP.part.metal>
0.0000

> <Gold.PLP.part.buried>
-4.4049

> <Gold.PLP.part.nonpolar>
-27.5473

> <Gold.PLP.part.repulsive>
0.3386

> <Gold.PLP.ligand.clash>
0.0000

> <Gold.PLP.ligand.torsion>
0.3572

> <Gold.PLP.Chemscore.Hbond>
1.2839

> <Gold.PLP.Chemscore.CHOScore>
1.0000

> <Gold.PLP.Chemscore.Metal>
0.0000

> <Gold.Chemscore.Hbonds>
donor molecule, donor type, donor heavy atom, donor atom, acceptor molecule, acceptor atom, score
      P1  H  7989  7998       L1     3  0.28
      P1  H  7997  8009       L1     3  1.00
      L1  C    18    37       P1  8029  1.00

> <Gold.PLP.Chemscore.Internal.Correction>
0.0147

> <Gold.Rescore>
     Score         DG    S(hbond)    S(metal)    S(lipo)     H(rot)  DE(clash)    DE(int)     intcor
     12.02     -12.36       1.00        0.00      66.43       1.65       0.00       0.33       ----

> <Gold.Chemscore.Fitness>
12.0203

> <Gold.Chemscore.DG>
-12.3579

> <Gold.Chemscore.ZeroCoef>
-5.4800

> <Gold.Chemscore.Hbond>
0.9982

> <Gold.Chemscore.Metal>
0.0000

> <Gold.Chemscore.Lipo>
66.4264

> <Gold.Chemscore.Internal_Hbond>
0.0000

> <Gold.Chemscore.DEClash>
0.0038

> <Gold.Chemscore.DEInternal>
0.3338

> <Gold.Chemscore.Rot>
1.6516

> <Gold.Chemscore.Internal.Correction>
   9.000000E+99

> <Gold.Chemscore.Hbonds>
donor molecule, donor type, donor heavy atom, donor atom, acceptor molecule, acceptor atom, score
      P1  H  7989  7998       L1     3  0.26
      P1  H  7997  8009       L1     3  0.67

> <Gold.Chemscore.Hbond.Weighted>
-3.3341

> <Gold.Chemscore.Metal.Weighted>
-0.0000

> <Gold.Chemscore.Lipo.Weighted>
-7.7719

> <Gold.Chemscore.Internal_Hbond.Weighted>
0.0000

> <Gold.Chemscore.DEClash.Weighted>
0.0038

> <Gold.Chemscore.DEInternal.Weighted>
0.3338

> <Gold.Chemscore.Rot.Weighted>
4.2280

> <Gold.Chemscore.Internal.Correction.Weighted>
   9.000000E+99

> <Gold.Protein.RotatedTorsions>
[ 6907 6896 6895 6894 ] final   84.09 input  -60.11 | X-H torsion
[ 7974 7965 7964 7962 ] final  -24.14 input  175.53 | X-H torsion
[ 8008 7997 7996 7995 ] final -126.74 input   59.86 | X-H torsion
[ 10167 10162 10161 10158 ] final  -15.73 input  -65.29 | X-H torsion
[ 10718 10713 10712 10709 ] final  -10.83 input   66.30 | X-H torsion
[ 10763 10752 10751 10750 ] final   63.30 input  -60.55 | X-H torsion
[ 11005 11000 10999 10996 ] final -117.56 input  -57.11 | X-H torsion

> <Gold.Protein.ActiveResidues>
 VAL166  LYS551  ARG553  GLY616  TRP617  ASP618  TYR619  PRO620  LYS621  CYS622 
 ASP623  PHE694  ASN695  SER759  ASP760  ASP761  ALA762  ILE779  LEU786  VAL792 
 PHE793  MET794  SER795  GLU796  ALA797  LYS798  CYS799  TRP800  GLU811  SER814 

> <Gold.Protein.RotatedAtoms>
  152.5344  134.2795  159.9001 H   0  0  0  0  0  0  0  0  0  0  0  0  # atno 6907 bound_to 6896
  151.2750  133.4230  159.2631 H   0  0  0  0  0  0  0  0  0  0  0  0  # atno 6908 bound_to 6896
  151.0334  134.9571  159.8180 H   0  0  0  0  0  0  0  0  0  0  0  0  # atno 6909 bound_to 6896
  146.1573  140.4712  142.8586 H   0  0  0  0  0  0  0  0  0  0  0  0  # atno 7974 bound_to 7965
  155.2347  140.0426  157.2967 H   0  0  0  0  0  0  0  0  0  0  0  0  # atno 8008 bound_to 7997
  154.5866  140.2415  155.7949 H   0  0  0  0  0  0  0  0  0  0  0  0  # atno 8009 bound_to 7997
  156.2230  140.2963  156.0007 H   0  0  0  0  0  0  0  0  0  0  0  0  # atno 8010 bound_to 7997
  140.7223  143.5188  150.9659 H   0  0  0  0  0  0  0  0  0  0  0  0  # atno 10167 bound_to 10162
  156.6678  130.5000  149.6010 H   0  0  0  0  0  0  0  0  0  0  0  0  # atno 10718 bound_to 10713
  153.0013  135.5434  154.6330 H   0  0  0  0  0  0  0  0  0  0  0  0  # atno 10763 bound_to 10752
  154.5603  135.2833  155.0927 H   0  0  0  0  0  0  0  0  0  0  0  0  # atno 10764 bound_to 10752
  154.2132  135.6463  153.5174 H   0  0  0  0  0  0  0  0  0  0  0  0  # atno 10765 bound_to 10752
  141.0346  133.9929  157.3090 H   0  0  0  0  0  0  0  0  0  0  0  0  # atno 11005 bound_to 11000
  144.7980  140.6159  143.6497 LP  0  0  0  0  0  0  0  0  0  0  0  0  # atno 17320 bound_to 7965
  145.4677  139.1506  143.3831 LP  0  0  0  0  0  0  0  0  0  0  0  0  # atno 17321 bound_to 7965
  139.8904  143.6960  152.3146 LP  0  0  0  0  0  0  0  0  0  0  0  0  # atno 17342 bound_to 10162
  139.7274  144.7590  151.0857 LP  0  0  0  0  0  0  0  0  0  0  0  0  # atno 17343 bound_to 10162
  156.1962  130.6591  151.1116 LP  0  0  0  0  0  0  0  0  0  0  0  0  # atno 17370 bound_to 10713
  157.7088  131.0744  150.6575 LP  0  0  0  0  0  0  0  0  0  0  0  0  # atno 17371 bound_to 10713
  139.9232  135.0201  156.8139 LP  0  0  0  0  0  0  0  0  0  0  0  0  # atno 17394 bound_to 11000
  140.6345  133.9875  155.7677 LP  0  0  0  0  0  0  0  0  0  0  0  0  # atno 17395 bound_to 11000

$$$$
