#       Name:                AV-unprocessed.smi:2786
#       Creating user name   scv26
#       Creation time:       Fri Mar 27 15:18:39 2020


#       File generated by GOLD software.
#

@<TRIPOS>MOLECULE
AV-unprocessed.smi:2786
    29    30     1
SMALL
NO_CHARGES


@<TRIPOS>ATOM
      1 ****        -1.8839   2.1706   0.3061 C.3            1 S1                 0.0000
      2 ****        -0.4207   2.1980   0.2604 N.pl3          1 S1                 0.0000
      3 ****         0.3747   3.3153   0.2545 C.2            1 S1                 0.0000
      4 ****         1.6709   2.8749   0.1968 C.2            1 S1                 0.0000
      5 ****         1.6129   1.5082   0.1716 N.pl3          1 S1                 1.0000
      6 ****         0.3410   1.0918   0.2190 C.2            1 S1                 0.0000
      7 ****        -0.1166  -0.3370   0.1973 C.3            1 S1                 0.0000
      8 ****        -0.2989  -0.8395  -1.2518 C.3            1 S1                 0.0000
      9 ****        -0.7610  -2.2283  -1.2697 N.3            1 S1                 0.0000
     10 ****         0.1628  -3.0983  -0.5409 C.3            1 S1                 0.0000
     11 ****         0.3398  -2.6067   0.9071 C.3            1 S1                 0.0000
     12 ****         0.8009  -1.2167   0.9320 N.3            1 S1                 0.0000
     13 ****        -2.2715   3.1860   0.2176 H              1 S1                 0.0000
     14 ****        -2.2059   1.7420   1.2555 H              1 S1                 0.0000
     15 ****        -2.2626   1.5685  -0.5203 H              1 S1                 0.0000
     16 ****        -0.0302   4.3164   0.2883 H              1 S1                 0.0000
     17 ****         2.6051   3.4169   0.1710 H              1 S1                 0.0000
     18 ****        -1.0857  -0.3482   0.6973 H              1 S1                 0.0000
     19 ****        -1.0168  -0.2093  -1.7771 H              1 S1                 0.0000
     20 ****         0.6432  -0.7555  -1.7956 H              1 S1                 0.0000
     21 ****        -0.8388  -2.5480  -2.2302 H              1 S1                 0.0000
     22 ****        -0.2124  -4.1219  -0.5410 H              1 S1                 0.0000
     23 ****         1.1300  -3.1222  -1.0448 H              1 S1                 0.0000
     24 ****        -0.6056  -2.6953   1.4442 H              1 S1                 0.0000
     25 ****         1.0538  -3.2438   1.4290 H              1 S1                 0.0000
     26 ****         0.8598  -0.9085   1.8973 H              1 S1                 0.0000
     27 ****         2.4147   0.8916   0.1274 H              1 S1                 0.0000
     28 ****        -1.6544  -2.2688  -0.8224 LP             1 S1                 0.0000
     29 ****         1.6973  -1.1698   0.4912 LP             1 S1                 0.0000
@<TRIPOS>BOND
    1    1    2 1     
    2    1   13 1     
    3    1   14 1     
    4    1   15 1     
    5    2    6 1     
    6    2    3 1     
    7    3    4 2     
    8    3   16 1     
    9    4    5 1     
   10    4   17 1     
   11    5    6 2     
   12    5   27 1     
   13    6    7 1     
   14    7   12 1     
   15    7    8 1     
   16    7   18 1     
   17    8    9 1     
   18    8   19 1     
   19    8   20 1     
   20    9   10 1     
   21    9   21 1     
   22   10   11 1     
   23   10   22 1     
   24   10   23 1     
   25   11   12 1     
   26   11   24 1     
   27   11   25 1     
   28   12   26 1     
   29    9   28 1     
   30   12   29 1     
@<TRIPOS>SUBSTRUCTURE
      1 S1             1
@<TRIPOS>SET
LONE_PAIRS      STATIC     ATOMS    <user>   **** ""
2 28 29
DONOR_HYDROGENS      STATIC     ATOMS    <user>   **** ""
3 27 21 26
ATOM$BLUE        STATIC     ATOMS    COLORGROUP SYSTEM
2 28 29
ATOM$RED        STATIC     ATOMS    COLORGROUP SYSTEM
3 27 21 26
