AV-unprocessed.smi:1813|AV-procd|sdf|7342|dock6
  -GOLD-   22720 9 03D 1   1.00000     0.00000
 Structure written by MMmdl.
 40 41  0  0  0  0  0  0  0  0  2 V2000
  143.8202  146.4745  154.8464 C   0  0  0  0  0  0  0  0  0  0  0  0
  143.6553  145.0506  154.5959 N   0  0  0  0  0  0  0  0  0  0  0  0
  144.1921  144.0848  155.3547 C   0  0  0  0  0  0  0  0  0  0  0  0
  144.8887  144.3125  156.3445 O   0  0  0  0  0  0  0  0  0  0  0  0
  143.9123  142.6437  154.9164 C   0  0  0  0  0  0  0  0  0  0  0  0
  145.1421  141.9053  154.5298 N   0  3  2  0  0  0  0  0  0  0  0  0
  145.7735  141.2121  155.6814 C   0  0  0  0  0  0  0  0  0  0  0  0
  146.9545  140.3352  155.2258 C   0  0  0  0  0  0  0  0  0  0  0  0
  147.9992  141.1368  154.4294 C   0  0  2  0  0  0  0  0  0  0  0  0
  148.7457  142.0301  155.3154 N   0  0  0  0  0  0  0  0  0  0  0  0
  149.6255  141.6358  156.2481 C   0  0  0  0  0  0  0  0  0  0  0  0
  149.9118  140.4560  156.4522 O   0  0  0  0  0  0  0  0  0  0  0  0
  150.1395  142.6872  156.9101 N   0  0  0  0  0  0  0  0  0  0  0  0
  151.1067  142.6805  157.9495 C   0  0  0  0  0  0  0  0  0  0  0  0
  151.4121  141.6077  158.6889 N   0  0  0  0  0  0  0  0  0  0  0  0
  152.4003  141.8877  159.6360 C   0  0  0  0  0  0  0  0  0  0  0  0
  152.8397  143.1878  159.6028 C   0  0  0  0  0  0  0  0  0  0  0  0
  152.0237  144.1184  158.3749 S   0  0  0  0  0  0  0  0  0  0  0  0
  147.3046  141.9057  153.2872 C   0  0  0  0  0  0  0  0  0  0  0  0
  146.1227  142.7487  153.7956 C   0  0  0  0  0  0  0  0  0  0  0  0
  143.2128  147.0481  154.1466 H   0  0  0  0  0  0  0  0  0  0  0  0
  144.8616  146.7715  154.7168 H   0  0  0  0  0  0  0  0  0  0  0  0
  143.5075  146.7336  155.8588 H   0  0  0  0  0  0  0  0  0  0  0  0
  143.1018  144.7855  153.7936 H   0  0  0  0  0  0  0  0  0  0  0  0
  143.3789  142.1002  155.6982 H   0  0  0  0  0  0  0  0  0  0  0  0
  143.2374  142.7056  154.0618 H   0  0  0  0  0  0  0  0  0  0  0  0
  146.1055  141.9492  156.4139 H   0  0  0  0  0  0  0  0  0  0  0  0
  145.0365  140.5815  156.1800 H   0  0  0  0  0  0  0  0  0  0  0  0
  147.4206  139.8555  156.0874 H   0  0  0  0  0  0  0  0  0  0  0  0
  146.5739  139.5268  154.5999 H   0  0  0  0  0  0  0  0  0  0  0  0
  148.7085  140.4287  153.9965 H   0  0  0  0  0  0  0  0  0  0  0  0
  148.5668  143.0193  155.2232 H   0  0  0  0  0  0  0  0  0  0  0  0
  149.8056  143.5994  156.6371 H   0  0  0  0  0  0  0  0  0  0  0  0
  152.7336  141.0997  160.2949 H   0  0  0  0  0  0  0  0  0  0  0  0
  153.5908  143.6521  160.2244 H   0  0  0  0  0  0  0  0  0  0  0  0
  148.0169  142.5403  152.7589 H   0  0  0  0  0  0  0  0  0  0  0  0
  146.9371  141.1916  152.5490 H   0  0  0  0  0  0  0  0  0  0  0  0
  145.6407  143.2316  152.9453 H   0  0  0  0  0  0  0  0  0  0  0  0
  146.4801  143.5477  154.4471 H   0  0  0  0  0  0  0  0  0  0  0  0
  144.8431  141.1806  153.8923 H   0  0  0  0  0  0  0  0  0  0  0  0
  1  2  1  0  0  0  0
  1 21  1  0  0  0  0
  1 22  1  0  0  0  0
  1 23  1  0  0  0  0
  2  3  1  0  0  0  0
  2 24  1  0  0  0  0
  3  4  2  0  0  0  0
  3  5  1  0  0  0  0
  5  6  1  0  0  0  0
  5 25  1  0  0  0  0
  5 26  1  0  0  0  0
  6 20  1  0  0  0  0
  6  7  1  0  0  0  0
  6 40  1  0  0  0  0
  7  8  1  0  0  0  0
  7 27  1  0  0  0  0
  7 28  1  0  0  0  0
  8  9  1  0  0  0  0
  8 29  1  0  0  0  0
  8 30  1  0  0  0  0
  9 10  1  0  0  0  0
  9 19  1  0  0  0  0
  9 31  1  0  0  0  0
 10 11  1  0  0  0  0
 10 32  1  0  0  0  0
 11 12  2  0  0  0  0
 11 13  1  0  0  0  0
 13 14  1  0  0  0  0
 13 33  1  0  0  0  0
 14 18  1  0  0  0  0
 14 15  2  0  0  0  0
 15 16  1  0  0  0  0
 16 17  2  0  0  0  0
 16 34  1  0  0  0  0
 17 18  1  0  0  0  0
 17 35  1  0  0  0  0
 19 20  1  0  0  0  0
 19 36  1  0  0  0  0
 19 37  1  0  0  0  0
 20 38  1  0  0  0  0
 20 39  1  0  0  0  0
M  CHG  1   6   1
M  END
> <s_m_source_file>
AV-unprocessed.smi

> <i_m_source_file_index>
1813

> <i_lp_mmshare_version>
43012

> <i_f3d_flags>
0

> <s_epik_input>
W0NIM11bTkhdQyg9TylbQ0gyXU4xW0NIMl1bQ0gyXVtDSF0oW0NIMl1bQ0gyXTEpW05IXUMoPU8pW05IXWMybltjSF1bY0hdczI=

> <s_epik_cmdline>
J2VwaWtfcHl0aG9uJywgJy1waCcsICc3LjAnLCAnLXRuJywgJzgnLCAnLW1hJywgJzIwMCcsICctbWV0YWxfYmluZGluZycsICctaW1hZScsICc8aW5maWxlLm1hZT4nLCAnLW9tYWUnLCAnPG91dGZpbGUubWFlPic=

> <r_lp_tautomer_probability>
0.999

> <r_epik_Ionization_Penalty>
0.862509

> <r_epik_Ionization_Penalty_Charging>
0.862349

> <r_epik_Ionization_Penalty_Neutral>
0.000159522

> <r_epik_State_Penalty>
0.898939

> <r_epik_Charging_Adjusted_Penalty>
1.76129

> <i_epik_Tot_Q>
1

> <i_epik_Tot_abs_Q>
1

> <r_epik_Metal_State_Penalty>
0.936827

> <b_epik_Metal_Only>
0

> <s_lp_Force_Field>
OPLS_2005

> <r_lp_Energy>
11.766

> <b_lp_Chiralities_Consistent>
1

> <s_lp_Variant>
AV-unprocessed.smi:1813-3

> <Gold.Version>
5.8.1

> <Gold.Id.Protein>
6NUR|6NUR_protein|mol2

> <Gold.PLP.Fitness>
44.7135

> <Gold.PLP.PLP>
-33.6464

> <Gold.PLP.part.hbond>
-3.0000

> <Gold.PLP.part.metal>
0.0000

> <Gold.PLP.part.buried>
-6.3702

> <Gold.PLP.part.nonpolar>
-26.0439

> <Gold.PLP.part.repulsive>
0.3741

> <Gold.PLP.ligand.clash>
0.0000

> <Gold.PLP.ligand.torsion>
0.4840

> <Gold.PLP.Chemscore.Hbond>
4.0000

> <Gold.PLP.Chemscore.CHOScore>
0.0000

> <Gold.PLP.Chemscore.Metal>
0.0000

> <Gold.Chemscore.Hbonds>
donor molecule, donor type, donor heavy atom, donor atom, acceptor molecule, acceptor atom, score
      L1  H     6    40       P1 10175  2.00
      L1  H    10    32       P1  8028  1.00
      L1  H    13    33       P1  8028  1.00

> <Gold.PLP.Chemscore.Internal.Correction>
0.0351

> <Gold.Rescore>
     Score         DG    S(hbond)    S(metal)    S(lipo)     H(rot)  DE(clash)    DE(int)     intcor
     15.57     -18.19       2.80        0.00      67.78       1.79       1.14       1.48       ----

> <Gold.Chemscore.Fitness>
15.5705

> <Gold.Chemscore.DG>
-18.1872

> <Gold.Chemscore.ZeroCoef>
-5.4800

> <Gold.Chemscore.Hbond>
2.7995

> <Gold.Chemscore.Metal>
0.0000

> <Gold.Chemscore.Lipo>
67.7754

> <Gold.Chemscore.Internal_Hbond>
0.0000

> <Gold.Chemscore.DEClash>
1.1403

> <Gold.Chemscore.DEInternal>
1.4765

> <Gold.Chemscore.Rot>
1.7862

> <Gold.Chemscore.Internal.Correction>
   9.000000E+99

> <Gold.Chemscore.Hbonds>
donor molecule, donor type, donor heavy atom, donor atom, acceptor molecule, acceptor atom, score
      L1  H     6    40       P1 10175  0.57
      L1  H    10    32       P1  8028  0.97
      L1  H    13    33       P1  8028  0.98

> <Gold.Chemscore.Hbond.Weighted>
-9.3502

> <Gold.Chemscore.Metal.Weighted>
-0.0000

> <Gold.Chemscore.Lipo.Weighted>
-7.9297

> <Gold.Chemscore.Internal_Hbond.Weighted>
0.0000

> <Gold.Chemscore.DEClash.Weighted>
1.1403

> <Gold.Chemscore.DEInternal.Weighted>
1.4765

> <Gold.Chemscore.Rot.Weighted>
4.5726

> <Gold.Chemscore.Internal.Correction.Weighted>
   9.000000E+99

> <Gold.Protein.RotatedTorsions>
[ 6907 6896 6895 6894 ] final  133.29 input  -60.11 | X-H torsion
[ 7974 7965 7964 7962 ] final  137.30 input  175.53 | X-H torsion
[ 8008 7997 7996 7995 ] final  120.02 input   59.86 | X-H torsion
[ 10167 10162 10161 10158 ] final  -17.23 input  -65.29 | X-H torsion
[ 10718 10713 10712 10709 ] final -147.04 input   66.30 | X-H torsion
[ 10763 10752 10751 10750 ] final  125.71 input  -60.55 | X-H torsion
[ 11005 11000 10999 10996 ] final  -52.21 input  -57.11 | X-H torsion

> <Gold.Protein.ActiveResidues>
 VAL166  LYS551  ARG553  GLY616  TRP617  ASP618  TYR619  PRO620  LYS621  CYS622 
 ASP623  PHE694  ASN695  SER759  ASP760  ASP761  ALA762  ILE779  LEU786  VAL792 
 PHE793  MET794  SER795  GLU796  ALA797  LYS798  CYS799  TRP800  GLU811  SER814 

> <Gold.Protein.RotatedAtoms>
  152.3235  133.5879  159.5760 H   0  0  0  0  0  0  0  0  0  0  0  0  # atno 6907 bound_to 6896
  150.7384  133.9976  159.3636 H   0  0  0  0  0  0  0  0  0  0  0  0  # atno 6908 bound_to 6896
  151.7858  135.0750  160.0431 H   0  0  0  0  0  0  0  0  0  0  0  0  # atno 6909 bound_to 6896
  144.9481  139.4851  143.5539 H   0  0  0  0  0  0  0  0  0  0  0  0  # atno 7974 bound_to 7965
  156.2623  140.2840  156.1084 H   0  0  0  0  0  0  0  0  0  0  0  0  # atno 8008 bound_to 7997
  155.1284  140.0393  157.2786 H   0  0  0  0  0  0  0  0  0  0  0  0  # atno 8009 bound_to 7997
  154.6618  140.2568  155.7107 H   0  0  0  0  0  0  0  0  0  0  0  0  # atno 8010 bound_to 7997
  140.7244  143.5036  150.9838 H   0  0  0  0  0  0  0  0  0  0  0  0  # atno 10167 bound_to 10162
  156.4025  130.7941  151.2152 H   0  0  0  0  0  0  0  0  0  0  0  0  # atno 10718 bound_to 10713
  153.6817  135.3313  155.3180 H   0  0  0  0  0  0  0  0  0  0  0  0  # atno 10763 bound_to 10752
  154.8464  135.4410  154.1599 H   0  0  0  0  0  0  0  0  0  0  0  0  # atno 10764 bound_to 10752
  153.2617  135.6992  153.7648 H   0  0  0  0  0  0  0  0  0  0  0  0  # atno 10765 bound_to 10752
  141.0912  133.6632  156.3991 H   0  0  0  0  0  0  0  0  0  0  0  0  # atno 11005 bound_to 11000
  146.3311  139.8547  142.8867 LP  0  0  0  0  0  0  0  0  0  0  0  0  # atno 17320 bound_to 7965
  145.2886  141.0160  143.3676 LP  0  0  0  0  0  0  0  0  0  0  0  0  # atno 17321 bound_to 7965
  139.8747  143.7148  152.3163 LP  0  0  0  0  0  0  0  0  0  0  0  0  # atno 17342 bound_to 10162
  139.7409  144.7559  151.0654 LP  0  0  0  0  0  0  0  0  0  0  0  0  # atno 17343 bound_to 10162
  157.7504  131.0282  150.4040 LP  0  0  0  0  0  0  0  0  0  0  0  0  # atno 17370 bound_to 10713
  156.4322  130.3974  149.6752 LP  0  0  0  0  0  0  0  0  0  0  0  0  # atno 17371 bound_to 10713
  140.5247  134.6270  157.5330 LP  0  0  0  0  0  0  0  0  0  0  0  0  # atno 17394 bound_to 11000
  139.9739  134.7248  155.9988 LP  0  0  0  0  0  0  0  0  0  0  0  0  # atno 17395 bound_to 11000

$$$$
