AV-unprocessed.smi:2949|AV-procd|sdf|11287|dock9
  -GOLD-   2272016183D 1   1.00000     0.00000
 Structure written by MMmdl.
 34 35  0  0  0  0  0  0  0  0  1 V2000
  147.3608  132.9747  150.6459 N   0  0  0  0  0  0  0  0  0  0  0  0
  146.0848  132.8112  150.6670 C   0  0  0  0  0  0  0  0  0  0  0  0
  145.1943  131.2219  150.8091 S   0  0  0  0  0  0  0  0  0  0  0  0
  143.6701  132.0817  150.7646 C   0  0  0  0  0  0  0  0  0  0  0  0
  143.8391  133.3980  150.6514 C   0  0  0  0  0  0  0  0  0  0  0  0
  145.1445  133.8410  150.5867 N   0  0  0  0  0  0  0  0  0  0  0  0
  145.4854  135.2628  150.5381 C   0  0  0  0  0  0  0  0  0  0  0  0
  145.2392  136.0499  151.8317 C   0  0  0  0  0  0  0  0  0  0  0  0
  144.1559  135.9504  152.4133 O   0  0  0  0  0  0  0  0  0  0  0  0
  146.2793  136.8181  152.2301 N   0  0  0  0  0  0  0  0  0  0  0  0
  146.4238  137.6356  153.3003 C   0  0  0  0  0  0  0  0  0  0  0  0
  145.4416  138.0071  153.9406 O   0  0  0  0  0  0  0  0  0  0  0  0
  147.6755  138.0148  153.6196 N   0  0  0  0  0  0  0  0  0  0  0  0
  148.0382  138.8882  154.7319 C   0  0  0  0  0  0  0  0  0  0  0  0
  147.0294  140.0431  154.9069 C   0  0  0  0  0  0  0  0  0  0  0  0
  147.8577  141.3281  154.9608 C   0  0  0  0  0  0  0  0  0  0  0  0
  149.1021  141.0111  154.1380 C   0  0  0  0  0  0  0  0  0  0  0  0
  149.4030  139.5497  154.4693 C   0  0  0  0  0  0  0  0  0  0  0  0
  147.8317  132.0848  150.7174 H   0  0  0  0  0  0  0  0  0  0  0  0
  142.7288  131.5567  150.8295 H   0  0  0  0  0  0  0  0  0  0  0  0
  143.0576  134.1427  150.6076 H   0  0  0  0  0  0  0  0  0  0  0  0
  146.5297  135.3833  150.2450 H   0  0  0  0  0  0  0  0  0  0  0  0
  144.9047  135.7328  149.7431 H   0  0  0  0  0  0  0  0  0  0  0  0
  147.0873  136.7788  151.6261 H   0  0  0  0  0  0  0  0  0  0  0  0
  148.4331  137.6676  153.0482 H   0  0  0  0  0  0  0  0  0  0  0  0
  148.1018  138.2972  155.6475 H   0  0  0  0  0  0  0  0  0  0  0  0
  146.3497  140.0951  154.0547 H   0  0  0  0  0  0  0  0  0  0  0  0
  146.4151  139.9189  155.7991 H   0  0  0  0  0  0  0  0  0  0  0  0
  147.3136  142.1942  154.5833 H   0  0  0  0  0  0  0  0  0  0  0  0
  148.1450  141.5382  155.9918 H   0  0  0  0  0  0  0  0  0  0  0  0
  148.8756  141.1091  153.0755 H   0  0  0  0  0  0  0  0  0  0  0  0
  149.9373  141.6741  154.3651 H   0  0  0  0  0  0  0  0  0  0  0  0
  150.0034  139.5065  155.3789 H   0  0  0  0  0  0  0  0  0  0  0  0
  149.9791  139.0600  153.6828 H   0  0  0  0  0  0  0  0  0  0  0  0
  1  2  2  0  0  0  0
  1 19  1  0  0  0  0
  2  6  1  0  0  0  0
  2  3  1  0  0  0  0
  3  4  1  0  0  0  0
  4  5  2  0  0  0  0
  4 20  1  0  0  0  0
  5  6  1  0  0  0  0
  5 21  1  0  0  0  0
  6  7  1  0  0  0  0
  7  8  1  0  0  0  0
  7 22  1  0  0  0  0
  7 23  1  0  0  0  0
  8  9  2  0  0  0  0
  8 10  1  0  0  0  0
 10 11  1  0  0  0  0
 10 24  1  0  0  0  0
 11 12  2  0  0  0  0
 11 13  1  0  0  0  0
 13 14  1  0  0  0  0
 13 25  1  0  0  0  0
 14 18  1  0  0  0  0
 14 15  1  0  0  0  0
 14 26  1  0  0  0  0
 15 16  1  0  0  0  0
 15 27  1  0  0  0  0
 15 28  1  0  0  0  0
 16 17  1  0  0  0  0
 16 29  1  0  0  0  0
 16 30  1  0  0  0  0
 17 18  1  0  0  0  0
 17 31  1  0  0  0  0
 17 32  1  0  0  0  0
 18 33  1  0  0  0  0
 18 34  1  0  0  0  0
M  END
> <s_m_source_file>
AV-unprocessed.smi

> <i_m_source_file_index>
2949

> <i_lp_mmshare_version>
43012

> <i_f3d_flags>
0

> <s_epik_input>
W0hdL049YzFcc1tjSF1bY0hdbjFbQ0gyXUMoPU8pW05IXUMoPU8pW05IXVtDSF0yW0NIMl1bQ0gyXVtDSDJdW0NIMl0y

> <s_epik_cmdline>
J2VwaWtfcHl0aG9uJywgJy1waCcsICc3LjAnLCAnLXRuJywgJzgnLCAnLW1hJywgJzIwMCcsICctbWV0YWxfYmluZGluZycsICctaW1hZScsICc8aW5maWxlLm1hZT4nLCAnLW9tYWUnLCAnPG91dGZpbGUubWFlPic=

> <r_epik_Ionization_Penalty>
2.0346

> <r_epik_Ionization_Penalty_Charging>
2.03458

> <r_epik_Ionization_Penalty_Neutral>
2.61125e-05

> <r_epik_State_Penalty>
2.18096

> <r_epik_Charging_Adjusted_Penalty>
4.21554

> <i_epik_Tot_Q>
0

> <i_epik_Tot_abs_Q>
0

> <r_epik_Metal_State_Penalty>
2.18096

> <b_epik_Metal_Only>
0

> <s_lp_Force_Field>
OPLS_2005

> <r_lp_Energy>
19.3427

> <b_lp_Chiralities_Consistent>
1

> <s_lp_Variant>
AV-unprocessed.smi:2949-3

> <Gold.Version>
5.8.1

> <Gold.Id.Protein>
6NUR|6NUR_protein|mol2

> <Gold.PLP.Fitness>
42.4879

> <Gold.PLP.PLP>
-29.7499

> <Gold.PLP.part.hbond>
-3.0000

> <Gold.PLP.part.metal>
0.0000

> <Gold.PLP.part.buried>
-1.1381

> <Gold.PLP.part.nonpolar>
-25.4527

> <Gold.PLP.part.repulsive>
0.3480

> <Gold.PLP.ligand.clash>
0.0000

> <Gold.PLP.ligand.torsion>
0.6236

> <Gold.PLP.Chemscore.Hbond>
2.6560

> <Gold.PLP.Chemscore.CHOScore>
1.9994

> <Gold.PLP.Chemscore.Metal>
0.0000

> <Gold.Chemscore.Hbonds>
donor molecule, donor type, donor heavy atom, donor atom, acceptor molecule, acceptor atom, score
      L1  H     1    19       P1 10747  1.00
      L1  H    10    24       P1  7948  0.72
      L1  H    13    25       P1  7948  0.90
      L1  C     4    20       P1 10952  0.86
      L1  C     5    21       P1 10186  1.00

> <Gold.PLP.Chemscore.Internal.Correction>
0.0190

> <Gold.Rescore>
     Score         DG    S(hbond)    S(metal)    S(lipo)     H(rot)  DE(clash)    DE(int)     intcor
     13.53     -16.89       2.59        0.00      60.50       1.69       0.24       3.12       ----

> <Gold.Chemscore.Fitness>
13.5272

> <Gold.Chemscore.DG>
-16.8861

> <Gold.Chemscore.ZeroCoef>
-5.4800

> <Gold.Chemscore.Hbond>
2.5888

> <Gold.Chemscore.Metal>
0.0000

> <Gold.Chemscore.Lipo>
60.5020

> <Gold.Chemscore.Internal_Hbond>
0.0000

> <Gold.Chemscore.DEClash>
0.2436

> <Gold.Chemscore.DEInternal>
3.1153

> <Gold.Chemscore.Rot>
1.6871

> <Gold.Chemscore.Internal.Correction>
   9.000000E+99

> <Gold.Chemscore.Hbonds>
donor molecule, donor type, donor heavy atom, donor atom, acceptor molecule, acceptor atom, score
      L1  H     1    19       P1 10747  0.98
      L1  H    10    24       P1  7948  0.72
      L1  H    13    25       P1  7948  0.88

> <Gold.Chemscore.Hbond.Weighted>
-8.6465

> <Gold.Chemscore.Metal.Weighted>
-0.0000

> <Gold.Chemscore.Lipo.Weighted>
-7.0787

> <Gold.Chemscore.Internal_Hbond.Weighted>
0.0000

> <Gold.Chemscore.DEClash.Weighted>
0.2436

> <Gold.Chemscore.DEInternal.Weighted>
3.1153

> <Gold.Chemscore.Rot.Weighted>
4.3191

> <Gold.Chemscore.Internal.Correction.Weighted>
   9.000000E+99

> <Gold.Protein.RotatedTorsions>
[ 6907 6896 6895 6894 ] final  -97.01 input  -60.11 | X-H torsion
[ 7974 7965 7964 7962 ] final    1.46 input  175.53 | X-H torsion
[ 8008 7997 7996 7995 ] final  140.50 input   59.86 | X-H torsion
[ 10167 10162 10161 10158 ] final -128.89 input  -65.29 | X-H torsion
[ 10718 10713 10712 10709 ] final   -2.58 input   66.30 | X-H torsion
[ 10763 10752 10751 10750 ] final    8.28 input  -60.55 | X-H torsion
[ 11005 11000 10999 10996 ] final   43.43 input  -57.11 | X-H torsion

> <Gold.Protein.ActiveResidues>
 VAL166  LYS551  ARG553  GLY616  TRP617  ASP618  TYR619  PRO620  LYS621  CYS622 
 ASP623  PHE694  ASN695  SER759  ASP760  ASP761  ALA762  ILE779  LEU786  VAL792 
 PHE793  MET794  SER795  GLU796  ALA797  LYS798  CYS799  TRP800  GLU811  SER814 

> <Gold.Protein.RotatedAtoms>
  150.7004  134.1415  159.4106 H   0  0  0  0  0  0  0  0  0  0  0  0  # atno 6907 bound_to 6896
  151.9399  135.0216  160.0544 H   0  0  0  0  0  0  0  0  0  0  0  0  # atno 6908 bound_to 6896
  152.2103  133.4871  159.5143 H   0  0  0  0  0  0  0  0  0  0  0  0  # atno 6909 bound_to 6896
  146.2440  140.0983  142.8349 H   0  0  0  0  0  0  0  0  0  0  0  0  # atno 7974 bound_to 7965
  156.2978  140.2340  156.4411 H   0  0  0  0  0  0  0  0  0  0  0  0  # atno 8008 bound_to 7997
  154.8185  140.0439  157.1414 H   0  0  0  0  0  0  0  0  0  0  0  0  # atno 8009 bound_to 7997
  154.9342  140.3021  155.5156 H   0  0  0  0  0  0  0  0  0  0  0  0  # atno 8010 bound_to 7997
  139.9456  143.6114  152.2491 H   0  0  0  0  0  0  0  0  0  0  0  0  # atno 10167 bound_to 10162
  156.7888  130.5354  149.5739 H   0  0  0  0  0  0  0  0  0  0  0  0  # atno 10718 bound_to 10713
  153.2268  135.6888  153.7936 H   0  0  0  0  0  0  0  0  0  0  0  0  # atno 10763 bound_to 10752
  153.7114  135.3281  155.3248 H   0  0  0  0  0  0  0  0  0  0  0  0  # atno 10764 bound_to 10752
  154.8295  135.4591  154.1138 H   0  0  0  0  0  0  0  0  0  0  0  0  # atno 10765 bound_to 10752
  140.1645  134.4299  155.8296 H   0  0  0  0  0  0  0  0  0  0  0  0  # atno 11005 bound_to 11000
  145.0590  140.9074  143.4950 LP  0  0  0  0  0  0  0  0  0  0  0  0  # atno 17320 bound_to 7965
  145.1095  139.2767  143.5645 LP  0  0  0  0  0  0  0  0  0  0  0  0  # atno 17321 bound_to 7965
  139.6670  144.7662  151.1855 LP  0  0  0  0  0  0  0  0  0  0  0  0  # atno 17342 bound_to 10162
  140.7598  143.5923  150.8783 LP  0  0  0  0  0  0  0  0  0  0  0  0  # atno 17343 bound_to 10162
  156.1172  130.6084  151.0139 LP  0  0  0  0  0  0  0  0  0  0  0  0  # atno 17370 bound_to 10713
  157.6611  131.0880  150.7836 LP  0  0  0  0  0  0  0  0  0  0  0  0  # atno 17371 bound_to 10713
  141.2212  133.6928  156.7654 LP  0  0  0  0  0  0  0  0  0  0  0  0  # atno 17394 bound_to 11000
  140.2450  134.8584  157.3611 LP  0  0  0  0  0  0  0  0  0  0  0  0  # atno 17395 bound_to 11000

$$$$
