AV-unprocessed.smi:2|AV-procd|sdf|26|dock2
  -GOLD-   2262015133D 1   1.00000     0.00000
 Structure written by MMmdl.
 52 54  0  0  0  0  0  0  0  0  3 V2000
  147.1260  129.0702  153.3059 C   0  0  0  0  0  0  0  0  0  0  0  0
  147.6470  130.4331  153.7890 C   0  0  0  0  0  0  0  0  0  0  0  0
  149.0338  130.3732  154.4488 C   0  0  0  0  0  0  0  0  0  0  0  0
  149.6561  129.3101  154.4690 O   0  0  0  0  0  0  0  0  0  0  0  0
  149.5646  131.6333  155.0449 C   0  0  0  0  0  0  0  0  0  0  0  0
  150.6791  131.5765  155.9115 C   0  0  0  0  0  0  0  0  0  0  0  0
  151.1960  132.7496  156.4935 C   0  0  0  0  0  0  0  0  0  0  0  0
  150.6149  134.0052  156.2307 C   0  0  0  0  0  0  0  0  0  0  0  0
  151.1792  135.0975  156.8579 O   0  0  0  0  0  0  0  0  0  0  0  0
  150.4891  136.3448  156.8588 C   0  0  0  0  0  0  0  0  0  0  0  0
  150.9530  137.2487  158.0218 C   0  0  1  0  0  0  0  0  0  0  0  0
  150.5493  136.6473  159.2363 O   0  0  0  0  0  0  0  0  0  0  0  0
  152.4854  137.4571  158.0096 C   0  0  0  0  0  0  0  0  0  0  0  0
  152.9255  138.5751  158.8532 N   0  0  0  0  0  0  0  0  0  0  0  0
  153.6428  138.4959  160.0154 C   0  0  0  0  0  0  0  0  0  0  0  0
  154.1467  137.2892  160.6594 N   0  3  0  0  0  0  0  0  0  0  0  0
  154.6689  137.3661  161.7644 O   0  0  0  0  0  0  0  0  0  0  0  0
  154.0499  136.2380  160.0332 O   0  5  0  0  0  0  0  0  0  0  0  0
  153.8489  139.6725  160.6083 N   0  0  0  0  0  0  0  0  0  0  0  0
  153.2195  140.5762  159.7766 C   0  0  0  0  0  0  0  0  0  0  0  0
  153.0445  142.0329  159.9410 C   0  0  0  0  0  0  0  0  0  0  0  0
  153.5634  142.6333  160.8832 O   0  0  0  0  0  0  0  0  0  0  0  0
  152.2484  142.6102  158.9875 N   0  0  0  0  0  0  0  0  0  0  0  0
  151.9371  144.0466  159.1180 C   0  0  0  0  0  0  0  0  0  0  0  0
  151.7252  141.9588  157.8851 C   0  0  0  0  0  0  0  0  0  0  0  0
  151.0016  142.5607  157.0863 O   0  0  0  0  0  0  0  0  0  0  0  0
  152.0496  140.6358  157.6878 N   0  0  0  0  0  0  0  0  0  0  0  0
  151.7898  140.0300  156.3759 C   0  0  0  0  0  0  0  0  0  0  0  0
  152.6994  139.9598  158.6841 C   0  0  0  0  0  0  0  0  0  0  0  0
  149.5060  134.0656  155.3516 C   0  0  0  0  0  0  0  0  0  0  0  0
  148.9858  132.8939  154.7695 C   0  0  0  0  0  0  0  0  0  0  0  0
  146.1364  129.1750  152.8610 H   0  0  0  0  0  0  0  0  0  0  0  0
  147.0426  128.3591  154.1287 H   0  0  0  0  0  0  0  0  0  0  0  0
  147.7825  128.6386  152.5492 H   0  0  0  0  0  0  0  0  0  0  0  0
  147.6928  131.1198  152.9433 H   0  0  0  0  0  0  0  0  0  0  0  0
  146.9403  130.8539  154.5048 H   0  0  0  0  0  0  0  0  0  0  0  0
  151.1496  130.6317  156.1431 H   0  0  0  0  0  0  0  0  0  0  0  0
  152.0458  132.6826  157.1570 H   0  0  0  0  0  0  0  0  0  0  0  0
  150.6736  136.8405  155.9047 H   0  0  0  0  0  0  0  0  0  0  0  0
  149.4117  136.1822  156.8762 H   0  0  0  0  0  0  0  0  0  0  0  0
  150.4608  138.2182  157.9678 H   0  0  0  0  0  0  0  0  0  0  0  0
  149.6437  136.8653  159.3953 H   0  0  0  0  0  0  0  0  0  0  0  0
  152.9938  136.5451  158.3117 H   0  0  0  0  0  0  0  0  0  0  0  0
  152.8434  137.5889  156.9951 H   0  0  0  0  0  0  0  0  0  0  0  0
  150.8588  144.2128  159.0912 H   0  0  0  0  0  0  0  0  0  0  0  0
  152.3821  144.6051  158.2929 H   0  0  0  0  0  0  0  0  0  0  0  0
  152.2897  144.5102  160.0399 H   0  0  0  0  0  0  0  0  0  0  0  0
  152.6982  139.5733  155.9850 H   0  0  0  0  0  0  0  0  0  0  0  0
  151.4815  140.7373  155.6052 H   0  0  0  0  0  0  0  0  0  0  0  0
  151.0000  139.2881  156.4417 H   0  0  0  0  0  0  0  0  0  0  0  0
  149.0266  135.0000  155.1068 H   0  0  0  0  0  0  0  0  0  0  0  0
  148.1354  132.9903  154.1113 H   0  0  0  0  0  0  0  0  0  0  0  0
  1  2  1  0  0  0  0
  1 32  1  0  0  0  0
  1 33  1  0  0  0  0
  1 34  1  0  0  0  0
  2  3  1  0  0  0  0
  2 35  1  0  0  0  0
  2 36  1  0  0  0  0
  3  4  2  0  0  0  0
  3  5  1  0  0  0  0
  5 31  1  0  0  0  0
  5  6  2  0  0  0  0
  6  7  1  0  0  0  0
  6 37  1  0  0  0  0
  7  8  2  0  0  0  0
  7 38  1  0  0  0  0
  8  9  1  0  0  0  0
  8 30  1  0  0  0  0
  9 10  1  0  0  0  0
 10 11  1  0  0  0  0
 10 39  1  0  0  0  0
 10 40  1  0  0  0  0
 11 12  1  0  0  0  0
 11 13  1  0  0  0  0
 11 41  1  0  0  0  0
 12 42  1  0  0  0  0
 13 14  1  0  0  0  0
 13 43  1  0  0  0  0
 13 44  1  0  0  0  0
 14 29  1  0  0  0  0
 14 15  1  0  0  0  0
 15 16  1  0  0  0  0
 15 19  2  0  0  0  0
 16 17  2  0  0  0  0
 16 18  1  0  0  0  0
 19 20  1  0  0  0  0
 20 29  2  0  0  0  0
 20 21  1  0  0  0  0
 21 22  2  0  0  0  0
 21 23  1  0  0  0  0
 23 24  1  0  0  0  0
 23 25  1  0  0  0  0
 24 45  1  0  0  0  0
 24 46  1  0  0  0  0
 24 47  1  0  0  0  0
 25 26  2  0  0  0  0
 25 27  1  0  0  0  0
 27 28  1  0  0  0  0
 27 29  1  0  0  0  0
 28 48  1  0  0  0  0
 28 49  1  0  0  0  0
 28 50  1  0  0  0  0
 30 31  2  0  0  0  0
 30 51  1  0  0  0  0
 31 52  1  0  0  0  0
M  CHG  1  16   1
M  CHG  1  18  -1
M  END
> <s_m_source_file>
AV-unprocessed.smi

> <i_m_source_file_index>
2

> <i_lp_mmshare_version>
43012

> <i_f3d_flags>
0

> <s_epik_input>
W0NIM11bQ0gyXUMoPU8pYzFbY0hdW2NIXWMoW2NIXVtjSF0xKU9bQ0gyXVtDQEhdKFtPSF0pW0NIMl1uKGMobjIpW04rXSg9TylbTy1dKWMoYzIzKW4oW0NIM10pYyg9TyluKGMzPU8pW0NIM10=

> <s_epik_cmdline>
J2VwaWtfcHl0aG9uJywgJy1waCcsICc3LjAnLCAnLXRuJywgJzgnLCAnLW1hJywgJzIwMCcsICctbWV0YWxfYmluZGluZycsICctaW1hZScsICc8aW5maWxlLm1hZT4nLCAnLW9tYWUnLCAnPG91dGZpbGUubWFlPic=

> <r_lp_tautomer_probability>
1

> <r_epik_Ionization_Penalty>
1.02275e-06

> <r_epik_Ionization_Penalty_Charging>
4.46226e-11

> <r_epik_Ionization_Penalty_Neutral>
1.02271e-06

> <r_epik_State_Penalty>
-0

> <r_epik_Charging_Adjusted_Penalty>
4.46226e-11

> <i_epik_Tot_Q>
0

> <i_epik_Tot_abs_Q>
2

> <r_epik_Metal_State_Penalty>
-0

> <b_epik_Metal_Only>
0

> <s_lp_Force_Field>
OPLS_2005

> <r_lp_Energy>
60.3612

> <b_lp_Chiralities_Consistent>
1

> <s_lp_Variant>
AV-unprocessed.smi:2-2

> <Gold.Version>
5.8.1

> <Gold.Id.Protein>
6NUR|6NUR_protein|mol2

> <Gold.PLP.Fitness>
55.3898

> <Gold.PLP.PLP>
-50.0869

> <Gold.PLP.part.hbond>
-2.2559

> <Gold.PLP.part.metal>
0.0000

> <Gold.PLP.part.buried>
-7.0788

> <Gold.PLP.part.nonpolar>
-40.2237

> <Gold.PLP.part.repulsive>
0.2185

> <Gold.PLP.ligand.clash>
0.0000

> <Gold.PLP.ligand.torsion>
0.5860

> <Gold.PLP.Chemscore.Hbond>
2.0000

> <Gold.PLP.Chemscore.CHOScore>
0.0000

> <Gold.PLP.Chemscore.Metal>
0.0000

> <Gold.Chemscore.Hbonds>
donor molecule, donor type, donor heavy atom, donor atom, acceptor molecule, acceptor atom, score
      P1  H  6896  6907       L1    18  0.36
      P1  H  6896  6909       L1    12  0.98

> <Gold.PLP.Chemscore.Internal.Correction>
0.4749

> <Gold.Rescore>
     Score         DG    S(hbond)    S(metal)    S(lipo)     H(rot)  DE(clash)    DE(int)     intcor
     11.41     -13.13       1.97        0.00      78.17       3.16       0.00       1.72       ----

> <Gold.Chemscore.Fitness>
11.4092

> <Gold.Chemscore.DG>
-13.1289

> <Gold.Chemscore.ZeroCoef>
-5.4800

> <Gold.Chemscore.Hbond>
1.9735

> <Gold.Chemscore.Metal>
0.0000

> <Gold.Chemscore.Lipo>
78.1728

> <Gold.Chemscore.Internal_Hbond>
0.0000

> <Gold.Chemscore.DEClash>
0.0021

> <Gold.Chemscore.DEInternal>
1.7176

> <Gold.Chemscore.Rot>
3.1597

> <Gold.Chemscore.Internal.Correction>
   9.000000E+99

> <Gold.Chemscore.Hbonds>
donor molecule, donor type, donor heavy atom, donor atom, acceptor molecule, acceptor atom, score
      P1  H  6896  6907       L1    18  0.34
      P1  H  6896  6909       L1    12  0.69

> <Gold.Chemscore.Hbond.Weighted>
-6.5915

> <Gold.Chemscore.Metal.Weighted>
-0.0000

> <Gold.Chemscore.Lipo.Weighted>
-9.1462

> <Gold.Chemscore.Internal_Hbond.Weighted>
0.0000

> <Gold.Chemscore.DEClash.Weighted>
0.0021

> <Gold.Chemscore.DEInternal.Weighted>
1.7176

> <Gold.Chemscore.Rot.Weighted>
8.0888

> <Gold.Chemscore.Internal.Correction.Weighted>
   9.000000E+99

> <Gold.Protein.RotatedTorsions>
[ 6907 6896 6895 6894 ] final   70.69 input  -60.11 | X-H torsion
[ 7974 7965 7964 7962 ] final -132.70 input  175.53 | X-H torsion
[ 8008 7997 7996 7995 ] final  145.31 input   59.86 | X-H torsion
[ 10167 10162 10161 10158 ] final   56.71 input  -65.29 | X-H torsion
[ 10718 10713 10712 10709 ] final -134.60 input   66.30 | X-H torsion
[ 10763 10752 10751 10750 ] final    2.40 input  -60.55 | X-H torsion
[ 11005 11000 10999 10996 ] final  -29.86 input  -57.11 | X-H torsion

> <Gold.Protein.ActiveResidues>
 VAL166  LYS551  ARG553  GLY616  TRP617  ASP618  TYR619  PRO620  LYS621  CYS622 
 ASP623  PHE694  ASN695  SER759  ASP760  ASP761  ALA762  ILE779  LEU786  VAL792 
 PHE793  MET794  SER795  GLU796  ALA797  LYS798  CYS799  TRP800  GLU811  SER814 

> <Gold.Protein.RotatedAtoms>
  152.4765  134.4830  159.9671 H   0  0  0  0  0  0  0  0  0  0  0  0  # atno 6907 bound_to 6896
  151.4845  133.3533  159.2851 H   0  0  0  0  0  0  0  0  0  0  0  0  # atno 6908 bound_to 6896
  150.8807  134.8224  159.7284 H   0  0  0  0  0  0  0  0  0  0  0  0  # atno 6909 bound_to 6896
  144.9261  140.7072  143.4935 H   0  0  0  0  0  0  0  0  0  0  0  0  # atno 7974 bound_to 7965
  156.2886  140.2212  156.5195 H   0  0  0  0  0  0  0  0  0  0  0  0  # atno 8008 bound_to 7997
  154.7540  140.0478  157.0940 H   0  0  0  0  0  0  0  0  0  0  0  0  # atno 8009 bound_to 7997
  155.0073  140.3109  155.4846 H   0  0  0  0  0  0  0  0  0  0  0  0  # atno 8010 bound_to 7997
  140.2058  144.3941  150.6509 H   0  0  0  0  0  0  0  0  0  0  0  0  # atno 10167 bound_to 10162
  156.2572  130.7188  151.1109 H   0  0  0  0  0  0  0  0  0  0  0  0  # atno 10718 bound_to 10713
  153.2961  135.6952  153.7247 H   0  0  0  0  0  0  0  0  0  0  0  0  # atno 10763 bound_to 10752
  153.6180  135.3432  155.3002 H   0  0  0  0  0  0  0  0  0  0  0  0  # atno 10764 bound_to 10752
  154.8537  135.4379  154.2058 H   0  0  0  0  0  0  0  0  0  0  0  0  # atno 10765 bound_to 10752
  140.9333  133.7324  156.0968 H   0  0  0  0  0  0  0  0  0  0  0  0  # atno 11005 bound_to 11000
  145.3217  139.1786  143.4584 LP  0  0  0  0  0  0  0  0  0  0  0  0  # atno 17320 bound_to 7965
  146.3226  140.3236  142.8635 LP  0  0  0  0  0  0  0  0  0  0  0  0  # atno 17321 bound_to 7965
  140.6358  143.2195  151.6397 LP  0  0  0  0  0  0  0  0  0  0  0  0  # atno 17342 bound_to 10162
  139.5199  144.3239  152.0886 LP  0  0  0  0  0  0  0  0  0  0  0  0  # atno 17343 bound_to 10162
  157.7237  131.0664  150.6026 LP  0  0  0  0  0  0  0  0  0  0  0  0  # atno 17370 bound_to 10713
  156.6111  130.4380  149.5859 LP  0  0  0  0  0  0  0  0  0  0  0  0  # atno 17371 bound_to 10713
  140.7833  134.3700  157.5482 LP  0  0  0  0  0  0  0  0  0  0  0  0  # atno 17394 bound_to 11000
  139.8801  134.9095  156.2993 LP  0  0  0  0  0  0  0  0  0  0  0  0  # atno 17395 bound_to 11000

$$$$
