AV-unprocessed.smi:2572|AV-procd|sdf|10111|dock5
  -GOLD-   2272014133D 1   1.00000     0.00000
 Structure written by MMmdl.
 38 39  0  0  0  0  0  0  0  0  1 V2000
  146.7667  138.9072  157.7571 C   0  0  0  0  0  0  0  0  0  0  0  0
  145.7044  139.7882  157.3972 O   0  0  0  0  0  0  0  0  0  0  0  0
  145.9708  140.7165  156.4059 C   0  0  0  0  0  0  0  0  0  0  0  0
  144.9062  141.6044  155.9896 C   0  0  0  0  0  0  0  0  0  0  0  0
  145.1515  142.5117  155.0199 C   0  0  0  0  0  0  0  0  0  0  0  0
  146.4623  142.6215  154.3802 C   0  0  0  0  0  0  0  0  0  0  0  0
  146.7103  143.4354  153.4910 O   0  0  0  0  0  0  0  0  0  0  0  0
  147.3852  141.7358  154.8604 N   0  0  0  0  0  0  0  0  0  0  0  0
  148.7508  141.6920  154.3248 C   0  0  0  0  0  0  0  0  0  0  0  0
  149.5654  140.5235  154.9224 C   0  0  1  0  0  0  0  0  0  0  0  0
  150.2663  139.8801  153.8760 O   0  0  0  0  0  0  0  0  0  0  0  0
  150.6013  141.0160  155.9506 C   0  0  0  0  0  0  0  0  0  0  0  0
  149.9764  141.7578  157.1441 C   0  0  0  0  0  0  0  0  0  0  0  0
  150.9864  142.6264  157.8695 C   0  0  0  0  0  0  0  0  0  0  0  0
  151.3967  143.8555  157.3114 C   0  0  0  0  0  0  0  0  0  0  0  0
  152.3327  144.6620  157.9882 C   0  0  0  0  0  0  0  0  0  0  0  0
  152.8592  144.2439  159.2258 C   0  0  0  0  0  0  0  0  0  0  0  0
  152.4496  143.0188  159.7869 C   0  0  0  0  0  0  0  0  0  0  0  0
  151.5156  142.2107  159.1095 C   0  0  0  0  0  0  0  0  0  0  0  0
  147.1399  140.8018  155.8533 N   0  0  0  0  0  0  0  0  0  0  0  0
  146.4213  138.2361  158.5433 H   0  0  0  0  0  0  0  0  0  0  0  0
  147.6301  139.4491  158.1474 H   0  0  0  0  0  0  0  0  0  0  0  0
  147.0828  138.2877  156.9157 H   0  0  0  0  0  0  0  0  0  0  0  0
  143.9338  141.5329  156.4542 H   0  0  0  0  0  0  0  0  0  0  0  0
  144.3593  143.1754  154.7065 H   0  0  0  0  0  0  0  0  0  0  0  0
  148.7691  141.6669  153.2335 H   0  0  0  0  0  0  0  0  0  0  0  0
  149.2310  142.6372  154.5850 H   0  0  0  0  0  0  0  0  0  0  0  0
  148.8989  139.8060  155.4033 H   0  0  0  0  0  0  0  0  0  0  0  0
  149.7554  139.9484  153.0842 H   0  0  0  0  0  0  0  0  0  0  0  0
  151.2033  140.1779  156.3052 H   0  0  0  0  0  0  0  0  0  0  0  0
  151.2932  141.6969  155.4529 H   0  0  0  0  0  0  0  0  0  0  0  0
  149.1530  142.3867  156.8031 H   0  0  0  0  0  0  0  0  0  0  0  0
  149.5462  141.0470  157.8506 H   0  0  0  0  0  0  0  0  0  0  0  0
  150.9946  144.1839  156.3640 H   0  0  0  0  0  0  0  0  0  0  0  0
  152.6464  145.6016  157.5582 H   0  0  0  0  0  0  0  0  0  0  0  0
  153.5765  144.8628  159.7444 H   0  0  0  0  0  0  0  0  0  0  0  0
  152.8517  142.6988  160.7370 H   0  0  0  0  0  0  0  0  0  0  0  0
  151.2046  141.2723  159.5451 H   0  0  0  0  0  0  0  0  0  0  0  0
  1  2  1  0  0  0  0
  1 21  1  0  0  0  0
  1 22  1  0  0  0  0
  1 23  1  0  0  0  0
  2  3  1  0  0  0  0
  3 20  2  0  0  0  0
  3  4  1  0  0  0  0
  4  5  2  0  0  0  0
  4 24  1  0  0  0  0
  5  6  1  0  0  0  0
  5 25  1  0  0  0  0
  6  7  2  0  0  0  0
  6  8  1  0  0  0  0
  8  9  1  0  0  0  0
  8 20  1  0  0  0  0
  9 10  1  0  0  0  0
  9 26  1  0  0  0  0
  9 27  1  0  0  0  0
 10 11  1  0  0  0  0
 10 12  1  0  0  0  0
 10 28  1  0  0  0  0
 11 29  1  0  0  0  0
 12 13  1  0  0  0  0
 12 30  1  0  0  0  0
 12 31  1  0  0  0  0
 13 14  1  0  0  0  0
 13 32  1  0  0  0  0
 13 33  1  0  0  0  0
 14 19  1  0  0  0  0
 14 15  2  0  0  0  0
 15 16  1  0  0  0  0
 15 34  1  0  0  0  0
 16 17  2  0  0  0  0
 16 35  1  0  0  0  0
 17 18  1  0  0  0  0
 17 36  1  0  0  0  0
 18 19  2  0  0  0  0
 18 37  1  0  0  0  0
 19 38  1  0  0  0  0
M  END
> <s_m_source_file>
AV-unprocessed.smi

> <i_m_source_file_index>
2572

> <i_lp_mmshare_version>
43012

> <i_f3d_flags>
0

> <s_epik_input>
W0NIM11PYzFbY0hdW2NIXWMoPU8pbihuMSlbQ0gyXVtDQEhdKFtPSF0pW0NIMl1bQ0gyXWMyW2NIXVtjSF1bY0hdW2NIXVtjSF0y

> <s_epik_cmdline>
J2VwaWtfcHl0aG9uJywgJy1waCcsICc3LjAnLCAnLXRuJywgJzgnLCAnLW1hJywgJzIwMCcsICctbWV0YWxfYmluZGluZycsICctaW1hZScsICc8aW5maWxlLm1hZT4nLCAnLW9tYWUnLCAnPG91dGZpbGUubWFlPic=

> <r_lp_tautomer_probability>
1

> <r_epik_Ionization_Penalty>
8.48543e-06

> <r_epik_Ionization_Penalty_Charging>
6.90219e-06

> <r_epik_Ionization_Penalty_Neutral>
1.58323e-06

> <r_epik_State_Penalty>
-0

> <r_epik_Charging_Adjusted_Penalty>
6.90219e-06

> <i_epik_Tot_Q>
0

> <i_epik_Tot_abs_Q>
0

> <r_epik_Metal_State_Penalty>
-0

> <b_epik_Metal_Only>
0

> <s_lp_Force_Field>
OPLS_2005

> <r_lp_Energy>
30.5458

> <b_lp_Chiralities_Consistent>
1

> <s_lp_Variant>
AV-unprocessed.smi:2572-2

> <Gold.Version>
5.8.1

> <Gold.Id.Protein>
6NUR|6NUR_protein|mol2

> <Gold.PLP.Fitness>
43.0402

> <Gold.PLP.PLP>
-38.9245

> <Gold.PLP.part.hbond>
-3.0000

> <Gold.PLP.part.metal>
0.0000

> <Gold.PLP.part.buried>
-0.4004

> <Gold.PLP.part.nonpolar>
-36.0050

> <Gold.PLP.part.repulsive>
0.2536

> <Gold.PLP.ligand.clash>
0.0000

> <Gold.PLP.ligand.torsion>
0.9639

> <Gold.PLP.Chemscore.Hbond>
2.0015

> <Gold.PLP.Chemscore.CHOScore>
0.0000

> <Gold.PLP.Chemscore.Metal>
0.0000

> <Gold.Chemscore.Hbonds>
donor molecule, donor type, donor heavy atom, donor atom, acceptor molecule, acceptor atom, score
      L1  H    11    29       P1  7957  1.00
      P1  H  7989  7998       L1    11  0.96
      P1  H  8022  8030       L1     7  0.06

> <Gold.PLP.Chemscore.Internal.Correction>
0.0389

> <Gold.Rescore>
     Score         DG    S(hbond)    S(metal)    S(lipo)     H(rot)  DE(clash)    DE(int)     intcor
     14.55     -15.75       1.45        0.00     101.66       2.52       0.27       0.93       ----

> <Gold.Chemscore.Fitness>
14.5467

> <Gold.Chemscore.DG>
-15.7526

> <Gold.Chemscore.ZeroCoef>
-5.4800

> <Gold.Chemscore.Hbond>
1.4467

> <Gold.Chemscore.Metal>
0.0000

> <Gold.Chemscore.Lipo>
101.6648

> <Gold.Chemscore.Internal_Hbond>
0.0000

> <Gold.Chemscore.DEClash>
0.2735

> <Gold.Chemscore.DEInternal>
0.9324

> <Gold.Chemscore.Rot>
2.5212

> <Gold.Chemscore.Internal.Correction>
   9.000000E+99

> <Gold.Chemscore.Hbonds>
donor molecule, donor type, donor heavy atom, donor atom, acceptor molecule, acceptor atom, score
      L1  H    11    29       P1  7957  0.95
      P1  H  7989  7998       L1    11  0.15
      P1  H  8022  8030       L1     7  0.06

> <Gold.Chemscore.Hbond.Weighted>
-4.8321

> <Gold.Chemscore.Metal.Weighted>
-0.0000

> <Gold.Chemscore.Lipo.Weighted>
-11.8948

> <Gold.Chemscore.Internal_Hbond.Weighted>
0.0000

> <Gold.Chemscore.DEClash.Weighted>
0.2735

> <Gold.Chemscore.DEInternal.Weighted>
0.9324

> <Gold.Chemscore.Rot.Weighted>
6.4543

> <Gold.Chemscore.Internal.Correction.Weighted>
   9.000000E+99

> <Gold.Protein.RotatedTorsions>
[ 6907 6896 6895 6894 ] final   12.85 input  -60.11 | X-H torsion
[ 7974 7965 7964 7962 ] final  177.76 input  175.53 | X-H torsion
[ 8008 7997 7996 7995 ] final   77.56 input   59.86 | X-H torsion
[ 10167 10162 10161 10158 ] final -137.43 input  -65.29 | X-H torsion
[ 10718 10713 10712 10709 ] final  -74.57 input   66.30 | X-H torsion
[ 10763 10752 10751 10750 ] final  -65.30 input  -60.55 | X-H torsion
[ 11005 11000 10999 10996 ] final    0.86 input  -57.11 | X-H torsion

> <Gold.Protein.ActiveResidues>
 VAL166  LYS551  ARG553  GLY616  TRP617  ASP618  TYR619  PRO620  LYS621  CYS622 
 ASP623  PHE694  ASN695  SER759  ASP760  ASP761  ALA762  ILE779  LEU786  VAL792 
 PHE793  MET794  SER795  GLU796  ALA797  LYS798  CYS799  TRP800  GLU811  SER814 

> <Gold.Protein.RotatedAtoms>
  151.7770  135.0771  160.0367 H   0  0  0  0  0  0  0  0  0  0  0  0  # atno 6907 bound_to 6896
  152.3249  133.5890  159.5778 H   0  0  0  0  0  0  0  0  0  0  0  0  # atno 6908 bound_to 6896
  150.7390  133.9871  159.3637 H   0  0  0  0  0  0  0  0  0  0  0  0  # atno 6909 bound_to 6896
  144.7164  140.0296  143.6439 H   0  0  0  0  0  0  0  0  0  0  0  0  # atno 7974 bound_to 7965
  155.8434  140.3461  155.5646 H   0  0  0  0  0  0  0  0  0  0  0  0  # atno 8008 bound_to 7997
  155.8116  140.0900  157.1920 H   0  0  0  0  0  0  0  0  0  0  0  0  # atno 8009 bound_to 7997
  154.4005  140.1446  156.3381 H   0  0  0  0  0  0  0  0  0  0  0  0  # atno 8010 bound_to 7997
  139.8578  143.7115  152.2653 H   0  0  0  0  0  0  0  0  0  0  0  0  # atno 10167 bound_to 10162
  156.0238  130.4420  150.2913 H   0  0  0  0  0  0  0  0  0  0  0  0  # atno 10718 bound_to 10713
  154.3430  135.6152  153.5605 H   0  0  0  0  0  0  0  0  0  0  0  0  # atno 10763 bound_to 10752
  152.9803  135.5774  154.4831 H   0  0  0  0  0  0  0  0  0  0  0  0  # atno 10764 bound_to 10752
  154.4539  135.2853  155.1739 H   0  0  0  0  0  0  0  0  0  0  0  0  # atno 10765 bound_to 10752
  140.6218  133.9654  155.8229 H   0  0  0  0  0  0  0  0  0  0  0  0  # atno 11005 bound_to 11000
  146.0113  139.3172  143.0868 LP  0  0  0  0  0  0  0  0  0  0  0  0  # atno 17320 bound_to 7965
  145.8678  140.9438  143.0666 LP  0  0  0  0  0  0  0  0  0  0  0  0  # atno 17321 bound_to 7965
  139.7403  144.7561  151.0664 LP  0  0  0  0  0  0  0  0  0  0  0  0  # atno 17342 bound_to 10162
  140.7779  143.4981  150.9806 LP  0  0  0  0  0  0  0  0  0  0  0  0  # atno 17343 bound_to 10162
  157.1016  131.0197  151.3083 LP  0  0  0  0  0  0  0  0  0  0  0  0  # atno 17370 bound_to 10713
  157.4775  130.7745  149.7382 LP  0  0  0  0  0  0  0  0  0  0  0  0  # atno 17371 bound_to 10713
  141.0737  134.0167  157.3489 LP  0  0  0  0  0  0  0  0  0  0  0  0  # atno 17394 bound_to 11000
  139.9150  135.0195  156.7846 LP  0  0  0  0  0  0  0  0  0  0  0  0  # atno 17395 bound_to 11000

$$$$
