AV-unprocessed.smi:99|AV-procd|sdf|880|dock1
  -GOLD-   2262017353D 1   1.00000     0.00000
 Structure written by MMmdl.
 53 56  0  0  0  0  0  0  0  0  1 V2000
  152.2659  137.1497  154.8517 O   0  0  0  0  0  0  0  0  0  0  0  0
  151.0537  137.3716  154.8472 C   0  0  0  0  0  0  0  0  0  0  0  0
  150.1174  136.4052  154.7905 O   0  0  0  0  0  0  0  0  0  0  0  0
  150.4924  135.0378  154.7531 C   0  0  0  0  0  0  0  0  0  0  0  0
  149.2263  134.1792  154.6415 C   0  0  1  0  0  0  0  0  0  0  0  0
  149.3524  133.2676  153.5541 O   0  0  0  0  0  0  0  0  0  0  0  0
  148.5547  132.1375  153.7769 C   0  0  2  0  0  0  0  0  0  0  0  0
  147.4519  132.0863  152.7377 N   0  0  0  0  0  0  0  0  0  0  0  0
  147.1770  133.1561  151.8944 C   0  0  0  0  0  0  0  0  0  0  0  0
  146.1941  133.1273  150.9634 C   0  0  0  0  0  0  0  0  0  0  0  0
  145.3580  131.9419  150.8042 C   0  0  0  0  0  0  0  0  0  0  0  0
  144.4476  131.8212  149.9874 O   0  0  0  0  0  0  0  0  0  0  0  0
  145.6625  130.8953  151.6793 N   0  0  0  0  0  0  0  0  0  0  0  0
  146.6698  130.9147  152.6450 C   0  0  0  0  0  0  0  0  0  0  0  0
  146.8428  129.9414  153.3776 O   0  0  0  0  0  0  0  0  0  0  0  0
  148.0184  132.2251  155.2251 C   0  0  2  0  0  0  0  0  0  0  0  0
  146.6749  132.6820  155.2861 O   0  0  0  0  0  0  0  0  0  0  0  0
  148.9818  133.2393  155.8212 C   0  0  2  0  0  0  0  0  0  0  0  0
  148.4498  133.8641  156.9868 O   0  0  0  0  0  0  0  0  0  0  0  0
  148.7200  133.3909  158.2232 C   0  0  0  0  0  0  0  0  0  0  0  0
  149.4213  132.4012  158.4418 O   0  0  0  0  0  0  0  0  0  0  0  0
  148.1140  134.2202  159.3033 C   0  0  0  0  0  0  0  0  0  0  0  0
  147.7867  133.6157  160.5394 C   0  0  0  0  0  0  0  0  0  0  0  0
  147.2386  134.3793  161.5880 C   0  0  0  0  0  0  0  0  0  0  0  0
  147.0068  135.7558  161.4113 C   0  0  0  0  0  0  0  0  0  0  0  0
  147.3237  136.3679  160.1848 C   0  0  0  0  0  0  0  0  0  0  0  0
  147.8748  135.6064  159.1359 C   0  0  0  0  0  0  0  0  0  0  0  0
  150.4642  138.7388  154.9342 C   0  0  0  0  0  0  0  0  0  0  0  0
  151.1453  139.7433  155.6604 C   0  0  0  0  0  0  0  0  0  0  0  0
  150.5986  141.0356  155.7823 C   0  0  0  0  0  0  0  0  0  0  0  0
  149.3647  141.3398  155.1780 C   0  0  0  0  0  0  0  0  0  0  0  0
  148.6802  140.3511  154.4475 C   0  0  0  0  0  0  0  0  0  0  0  0
  149.2264  139.0591  154.3232 C   0  0  0  0  0  0  0  0  0  0  0  0
  145.1042  130.0568  151.6086 H   0  0  0  0  0  0  0  0  0  0  0  0
  151.1385  134.8737  153.8901 H   0  0  0  0  0  0  0  0  0  0  0  0
  151.0548  134.7562  155.6445 H   0  0  0  0  0  0  0  0  0  0  0  0
  148.3527  134.8097  154.4674 H   0  0  0  0  0  0  0  0  0  0  0  0
  149.1835  131.2626  153.6009 H   0  0  0  0  0  0  0  0  0  0  0  0
  147.7566  134.0637  151.9696 H   0  0  0  0  0  0  0  0  0  0  0  0
  146.0238  133.9881  150.3328 H   0  0  0  0  0  0  0  0  0  0  0  0
  148.0884  131.2518  155.7118 H   0  0  0  0  0  0  0  0  0  0  0  0
  146.1059  131.9653  155.0497 H   0  0  0  0  0  0  0  0  0  0  0  0
  149.9113  132.7133  156.0447 H   0  0  0  0  0  0  0  0  0  0  0  0
  147.9630  132.5619  160.7009 H   0  0  0  0  0  0  0  0  0  0  0  0
  146.9992  133.9085  162.5299 H   0  0  0  0  0  0  0  0  0  0  0  0
  146.5874  136.3416  162.2160 H   0  0  0  0  0  0  0  0  0  0  0  0
  147.1459  137.4244  160.0478 H   0  0  0  0  0  0  0  0  0  0  0  0
  148.1103  136.1076  158.2085 H   0  0  0  0  0  0  0  0  0  0  0  0
  152.0906  139.5309  156.1394 H   0  0  0  0  0  0  0  0  0  0  0  0
  151.1259  141.7932  156.3432 H   0  0  0  0  0  0  0  0  0  0  0  0
  148.9435  142.3295  155.2753 H   0  0  0  0  0  0  0  0  0  0  0  0
  147.7310  140.5811  153.9861 H   0  0  0  0  0  0  0  0  0  0  0  0
  148.6701  138.3225  153.7617 H   0  0  0  0  0  0  0  0  0  0  0  0
  1  2  2  0  0  0  0
  2  3  1  0  0  0  0
  2 28  1  0  0  0  0
  3  4  1  0  0  0  0
  4  5  1  0  0  0  0
  4 35  1  0  0  0  0
  4 36  1  0  0  0  0
  5 18  1  0  0  0  0
  5  6  1  0  0  0  0
  5 37  1  0  0  0  0
  6  7  1  0  0  0  0
  7  8  1  0  0  0  0
  7 16  1  0  0  0  0
  7 38  1  0  0  0  0
  8 14  1  0  0  0  0
  8  9  1  0  0  0  0
  9 10  2  0  0  0  0
  9 39  1  0  0  0  0
 10 11  1  0  0  0  0
 10 40  1  0  0  0  0
 11 12  2  0  0  0  0
 11 13  1  0  0  0  0
 13 34  1  0  0  0  0
 13 14  1  0  0  0  0
 14 15  2  0  0  0  0
 16 17  1  0  0  0  0
 16 18  1  0  0  0  0
 16 41  1  0  0  0  0
 17 42  1  0  0  0  0
 18 19  1  0  0  0  0
 18 43  1  0  0  0  0
 19 20  1  0  0  0  0
 20 21  2  0  0  0  0
 20 22  1  0  0  0  0
 22 27  1  0  0  0  0
 22 23  2  0  0  0  0
 23 24  1  0  0  0  0
 23 44  1  0  0  0  0
 24 25  2  0  0  0  0
 24 45  1  0  0  0  0
 25 26  1  0  0  0  0
 25 46  1  0  0  0  0
 26 27  2  0  0  0  0
 26 47  1  0  0  0  0
 27 48  1  0  0  0  0
 28 33  1  0  0  0  0
 28 29  2  0  0  0  0
 29 30  1  0  0  0  0
 29 49  1  0  0  0  0
 30 31  2  0  0  0  0
 30 50  1  0  0  0  0
 31 32  1  0  0  0  0
 31 51  1  0  0  0  0
 32 33  2  0  0  0  0
 32 52  1  0  0  0  0
 33 53  1  0  0  0  0
M  END
> <s_m_source_file>
AV-unprocessed.smi

> <i_m_source_file_index>
99

> <i_lp_mmshare_version>
43012

> <i_f3d_flags>
0

> <s_epik_input>
W2NIXTFbY0hdW2NIXVtjSF1bY0hdYzFDKD1PKU9bQ0gyXVtDQEBIXTJPW0NAQEhdKG4zW2NIXVtjSF1jKD1PKVtuSF1jMz1PKVtDQEBIXShbT0hdKVtDQEhdMk9DKD1PKWM0W2NIXVtjSF1bY0hdW2NIXVtjSF00

> <s_epik_cmdline>
J2VwaWtfcHl0aG9uJywgJy1waCcsICc3LjAnLCAnLXRuJywgJzgnLCAnLW1hJywgJzIwMCcsICctbWV0YWxfYmluZGluZycsICctaW1hZScsICc8aW5maWxlLm1hZT4nLCAnLW9tYWUnLCAnPG91dGZpbGUubWFlPic=

> <r_lp_tautomer_probability>
1

> <r_epik_Ionization_Penalty>
0.00454555

> <r_epik_Ionization_Penalty_Charging>
0.0045191

> <r_epik_Ionization_Penalty_Neutral>
2.64449e-05

> <r_epik_State_Penalty>
-0

> <r_epik_Charging_Adjusted_Penalty>
0.0045191

> <i_epik_Tot_Q>
0

> <i_epik_Tot_abs_Q>
0

> <r_epik_Metal_State_Penalty>
1.27877

> <b_epik_Metal_Only>
0

> <s_epik_Chemistry_Notes>
This compound has an ester and may undergo hydrolysis at high or low pH. This compound contains an acetal/aminal-like group ( X-CH(R)-Y where X, Y are N, S, or O) that may be acid/base labile, releasing an aldehyde.

> <s_lp_Force_Field>
OPLS_2005

> <r_lp_Energy>
44.2289

> <b_lp_Chiralities_Consistent>
1

> <s_lp_Variant>
AV-unprocessed.smi:99-16

> <Gold.Version>
5.8.1

> <Gold.Id.Protein>
6NUR|6NUR_protein|mol2

> <Gold.PLP.Fitness>
55.0912

> <Gold.PLP.PLP>
-50.3882

> <Gold.PLP.part.hbond>
-2.1043

> <Gold.PLP.part.metal>
0.0000

> <Gold.PLP.part.buried>
-8.4307

> <Gold.PLP.part.nonpolar>
-43.0191

> <Gold.PLP.part.repulsive>
0.7858

> <Gold.PLP.ligand.clash>
0.0000

> <Gold.PLP.ligand.torsion>
2.1350

> <Gold.PLP.Chemscore.Hbond>
1.8000

> <Gold.PLP.Chemscore.CHOScore>
0.9916

> <Gold.PLP.Chemscore.Metal>
0.0000

> <Gold.Chemscore.Hbonds>
donor molecule, donor type, donor heavy atom, donor atom, acceptor molecule, acceptor atom, score
      P1  H  6896  6909       L1    21  0.59
      P1  H 10752 10765       L1     1  0.80
      P1  H 10785 10796       L1    12  0.01
      L1  C     9    39       P1  7948  0.80

> <Gold.PLP.Chemscore.Internal.Correction>
0.5980

> <Gold.Rescore>
     Score         DG    S(hbond)    S(metal)    S(lipo)     H(rot)  DE(clash)    DE(int)     intcor
     12.69     -15.18       1.71        0.00     103.95       3.19       0.24       2.25       ----

> <Gold.Chemscore.Fitness>
12.6875

> <Gold.Chemscore.DG>
-15.1839

> <Gold.Chemscore.ZeroCoef>
-5.4800

> <Gold.Chemscore.Hbond>
1.7091

> <Gold.Chemscore.Metal>
0.0000

> <Gold.Chemscore.Lipo>
103.9541

> <Gold.Chemscore.Internal_Hbond>
0.0000

> <Gold.Chemscore.DEClash>
0.2448

> <Gold.Chemscore.DEInternal>
2.2516

> <Gold.Chemscore.Rot>
3.1903

> <Gold.Chemscore.Internal.Correction>
   9.000000E+99

> <Gold.Chemscore.Hbonds>
donor molecule, donor type, donor heavy atom, donor atom, acceptor molecule, acceptor atom, score
      P1  H  6896  6909       L1    21  0.06
      P1  H 10752 10765       L1     1  0.79
      P1  H 10785 10796       L1    12  0.04

> <Gold.Chemscore.Hbond.Weighted>
-5.7084

> <Gold.Chemscore.Metal.Weighted>
-0.0000

> <Gold.Chemscore.Lipo.Weighted>
-12.1626

> <Gold.Chemscore.Internal_Hbond.Weighted>
0.0000

> <Gold.Chemscore.DEClash.Weighted>
0.2448

> <Gold.Chemscore.DEInternal.Weighted>
2.2516

> <Gold.Chemscore.Rot.Weighted>
8.1671

> <Gold.Chemscore.Internal.Correction.Weighted>
   9.000000E+99

> <Gold.Protein.RotatedTorsions>
[ 6907 6896 6895 6894 ] final  -19.27 input  -60.11 | X-H torsion
[ 7974 7965 7964 7962 ] final  115.99 input  175.53 | X-H torsion
[ 8008 7997 7996 7995 ] final    6.53 input   59.86 | X-H torsion
[ 10167 10162 10161 10158 ] final  104.66 input  -65.29 | X-H torsion
[ 10718 10713 10712 10709 ] final -117.75 input   66.30 | X-H torsion
[ 10763 10752 10751 10750 ] final  173.39 input  -60.55 | X-H torsion
[ 11005 11000 10999 10996 ] final   65.78 input  -57.11 | X-H torsion

> <Gold.Protein.ActiveResidues>
 VAL166  LYS551  ARG553  GLY616  TRP617  ASP618  TYR619  PRO620  LYS621  CYS622 
 ASP623  PHE694  ASN695  SER759  ASP760  ASP761  ALA762  ILE779  LEU786  VAL792 
 PHE793  MET794  SER795  GLU796  ALA797  LYS798  CYS799  TRP800  GLU811  SER814 

> <Gold.Protein.RotatedAtoms>
  151.2657  135.0668  159.9114 H   0  0  0  0  0  0  0  0  0  0  0  0  # atno 6907 bound_to 6896
  152.5359  134.0184  159.7980 H   0  0  0  0  0  0  0  0  0  0  0  0  # atno 6908 bound_to 6896
  151.0414  133.5653  159.2682 H   0  0  0  0  0  0  0  0  0  0  0  0  # atno 6909 bound_to 6896
  145.1851  139.3029  143.4397 H   0  0  0  0  0  0  0  0  0  0  0  0  # atno 7974 bound_to 7965
  154.7422  140.2751  155.6363 H   0  0  0  0  0  0  0  0  0  0  0  0  # atno 8008 bound_to 7997
  156.2876  140.2695  156.2079 H   0  0  0  0  0  0  0  0  0  0  0  0  # atno 8009 bound_to 7997
  155.0243  140.0371  157.2439 H   0  0  0  0  0  0  0  0  0  0  0  0  # atno 8010 bound_to 7997
  139.7158  144.7068  151.0952 H   0  0  0  0  0  0  0  0  0  0  0  0  # atno 10167 bound_to 10162
  156.1056  130.6208  150.9204 H   0  0  0  0  0  0  0  0  0  0  0  0  # atno 10718 bound_to 10713
  154.4394  135.2761  155.1858 H   0  0  0  0  0  0  0  0  0  0  0  0  # atno 10763 bound_to 10752
  154.3730  135.6104  153.5754 H   0  0  0  0  0  0  0  0  0  0  0  0  # atno 10764 bound_to 10752
  152.9840  135.5862  154.4719 H   0  0  0  0  0  0  0  0  0  0  0  0  # atno 10765 bound_to 10752
  139.9873  134.6648  156.0153 H   0  0  0  0  0  0  0  0  0  0  0  0  # atno 11005 bound_to 11000
  146.3446  140.2044  142.8589 LP  0  0  0  0  0  0  0  0  0  0  0  0  # atno 17320 bound_to 7965
  145.0097  140.8703  143.5232 LP  0  0  0  0  0  0  0  0  0  0  0  0  # atno 17321 bound_to 7965
  140.7743  143.5231  150.9512 LP  0  0  0  0  0  0  0  0  0  0  0  0  # atno 17342 bound_to 10162
  139.8917  143.6945  152.3144 LP  0  0  0  0  0  0  0  0  0  0  0  0  # atno 17343 bound_to 10162
  157.6232  131.0928  150.8582 LP  0  0  0  0  0  0  0  0  0  0  0  0  # atno 17370 bound_to 10713
  156.8702  130.5143  149.5297 LP  0  0  0  0  0  0  0  0  0  0  0  0  # atno 17371 bound_to 10713
  141.1535  133.6545  156.4089 LP  0  0  0  0  0  0  0  0  0  0  0  0  # atno 17394 bound_to 11000
  140.4977  134.6515  157.5236 LP  0  0  0  0  0  0  0  0  0  0  0  0  # atno 17395 bound_to 11000

$$$$
