AV-unprocessed.smi:2083|AV-procd|sdf|8496|dock1
  -GOLD-   2272011203D 1   1.00000     0.00000
 Structure written by MMmdl.
 45 46  0  0  0  0  0  0  0  0  2 V2000
  148.1454  126.8757  150.8962 C   0  0  0  0  0  0  0  0  0  0  0  0
  147.6178  127.6642  152.0453 C   0  0  0  0  0  0  0  0  0  0  0  0
  146.9571  128.8575  152.1292 C   0  0  0  0  0  0  0  0  0  0  0  0
  146.7590  129.0155  153.5264 C   0  0  0  0  0  0  0  0  0  0  0  0
  146.0919  130.1556  154.0422 N   0  0  0  0  0  0  0  0  0  0  0  0
  146.6376  131.3326  154.3919 C   0  0  0  0  0  0  0  0  0  0  0  0
  147.8325  131.6165  154.3024 O   0  0  0  0  0  0  0  0  0  0  0  0
  145.7124  132.1826  154.8606 N   0  0  0  0  0  0  0  0  0  0  0  0
  145.9858  133.5444  155.3120 C   0  0  0  0  0  0  0  0  0  0  0  0
  147.0860  134.2573  154.4742 C   0  0  2  0  0  0  0  0  0  0  0  0
  147.6211  135.4892  155.2391 C   0  0  0  0  0  0  0  0  0  0  0  0
  146.6479  134.6616  153.0965 N   0  3  2  0  0  0  0  0  0  0  0  0
  145.5305  135.6490  153.0317 C   0  0  0  0  0  0  0  0  0  0  0  0
  145.2409  136.0874  151.5865 C   0  0  0  0  0  0  0  0  0  0  0  0
  144.9493  134.8852  150.6845 C   0  0  0  0  0  0  0  0  0  0  0  0
  146.1074  133.8807  150.7662 C   0  0  2  0  0  0  0  0  0  0  0  0
  145.8465  132.6526  149.8826 C   0  0  0  0  0  0  0  0  0  0  0  0
  146.3532  133.4799  152.2340 C   0  0  0  0  0  0  0  0  0  0  0  0
  147.2507  128.0084  154.2318 N   0  0  0  0  0  0  0  0  0  0  0  0
  147.8046  127.1376  153.2860 O   0  0  0  0  0  0  0  0  0  0  0  0
  147.8041  127.2921  149.9485 H   0  0  0  0  0  0  0  0  0  0  0  0
  147.8103  125.8399  150.9503 H   0  0  0  0  0  0  0  0  0  0  0  0
  149.2353  126.8800  150.8940 H   0  0  0  0  0  0  0  0  0  0  0  0
  146.6658  129.5102  151.3196 H   0  0  0  0  0  0  0  0  0  0  0  0
  145.0934  130.0632  154.1563 H   0  0  0  0  0  0  0  0  0  0  0  0
  144.7529  131.8706  154.9009 H   0  0  0  0  0  0  0  0  0  0  0  0
  145.0412  134.0888  155.2773 H   0  0  0  0  0  0  0  0  0  0  0  0
  146.2842  133.4948  156.3598 H   0  0  0  0  0  0  0  0  0  0  0  0
  147.9060  133.5472  154.3550 H   0  0  0  0  0  0  0  0  0  0  0  0
  148.0043  135.2198  156.2232 H   0  0  0  0  0  0  0  0  0  0  0  0
  146.8350  136.2305  155.3852 H   0  0  0  0  0  0  0  0  0  0  0  0
  148.4433  135.9813  154.7225 H   0  0  0  0  0  0  0  0  0  0  0  0
  144.6350  135.2207  153.4854 H   0  0  0  0  0  0  0  0  0  0  0  0
  145.7777  136.5532  153.5864 H   0  0  0  0  0  0  0  0  0  0  0  0
  144.3965  136.7773  151.5699 H   0  0  0  0  0  0  0  0  0  0  0  0
  146.0964  136.6386  151.1943 H   0  0  0  0  0  0  0  0  0  0  0  0
  144.0166  134.4104  150.9928 H   0  0  0  0  0  0  0  0  0  0  0  0
  144.8063  135.2185  149.6559 H   0  0  0  0  0  0  0  0  0  0  0  0
  147.0093  134.3681  150.3923 H   0  0  0  0  0  0  0  0  0  0  0  0
  144.9561  132.1125  150.2060 H   0  0  0  0  0  0  0  0  0  0  0  0
  146.6869  131.9589  149.9151 H   0  0  0  0  0  0  0  0  0  0  0  0
  145.7001  132.9423  148.8415 H   0  0  0  0  0  0  0  0  0  0  0  0
  147.1769  132.7689  152.2627 H   0  0  0  0  0  0  0  0  0  0  0  0
  145.4810  132.9554  152.6285 H   0  0  0  0  0  0  0  0  0  0  0  0
  147.4420  135.1303  152.6846 H   0  0  0  0  0  0  0  0  0  0  0  0
  1  2  1  0  0  0  0
  1 21  1  0  0  0  0
  1 22  1  0  0  0  0
  1 23  1  0  0  0  0
  2 20  1  0  0  0  0
  2  3  2  0  0  0  0
  3  4  1  0  0  0  0
  3 24  1  0  0  0  0
  4  5  1  0  0  0  0
  4 19  2  0  0  0  0
  5  6  1  0  0  0  0
  5 25  1  0  0  0  0
  6  7  2  0  0  0  0
  6  8  1  0  0  0  0
  8  9  1  0  0  0  0
  8 26  1  0  0  0  0
  9 10  1  0  0  0  0
  9 27  1  0  0  0  0
  9 28  1  0  0  0  0
 10 11  1  0  0  0  0
 10 12  1  0  0  0  0
 10 29  1  0  0  0  0
 11 30  1  0  0  0  0
 11 31  1  0  0  0  0
 11 32  1  0  0  0  0
 12 18  1  0  0  0  0
 12 13  1  0  0  0  0
 12 45  1  0  0  0  0
 13 14  1  0  0  0  0
 13 33  1  0  0  0  0
 13 34  1  0  0  0  0
 14 15  1  0  0  0  0
 14 35  1  0  0  0  0
 14 36  1  0  0  0  0
 15 16  1  0  0  0  0
 15 37  1  0  0  0  0
 15 38  1  0  0  0  0
 16 17  1  0  0  0  0
 16 18  1  0  0  0  0
 16 39  1  0  0  0  0
 17 40  1  0  0  0  0
 17 41  1  0  0  0  0
 17 42  1  0  0  0  0
 18 43  1  0  0  0  0
 18 44  1  0  0  0  0
 19 20  1  0  0  0  0
M  CHG  1  12   1
M  END
> <s_m_source_file>
AV-unprocessed.smi

> <i_m_source_file_index>
2083

> <i_lp_mmshare_version>
43012

> <i_f3d_flags>
0

> <s_epik_input>
W0NIM11jMVtjSF1jKG5vMSlbTkhdQyg9TylbTkhdW0NIMl1bQ0BIXShbQ0gzXSlOMltDSDJdW0NIMl1bQ0gyXVtDQEBIXShbQ0gzXSlbQ0gyXTI=

> <s_epik_cmdline>
J2VwaWtfcHl0aG9uJywgJy1waCcsICc3LjAnLCAnLXRuJywgJzgnLCAnLW1hJywgJzIwMCcsICctbWV0YWxfYmluZGluZycsICctaW1hZScsICc8aW5maWxlLm1hZT4nLCAnLW9tYWUnLCAnPG91dGZpbGUubWFlPic=

> <r_epik_Ionization_Penalty>
0.00216453

> <r_epik_Ionization_Penalty_Charging>
0.00212879

> <r_epik_Ionization_Penalty_Neutral>
3.57418e-05

> <r_epik_State_Penalty>
0.00146033

> <r_epik_Charging_Adjusted_Penalty>
0.00358912

> <i_epik_Tot_Q>
1

> <i_epik_Tot_abs_Q>
1

> <r_epik_Metal_State_Penalty>
0.0215827

> <b_epik_Metal_Only>
0

> <s_lp_Force_Field>
OPLS_2005

> <r_lp_Energy>
18.748

> <b_lp_Chiralities_Consistent>
1

> <s_lp_Variant>
AV-unprocessed.smi:2083-7

> <Gold.Version>
5.8.1

> <Gold.Id.Protein>
6NUR|6NUR_protein|mol2

> <Gold.PLP.Fitness>
39.1962

> <Gold.PLP.PLP>
-29.3276

> <Gold.PLP.part.hbond>
-3.0000

> <Gold.PLP.part.metal>
0.0000

> <Gold.PLP.part.buried>
-4.2262

> <Gold.PLP.part.nonpolar>
-23.4540

> <Gold.PLP.part.repulsive>
0.0941

> <Gold.PLP.ligand.clash>
0.0558

> <Gold.PLP.ligand.torsion>
1.0666

> <Gold.PLP.Chemscore.Hbond>
3.9913

> <Gold.PLP.Chemscore.CHOScore>
0.0000

> <Gold.PLP.Chemscore.Metal>
0.0000

> <Gold.Chemscore.Hbonds>
donor molecule, donor type, donor heavy atom, donor atom, acceptor molecule, acceptor atom, score
      L1  H     5    25       P1 10956  1.00
      L1  H     8    26       P1 10957  0.88
      L1  H    12    45       P1  7948  2.00

> <Gold.PLP.Chemscore.Internal.Correction>
0.0838

> <Gold.Rescore>
     Score         DG    S(hbond)    S(metal)    S(lipo)     H(rot)  DE(clash)    DE(int)     intcor
     11.41     -15.04       1.76        0.00      65.25       1.55       0.15       3.48       ----

> <Gold.Chemscore.Fitness>
11.4138

> <Gold.Chemscore.DG>
-15.0442

> <Gold.Chemscore.ZeroCoef>
-5.4800

> <Gold.Chemscore.Hbond>
1.7637

> <Gold.Chemscore.Metal>
0.0000

> <Gold.Chemscore.Lipo>
65.2544

> <Gold.Chemscore.Internal_Hbond>
0.0000

> <Gold.Chemscore.DEClash>
0.1524

> <Gold.Chemscore.DEInternal>
3.4780

> <Gold.Chemscore.Rot>
1.5474

> <Gold.Chemscore.Internal.Correction>
   9.000000E+99

> <Gold.Chemscore.Hbonds>
donor molecule, donor type, donor heavy atom, donor atom, acceptor molecule, acceptor atom, score
      L1  H     5    25       P1 10956  0.29
      L1  H     8    26       P1 10957  0.19
      L1  H    12    45       P1  7948  0.94

> <Gold.Chemscore.Hbond.Weighted>
-5.8906

> <Gold.Chemscore.Metal.Weighted>
-0.0000

> <Gold.Chemscore.Lipo.Weighted>
-7.6348

> <Gold.Chemscore.Internal_Hbond.Weighted>
0.0000

> <Gold.Chemscore.DEClash.Weighted>
0.1524

> <Gold.Chemscore.DEInternal.Weighted>
3.4780

> <Gold.Chemscore.Rot.Weighted>
3.9612

> <Gold.Chemscore.Internal.Correction.Weighted>
   9.000000E+99

> <Gold.Protein.RotatedTorsions>
[ 6907 6896 6895 6894 ] final  -88.69 input  -60.11 | X-H torsion
[ 7974 7965 7964 7962 ] final  -32.33 input  175.53 | X-H torsion
[ 8008 7997 7996 7995 ] final -108.28 input   59.86 | X-H torsion
[ 10167 10162 10161 10158 ] final   15.57 input  -65.29 | X-H torsion
[ 10718 10713 10712 10709 ] final   93.36 input   66.30 | X-H torsion
[ 10763 10752 10751 10750 ] final  -20.86 input  -60.55 | X-H torsion
[ 11005 11000 10999 10996 ] final   10.88 input  -57.11 | X-H torsion

> <Gold.Protein.ActiveResidues>
 VAL166  LYS551  ARG553  GLY616  TRP617  ASP618  TYR619  PRO620  LYS621  CYS622 
 ASP623  PHE694  ASN695  SER759  ASP760  ASP761  ALA762  ILE779  LEU786  VAL792 
 PHE793  MET794  SER795  GLU796  ALA797  LYS798  CYS799  TRP800  GLU811  SER814 

> <Gold.Protein.RotatedAtoms>
  150.6870  134.2702  159.4584 H   0  0  0  0  0  0  0  0  0  0  0  0  # atno 6907 bound_to 6896
  152.0625  134.9583  160.0584 H   0  0  0  0  0  0  0  0  0  0  0  0  # atno 6908 bound_to 6896
  152.1004  133.4212  159.4621 H   0  0  0  0  0  0  0  0  0  0  0  0  # atno 6909 bound_to 6896
  146.0998  140.5778  142.8826 H   0  0  0  0  0  0  0  0  0  0  0  0  # atno 7974 bound_to 7965
  154.9419  140.0402  157.2101 H   0  0  0  0  0  0  0  0  0  0  0  0  # atno 8008 bound_to 7997
  154.8060  140.2860  155.5865 H   0  0  0  0  0  0  0  0  0  0  0  0  # atno 8009 bound_to 7997
  156.2966  140.2546  156.2939 H   0  0  0  0  0  0  0  0  0  0  0  0  # atno 8010 bound_to 7997
  140.5858  143.8893  150.6829 H   0  0  0  0  0  0  0  0  0  0  0  0  # atno 10167 bound_to 10162
  157.6955  131.0475  150.4022 H   0  0  0  0  0  0  0  0  0  0  0  0  # atno 10718 bound_to 10713
  153.6270  135.6990  153.5289 H   0  0  0  0  0  0  0  0  0  0  0  0  # atno 10763 bound_to 10752
  153.2890  135.4162  155.1149 H   0  0  0  0  0  0  0  0  0  0  0  0  # atno 10764 bound_to 10752
  154.8530  135.3621  154.5812 H   0  0  0  0  0  0  0  0  0  0  0  0  # atno 10765 bound_to 10752
  140.5095  134.0666  155.7814 H   0  0  0  0  0  0  0  0  0  0  0  0  # atno 11005 bound_to 11000
  144.7424  140.4978  143.6860 LP  0  0  0  0  0  0  0  0  0  0  0  0  # atno 17320 bound_to 7965
  145.5876  139.1493  143.3200 LP  0  0  0  0  0  0  0  0  0  0  0  0  # atno 17321 bound_to 7965
  140.2403  143.3668  152.1492 LP  0  0  0  0  0  0  0  0  0  0  0  0  # atno 17342 bound_to 10162
  139.5196  144.7022  151.5459 LP  0  0  0  0  0  0  0  0  0  0  0  0  # atno 17343 bound_to 10162
  156.4414  130.3992  149.6695 LP  0  0  0  0  0  0  0  0  0  0  0  0  # atno 17370 bound_to 10713
  156.3877  130.7611  151.2609 LP  0  0  0  0  0  0  0  0  0  0  0  0  # atno 17371 bound_to 10713
  141.1393  133.9166  157.2362 LP  0  0  0  0  0  0  0  0  0  0  0  0  # atno 17394 bound_to 11000
  139.9667  135.0140  156.9405 LP  0  0  0  0  0  0  0  0  0  0  0  0  # atno 17395 bound_to 11000

$$$$
