AV-unprocessed.smi:3164|AV-procd|sdf|12079|dock9
  -GOLD-   2272017503D 1   1.00000     0.00000
 Structure written by MMmdl.
 40 41  0  0  0  0  0  0  0  0  3 V2000
  146.4080  138.7045  151.3731 C   0  0  0  0  0  0  0  0  0  0  0  0
  146.2598  139.2351  152.7455 N   0  3  1  0  0  0  0  0  0  0  0  0
  146.0293  138.1699  153.7471 C   0  0  0  0  0  0  0  0  0  0  0  0
  145.8475  138.7837  155.1449 C   0  0  0  0  0  0  0  0  0  0  0  0
  146.9839  139.5774  155.4679 O   0  0  0  0  0  0  0  0  0  0  0  0
  147.1618  140.6670  154.5674 C   0  0  1  0  0  0  0  0  0  0  0  0
  148.3591  141.4982  155.0541 C   0  0  0  0  0  0  0  0  0  0  0  0
  148.1122  142.0617  156.3971 N   0  3  0  0  0  0  0  0  0  0  0  0
  149.0668  141.6049  157.4258 C   0  0  0  0  0  0  0  0  0  0  0  0
  149.3142  142.6993  158.4730 C   0  0  0  0  0  0  0  0  0  0  0  0
  150.7773  142.8031  158.8586 C   0  0  0  0  0  0  0  0  0  0  0  0
  151.5220  143.9633  158.5575 C   0  0  0  0  0  0  0  0  0  0  0  0
  152.8786  144.0055  158.9336 C   0  0  0  0  0  0  0  0  0  0  0  0
  153.4347  142.8912  159.5911 C   0  0  0  0  0  0  0  0  0  0  0  0
  152.6066  141.7797  159.8447 C   0  0  0  0  0  0  0  0  0  0  0  0
  151.3047  141.7290  159.4874 N   0  0  0  0  0  0  0  0  0  0  0  0
  147.3907  140.1024  153.1501 C   0  0  0  0  0  0  0  0  0  0  0  0
  147.2849  138.0607  151.2929 H   0  0  0  0  0  0  0  0  0  0  0  0
  146.5136  139.5185  150.6550 H   0  0  0  0  0  0  0  0  0  0  0  0
  145.5300  138.1232  151.0896 H   0  0  0  0  0  0  0  0  0  0  0  0
  145.1440  137.5931  153.4759 H   0  0  0  0  0  0  0  0  0  0  0  0
  146.8744  137.4794  153.7500 H   0  0  0  0  0  0  0  0  0  0  0  0
  144.9402  139.3881  155.1914 H   0  0  0  0  0  0  0  0  0  0  0  0
  145.7432  137.9956  155.8908 H   0  0  0  0  0  0  0  0  0  0  0  0
  146.2675  141.2934  154.5683 H   0  0  0  0  0  0  0  0  0  0  0  0
  149.2623  140.8863  155.0722 H   0  0  0  0  0  0  0  0  0  0  0  0
  148.5427  142.3211  154.3618 H   0  0  0  0  0  0  0  0  0  0  0  0
  148.1614  143.0690  156.3411 H   0  0  0  0  0  0  0  0  0  0  0  0
  148.6728  140.7083  157.9068 H   0  0  0  0  0  0  0  0  0  0  0  0
  150.0075  141.3285  156.9476 H   0  0  0  0  0  0  0  0  0  0  0  0
  148.9747  143.6640  158.0933 H   0  0  0  0  0  0  0  0  0  0  0  0
  148.7271  142.4995  159.3709 H   0  0  0  0  0  0  0  0  0  0  0  0
  151.0683  144.8027  158.0511 H   0  0  0  0  0  0  0  0  0  0  0  0
  153.4814  144.8761  158.7212 H   0  0  0  0  0  0  0  0  0  0  0  0
  154.4713  142.8889  159.8941 H   0  0  0  0  0  0  0  0  0  0  0  0
  153.0000  140.9083  160.3468 H   0  0  0  0  0  0  0  0  0  0  0  0
  148.3185  139.5282  153.1185 H   0  0  0  0  0  0  0  0  0  0  0  0
  147.4952  140.9198  152.4352 H   0  0  0  0  0  0  0  0  0  0  0  0
  147.1810  141.7988  156.6883 H   0  0  0  0  0  0  0  0  0  0  0  0
  145.4323  139.8148  152.7422 H   0  0  0  0  0  0  0  0  0  0  0  0
  1  2  1  0  0  0  0
  1 18  1  0  0  0  0
  1 19  1  0  0  0  0
  1 20  1  0  0  0  0
  2 17  1  0  0  0  0
  2  3  1  0  0  0  0
  2 40  1  0  0  0  0
  3  4  1  0  0  0  0
  3 21  1  0  0  0  0
  3 22  1  0  0  0  0
  4  5  1  0  0  0  0
  4 23  1  0  0  0  0
  4 24  1  0  0  0  0
  5  6  1  0  0  0  0
  6  7  1  0  0  0  0
  6 17  1  0  0  0  0
  6 25  1  0  0  0  0
  7  8  1  0  0  0  0
  7 26  1  0  0  0  0
  7 27  1  0  0  0  0
  8  9  1  0  0  0  0
  8 28  1  0  0  0  0
  8 39  1  0  0  0  0
  9 10  1  0  0  0  0
  9 29  1  0  0  0  0
  9 30  1  0  0  0  0
 10 11  1  0  0  0  0
 10 31  1  0  0  0  0
 10 32  1  0  0  0  0
 11 16  1  0  0  0  0
 11 12  2  0  0  0  0
 12 13  1  0  0  0  0
 12 33  1  0  0  0  0
 13 14  2  0  0  0  0
 13 34  1  0  0  0  0
 14 15  1  0  0  0  0
 14 35  1  0  0  0  0
 15 16  2  0  0  0  0
 15 36  1  0  0  0  0
 17 37  1  0  0  0  0
 17 38  1  0  0  0  0
M  CHG  1   2   1
M  CHG  1   8   1
M  END
> <s_m_source_file>
AV-unprocessed.smi

> <i_m_source_file_index>
3164

> <i_lp_mmshare_version>
43012

> <i_f3d_flags>
0

> <s_epik_input>
W0NIM11OMVtDSDJdW0NIMl1PW0NASF0oW0NIMl0xKVtDSDJdW05IXVtDSDJdW0NIMl1jMltjSF1bY0hdW2NIXVtjSF1uMg==

> <s_epik_cmdline>
J2VwaWtfcHl0aG9uJywgJy1waCcsICc3LjAnLCAnLXRuJywgJzgnLCAnLW1hJywgJzIwMCcsICctbWV0YWxfYmluZGluZycsICctaW1hZScsICc8aW5maWxlLm1hZT4nLCAnLW9tYWUnLCAnPG91dGZpbGUubWFlPic=

> <r_epik_Ionization_Penalty>
0.294944

> <r_epik_Ionization_Penalty_Charging>
0.29381

> <r_epik_Ionization_Penalty_Neutral>
0.00113372

> <r_epik_State_Penalty>
0.271365

> <r_epik_Charging_Adjusted_Penalty>
0.565175

> <i_epik_Tot_Q>
2

> <i_epik_Tot_abs_Q>
2

> <r_epik_Metal_State_Penalty>
0.271365

> <b_epik_Metal_Only>
0

> <s_lp_Force_Field>
OPLS_2005

> <r_lp_Energy>
20.3644

> <b_lp_Chiralities_Consistent>
1

> <s_lp_Variant>
AV-unprocessed.smi:3164-1

> <Gold.Version>
5.8.1

> <Gold.Id.Protein>
6NUR|6NUR_protein|mol2

> <Gold.PLP.Fitness>
42.3338

> <Gold.PLP.PLP>
-32.1312

> <Gold.PLP.part.hbond>
-2.4131

> <Gold.PLP.part.metal>
0.0000

> <Gold.PLP.part.buried>
-0.1384

> <Gold.PLP.part.nonpolar>
-29.5582

> <Gold.PLP.part.repulsive>
0.0596

> <Gold.PLP.ligand.clash>
0.0000

> <Gold.PLP.ligand.torsion>
0.9101

> <Gold.PLP.Chemscore.Hbond>
4.0000

> <Gold.PLP.Chemscore.CHOScore>
0.0000

> <Gold.PLP.Chemscore.Metal>
0.0000

> <Gold.Chemscore.Hbonds>
donor molecule, donor type, donor heavy atom, donor atom, acceptor molecule, acceptor atom, score
      L1  H     2    40       P1 10175  2.00
      L1  H     8    28       P1  8028  2.00

> <Gold.PLP.Chemscore.Internal.Correction>
0.0228

> <Gold.Rescore>
     Score         DG    S(hbond)    S(metal)    S(lipo)     H(rot)  DE(clash)    DE(int)     intcor
     17.48     -18.71       1.71        0.00     100.34       1.65       0.30       0.94       ----

> <Gold.Chemscore.Fitness>
17.4751

> <Gold.Chemscore.DG>
-18.7149

> <Gold.Chemscore.ZeroCoef>
-5.4800

> <Gold.Chemscore.Hbond>
1.7088

> <Gold.Chemscore.Metal>
0.0000

> <Gold.Chemscore.Lipo>
100.3386

> <Gold.Chemscore.Internal_Hbond>
0.0000

> <Gold.Chemscore.DEClash>
0.3021

> <Gold.Chemscore.DEInternal>
0.9377

> <Gold.Chemscore.Rot>
1.6454

> <Gold.Chemscore.Internal.Correction>
   9.000000E+99

> <Gold.Chemscore.Hbonds>
donor molecule, donor type, donor heavy atom, donor atom, acceptor molecule, acceptor atom, score
      L1  H     2    40       P1 10175  1.00
      L1  H     8    28       P1  8028  0.54

> <Gold.Chemscore.Hbond.Weighted>
-5.7075

> <Gold.Chemscore.Metal.Weighted>
-0.0000

> <Gold.Chemscore.Lipo.Weighted>
-11.7396

> <Gold.Chemscore.Internal_Hbond.Weighted>
0.0000

> <Gold.Chemscore.DEClash.Weighted>
0.3021

> <Gold.Chemscore.DEInternal.Weighted>
0.9377

> <Gold.Chemscore.Rot.Weighted>
4.2122

> <Gold.Chemscore.Internal.Correction.Weighted>
   9.000000E+99

> <Gold.Protein.RotatedTorsions>
[ 6907 6896 6895 6894 ] final -124.76 input  -60.11 | X-H torsion
[ 7974 7965 7964 7962 ] final -136.26 input  175.53 | X-H torsion
[ 8008 7997 7996 7995 ] final   75.65 input   59.86 | X-H torsion
[ 10167 10162 10161 10158 ] final -115.41 input  -65.29 | X-H torsion
[ 10718 10713 10712 10709 ] final   22.43 input   66.30 | X-H torsion
[ 10763 10752 10751 10750 ] final  164.98 input  -60.55 | X-H torsion
[ 11005 11000 10999 10996 ] final   81.04 input  -57.11 | X-H torsion

> <Gold.Protein.ActiveResidues>
 VAL166  LYS551  ARG553  GLY616  TRP617  ASP618  TYR619  PRO620  LYS621  CYS622 
 ASP623  PHE694  ASN695  SER759  ASP760  ASP761  ALA762  ILE779  LEU786  VAL792 
 PHE793  MET794  SER795  GLU796  ALA797  LYS798  CYS799  TRP800  GLU811  SER814 

> <Gold.Protein.RotatedAtoms>
  150.8800  133.7385  159.2934 H   0  0  0  0  0  0  0  0  0  0  0  0  # atno 6907 bound_to 6896
  151.4970  135.1058  159.9828 H   0  0  0  0  0  0  0  0  0  0  0  0  # atno 6908 bound_to 6896
  152.4753  133.8078  159.7043 H   0  0  0  0  0  0  0  0  0  0  0  0  # atno 6909 bound_to 6896
  144.8942  140.6684  143.5126 H   0  0  0  0  0  0  0  0  0  0  0  0  # atno 7974 bound_to 7965
  155.8160  140.3471  155.5485 H   0  0  0  0  0  0  0  0  0  0  0  0  # atno 8008 bound_to 7997
  155.8392  140.0939  157.1765 H   0  0  0  0  0  0  0  0  0  0  0  0  # atno 8009 bound_to 7997
  154.4005  140.1397  156.3695 H   0  0  0  0  0  0  0  0  0  0  0  0  # atno 8010 bound_to 7997
  140.0904  143.4705  152.1873 H   0  0  0  0  0  0  0  0  0  0  0  0  # atno 10167 bound_to 10162
  157.1522  130.6680  149.6016 H   0  0  0  0  0  0  0  0  0  0  0  0  # atno 10718 bound_to 10713
  154.3171  135.2756  155.2538 H   0  0  0  0  0  0  0  0  0  0  0  0  # atno 10763 bound_to 10752
  154.4907  135.5834  153.6461 H   0  0  0  0  0  0  0  0  0  0  0  0  # atno 10764 bound_to 10752
  152.9881  135.6134  154.3353 H   0  0  0  0  0  0  0  0  0  0  0  0  # atno 10765 bound_to 10752
  139.9112  134.7966  156.1988 H   0  0  0  0  0  0  0  0  0  0  0  0  # atno 11005 bound_to 11000
  145.3729  139.1654  143.4322 LP  0  0  0  0  0  0  0  0  0  0  0  0  # atno 17320 bound_to 7965
  146.3071  140.3803  142.8683 LP  0  0  0  0  0  0  0  0  0  0  0  0  # atno 17321 bound_to 7965
  139.5728  144.7472  151.3845 LP  0  0  0  0  0  0  0  0  0  0  0  0  # atno 17342 bound_to 10162
  140.7032  143.7580  150.7437 LP  0  0  0  0  0  0  0  0  0  0  0  0  # atno 17343 bound_to 10162
  155.9768  130.4740  150.6554 LP  0  0  0  0  0  0  0  0  0  0  0  0  # atno 17370 bound_to 10713
  157.4210  131.0836  151.1131 LP  0  0  0  0  0  0  0  0  0  0  0  0  # atno 17371 bound_to 10713
  141.0538  133.6875  156.1821 LP  0  0  0  0  0  0  0  0  0  0  0  0  # atno 17394 bound_to 11000
  140.6769  134.4808  157.5588 LP  0  0  0  0  0  0  0  0  0  0  0  0  # atno 17395 bound_to 11000

$$$$
