#       Name:                AV-unprocessed.smi:3335
#       Creating user name   scv26
#       Creation time:       Fri Mar 27 19:23:06 2020


#       File generated by GOLD software.
#

@<TRIPOS>MOLECULE
AV-unprocessed.smi:3335
    50    51     1
SMALL
NO_CHARGES


@<TRIPOS>ATOM
      1 ****        -5.4773  -2.9682   2.2543 C.3            1 S1                 0.0000
      2 ****        -4.3330  -2.0656   1.8926 C.2            1 S1                 0.0000
      3 ****        -3.2075  -1.7189   2.6923 C.2            1 S1                 0.0000
      4 ****        -2.3732  -0.8979   2.0765 N.2            1 S1                 0.0000
      5 ****        -2.9325  -0.6909   0.8634 N.pl3          1 S1                 0.0000
      6 ****        -2.2806   0.1804  -0.1060 C.3            1 S1                 0.0000
      7 ****        -2.2366   1.6242   0.4309 C.3            1 S1                 0.0000
      8 ****        -0.8788  -0.3437  -0.5169 C.3            1 S1                 0.0000
      9 ****        -0.8932  -1.8309  -0.9280 C.3            1 S1                 0.0000
     10 ****        -0.3416   0.4813  -1.6262 N.4            1 S1                 1.0000
     11 ****         1.1358   0.5546  -1.7301 C.3            1 S1                 0.0000
     12 ****         1.5223   1.0213  -3.1424 C.3            1 S1                 0.0000
     13 ****         1.7266   1.5170  -0.6795 C.2            1 S1                 0.0000
     14 ****         1.0717   2.5060  -0.3462 O.2            1 S1                 0.0000
     15 ****         2.9480   1.2635  -0.1619 N.am           1 S1                 0.0000
     16 ****         3.8146   0.1327  -0.4952 C.3            1 S1                 0.0000
     17 ****         5.1660   0.4411   0.1492 C.3            1 S1                 0.0000
     18 ****         4.8211   1.3563   1.3151 C.3            1 S1                 0.0000
     19 ****         3.5868   2.1206   0.8360 C.3            1 S1                 0.0000
     20 ****        -4.1181  -1.3830   0.7288 C.2            1 S1                 0.0000
     21 ****        -5.6377  -3.0051   3.3320 H              1 S1                 0.0000
     22 ****        -5.3029  -3.9910   1.9200 H              1 S1                 0.0000
     23 ****        -6.4124  -2.6366   1.8027 H              1 S1                 0.0000
     24 ****        -2.9737  -2.0386   3.6971 H              1 S1                 0.0000
     25 ****        -2.9126   0.1808  -0.9957 H              1 S1                 0.0000
     26 ****        -1.8834   2.3244  -0.3260 H              1 S1                 0.0000
     27 ****        -1.5757   1.7106   1.2942 H              1 S1                 0.0000
     28 ****        -3.2286   1.9565   0.7389 H              1 S1                 0.0000
     29 ****        -0.2209  -0.2393   0.3474 H              1 S1                 0.0000
     30 ****        -1.2116  -2.4752  -0.1085 H              1 S1                 0.0000
     31 ****         0.0951  -2.1778  -1.2286 H              1 S1                 0.0000
     32 ****        -1.5711  -2.0010  -1.7650 H              1 S1                 0.0000
     33 ****        -0.7150   0.1206  -2.4921 H              1 S1                 0.0000
     34 ****         1.5297  -0.4503  -1.5869 H              1 S1                 0.0000
     35 ****         2.6044   1.0749  -3.2663 H              1 S1                 0.0000
     36 ****         1.1155   2.0091  -3.3635 H              1 S1                 0.0000
     37 ****         1.1438   0.3320  -3.8978 H              1 S1                 0.0000
     38 ****         3.3911  -0.7774  -0.0683 H              1 S1                 0.0000
     39 ****         3.9217  -0.0113  -1.5708 H              1 S1                 0.0000
     40 ****         5.7024  -0.4562   0.4591 H              1 S1                 0.0000
     41 ****         5.7960   0.9779  -0.5614 H              1 S1                 0.0000
     42 ****         4.5635   0.7541   2.1875 H              1 S1                 0.0000
     43 ****         5.6442   2.0144   1.5951 H              1 S1                 0.0000
     44 ****         3.8785   3.0593   0.3627 H              1 S1                 0.0000
     45 ****         2.9191   2.3531   1.6670 H              1 S1                 0.0000
     46 ****        -4.7060  -1.3353  -0.1762 H              1 S1                 0.0000
     47 ****        -0.6742   1.4276  -1.5042 H              1 S1                 0.0000
     48 ****        -1.5192  -0.5156   2.4295 LP             1 S1                 0.0000
     49 ****         0.1746   2.6727  -0.7553 LP             1 S1                 0.0000
     50 ****         1.4373   3.1420   0.3334 LP             1 S1                 0.0000
@<TRIPOS>BOND
    1    1    2 1     
    2    1   21 1     
    3    1   22 1     
    4    1   23 1     
    5    2   20 2     
    6    2    3 1     
    7    3    4 2     
    8    3   24 1     
    9    4    5 1     
   10    5    6 1     
   11    5   20 1     
   12    6    7 1     
   13    6    8 1     
   14    6   25 1     
   15    7   26 1     
   16    7   27 1     
   17    7   28 1     
   18    8    9 1     
   19    8   10 1     
   20    8   29 1     
   21    9   30 1     
   22    9   31 1     
   23    9   32 1     
   24   10   11 1     
   25   10   33 1     
   26   10   47 1     
   27   11   12 1     
   28   11   13 1     
   29   11   34 1     
   30   12   35 1     
   31   12   36 1     
   32   12   37 1     
   33   13   14 2     
   34   13   15 am    
   35   15   19 1     
   36   15   16 1     
   37   16   17 1     
   38   16   38 1     
   39   16   39 1     
   40   17   18 1     
   41   17   40 1     
   42   17   41 1     
   43   18   19 1     
   44   18   42 1     
   45   18   43 1     
   46   19   44 1     
   47   19   45 1     
   48   20   46 1     
   49    4   48 1     
   50   14   49 1     
   51   14   50 1     
@<TRIPOS>SUBSTRUCTURE
      1 S1             1
@<TRIPOS>SET
LONE_PAIRS      STATIC     ATOMS    <user>   **** ""
3 48 49 50
DONOR_HYDROGENS      STATIC     ATOMS    <user>   **** ""
2 33 47
ATOM$BLUE        STATIC     ATOMS    COLORGROUP SYSTEM
3 48 49 50
ATOM$RED        STATIC     ATOMS    COLORGROUP SYSTEM
2 33 47
