AV-unprocessed.smi:2750|AV-procd|sdf|10589|dock2
  -GOLD-   2272015 43D 1   1.00000     0.00000
 Structure written by MMmdl.
 25 26  0  0  0  0  0  0  0  0  2 V2000
  146.5503  137.3600  160.8915 O   0  0  0  0  0  0  0  0  0  0  0  0
  147.5158  136.5713  160.9862 C   0  0  0  0  0  0  0  0  0  0  0  0
  148.3685  136.5733  161.9017 O   0  5  0  0  0  0  0  0  0  0  0  0
  147.6562  135.5074  159.8952 C   0  0  0  0  0  0  0  0  0  0  0  0
  148.7073  135.8269  158.9463 N   0  0  0  0  0  0  0  0  0  0  0  0
  149.1620  137.0688  158.5538 C   0  0  0  0  0  0  0  0  0  0  0  0
  150.1251  136.7763  157.6313 C   0  0  0  0  0  0  0  0  0  0  0  0
  150.9576  137.7115  156.8069 C   0  0  0  0  0  0  0  0  0  0  0  0
  150.3427  137.9932  155.4208 C   0  0  2  0  0  0  0  0  0  0  0  0
  148.9094  138.2306  155.4649 N   0  0  0  0  0  0  0  0  0  0  0  0
  148.2225  137.3540  154.7205 C   0  0  0  0  0  0  0  0  0  0  0  0
  147.0024  137.3268  154.5778 O   0  0  0  0  0  0  0  0  0  0  0  0
  149.0987  136.5122  154.1614 N   0  0  0  0  0  0  0  0  0  0  0  0
  150.3562  136.7814  154.5081 C   0  0  0  0  0  0  0  0  0  0  0  0
  151.3664  136.1702  154.1651 O   0  0  0  0  0  0  0  0  0  0  0  0
  150.2221  135.3902  157.5089 N   0  0  0  0  0  0  0  0  0  0  0  0
  149.3650  134.8314  158.3043 N   0  0  0  0  0  0  0  0  0  0  0  0
  147.8845  134.5477  160.3596 H   0  0  0  0  0  0  0  0  0  0  0  0
  146.7133  135.3854  159.3592 H   0  0  0  0  0  0  0  0  0  0  0  0
  148.7638  137.9986  158.9322 H   0  0  0  0  0  0  0  0  0  0  0  0
  151.0837  138.6539  157.3412 H   0  0  0  0  0  0  0  0  0  0  0  0
  151.9627  137.3023  156.6915 H   0  0  0  0  0  0  0  0  0  0  0  0
  150.8367  138.8361  154.9351 H   0  0  0  0  0  0  0  0  0  0  0  0
  148.4939  138.9760  156.0054 H   0  0  0  0  0  0  0  0  0  0  0  0
  148.8348  135.7505  153.5539 H   0  0  0  0  0  0  0  0  0  0  0  0
  1  2  2  0  0  0  0
  2  3  1  0  0  0  0
  2  4  1  0  0  0  0
  4  5  1  0  0  0  0
  4 18  1  0  0  0  0
  4 19  1  0  0  0  0
  5 17  1  0  0  0  0
  5  6  1  0  0  0  0
  6  7  2  0  0  0  0
  6 20  1  0  0  0  0
  7  8  1  0  0  0  0
  7 16  1  0  0  0  0
  8  9  1  0  0  0  0
  8 21  1  0  0  0  0
  8 22  1  0  0  0  0
  9 14  1  0  0  0  0
  9 10  1  0  0  0  0
  9 23  1  0  0  0  0
 10 11  1  0  0  0  0
 10 24  1  0  0  0  0
 11 12  2  0  0  0  0
 11 13  1  0  0  0  0
 13 14  1  0  0  0  0
 13 25  1  0  0  0  0
 14 15  2  0  0  0  0
 16 17  2  0  0  0  0
M  CHG  1   3  -1
M  END
> <s_m_source_file>
AV-unprocessed.smi

> <i_m_source_file_index>
2750

> <i_lp_mmshare_version>
43012

> <i_f3d_flags>
0

> <s_epik_input>
Tz1DKFtPSF0pW0NIMl1uMVtjSF1jKG5uMSlbQ0gyXVtDQEBIXTJbTkhdQyg9TylbTkhdQzI9Tw==

> <s_epik_cmdline>
J2VwaWtfcHl0aG9uJywgJy1waCcsICc3LjAnLCAnLXRuJywgJzgnLCAnLW1hJywgJzIwMCcsICctbWV0YWxfYmluZGluZycsICctaW1hZScsICc8aW5maWxlLm1hZT4nLCAnLW9tYWUnLCAnPG91dGZpbGUubWFlPic=

> <r_lp_tautomer_probability>
1

> <r_epik_Ionization_Penalty>
0.019671

> <r_epik_Ionization_Penalty_Charging>
2.66176e-05

> <r_epik_Ionization_Penalty_Neutral>
0.0196444

> <r_epik_State_Penalty>
0.0155882

> <r_epik_Charging_Adjusted_Penalty>
0.0156148

> <i_epik_Tot_Q>
-1

> <i_epik_Tot_abs_Q>
1

> <r_epik_Metal_State_Penalty>
0.396229

> <b_epik_Metal_Only>
0

> <s_lp_Force_Field>
OPLS_2005

> <r_lp_Energy>
13.3356

> <b_lp_Chiralities_Consistent>
1

> <s_lp_Variant>
AV-unprocessed.smi:2750-1

> <Gold.Version>
5.8.1

> <Gold.Id.Protein>
6NUR|6NUR_protein|mol2

> <Gold.PLP.Fitness>
38.3186

> <Gold.PLP.PLP>
-19.3561

> <Gold.PLP.part.hbond>
-5.8634

> <Gold.PLP.part.metal>
0.0000

> <Gold.PLP.part.buried>
-4.5073

> <Gold.PLP.part.nonpolar>
-9.8092

> <Gold.PLP.part.repulsive>
0.2295

> <Gold.PLP.ligand.clash>
0.0000

> <Gold.PLP.ligand.torsion>
1.0245

> <Gold.PLP.Chemscore.Hbond>
6.9920

> <Gold.PLP.Chemscore.CHOScore>
0.0000

> <Gold.PLP.Chemscore.Metal>
0.0000

> <Gold.Chemscore.Hbonds>
donor molecule, donor type, donor heavy atom, donor atom, acceptor molecule, acceptor atom, score
      L1  H    13    25       P1  7948  0.22
      P1  H  6896  6907       L1    17  0.55
      P1  H  6931  6943       L1     3  2.00
      P1  H  6934  6947       L1     1  2.00
      P1  H 10752 10765       L1    15  1.00

> <Gold.PLP.Chemscore.Internal.Correction>
0.0355

> <Gold.Rescore>
     Score         DG    S(hbond)    S(metal)    S(lipo)     H(rot)  DE(clash)    DE(int)     intcor
     10.97     -12.00       3.46        0.00      19.15       2.84       0.01       1.01       ----

> <Gold.Chemscore.Fitness>
10.9729

> <Gold.Chemscore.DG>
-12.0022

> <Gold.Chemscore.ZeroCoef>
-5.4800

> <Gold.Chemscore.Hbond>
3.4553

> <Gold.Chemscore.Metal>
0.0000

> <Gold.Chemscore.Lipo>
19.1474

> <Gold.Chemscore.Internal_Hbond>
0.0000

> <Gold.Chemscore.DEClash>
0.0149

> <Gold.Chemscore.DEInternal>
1.0145

> <Gold.Chemscore.Rot>
2.8354

> <Gold.Chemscore.Internal.Correction>
   9.000000E+99

> <Gold.Chemscore.Hbonds>
donor molecule, donor type, donor heavy atom, donor atom, acceptor molecule, acceptor atom, score
      L1  H    13    25       P1  7948  0.21
      P1  H  6896  6907       L1    17  0.01
      P1  H  6931  6943       L1     3  0.55
      P1  H  6934  6947       L1     1  0.70
      P1  H 10752 10765       L1    15  1.00

> <Gold.Chemscore.Hbond.Weighted>
-11.5406

> <Gold.Chemscore.Metal.Weighted>
-0.0000

> <Gold.Chemscore.Lipo.Weighted>
-2.2402

> <Gold.Chemscore.Internal_Hbond.Weighted>
0.0000

> <Gold.Chemscore.DEClash.Weighted>
0.0149

> <Gold.Chemscore.DEInternal.Weighted>
1.0145

> <Gold.Chemscore.Rot.Weighted>
7.2586

> <Gold.Chemscore.Internal.Correction.Weighted>
   9.000000E+99

> <Gold.Protein.RotatedTorsions>
[ 6907 6896 6895 6894 ] final  -77.02 input  -60.11 | X-H torsion
[ 7974 7965 7964 7962 ] final   86.17 input  175.53 | X-H torsion
[ 8008 7997 7996 7995 ] final  169.62 input   59.86 | X-H torsion
[ 10167 10162 10161 10158 ] final   85.15 input  -65.29 | X-H torsion
[ 10718 10713 10712 10709 ] final  -39.09 input   66.30 | X-H torsion
[ 10763 10752 10751 10750 ] final  167.67 input  -60.55 | X-H torsion
[ 11005 11000 10999 10996 ] final    7.12 input  -57.11 | X-H torsion

> <Gold.Protein.ActiveResidues>
 VAL166  LYS551  ARG553  GLY616  TRP617  ASP618  TYR619  PRO620  LYS621  CYS622 
 ASP623  PHE694  ASN695  SER759  ASP760  ASP761  ALA762  ILE779  LEU786  VAL792 
 PHE793  MET794  SER795  GLU796  ALA797  LYS798  CYS799  TRP800  GLU811  SER814 

> <Gold.Protein.RotatedAtoms>
  150.7010  134.4486  159.5325 H   0  0  0  0  0  0  0  0  0  0  0  0  # atno 6907 bound_to 6896
  152.2182  134.8435  160.0498 H   0  0  0  0  0  0  0  0  0  0  0  0  # atno 6908 bound_to 6896
  151.9295  133.3572  159.3962 H   0  0  0  0  0  0  0  0  0  0  0  0  # atno 6909 bound_to 6896
  145.5759  139.2319  143.2380 H   0  0  0  0  0  0  0  0  0  0  0  0  # atno 7974 bound_to 7965
  156.1440  140.1559  156.8875 H   0  0  0  0  0  0  0  0  0  0  0  0  # atno 8008 bound_to 7997
  154.5012  140.0825  156.7840 H   0  0  0  0  0  0  0  0  0  0  0  0  # atno 8009 bound_to 7997
  155.4024  140.3415  155.4260 H   0  0  0  0  0  0  0  0  0  0  0  0  # atno 8010 bound_to 7997
  139.9007  144.6331  150.8640 H   0  0  0  0  0  0  0  0  0  0  0  0  # atno 10167 bound_to 10162
  156.2963  130.4234  149.8187 H   0  0  0  0  0  0  0  0  0  0  0  0  # atno 10718 bound_to 10713
  154.3572  135.2753  155.2340 H   0  0  0  0  0  0  0  0  0  0  0  0  # atno 10763 bound_to 10752
  154.4543  135.5923  153.6216 H   0  0  0  0  0  0  0  0  0  0  0  0  # atno 10764 bound_to 10752
  152.9846  135.6049  154.3789 H   0  0  0  0  0  0  0  0  0  0  0  0  # atno 10765 bound_to 10752
  140.5518  134.0276  155.7939 H   0  0  0  0  0  0  0  0  0  0  0  0  # atno 11005 bound_to 11000
  146.1751  140.6585  142.9215 LP  0  0  0  0  0  0  0  0  0  0  0  0  # atno 17320 bound_to 7965
  144.7416  140.4958  143.6865 LP  0  0  0  0  0  0  0  0  0  0  0  0  # atno 17321 bound_to 7965
  140.7707  143.3439  151.2151 LP  0  0  0  0  0  0  0  0  0  0  0  0  # atno 17342 bound_to 10162
  139.7028  143.9505  152.2913 LP  0  0  0  0  0  0  0  0  0  0  0  0  # atno 17343 bound_to 10162
  156.5582  130.8372  151.3320 LP  0  0  0  0  0  0  0  0  0  0  0  0  # atno 17370 bound_to 10713
  157.7356  130.9765  150.2092 LP  0  0  0  0  0  0  0  0  0  0  0  0  # atno 17371 bound_to 10713
  141.1167  133.9528  157.2809 LP  0  0  0  0  0  0  0  0  0  0  0  0  # atno 17394 bound_to 11000
  139.9451  135.0185  156.8828 LP  0  0  0  0  0  0  0  0  0  0  0  0  # atno 17395 bound_to 11000

$$$$
