#       Name:                AV-unprocessed.smi:672
#       Creating user name   scv26
#       Creation time:       Fri Mar 27 00:25:29 2020


#       File generated by GOLD software.
#

@<TRIPOS>MOLECULE
AV-unprocessed.smi:672
    40    41     1
SMALL
NO_CHARGES


@<TRIPOS>ATOM
      1 ****        -6.8672   1.4791   0.6809 C.3            1 S1                 0.0000
      2 ****        -6.1169   2.6811   0.0971 C.3            1 S1                 0.0000
      3 ****        -4.7221   2.3425  -0.3111 C.2            1 S1                 0.0000
      4 ****        -4.4151   1.8748  -1.5240 N.2            1 S1                 0.0000
      5 ****        -3.0600   1.6080  -1.6536 N.2            1 S1                 0.0000
      6 ****        -2.3662   1.8518  -0.5327 C.2            1 S1                 0.0000
      7 ****        -1.0399   1.6563  -0.4495 N.pl3          1 S1                -1.0000
      8 ****        -0.5582   0.5199   0.1037 C.2            1 S1                 0.0000
      9 ****        -1.2267  -0.4065   0.5685 O.2            1 S1                 0.0000
     10 ****         0.7808   0.4511   0.1185 N.am           1 S1                 0.0000
     11 ****         1.5754  -0.6525   0.6538 C.3            1 S1                 0.0000
     12 ****         1.6629  -1.8263  -0.3429 C.3            1 S1                 0.0000
     13 ****         3.1141  -1.8681  -0.8234 C.3            1 S1                 0.0000
     14 ****         3.9143  -1.3230   0.3581 C.3            1 S1                 0.0000
     15 ****         5.5687  -0.7335  -0.1058 S.3            1 S1                 0.0000
     16 ****         6.3853  -2.3114  -0.4633 C.3            1 S1                 0.0000
     17 ****         3.0265  -0.2075   0.9161 C.3            1 S1                 0.0000
     18 ****        -3.3592   2.4657   0.7890 S.3            1 S1                 0.0000
     19 ****        -7.8801   1.7573   0.9717 H              1 S1                 0.0000
     20 ****        -6.3606   1.0914   1.5652 H              1 S1                 0.0000
     21 ****        -6.9387   0.6697  -0.0464 H              1 S1                 0.0000
     22 ****        -6.6538   3.0705  -0.7686 H              1 S1                 0.0000
     23 ****        -6.0799   3.4878   0.8298 H              1 S1                 0.0000
     24 ****         1.2884   1.2301  -0.2746 H              1 S1                 0.0000
     25 ****         1.1332  -1.0025   1.5886 H              1 S1                 0.0000
     26 ****         1.4279  -2.7555   0.1775 H              1 S1                 0.0000
     27 ****         0.9636  -1.7427  -1.1759 H              1 S1                 0.0000
     28 ****         3.4236  -2.8708  -1.1187 H              1 S1                 0.0000
     29 ****         3.2305  -1.2130  -1.6881 H              1 S1                 0.0000
     30 ****         4.0158  -2.1024   1.1149 H              1 S1                 0.0000
     31 ****         7.4280  -2.1406  -0.7307 H              1 S1                 0.0000
     32 ****         5.8959  -2.8185  -1.2946 H              1 S1                 0.0000
     33 ****         6.3552  -2.9624   0.4103 H              1 S1                 0.0000
     34 ****         3.2379   0.7234   0.3867 H              1 S1                 0.0000
     35 ****         3.2158  -0.0246   1.9744 H              1 S1                 0.0000
     36 ****        -5.0842   1.7335  -2.2537 LP             1 S1                 0.0000
     37 ****        -2.6433   1.2686  -2.4969 LP             1 S1                 0.0000
     38 ****        -0.4091   2.3505  -0.7963 LP             1 S1                 0.0000
     39 ****        -2.2254  -0.3571   0.5572 LP             1 S1                 0.0000
     40 ****        -0.7700  -1.2069   0.9566 LP             1 S1                 0.0000
@<TRIPOS>BOND
    1    1    2 1     
    2    1   19 1     
    3    1   20 1     
    4    1   21 1     
    5    2    3 1     
    6    2   22 1     
    7    2   23 1     
    8    3   18 1     
    9    3    4 2     
   10    4    5 1     
   11    5    6 2     
   12    6    7 1     
   13    6   18 1     
   14    7    8 1     
   15    8    9 2     
   16    8   10 am    
   17   10   11 1     
   18   10   24 1     
   19   11   17 1     
   20   11   12 1     
   21   11   25 1     
   22   12   13 1     
   23   12   26 1     
   24   12   27 1     
   25   13   14 1     
   26   13   28 1     
   27   13   29 1     
   28   14   15 1     
   29   14   17 1     
   30   14   30 1     
   31   15   16 1     
   32   16   31 1     
   33   16   32 1     
   34   16   33 1     
   35   17   34 1     
   36   17   35 1     
   37    4   36 1     
   38    5   37 1     
   39    7   38 1     
   40    9   39 1     
   41    9   40 1     
@<TRIPOS>SUBSTRUCTURE
      1 S1             1
@<TRIPOS>SET
LONE_PAIRS      STATIC     ATOMS    <user>   **** ""
5 36 37 38 39 40
DONOR_HYDROGENS      STATIC     ATOMS    <user>   **** ""
1 24
ATOM$BLUE        STATIC     ATOMS    COLORGROUP SYSTEM
5 36 37 38 39 40
ATOM$RED        STATIC     ATOMS    COLORGROUP SYSTEM
1 24
