AV-unprocessed.smi:2442|AV-procd|sdf|9623|dock10
  -GOLD-   2272013253D 1   1.00000     0.00000
 Structure written by MMmdl.
 46 47  0  0  0  0  0  0  0  0  1 V2000
  150.5732  137.1978  155.8307 C   0  0  0  0  0  0  0  0  0  0  0  0
  150.7566  137.7569  154.5399 O   0  0  0  0  0  0  0  0  0  0  0  0
  150.1544  139.0347  154.3704 C   0  0  2  0  0  0  0  0  0  0  0  0
  150.7836  140.0478  155.3502 C   0  0  0  0  0  0  0  0  0  0  0  0
  150.0651  141.4060  155.2955 C   0  0  0  0  0  0  0  0  0  0  0  0
  148.5600  141.2549  155.5672 C   0  0  0  0  0  0  0  0  0  0  0  0
  147.9194  140.2546  154.5931 C   0  0  0  0  0  0  0  0  0  0  0  0
  148.6390  138.8892  154.6485 C   0  0  1  0  0  0  0  0  0  0  0  0
  147.9926  137.8982  153.7846 N   0  0  0  0  0  0  0  0  0  0  0  0
  146.6855  137.6008  153.7241 C   0  0  0  0  0  0  0  0  0  0  0  0
  145.8105  138.1672  154.3790 O   0  0  0  0  0  0  0  0  0  0  0  0
  146.4495  136.5838  152.8824 N   0  0  0  0  0  0  0  0  0  0  0  0
  145.1460  135.9643  152.6534 C   0  0  0  0  0  0  0  0  0  0  0  0
  145.0874  134.5002  153.1402 C   0  0  0  0  0  0  0  0  0  0  0  0
  144.8913  133.4739  152.0294 C   0  0  0  0  0  0  0  0  0  0  0  0
  143.6050  133.2883  151.4783 C   0  0  0  0  0  0  0  0  0  0  0  0
  143.4419  132.3653  150.4277 C   0  0  0  0  0  0  0  0  0  0  0  0
  144.4562  131.6378  149.9175 N   0  0  0  0  0  0  0  0  0  0  0  0
  145.6839  131.8097  150.4505 C   0  0  0  0  0  0  0  0  0  0  0  0
  145.9618  132.7062  151.5054 C   0  0  0  0  0  0  0  0  0  0  0  0
  147.3814  132.8303  152.0286 C   0  0  0  0  0  0  0  0  0  0  0  0
  151.0684  136.2283  155.8799 H   0  0  0  0  0  0  0  0  0  0  0  0
  149.5192  137.0449  156.0611 H   0  0  0  0  0  0  0  0  0  0  0  0
  151.0119  137.8349  156.6000 H   0  0  0  0  0  0  0  0  0  0  0  0
  150.3031  139.3910  153.3500 H   0  0  0  0  0  0  0  0  0  0  0  0
  150.7354  139.6529  156.3659 H   0  0  0  0  0  0  0  0  0  0  0  0
  151.8402  140.1920  155.1262 H   0  0  0  0  0  0  0  0  0  0  0  0
  150.5062  142.0885  156.0225 H   0  0  0  0  0  0  0  0  0  0  0  0
  150.2156  141.8592  154.3149 H   0  0  0  0  0  0  0  0  0  0  0  0
  148.4055  140.9180  156.5929 H   0  0  0  0  0  0  0  0  0  0  0  0
  148.0675  142.2239  155.4819 H   0  0  0  0  0  0  0  0  0  0  0  0
  146.8631  140.1320  154.8355 H   0  0  0  0  0  0  0  0  0  0  0  0
  147.9576  140.6666  153.5842 H   0  0  0  0  0  0  0  0  0  0  0  0
  148.5259  138.5021  155.6621 H   0  0  0  0  0  0  0  0  0  0  0  0
  148.6121  137.3660  153.1915 H   0  0  0  0  0  0  0  0  0  0  0  0
  147.2347  136.1855  152.3886 H   0  0  0  0  0  0  0  0  0  0  0  0
  144.3606  136.5552  153.1254 H   0  0  0  0  0  0  0  0  0  0  0  0
  144.9389  135.9977  151.5837 H   0  0  0  0  0  0  0  0  0  0  0  0
  145.9884  134.2613  153.7046 H   0  0  0  0  0  0  0  0  0  0  0  0
  144.2678  134.3976  153.8524 H   0  0  0  0  0  0  0  0  0  0  0  0
  142.7587  133.8527  151.8412 H   0  0  0  0  0  0  0  0  0  0  0  0
  142.4703  132.2101  149.9826 H   0  0  0  0  0  0  0  0  0  0  0  0
  146.4714  131.2110  150.0168 H   0  0  0  0  0  0  0  0  0  0  0  0
  148.0264  132.0648  151.5960 H   0  0  0  0  0  0  0  0  0  0  0  0
  147.4103  132.7115  153.1114 H   0  0  0  0  0  0  0  0  0  0  0  0
  147.8008  133.8019  151.7698 H   0  0  0  0  0  0  0  0  0  0  0  0
  1  2  1  0  0  0  0
  1 22  1  0  0  0  0
  1 23  1  0  0  0  0
  1 24  1  0  0  0  0
  2  3  1  0  0  0  0
  3  8  1  0  0  0  0
  3  4  1  0  0  0  0
  3 25  1  0  0  0  0
  4  5  1  0  0  0  0
  4 26  1  0  0  0  0
  4 27  1  0  0  0  0
  5  6  1  0  0  0  0
  5 28  1  0  0  0  0
  5 29  1  0  0  0  0
  6  7  1  0  0  0  0
  6 30  1  0  0  0  0
  6 31  1  0  0  0  0
  7  8  1  0  0  0  0
  7 32  1  0  0  0  0
  7 33  1  0  0  0  0
  8  9  1  0  0  0  0
  8 34  1  0  0  0  0
  9 10  1  0  0  0  0
  9 35  1  0  0  0  0
 10 11  2  0  0  0  0
 10 12  1  0  0  0  0
 12 13  1  0  0  0  0
 12 36  1  0  0  0  0
 13 14  1  0  0  0  0
 13 37  1  0  0  0  0
 13 38  1  0  0  0  0
 14 15  1  0  0  0  0
 14 39  1  0  0  0  0
 14 40  1  0  0  0  0
 15 20  1  0  0  0  0
 15 16  2  0  0  0  0
 16 17  1  0  0  0  0
 16 41  1  0  0  0  0
 17 18  2  0  0  0  0
 17 42  1  0  0  0  0
 18 19  1  0  0  0  0
 19 20  2  0  0  0  0
 19 43  1  0  0  0  0
 20 21  1  0  0  0  0
 21 44  1  0  0  0  0
 21 45  1  0  0  0  0
 21 46  1  0  0  0  0
M  END
> <s_m_source_file>
AV-unprocessed.smi

> <i_m_source_file_index>
2442

> <i_lp_mmshare_version>
43012

> <i_f3d_flags>
0

> <s_epik_input>
W0NIM11PW0NAQEhdMVtDSDJdW0NIMl1bQ0gyXVtDSDJdW0NASF0xW05IXUMoPU8pW05IXVtDSDJdW0NIMl1jMltjSF1bY0hdbltjSF1jMltDSDNd

> <s_epik_cmdline>
J2VwaWtfcHl0aG9uJywgJy1waCcsICc3LjAnLCAnLXRuJywgJzgnLCAnLW1hJywgJzIwMCcsICctbWV0YWxfYmluZGluZycsICctaW1hZScsICc8aW5maWxlLm1hZT4nLCAnLW9tYWUnLCAnPG91dGZpbGUubWFlPic=

> <r_epik_Ionization_Penalty>
0.106136

> <r_epik_Ionization_Penalty_Charging>
0

> <r_epik_Ionization_Penalty_Neutral>
0.106136

> <r_epik_State_Penalty>
0.0959393

> <r_epik_Charging_Adjusted_Penalty>
0.0959393

> <i_epik_Tot_Q>
0

> <i_epik_Tot_abs_Q>
0

> <r_epik_Metal_State_Penalty>
0.0812517

> <b_epik_Metal_Only>
0

> <s_lp_Force_Field>
OPLS_2005

> <r_lp_Energy>
10.1716

> <b_lp_Chiralities_Consistent>
1

> <s_lp_Variant>
AV-unprocessed.smi:2442-1

> <Gold.Version>
5.8.1

> <Gold.Id.Protein>
6NUR|6NUR_protein|mol2

> <Gold.PLP.Fitness>
44.6654

> <Gold.PLP.PLP>
-31.8556

> <Gold.PLP.part.hbond>
-3.0000

> <Gold.PLP.part.metal>
0.0000

> <Gold.PLP.part.buried>
-3.0454

> <Gold.PLP.part.nonpolar>
-26.5583

> <Gold.PLP.part.repulsive>
0.4618

> <Gold.PLP.ligand.clash>
0.0000

> <Gold.PLP.ligand.torsion>
0.7098

> <Gold.PLP.Chemscore.Hbond>
2.2119

> <Gold.PLP.Chemscore.CHOScore>
2.5133

> <Gold.PLP.Chemscore.Metal>
0.0000

> <Gold.Chemscore.Hbonds>
donor molecule, donor type, donor heavy atom, donor atom, acceptor molecule, acceptor atom, score
      L1  H     9    35       P1  7948  1.00
      L1  H    12    36       P1  7948  1.00
      P1  H 10785 10796       L1    18  0.20
      L1  C    17    42       P1 10186  0.46
      L1  C    17    42       P1 10952  1.00
      L1  C    19    43       P1 10747  1.00

> <Gold.PLP.Chemscore.Internal.Correction>
0.0537

> <Gold.Rescore>
     Score         DG    S(hbond)    S(metal)    S(lipo)     H(rot)  DE(clash)    DE(int)     intcor
     17.38     -19.41       2.27        0.00      90.21       1.64       0.27       1.76       ----

> <Gold.Chemscore.Fitness>
17.3808

> <Gold.Chemscore.DG>
-19.4123

> <Gold.Chemscore.ZeroCoef>
-5.4800

> <Gold.Chemscore.Hbond>
2.2669

> <Gold.Chemscore.Metal>
0.0000

> <Gold.Chemscore.Lipo>
90.2073

> <Gold.Chemscore.Internal_Hbond>
0.0000

> <Gold.Chemscore.DEClash>
0.2705

> <Gold.Chemscore.DEInternal>
1.7611

> <Gold.Chemscore.Rot>
1.6380

> <Gold.Chemscore.Internal.Correction>
   9.000000E+99

> <Gold.Chemscore.Hbonds>
donor molecule, donor type, donor heavy atom, donor atom, acceptor molecule, acceptor atom, score
      L1  H     9    35       P1  7948  0.98
      L1  H    12    36       P1  7948  0.96
      P1  H 10785 10796       L1    18  0.05

> <Gold.Chemscore.Hbond.Weighted>
-7.5715

> <Gold.Chemscore.Metal.Weighted>
-0.0000

> <Gold.Chemscore.Lipo.Weighted>
-10.5542

> <Gold.Chemscore.Internal_Hbond.Weighted>
0.0000

> <Gold.Chemscore.DEClash.Weighted>
0.2705

> <Gold.Chemscore.DEInternal.Weighted>
1.7611

> <Gold.Chemscore.Rot.Weighted>
4.1934

> <Gold.Chemscore.Internal.Correction.Weighted>
   9.000000E+99

> <Gold.Protein.RotatedTorsions>
[ 6907 6896 6895 6894 ] final  -33.81 input  -60.11 | X-H torsion
[ 7974 7965 7964 7962 ] final  -77.57 input  175.53 | X-H torsion
[ 8008 7997 7996 7995 ] final  -47.13 input   59.86 | X-H torsion
[ 10167 10162 10161 10158 ] final   87.74 input  -65.29 | X-H torsion
[ 10718 10713 10712 10709 ] final  115.47 input   66.30 | X-H torsion
[ 10763 10752 10751 10750 ] final   42.20 input  -60.55 | X-H torsion
[ 11005 11000 10999 10996 ] final  112.83 input  -57.11 | X-H torsion

> <Gold.Protein.ActiveResidues>
 VAL166  LYS551  ARG553  GLY616  TRP617  ASP618  TYR619  PRO620  LYS621  CYS622 
 ASP623  PHE694  ASN695  SER759  ASP760  ASP761  ALA762  ILE779  LEU786  VAL792 
 PHE793  MET794  SER795  GLU796  ALA797  LYS798  CYS799  TRP800  GLU811  SER814 

> <Gold.Protein.RotatedAtoms>
  151.0608  134.9735  159.8258 H   0  0  0  0  0  0  0  0  0  0  0  0  # atno 6907 bound_to 6896
  152.5395  134.2420  159.8876 H   0  0  0  0  0  0  0  0  0  0  0  0  # atno 6908 bound_to 6896
  151.2440  133.4341  159.2642 H   0  0  0  0  0  0  0  0  0  0  0  0  # atno 6909 bound_to 6896
  145.5979  140.9415  143.1256 H   0  0  0  0  0  0  0  0  0  0  0  0  # atno 7974 bound_to 7965
  154.4013  140.1354  156.4125 H   0  0  0  0  0  0  0  0  0  0  0  0  # atno 8008 bound_to 7997
  155.7720  140.3483  155.5231 H   0  0  0  0  0  0  0  0  0  0  0  0  # atno 8009 bound_to 7997
  155.8758  140.0979  157.1509 H   0  0  0  0  0  0  0  0  0  0  0  0  # atno 8010 bound_to 7997
  139.8743  144.6475  150.8914 H   0  0  0  0  0  0  0  0  0  0  0  0  # atno 10167 bound_to 10162
  157.6220  131.1013  150.7334 H   0  0  0  0  0  0  0  0  0  0  0  0  # atno 10718 bound_to 10713
  152.9889  135.6139  154.2911 H   0  0  0  0  0  0  0  0  0  0  0  0  # atno 10763 bound_to 10752
  154.2637  135.2781  155.2769 H   0  0  0  0  0  0  0  0  0  0  0  0  # atno 10764 bound_to 10752
  154.5184  135.5822  153.6717 H   0  0  0  0  0  0  0  0  0  0  0  0  # atno 10765 bound_to 10752
  139.8937  134.9538  156.6646 H   0  0  0  0  0  0  0  0  0  0  0  0  # atno 11005 bound_to 11000
  144.7322  139.7690  143.7343 LP  0  0  0  0  0  0  0  0  0  0  0  0  # atno 17320 bound_to 7965
  146.1598  139.4708  142.9995 LP  0  0  0  0  0  0  0  0  0  0  0  0  # atno 17321 bound_to 7965
  140.7755  143.3637  151.1779 LP  0  0  0  0  0  0  0  0  0  0  0  0  # atno 17342 bound_to 10162
  139.7254  143.9156  152.3001 LP  0  0  0  0  0  0  0  0  0  0  0  0  # atno 17343 bound_to 10162
  156.7689  130.4822  149.5422 LP  0  0  0  0  0  0  0  0  0  0  0  0  # atno 17370 bound_to 10713
  156.1371  130.6218  151.0415 LP  0  0  0  0  0  0  0  0  0  0  0  0  # atno 17371 bound_to 10713
  140.7420  133.8969  155.8285 LP  0  0  0  0  0  0  0  0  0  0  0  0  # atno 17394 bound_to 11000
  141.0070  134.1073  157.4260 LP  0  0  0  0  0  0  0  0  0  0  0  0  # atno 17395 bound_to 11000

$$$$
