AV-unprocessed.smi:1630|AV-procd|sdf|6525|dock9
  -GOLD-   22720 7203D 1   1.00000     0.00000
 Structure written by MMmdl.
 36 37  0  0  0  0  0  0  0  0  1 V2000
  150.5420  131.1700  158.8157 C   0  0  0  0  0  0  0  0  0  0  0  0
  151.7524  131.4214  157.4540 S   0  0  0  0  0  0  0  0  0  0  0  0
  152.5145  132.6480  157.7347 O   0  0  0  0  0  0  0  0  0  0  0  0
  152.4688  130.1530  157.2472 O   0  0  0  0  0  0  0  0  0  0  0  0
  150.7249  131.7277  156.0210 C   0  0  0  0  0  0  0  0  0  0  0  0
  150.2141  133.0172  155.7704 C   0  0  0  0  0  0  0  0  0  0  0  0
  149.4390  133.2110  154.6109 C   0  0  0  0  0  0  0  0  0  0  0  0
  149.2220  132.1143  153.7403 C   0  0  0  0  0  0  0  0  0  0  0  0
  148.4461  132.1693  152.5503 N   0  0  0  0  0  0  0  0  0  0  0  0
  147.3627  132.9217  152.2726 C   0  0  0  0  0  0  0  0  0  0  0  0
  146.8641  133.7447  153.0367 O   0  0  0  0  0  0  0  0  0  0  0  0
  146.8458  132.7093  151.0484 N   0  0  0  0  0  0  0  0  0  0  0  0
  145.6817  133.3510  150.4315 C   0  0  0  0  0  0  0  0  0  0  0  0
  145.6148  134.8408  150.8176 C   0  0  0  0  0  0  0  0  0  0  0  0
  144.1616  135.1107  151.2096 C   0  0  0  0  0  0  0  0  0  0  0  0
  143.6781  133.7849  151.7864 C   0  0  0  0  0  0  0  0  0  0  0  0
  144.3554  132.7266  150.9145 C   0  0  0  0  0  0  0  0  0  0  0  0
  149.7887  130.8707  154.0936 C   0  0  0  0  0  0  0  0  0  0  0  0
  150.5336  130.6724  155.2014 N   0  0  0  0  0  0  0  0  0  0  0  0
  151.0768  130.9783  159.7455 H   0  0  0  0  0  0  0  0  0  0  0  0
  149.9025  130.3192  158.5819 H   0  0  0  0  0  0  0  0  0  0  0  0
  149.9296  132.0646  158.9273 H   0  0  0  0  0  0  0  0  0  0  0  0
  150.4010  133.8375  156.4475 H   0  0  0  0  0  0  0  0  0  0  0  0
  149.0231  134.1881  154.4245 H   0  0  0  0  0  0  0  0  0  0  0  0
  148.7752  131.5846  151.7958 H   0  0  0  0  0  0  0  0  0  0  0  0
  147.3009  132.0031  150.4878 H   0  0  0  0  0  0  0  0  0  0  0  0
  145.7485  133.2721  149.3450 H   0  0  0  0  0  0  0  0  0  0  0  0
  146.2542  135.0433  151.6787 H   0  0  0  0  0  0  0  0  0  0  0  0
  145.9483  135.4929  150.0098 H   0  0  0  0  0  0  0  0  0  0  0  0
  144.0629  135.9371  151.9141 H   0  0  0  0  0  0  0  0  0  0  0  0
  143.5799  135.3580  150.3207 H   0  0  0  0  0  0  0  0  0  0  0  0
  144.0206  133.6869  152.8174 H   0  0  0  0  0  0  0  0  0  0  0  0
  142.5914  133.6968  151.7859 H   0  0  0  0  0  0  0  0  0  0  0  0
  143.7246  132.5146  150.0503 H   0  0  0  0  0  0  0  0  0  0  0  0
  144.4860  131.7860  151.4513 H   0  0  0  0  0  0  0  0  0  0  0  0
  149.6439  130.0050  153.4638 H   0  0  0  0  0  0  0  0  0  0  0  0
  1  2  1  0  0  0  0
  1 20  1  0  0  0  0
  1 21  1  0  0  0  0
  1 22  1  0  0  0  0
  2  3  2  0  0  0  0
  2  4  2  0  0  0  0
  2  5  1  0  0  0  0
  5 19  1  0  0  0  0
  5  6  2  0  0  0  0
  6  7  1  0  0  0  0
  6 23  1  0  0  0  0
  7  8  2  0  0  0  0
  7 24  1  0  0  0  0
  8  9  1  0  0  0  0
  8 18  1  0  0  0  0
  9 10  1  0  0  0  0
  9 25  1  0  0  0  0
 10 11  2  0  0  0  0
 10 12  1  0  0  0  0
 12 13  1  0  0  0  0
 12 26  1  0  0  0  0
 13 17  1  0  0  0  0
 13 14  1  0  0  0  0
 13 27  1  0  0  0  0
 14 15  1  0  0  0  0
 14 28  1  0  0  0  0
 14 29  1  0  0  0  0
 15 16  1  0  0  0  0
 15 30  1  0  0  0  0
 15 31  1  0  0  0  0
 16 17  1  0  0  0  0
 16 32  1  0  0  0  0
 16 33  1  0  0  0  0
 17 34  1  0  0  0  0
 17 35  1  0  0  0  0
 18 19  2  0  0  0  0
 18 36  1  0  0  0  0
M  END
> <s_m_source_file>
AV-unprocessed.smi

> <i_m_source_file_index>
1630

> <i_lp_mmshare_version>
43012

> <i_f3d_flags>
0

> <s_epik_input>
W0NIM11TKD1PKSg9TyljMVtjSF1bY0hdYyhbY0hdbjEpW05IXUMoPU8pW05IXVtDSF0yW0NIMl1bQ0gyXVtDSDJdW0NIMl0y

> <s_epik_cmdline>
J2VwaWtfcHl0aG9uJywgJy1waCcsICc3LjAnLCAnLXRuJywgJzgnLCAnLW1hJywgJzIwMCcsICctbWV0YWxfYmluZGluZycsICctaW1hZScsICc8aW5maWxlLm1hZT4nLCAnLW9tYWUnLCAnPG91dGZpbGUubWFlPic=

> <r_lp_tautomer_probability>
1

> <r_epik_Ionization_Penalty>
4.04514e-05

> <r_epik_Ionization_Penalty_Charging>
0

> <r_epik_Ionization_Penalty_Neutral>
4.04514e-05

> <r_epik_State_Penalty>
-0

> <r_epik_Charging_Adjusted_Penalty>
0

> <i_epik_Tot_Q>
0

> <i_epik_Tot_abs_Q>
0

> <r_epik_Metal_State_Penalty>
-0

> <b_epik_Metal_Only>
0

> <s_lp_Force_Field>
OPLS_2005

> <r_lp_Energy>
32.1208

> <b_lp_Chiralities_Consistent>
1

> <s_lp_Variant>
AV-unprocessed.smi:1630-1

> <Gold.Version>
5.8.1

> <Gold.Id.Protein>
6NUR|6NUR_protein|mol2

> <Gold.PLP.Fitness>
39.6639

> <Gold.PLP.PLP>
-32.0007

> <Gold.PLP.part.hbond>
-3.0000

> <Gold.PLP.part.metal>
0.0000

> <Gold.PLP.part.buried>
-4.9433

> <Gold.PLP.part.nonpolar>
-23.9341

> <Gold.PLP.part.repulsive>
0.1787

> <Gold.PLP.ligand.clash>
0.0000

> <Gold.PLP.ligand.torsion>
1.5360

> <Gold.PLP.Chemscore.Hbond>
2.9040

> <Gold.PLP.Chemscore.CHOScore>
0.0000

> <Gold.PLP.Chemscore.Metal>
0.0000

> <Gold.Chemscore.Hbonds>
donor molecule, donor type, donor heavy atom, donor atom, acceptor molecule, acceptor atom, score
      L1  H     9    25       P1 10747  1.00
      L1  H    12    26       P1 10747  0.90
      P1  H  6896  6907       L1     3  1.00

> <Gold.PLP.Chemscore.Internal.Correction>
2.0231

> <Gold.Rescore>
     Score         DG    S(hbond)    S(metal)    S(lipo)     H(rot)  DE(clash)    DE(int)     intcor
     16.31     -19.22       2.82        0.00      58.82       1.00       0.00       2.92       ----

> <Gold.Chemscore.Fitness>
16.3063

> <Gold.Chemscore.DG>
-19.2219

> <Gold.Chemscore.ZeroCoef>
-5.4800

> <Gold.Chemscore.Hbond>
2.8204

> <Gold.Chemscore.Metal>
0.0000

> <Gold.Chemscore.Lipo>
58.8202

> <Gold.Chemscore.Internal_Hbond>
0.0000

> <Gold.Chemscore.DEClash>
0.0000

> <Gold.Chemscore.DEInternal>
2.9156

> <Gold.Chemscore.Rot>
1.0000

> <Gold.Chemscore.Internal.Correction>
   9.000000E+99

> <Gold.Chemscore.Hbonds>
donor molecule, donor type, donor heavy atom, donor atom, acceptor molecule, acceptor atom, score
      L1  H     9    25       P1 10747  0.96
      L1  H    12    26       P1 10747  0.83
      P1  H  6896  6907       L1     3  0.63

> <Gold.Chemscore.Hbond.Weighted>
-9.4200

> <Gold.Chemscore.Metal.Weighted>
-0.0000

> <Gold.Chemscore.Lipo.Weighted>
-6.8820

> <Gold.Chemscore.Internal_Hbond.Weighted>
0.0000

> <Gold.Chemscore.DEClash.Weighted>
0.0000

> <Gold.Chemscore.DEInternal.Weighted>
2.9156

> <Gold.Chemscore.Rot.Weighted>
2.5600

> <Gold.Chemscore.Internal.Correction.Weighted>
   9.000000E+99

> <Gold.Protein.RotatedTorsions>
[ 6907 6896 6895 6894 ] final  165.42 input  -60.11 | X-H torsion
[ 7974 7965 7964 7962 ] final   91.07 input  175.53 | X-H torsion
[ 8008 7997 7996 7995 ] final  -31.12 input   59.86 | X-H torsion
[ 10167 10162 10161 10158 ] final -164.23 input  -65.29 | X-H torsion
[ 10718 10713 10712 10709 ] final  137.79 input   66.30 | X-H torsion
[ 10763 10752 10751 10750 ] final   80.19 input  -60.55 | X-H torsion
[ 11005 11000 10999 10996 ] final   59.45 input  -57.11 | X-H torsion

> <Gold.Protein.ActiveResidues>
 VAL166  LYS551  ARG553  GLY616  TRP617  ASP618  TYR619  PRO620  LYS621  CYS622 
 ASP623  PHE694  ASN695  SER759  ASP760  ASP761  ALA762  ILE779  LEU786  VAL792 
 PHE793  MET794  SER795  GLU796  ALA797  LYS798  CYS799  TRP800  GLU811  SER814 

> <Gold.Protein.RotatedAtoms>
  151.8947  133.3524  159.3809 H   0  0  0  0  0  0  0  0  0  0  0  0  # atno 6907 bound_to 6896
  150.7094  134.4888  159.5515 H   0  0  0  0  0  0  0  0  0  0  0  0  # atno 6908 bound_to 6896
  152.2465  134.8176  160.0503 H   0  0  0  0  0  0  0  0  0  0  0  0  # atno 6909 bound_to 6896
  145.5106  139.2277  143.2727 H   0  0  0  0  0  0  0  0  0  0  0  0  # atno 7974 bound_to 7965
  154.4225  140.1773  156.1517 H   0  0  0  0  0  0  0  0  0  0  0  0  # atno 8008 bound_to 7997
  155.9910  140.3369  155.6728 H   0  0  0  0  0  0  0  0  0  0  0  0  # atno 8009 bound_to 7997
  155.6372  140.0676  157.2621 H   0  0  0  0  0  0  0  0  0  0  0  0  # atno 8010 bound_to 7997
  139.6265  144.0522  152.1979 H   0  0  0  0  0  0  0  0  0  0  0  0  # atno 10167 bound_to 10162
  157.4323  131.1050  151.0236 H   0  0  0  0  0  0  0  0  0  0  0  0  # atno 10718 bound_to 10713
  153.1013  135.4812  154.8872 H   0  0  0  0  0  0  0  0  0  0  0  0  # atno 10763 bound_to 10752
  154.7382  135.3076  154.8777 H   0  0  0  0  0  0  0  0  0  0  0  0  # atno 10764 bound_to 10752
  153.9393  135.6836  153.4798 H   0  0  0  0  0  0  0  0  0  0  0  0  # atno 10765 bound_to 10752
  140.0303  134.6022  155.9516 H   0  0  0  0  0  0  0  0  0  0  0  0  # atno 11005 bound_to 11000
  146.2169  140.5912  142.9034 LP  0  0  0  0  0  0  0  0  0  0  0  0  # atno 17320 bound_to 7965
  144.7729  140.5678  143.6657 LP  0  0  0  0  0  0  0  0  0  0  0  0  # atno 17321 bound_to 7965
  140.0176  144.6177  150.7593 LP  0  0  0  0  0  0  0  0  0  0  0  0  # atno 17342 bound_to 10162
  140.7414  143.2818  151.3578 LP  0  0  0  0  0  0  0  0  0  0  0  0  # atno 17343 bound_to 10162
  157.1128  130.6029  149.5486 LP  0  0  0  0  0  0  0  0  0  0  0  0  # atno 17370 bound_to 10713
  155.9918  130.4974  150.7313 LP  0  0  0  0  0  0  0  0  0  0  0  0  # atno 17371 bound_to 10713
  141.1827  133.6549  156.5087 LP  0  0  0  0  0  0  0  0  0  0  0  0  # atno 17394 bound_to 11000
  140.4237  134.7164  157.4904 LP  0  0  0  0  0  0  0  0  0  0  0  0  # atno 17395 bound_to 11000

$$$$
