AV-unprocessed.smi:2670|AV-procd|sdf|10345|dock10
  -GOLD-   2272014373D 1   1.00000     0.00000
 Structure written by MMmdl.
 40 41  0  0  0  0  0  0  0  0  2 V2000
  151.1429  145.4317  159.1795 C   0  0  0  0  0  0  0  0  0  0  0  0
  151.8671  144.2975  159.8425 C   0  0  0  0  0  0  0  0  0  0  0  0
  152.2075  144.1521  161.2162 C   0  0  0  0  0  0  0  0  0  0  0  0
  152.8547  142.9502  161.2791 C   0  0  0  0  0  0  0  0  0  0  0  0
  153.4517  142.2451  162.4537 C   0  0  0  0  0  0  0  0  0  0  0  0
  152.8735  142.4365  159.9924 N   0  0  0  0  0  0  0  0  0  0  0  0
  153.4479  141.1915  159.5023 C   0  0  0  0  0  0  0  0  0  0  0  0
  152.3946  140.3138  158.8228 C   0  0  0  0  0  0  0  0  0  0  0  0
  151.2021  140.5655  158.9871 O   0  0  0  0  0  0  0  0  0  0  0  0
  152.8814  139.2902  158.0970 N   0  0  0  0  0  0  0  0  0  0  0  0
  152.2328  138.2276  157.3101 C   0  0  0  0  0  0  0  0  0  0  0  0
  152.7534  136.9038  157.9241 C   0  0  0  0  0  0  0  0  0  0  0  0
  152.5686  136.7083  159.1462 O   0  0  0  0  0  0  0  0  0  0  0  0
  153.3777  136.1188  157.1745 O   0  5  0  0  0  0  0  0  0  0  0  0
  150.6681  138.2302  157.2955 C   0  0  0  0  0  0  0  0  0  0  0  0
  150.0452  139.3690  156.4627 C   0  0  0  0  0  0  0  0  0  0  0  0
  150.6027  139.3937  155.0360 C   0  0  0  0  0  0  0  0  0  0  0  0
  152.1311  139.4980  155.0597 C   0  0  0  0  0  0  0  0  0  0  0  0
  152.7543  138.3333  155.8472 C   0  0  0  0  0  0  0  0  0  0  0  0
  152.2727  143.2704  159.1150 N   0  0  0  0  0  0  0  0  0  0  0  0
  150.7930  146.1584  159.9129 H   0  0  0  0  0  0  0  0  0  0  0  0
  150.2737  145.0742  158.6268 H   0  0  0  0  0  0  0  0  0  0  0  0
  151.7933  145.9553  158.4786 H   0  0  0  0  0  0  0  0  0  0  0  0
  152.0070  144.8289  162.0335 H   0  0  0  0  0  0  0  0  0  0  0  0
  153.5762  142.9273  163.2949 H   0  0  0  0  0  0  0  0  0  0  0  0
  154.4309  141.8313  162.2125 H   0  0  0  0  0  0  0  0  0  0  0  0
  152.8086  141.4277  162.7804 H   0  0  0  0  0  0  0  0  0  0  0  0
  154.2429  141.4103  158.7875 H   0  0  0  0  0  0  0  0  0  0  0  0
  153.9123  140.6687  160.3396 H   0  0  0  0  0  0  0  0  0  0  0  0
  153.8884  139.2204  158.0962 H   0  0  0  0  0  0  0  0  0  0  0  0
  150.3217  137.2909  156.8609 H   0  0  0  0  0  0  0  0  0  0  0  0
  150.2560  138.2374  158.3046 H   0  0  0  0  0  0  0  0  0  0  0  0
  148.9620  139.2503  156.4331 H   0  0  0  0  0  0  0  0  0  0  0  0
  150.2296  140.3336  156.9334 H   0  0  0  0  0  0  0  0  0  0  0  0
  150.3022  138.4889  154.5061 H   0  0  0  0  0  0  0  0  0  0  0  0
  150.1789  140.2335  154.4847 H   0  0  0  0  0  0  0  0  0  0  0  0
  152.5166  139.5013  154.0398 H   0  0  0  0  0  0  0  0  0  0  0  0
  152.4291  140.4481  155.5049 H   0  0  0  0  0  0  0  0  0  0  0  0
  153.8403  138.4420  155.8309 H   0  0  0  0  0  0  0  0  0  0  0  0
  152.5392  137.4065  155.3120 H   0  0  0  0  0  0  0  0  0  0  0  0
  1  2  1  0  0  0  0
  1 21  1  0  0  0  0
  1 22  1  0  0  0  0
  1 23  1  0  0  0  0
  2 20  2  0  0  0  0
  2  3  1  0  0  0  0
  3  4  2  0  0  0  0
  3 24  1  0  0  0  0
  4  5  1  0  0  0  0
  4  6  1  0  0  0  0
  5 25  1  0  0  0  0
  5 26  1  0  0  0  0
  5 27  1  0  0  0  0
  6  7  1  0  0  0  0
  6 20  1  0  0  0  0
  7  8  1  0  0  0  0
  7 28  1  0  0  0  0
  7 29  1  0  0  0  0
  8  9  2  0  0  0  0
  8 10  1  0  0  0  0
 10 11  1  0  0  0  0
 10 30  1  0  0  0  0
 11 19  1  0  0  0  0
 11 12  1  0  0  0  0
 11 15  1  0  0  0  0
 12 13  2  0  0  0  0
 12 14  1  0  0  0  0
 15 16  1  0  0  0  0
 15 31  1  0  0  0  0
 15 32  1  0  0  0  0
 16 17  1  0  0  0  0
 16 33  1  0  0  0  0
 16 34  1  0  0  0  0
 17 18  1  0  0  0  0
 17 35  1  0  0  0  0
 17 36  1  0  0  0  0
 18 19  1  0  0  0  0
 18 37  1  0  0  0  0
 18 38  1  0  0  0  0
 19 39  1  0  0  0  0
 19 40  1  0  0  0  0
M  CHG  1  14  -1
M  END
> <s_m_source_file>
AV-unprocessed.smi

> <i_m_source_file_index>
2670

> <i_lp_mmshare_version>
43012

> <i_f3d_flags>
0

> <s_epik_input>
W0NIM11jMVtjSF1jKFtDSDNdKW4objEpW0NIMl1DKD1PKVtOSF1DMihDKD1PKVtPSF0pW0NIMl1bQ0gyXVtDSDJdW0NIMl1bQ0gyXTI=

> <s_epik_cmdline>
J2VwaWtfcHl0aG9uJywgJy1waCcsICc3LjAnLCAnLXRuJywgJzgnLCAnLW1hJywgJzIwMCcsICctbWV0YWxfYmluZGluZycsICctaW1hZScsICc8aW5maWxlLm1hZT4nLCAnLW9tYWUnLCAnPG91dGZpbGUubWFlPic=

> <r_lp_tautomer_probability>
1

> <r_epik_Ionization_Penalty>
0.000789686

> <r_epik_Ionization_Penalty_Charging>
0.000323848

> <r_epik_Ionization_Penalty_Neutral>
0.000465838

> <r_epik_State_Penalty>
-0

> <r_epik_Charging_Adjusted_Penalty>
0.000323848

> <i_epik_Tot_Q>
-1

> <i_epik_Tot_abs_Q>
1

> <r_epik_Metal_State_Penalty>
-0

> <b_epik_Metal_Only>
0

> <s_lp_Force_Field>
OPLS_2005

> <r_lp_Energy>
8.13654

> <b_lp_Chiralities_Consistent>
1

> <s_lp_Variant>
AV-unprocessed.smi:2670-1

> <Gold.Version>
5.8.1

> <Gold.Id.Protein>
6NUR|6NUR_protein|mol2

> <Gold.PLP.Fitness>
52.1284

> <Gold.PLP.PLP>
-40.7846

> <Gold.PLP.part.hbond>
-2.0000

> <Gold.PLP.part.metal>
0.0000

> <Gold.PLP.part.buried>
-4.0929

> <Gold.PLP.part.nonpolar>
-34.8960

> <Gold.PLP.part.repulsive>
0.0990

> <Gold.PLP.ligand.clash>
0.0000

> <Gold.PLP.ligand.torsion>
0.2875

> <Gold.PLP.Chemscore.Hbond>
3.9520

> <Gold.PLP.Chemscore.CHOScore>
0.0000

> <Gold.PLP.Chemscore.Metal>
0.0000

> <Gold.Chemscore.Hbonds>
donor molecule, donor type, donor heavy atom, donor atom, acceptor molecule, acceptor atom, score
      P1  H  6896  6907       L1    13  1.92
      P1  H 10752 10764       L1    14  2.00

> <Gold.PLP.Chemscore.Internal.Correction>
0.0628

> <Gold.Rescore>
     Score         DG    S(hbond)    S(metal)    S(lipo)     H(rot)  DE(clash)    DE(int)     intcor
     15.87     -19.06       1.85        0.00     105.05       1.91       0.58       2.62       ----

> <Gold.Chemscore.Fitness>
15.8652

> <Gold.Chemscore.DG>
-19.0644

> <Gold.Chemscore.ZeroCoef>
-5.4800

> <Gold.Chemscore.Hbond>
1.8549

> <Gold.Chemscore.Metal>
0.0000

> <Gold.Chemscore.Lipo>
105.0527

> <Gold.Chemscore.Internal_Hbond>
0.0000

> <Gold.Chemscore.DEClash>
0.5761

> <Gold.Chemscore.DEInternal>
2.6232

> <Gold.Chemscore.Rot>
1.9149

> <Gold.Chemscore.Internal.Correction>
   9.000000E+99

> <Gold.Chemscore.Hbonds>
donor molecule, donor type, donor heavy atom, donor atom, acceptor molecule, acceptor atom, score
      P1  H  6896  6907       L1    13  0.91
      P1  H 10752 10764       L1    14  0.94

> <Gold.Chemscore.Hbond.Weighted>
-6.1955

> <Gold.Chemscore.Metal.Weighted>
-0.0000

> <Gold.Chemscore.Lipo.Weighted>
-12.2912

> <Gold.Chemscore.Internal_Hbond.Weighted>
0.0000

> <Gold.Chemscore.DEClash.Weighted>
0.5761

> <Gold.Chemscore.DEInternal.Weighted>
2.6232

> <Gold.Chemscore.Rot.Weighted>
4.9023

> <Gold.Chemscore.Internal.Correction.Weighted>
   9.000000E+99

> <Gold.Protein.RotatedTorsions>
[ 6907 6896 6895 6894 ] final   16.49 input  -60.11 | X-H torsion
[ 7974 7965 7964 7962 ] final   43.06 input  175.53 | X-H torsion
[ 8008 7997 7996 7995 ] final  152.36 input   59.86 | X-H torsion
[ 10167 10162 10161 10158 ] final  103.96 input  -65.29 | X-H torsion
[ 10718 10713 10712 10709 ] final    4.03 input   66.30 | X-H torsion
[ 10763 10752 10751 10750 ] final   22.03 input  -60.55 | X-H torsion
[ 11005 11000 10999 10996 ] final   -9.64 input  -57.11 | X-H torsion

> <Gold.Protein.ActiveResidues>
 VAL166  LYS551  ARG553  GLY616  TRP617  ASP618  TYR619  PRO620  LYS621  CYS622 
 ASP623  PHE694  ASN695  SER759  ASP760  ASP761  ALA762  ILE779  LEU786  VAL792 
 PHE793  MET794  SER795  GLU796  ALA797  LYS798  CYS799  TRP800  GLU811  SER814 

> <Gold.Protein.RotatedAtoms>
  151.8348  135.0610  160.0440 H   0  0  0  0  0  0  0  0  0  0  0  0  # atno 6907 bound_to 6896
  152.2854  133.5505  159.5532 H   0  0  0  0  0  0  0  0  0  0  0  0  # atno 6908 bound_to 6896
  150.7207  134.0421  159.3811 H   0  0  0  0  0  0  0  0  0  0  0  0  # atno 6909 bound_to 6896
  146.0687  139.5229  142.9611 H   0  0  0  0  0  0  0  0  0  0  0  0  # atno 7974 bound_to 7965
  156.2633  140.2023  156.6321 H   0  0  0  0  0  0  0  0  0  0  0  0  # atno 8008 bound_to 7997
  154.6675  140.0554  157.0154 H   0  0  0  0  0  0  0  0  0  0  0  0  # atno 8009 bound_to 7997
  155.1185  140.3222  155.4506 H   0  0  0  0  0  0  0  0  0  0  0  0  # atno 8010 bound_to 7997
  139.7218  144.7056  151.0860 H   0  0  0  0  0  0  0  0  0  0  0  0  # atno 10167 bound_to 10162
  156.8866  130.5672  149.5651 H   0  0  0  0  0  0  0  0  0  0  0  0  # atno 10718 bound_to 10713
  153.0948  135.6656  153.9785 H   0  0  0  0  0  0  0  0  0  0  0  0  # atno 10763 bound_to 10752
  153.9372  135.2998  155.3445 H   0  0  0  0  0  0  0  0  0  0  0  0  # atno 10764 bound_to 10752
  154.7365  135.5099  153.9125 H   0  0  0  0  0  0  0  0  0  0  0  0  # atno 10765 bound_to 10752
  140.7363  133.8707  155.8932 H   0  0  0  0  0  0  0  0  0  0  0  0  # atno 11005 bound_to 11000
  145.6430  141.0280  143.1801 LP  0  0  0  0  0  0  0  0  0  0  0  0  # atno 17320 bound_to 7965
  144.7218  139.8004  143.7379 LP  0  0  0  0  0  0  0  0  0  0  0  0  # atno 17321 bound_to 7965
  140.7755  143.5156  150.9599 LP  0  0  0  0  0  0  0  0  0  0  0  0  # atno 17342 bound_to 10162
  139.8843  143.7032  152.3153 LP  0  0  0  0  0  0  0  0  0  0  0  0  # atno 17343 bound_to 10162
  156.0650  130.5695  150.9270 LP  0  0  0  0  0  0  0  0  0  0  0  0  # atno 17370 bound_to 10713
  157.6109  131.0936  150.8797 LP  0  0  0  0  0  0  0  0  0  0  0  0  # atno 17371 bound_to 10713
  140.9876  134.1322  157.4438 LP  0  0  0  0  0  0  0  0  0  0  0  0  # atno 17394 bound_to 11000
  139.8815  135.0030  156.6163 LP  0  0  0  0  0  0  0  0  0  0  0  0  # atno 17395 bound_to 11000

$$$$
