AV-unprocessed.smi:2230|AV-procd|sdf|9036|dock6
  -GOLD-   2272012243D 1   1.00000     0.00000
 Structure written by MMmdl.
 29 30  0  0  0  0  0  0  0  0  2 V2000
  152.9377  139.6124  154.6344 O   0  0  0  0  0  0  0  0  0  0  0  0
  152.4421  138.5194  154.9894 C   0  0  0  0  0  0  0  0  0  0  0  0
  152.2056  137.5597  154.2227 O   0  5  0  0  0  0  0  0  0  0  0  0
  152.1276  138.3205  156.4803 C   0  0  1  0  0  0  0  0  0  0  0  0
  152.5036  139.5674  157.3155 C   0  0  0  0  0  0  0  0  0  0  0  0
  152.1119  139.3781  158.7075 N   0  0  0  0  0  0  0  0  0  0  0  0
  152.5344  140.4064  159.5639 C   0  0  0  0  0  0  0  0  0  0  0  0
  151.8571  141.5796  159.5059 N   0  0  0  0  0  0  0  0  0  0  0  0
  152.2373  142.5863  160.3185 C   0  0  0  0  0  0  0  0  0  0  0  0
  153.3040  142.4791  161.2287 C   0  0  0  0  0  0  0  0  0  0  0  0
  154.0076  141.2623  161.2917 C   0  0  0  0  0  0  0  0  0  0  0  0
  153.6246  140.1952  160.4478 C   0  0  0  0  0  0  0  0  0  0  0  0
  154.3670  138.8619  160.4965 C   0  0  0  0  0  0  0  0  0  0  0  0
  155.2561  138.8314  161.4900 F   0  0  0  0  0  0  0  0  0  0  0  0
  153.5029  137.8646  160.6872 F   0  0  0  0  0  0  0  0  0  0  0  0
  155.0205  138.6584  159.3525 F   0  0  0  0  0  0  0  0  0  0  0  0
  150.7061  139.0282  158.8553 C   0  0  0  0  0  0  0  0  0  0  0  0
  150.3877  137.7885  158.0053 C   0  0  0  0  0  0  0  0  0  0  0  0
  150.7356  138.0437  156.6485 O   0  0  0  0  0  0  0  0  0  0  0  0
  152.7039  137.4592  156.8231 H   0  0  0  0  0  0  0  0  0  0  0  0
  153.5785  139.7485  157.2684 H   0  0  0  0  0  0  0  0  0  0  0  0
  152.0087  140.4525  156.9124 H   0  0  0  0  0  0  0  0  0  0  0  0
  151.6728  143.5037  160.2421 H   0  0  0  0  0  0  0  0  0  0  0  0
  153.5761  143.3098  161.8631 H   0  0  0  0  0  0  0  0  0  0  0  0
  154.8292  141.1606  161.9848 H   0  0  0  0  0  0  0  0  0  0  0  0
  150.4809  138.8330  159.9044 H   0  0  0  0  0  0  0  0  0  0  0  0
  150.0818  139.8649  158.5386 H   0  0  0  0  0  0  0  0  0  0  0  0
  150.9263  136.9136  158.3731 H   0  0  0  0  0  0  0  0  0  0  0  0
  149.3243  137.5564  158.0615 H   0  0  0  0  0  0  0  0  0  0  0  0
  1  2  2  0  0  0  0
  2  3  1  0  0  0  0
  2  4  1  0  0  0  0
  4 19  1  0  0  0  0
  4  5  1  0  0  0  0
  4 20  1  0  0  0  0
  5  6  1  0  0  0  0
  5 21  1  0  0  0  0
  5 22  1  0  0  0  0
  6  7  1  0  0  0  0
  6 17  1  0  0  0  0
  7 12  1  0  0  0  0
  7  8  2  0  0  0  0
  8  9  1  0  0  0  0
  9 10  2  0  0  0  0
  9 23  1  0  0  0  0
 10 11  1  0  0  0  0
 10 24  1  0  0  0  0
 11 12  2  0  0  0  0
 11 25  1  0  0  0  0
 12 13  1  0  0  0  0
 13 14  1  0  0  0  0
 13 15  1  0  0  0  0
 13 16  1  0  0  0  0
 17 18  1  0  0  0  0
 17 26  1  0  0  0  0
 17 27  1  0  0  0  0
 18 19  1  0  0  0  0
 18 28  1  0  0  0  0
 18 29  1  0  0  0  0
M  CHG  1   3  -1
M  END
> <s_m_source_file>
AV-unprocessed.smi

> <i_m_source_file_index>
2230

> <i_lp_mmshare_version>
43012

> <i_f3d_flags>
0

> <s_epik_input>
Tz1DKFtPSF0pW0NAQEhdMVtDSDJdTihbQ0gyXVtDSDJdTzEpYzJuW2NIXVtjSF1bY0hdYzJDKEYpKEYpRg==

> <s_epik_cmdline>
J2VwaWtfcHl0aG9uJywgJy1waCcsICc3LjAnLCAnLXRuJywgJzgnLCAnLW1hJywgJzIwMCcsICctbWV0YWxfYmluZGluZycsICctaW1hZScsICc8aW5maWxlLm1hZT4nLCAnLW9tYWUnLCAnPG91dGZpbGUubWFlPic=

> <r_lp_tautomer_probability>
1

> <r_epik_Ionization_Penalty>
0.000150991

> <r_epik_Ionization_Penalty_Charging>
0.000148814

> <r_epik_Ionization_Penalty_Neutral>
2.17728e-06

> <r_epik_State_Penalty>
-0

> <r_epik_Charging_Adjusted_Penalty>
0.000148814

> <i_epik_Tot_Q>
-1

> <i_epik_Tot_abs_Q>
1

> <r_epik_Metal_State_Penalty>
-0

> <b_epik_Metal_Only>
0

> <s_lp_Force_Field>
OPLS_2005

> <r_lp_Energy>
24.6169

> <b_lp_Chiralities_Consistent>
1

> <s_lp_Variant>
AV-unprocessed.smi:2230-2

> <Gold.Version>
5.8.1

> <Gold.Id.Protein>
6NUR|6NUR_protein|mol2

> <Gold.PLP.Fitness>
41.0068

> <Gold.PLP.PLP>
-29.5811

> <Gold.PLP.part.hbond>
-2.9674

> <Gold.PLP.part.metal>
0.0000

> <Gold.PLP.part.buried>
-3.2172

> <Gold.PLP.part.nonpolar>
-24.3974

> <Gold.PLP.part.repulsive>
0.1807

> <Gold.PLP.ligand.clash>
0.3647

> <Gold.PLP.ligand.torsion>
0.3367

> <Gold.PLP.Chemscore.Hbond>
3.9440

> <Gold.PLP.Chemscore.CHOScore>
0.0000

> <Gold.PLP.Chemscore.Metal>
0.0000

> <Gold.Chemscore.Hbonds>
donor molecule, donor type, donor heavy atom, donor atom, acceptor molecule, acceptor atom, score
      P1  H  7989  7998       L1     1  0.33
      P1  H  7997  8009       L1     1  1.95
      P1  H 10752 10765       L1     3  1.60

> <Gold.PLP.Chemscore.Internal.Correction>
0.6317

> <Gold.Rescore>
     Score         DG    S(hbond)    S(metal)    S(lipo)     H(rot)  DE(clash)    DE(int)     intcor
     13.59     -15.60       1.93        0.00      63.92       1.49       0.06       1.95       ----

> <Gold.Chemscore.Fitness>
13.5888

> <Gold.Chemscore.DG>
-15.6009

> <Gold.Chemscore.ZeroCoef>
-5.4800

> <Gold.Chemscore.Hbond>
1.9343

> <Gold.Chemscore.Metal>
0.0000

> <Gold.Chemscore.Lipo>
63.9213

> <Gold.Chemscore.Internal_Hbond>
0.0000

> <Gold.Chemscore.DEClash>
0.0580

> <Gold.Chemscore.DEInternal>
1.9541

> <Gold.Chemscore.Rot>
1.4916

> <Gold.Chemscore.Internal.Correction>
   9.000000E+99

> <Gold.Chemscore.Hbonds>
donor molecule, donor type, donor heavy atom, donor atom, acceptor molecule, acceptor atom, score
      P1  H  7989  7998       L1     1  0.30
      P1  H  7997  8009       L1     1  0.80
      P1  H 10752 10765       L1     3  0.76

> <Gold.Chemscore.Hbond.Weighted>
-6.4605

> <Gold.Chemscore.Metal.Weighted>
-0.0000

> <Gold.Chemscore.Lipo.Weighted>
-7.4788

> <Gold.Chemscore.Internal_Hbond.Weighted>
0.0000

> <Gold.Chemscore.DEClash.Weighted>
0.0580

> <Gold.Chemscore.DEInternal.Weighted>
1.9541

> <Gold.Chemscore.Rot.Weighted>
3.8185

> <Gold.Chemscore.Internal.Correction.Weighted>
   9.000000E+99

> <Gold.Protein.RotatedTorsions>
[ 6907 6896 6895 6894 ] final  -58.89 input  -60.11 | X-H torsion
[ 7974 7965 7964 7962 ] final  -73.34 input  175.53 | X-H torsion
[ 8008 7997 7996 7995 ] final -129.71 input   59.86 | X-H torsion
[ 10167 10162 10161 10158 ] final   59.89 input  -65.29 | X-H torsion
[ 10718 10713 10712 10709 ] final  146.66 input   66.30 | X-H torsion
[ 10763 10752 10751 10750 ] final  153.35 input  -60.55 | X-H torsion
[ 11005 11000 10999 10996 ] final  -58.31 input  -57.11 | X-H torsion

> <Gold.Protein.ActiveResidues>
 VAL166  LYS551  ARG553  GLY616  TRP617  ASP618  TYR619  PRO620  LYS621  CYS622 
 ASP623  PHE694  ASN695  SER759  ASP760  ASP761  ALA762  ILE779  LEU786  VAL792 
 PHE793  MET794  SER795  GLU796  ALA797  LYS798  CYS799  TRP800  GLU811  SER814 

> <Gold.Protein.RotatedAtoms>
  150.7972  134.7040  159.6565 H   0  0  0  0  0  0  0  0  0  0  0  0  # atno 6907 bound_to 6896
  152.4086  134.6161  160.0048 H   0  0  0  0  0  0  0  0  0  0  0  0  # atno 6908 bound_to 6896
  151.6411  133.3289  159.3166 H   0  0  0  0  0  0  0  0  0  0  0  0  # atno 6909 bound_to 6896
  145.6534  140.9275  143.0973 H   0  0  0  0  0  0  0  0  0  0  0  0  # atno 7974 bound_to 7965
  155.2836  140.0445  157.3017 H   0  0  0  0  0  0  0  0  0  0  0  0  # atno 8008 bound_to 7997
  154.5582  140.2338  155.8345 H   0  0  0  0  0  0  0  0  0  0  0  0  # atno 8009 bound_to 7997
  156.2025  140.3021  155.9564 H   0  0  0  0  0  0  0  0  0  0  0  0  # atno 8010 bound_to 7997
  140.1715  144.4272  150.6659 H   0  0  0  0  0  0  0  0  0  0  0  0  # atno 10167 bound_to 10162
  157.3305  131.0919  151.1166 H   0  0  0  0  0  0  0  0  0  0  0  0  # atno 10718 bound_to 10713
  154.1347  135.2824  155.3176 H   0  0  0  0  0  0  0  0  0  0  0  0  # atno 10763 bound_to 10752
  154.6330  135.5429  153.7705 H   0  0  0  0  0  0  0  0  0  0  0  0  # atno 10764 bound_to 10752
  153.0270  135.6467  154.1496 H   0  0  0  0  0  0  0  0  0  0  0  0  # atno 10765 bound_to 10752
  141.1202  133.6612  156.4901 H   0  0  0  0  0  0  0  0  0  0  0  0  # atno 11005 bound_to 11000
  144.7114  139.8355  143.7413 LP  0  0  0  0  0  0  0  0  0  0  0  0  # atno 17320 bound_to 7965
  146.1185  139.4199  143.0243 LP  0  0  0  0  0  0  0  0  0  0  0  0  # atno 17321 bound_to 7965
  140.6579  143.2243  151.5926 LP  0  0  0  0  0  0  0  0  0  0  0  0  # atno 17342 bound_to 10162
  139.5336  144.2846  152.1202 LP  0  0  0  0  0  0  0  0  0  0  0  0  # atno 17343 bound_to 10162
  157.2417  130.6572  149.5892 LP  0  0  0  0  0  0  0  0  0  0  0  0  # atno 17370 bound_to 10713
  155.9695  130.4566  150.5932 LP  0  0  0  0  0  0  0  0  0  0  0  0  # atno 17371 bound_to 10713
  140.4530  134.6911  157.5049 LP  0  0  0  0  0  0  0  0  0  0  0  0  # atno 17394 bound_to 11000
  140.0153  134.6628  155.9319 LP  0  0  0  0  0  0  0  0  0  0  0  0  # atno 17395 bound_to 11000

$$$$
