AV-unprocessed.smi:559|AV-procd|sdf|2924|dock3
  -GOLD-   2262023413D 1   1.00000     0.00000
 Structure written by MMmdl.
 41 42  0  0  0  0  0  0  0  0  1 V2000
  153.8353  141.0996  161.2038 C   0  0  0  0  0  0  0  0  0  0  0  0
  153.1445  141.8448  160.0978 C   0  0  0  0  0  0  0  0  0  0  0  0
  153.3291  143.1491  159.9804 N   0  0  0  0  0  0  0  0  0  0  0  0
  152.5764  143.5097  158.9219 N   0  0  0  0  0  0  0  0  0  0  0  0
  152.5377  144.9011  158.5164 C   0  0  0  0  0  0  0  0  0  0  0  0
  151.9177  142.4303  158.3672 C   0  0  0  0  0  0  0  0  0  0  0  0
  151.0114  142.5724  157.1872 C   0  0  0  0  0  0  0  0  0  0  0  0
  152.2558  141.3294  159.1090 C   0  0  0  0  0  0  0  0  0  0  0  0
  151.7872  139.9033  158.9491 C   0  0  0  0  0  0  0  0  0  0  0  0
  152.1438  139.4059  157.5479 C   0  0  0  0  0  0  0  0  0  0  0  0
  153.2859  139.0176  157.3051 O   0  0  0  0  0  0  0  0  0  0  0  0
  151.1661  139.4602  156.6292 N   0  0  0  0  0  0  0  0  0  0  0  0
  151.3327  139.2222  155.1998 C   0  0  0  0  0  0  0  0  0  0  0  0
  150.0136  139.4643  154.4405 C   0  0  2  0  0  0  0  0  0  0  0  0
  149.4644  140.8888  154.6482 C   0  0  0  0  0  0  0  0  0  0  0  0
  148.0448  140.9539  154.0751 C   0  0  0  0  0  0  0  0  0  0  0  0
  147.3163  139.2996  154.3702 S   0  0  0  0  0  0  0  0  0  0  0  0
  146.4578  139.3464  155.5635 O   0  0  0  0  0  0  0  0  0  0  0  0
  146.8147  138.7620  153.0967 O   0  0  0  0  0  0  0  0  0  0  0  0
  148.8925  138.4741  154.8045 C   0  0  0  0  0  0  0  0  0  0  0  0
  153.1172  140.7597  161.9500 H   0  0  0  0  0  0  0  0  0  0  0  0
  154.5738  141.7211  161.7115 H   0  0  0  0  0  0  0  0  0  0  0  0
  154.3542  140.2222  160.8178 H   0  0  0  0  0  0  0  0  0  0  0  0
  152.8367  144.9883  157.4718 H   0  0  0  0  0  0  0  0  0  0  0  0
  153.2142  145.5002  159.1272 H   0  0  0  0  0  0  0  0  0  0  0  0
  151.5245  145.2861  158.6314 H   0  0  0  0  0  0  0  0  0  0  0  0
  150.6152  141.6068  156.8737 H   0  0  0  0  0  0  0  0  0  0  0  0
  151.5418  143.0061  156.3395 H   0  0  0  0  0  0  0  0  0  0  0  0
  150.1660  143.2184  157.4254 H   0  0  0  0  0  0  0  0  0  0  0  0
  152.2480  139.2509  159.6919 H   0  0  0  0  0  0  0  0  0  0  0  0
  150.7103  139.8117  159.0910 H   0  0  0  0  0  0  0  0  0  0  0  0
  150.2590  139.7859  156.9305 H   0  0  0  0  0  0  0  0  0  0  0  0
  152.1317  139.8401  154.7869 H   0  0  0  0  0  0  0  0  0  0  0  0
  151.6486  138.1873  155.0669 H   0  0  0  0  0  0  0  0  0  0  0  0
  150.2095  139.3505  153.3731 H   0  0  0  0  0  0  0  0  0  0  0  0
  149.4232  141.1052  155.7165 H   0  0  0  0  0  0  0  0  0  0  0  0
  150.1101  141.6414  154.1951 H   0  0  0  0  0  0  0  0  0  0  0  0
  147.4306  141.7266  154.5379 H   0  0  0  0  0  0  0  0  0  0  0  0
  148.0696  141.1240  152.9987 H   0  0  0  0  0  0  0  0  0  0  0  0
  148.9744  137.5256  154.2740 H   0  0  0  0  0  0  0  0  0  0  0  0
  148.8782  138.2725  155.8760 H   0  0  0  0  0  0  0  0  0  0  0  0
  1  2  1  0  0  0  0
  1 21  1  0  0  0  0
  1 22  1  0  0  0  0
  1 23  1  0  0  0  0
  2  8  1  0  0  0  0
  2  3  2  0  0  0  0
  3  4  1  0  0  0  0
  4  5  1  0  0  0  0
  4  6  1  0  0  0  0
  5 24  1  0  0  0  0
  5 25  1  0  0  0  0
  5 26  1  0  0  0  0
  6  7  1  0  0  0  0
  6  8  2  0  0  0  0
  7 27  1  0  0  0  0
  7 28  1  0  0  0  0
  7 29  1  0  0  0  0
  8  9  1  0  0  0  0
  9 10  1  0  0  0  0
  9 30  1  0  0  0  0
  9 31  1  0  0  0  0
 10 11  2  0  0  0  0
 10 12  1  0  0  0  0
 12 13  1  0  0  0  0
 12 32  1  0  0  0  0
 13 14  1  0  0  0  0
 13 33  1  0  0  0  0
 13 34  1  0  0  0  0
 14 20  1  0  0  0  0
 14 15  1  0  0  0  0
 14 35  1  0  0  0  0
 15 16  1  0  0  0  0
 15 36  1  0  0  0  0
 15 37  1  0  0  0  0
 16 17  1  0  0  0  0
 16 38  1  0  0  0  0
 16 39  1  0  0  0  0
 17 18  2  0  0  0  0
 17 19  2  0  0  0  0
 17 20  1  0  0  0  0
 20 40  1  0  0  0  0
 20 41  1  0  0  0  0
M  END
> <s_m_source_file>
AV-unprocessed.smi

> <i_m_source_file_index>
559

> <i_lp_mmshare_version>
43012

> <i_f3d_flags>
0

> <s_epik_input>
W0NIM11jMW5uKFtDSDNdKWMoW0NIM10pYzFbQ0gyXUMoPU8pW05IXVtDSDJdW0NAQEhdKFtDSDJdMilbQ0gyXVtDSDJdUzIoPU8pPU8=

> <s_epik_cmdline>
J2VwaWtfcHl0aG9uJywgJy1waCcsICc3LjAnLCAnLXRuJywgJzgnLCAnLW1hJywgJzIwMCcsICctbWV0YWxfYmluZGluZycsICctaW1hZScsICc8aW5maWxlLm1hZT4nLCAnLW9tYWUnLCAnPG91dGZpbGUubWFlPic=

> <r_lp_tautomer_probability>
1

> <r_epik_Ionization_Penalty>
0.00301269

> <r_epik_Ionization_Penalty_Charging>
0

> <r_epik_Ionization_Penalty_Neutral>
0.00301269

> <r_epik_State_Penalty>
0.00211587

> <r_epik_Charging_Adjusted_Penalty>
0.00211587

> <i_epik_Tot_Q>
0

> <i_epik_Tot_abs_Q>
0

> <r_epik_Metal_State_Penalty>
-0

> <b_epik_Metal_Only>
0

> <s_lp_Force_Field>
OPLS_2005

> <r_lp_Energy>
-3.01738

> <b_lp_Chiralities_Consistent>
1

> <s_lp_Variant>
AV-unprocessed.smi:559-1

> <Gold.Version>
5.8.1

> <Gold.Id.Protein>
6NUR|6NUR_protein|mol2

> <Gold.PLP.Fitness>
43.9312

> <Gold.PLP.PLP>
-41.5668

> <Gold.PLP.part.hbond>
-1.0000

> <Gold.PLP.part.metal>
0.0000

> <Gold.PLP.part.buried>
-4.3301

> <Gold.PLP.part.nonpolar>
-36.6649

> <Gold.PLP.part.repulsive>
0.3731

> <Gold.PLP.ligand.clash>
0.0000

> <Gold.PLP.ligand.torsion>
0.3257

> <Gold.PLP.Chemscore.Hbond>
1.0000

> <Gold.PLP.Chemscore.CHOScore>
0.0000

> <Gold.PLP.Chemscore.Metal>
0.0000

> <Gold.Chemscore.Hbonds>
donor molecule, donor type, donor heavy atom, donor atom, acceptor molecule, acceptor atom, score
      P1  H  7997  8009       L1    11  1.00

> <Gold.PLP.Chemscore.Internal.Correction>
0.0158

> <Gold.Rescore>
     Score         DG    S(hbond)    S(metal)    S(lipo)     H(rot)  DE(clash)    DE(int)     intcor
     16.19     -16.64       1.00        0.00     102.77       1.64       0.17       0.28       ----

> <Gold.Chemscore.Fitness>
16.1893

> <Gold.Chemscore.DG>
-16.6372

> <Gold.Chemscore.ZeroCoef>
-5.4800

> <Gold.Chemscore.Hbond>
0.9972

> <Gold.Chemscore.Metal>
0.0000

> <Gold.Chemscore.Lipo>
102.7692

> <Gold.Chemscore.Internal_Hbond>
0.0000

> <Gold.Chemscore.DEClash>
0.1721

> <Gold.Chemscore.DEInternal>
0.2758

> <Gold.Chemscore.Rot>
1.6396

> <Gold.Chemscore.Internal.Correction>
   9.000000E+99

> <Gold.Chemscore.Hbonds>
donor molecule, donor type, donor heavy atom, donor atom, acceptor molecule, acceptor atom, score
      P1  H  7997  8009       L1    11  0.92

> <Gold.Chemscore.Hbond.Weighted>
-3.3306

> <Gold.Chemscore.Metal.Weighted>
-0.0000

> <Gold.Chemscore.Lipo.Weighted>
-12.0240

> <Gold.Chemscore.Internal_Hbond.Weighted>
0.0000

> <Gold.Chemscore.DEClash.Weighted>
0.1721

> <Gold.Chemscore.DEInternal.Weighted>
0.2758

> <Gold.Chemscore.Rot.Weighted>
4.1974

> <Gold.Chemscore.Internal.Correction.Weighted>
   9.000000E+99

> <Gold.Protein.RotatedTorsions>
[ 6907 6896 6895 6894 ] final  132.38 input  -60.11 | X-H torsion
[ 7974 7965 7964 7962 ] final   -8.77 input  175.53 | X-H torsion
[ 8008 7997 7996 7995 ] final -173.04 input   59.86 | X-H torsion
[ 10167 10162 10161 10158 ] final   91.00 input  -65.29 | X-H torsion
[ 10718 10713 10712 10709 ] final   97.18 input   66.30 | X-H torsion
[ 10763 10752 10751 10750 ] final  -43.03 input  -60.55 | X-H torsion
[ 11005 11000 10999 10996 ] final  176.37 input  -57.11 | X-H torsion

> <Gold.Protein.ActiveResidues>
 VAL166  LYS551  ARG553  GLY616  TRP617  ASP618  TYR619  PRO620  LYS621  CYS622 
 ASP623  PHE694  ASN695  SER759  ASP760  ASP761  ALA762  ILE779  LEU786  VAL792 
 PHE793  MET794  SER795  GLU796  ALA797  LYS798  CYS799  TRP800  GLU811  SER814 

> <Gold.Protein.RotatedAtoms>
  152.3330  133.5980  159.5822 H   0  0  0  0  0  0  0  0  0  0  0  0  # atno 6907 bound_to 6896
  150.7434  133.9839  159.3594 H   0  0  0  0  0  0  0  0  0  0  0  0  # atno 6908 bound_to 6896
  151.7712  135.0786  160.0411 H   0  0  0  0  0  0  0  0  0  0  0  0  # atno 6909 bound_to 6896
  146.2271  140.2518  142.8347 H   0  0  0  0  0  0  0  0  0  0  0  0  # atno 7974 bound_to 7965
  155.9523  140.1128  157.0966 H   0  0  0  0  0  0  0  0  0  0  0  0  # atno 8008 bound_to 7997
  154.4112  140.1198  156.5135 H   0  0  0  0  0  0  0  0  0  0  0  0  # atno 8009 bound_to 7997
  155.6826  140.3473  155.4864 H   0  0  0  0  0  0  0  0  0  0  0  0  # atno 8010 bound_to 7997
  139.8418  144.6637  150.9274 H   0  0  0  0  0  0  0  0  0  0  0  0  # atno 10167 bound_to 10162
  157.6916  131.0601  150.4605 H   0  0  0  0  0  0  0  0  0  0  0  0  # atno 10718 bound_to 10713
  153.9888  135.6708  153.4753 H   0  0  0  0  0  0  0  0  0  0  0  0  # atno 10763 bound_to 10752
  153.0714  135.4972  154.8310 H   0  0  0  0  0  0  0  0  0  0  0  0  # atno 10764 bound_to 10752
  154.7121  135.3099  154.9142 H   0  0  0  0  0  0  0  0  0  0  0  0  # atno 10765 bound_to 10752
  140.3723  134.7019  157.4400 H   0  0  0  0  0  0  0  0  0  0  0  0  # atno 11005 bound_to 11000
  144.9406  140.8074  143.5633 LP  0  0  0  0  0  0  0  0  0  0  0  0  # atno 17320 bound_to 7965
  145.2469  139.2048  143.4963 LP  0  0  0  0  0  0  0  0  0  0  0  0  # atno 17321 bound_to 7965
  140.7797  143.3906  151.1317 LP  0  0  0  0  0  0  0  0  0  0  0  0  # atno 17342 bound_to 10162
  139.7552  143.8719  152.3087 LP  0  0  0  0  0  0  0  0  0  0  0  0  # atno 17343 bound_to 10162
  156.4949  130.4104  149.6385 LP  0  0  0  0  0  0  0  0  0  0  0  0  # atno 17370 bound_to 10713
  156.3382  130.7368  151.2309 LP  0  0  0  0  0  0  0  0  0  0  0  0  # atno 17371 bound_to 10713
  140.0542  134.6087  155.8825 LP  0  0  0  0  0  0  0  0  0  0  0  0  # atno 17394 bound_to 11000
  141.1950  133.6585  156.5623 LP  0  0  0  0  0  0  0  0  0  0  0  0  # atno 17395 bound_to 11000

$$$$
