AV-unprocessed.smi:1144|AV-procd|sdf|4881|dock5
  -GOLD-   22720 3453D 1   1.00000     0.00000
 Structure written by MMmdl.
 34 35  0  0  0  0  0  0  0  0  1 V2000
  147.2581  139.3378  157.2345 C   0  0  0  0  0  0  0  0  0  0  0  0
  148.3207  140.1745  156.6985 N   0  0  0  0  0  0  0  0  0  0  0  0
  148.1761  140.3725  155.2626 C   0  0  0  0  0  0  0  0  0  0  0  0
  149.3078  141.2447  154.6943 C   0  0  0  0  0  0  0  0  0  0  0  0
  150.5658  140.6599  155.0174 O   0  0  0  0  0  0  0  0  0  0  0  0
  150.7691  140.5043  156.4211 C   0  0  2  0  0  0  0  0  0  0  0  0
  152.1485  139.8702  156.6440 C   0  0  0  0  0  0  0  0  0  0  0  0
  152.3985  139.6090  158.0536 N   0  0  0  0  0  0  0  0  0  0  0  0
  152.5922  140.5940  159.0029 C   0  0  0  0  0  0  0  0  0  0  0  0
  153.2553  140.2757  160.1205 N   0  0  0  0  0  0  0  0  0  0  0  0
  153.4308  141.2576  161.0306 C   0  0  0  0  0  0  0  0  0  0  0  0
  152.9398  142.5612  160.8202 C   0  0  0  0  0  0  0  0  0  0  0  0
  152.2548  142.7834  159.6045 C   0  0  0  0  0  0  0  0  0  0  0  0
  151.6724  144.1410  159.2408 C   0  0  0  0  0  0  0  0  0  0  0  0
  151.7862  145.0081  160.2476 F   0  0  0  0  0  0  0  0  0  0  0  0
  152.3134  144.6364  158.1822 F   0  0  0  0  0  0  0  0  0  0  0  0
  150.3804  144.0101  158.9397 F   0  0  0  0  0  0  0  0  0  0  0  0
  152.0852  141.7910  158.6999 N   0  0  0  0  0  0  0  0  0  0  0  0
  149.6381  139.6209  156.9852 C   0  0  0  0  0  0  0  0  0  0  0  0
  146.2815  139.7814  157.0382 H   0  0  0  0  0  0  0  0  0  0  0  0
  147.3613  139.2273  158.3143 H   0  0  0  0  0  0  0  0  0  0  0  0
  147.2758  138.3429  156.7877 H   0  0  0  0  0  0  0  0  0  0  0  0
  148.1756  139.4070  154.7542 H   0  0  0  0  0  0  0  0  0  0  0  0
  147.2142  140.8391  155.0474 H   0  0  0  0  0  0  0  0  0  0  0  0
  149.2180  141.3245  153.6109 H   0  0  0  0  0  0  0  0  0  0  0  0
  149.2556  142.2577  155.0964 H   0  0  0  0  0  0  0  0  0  0  0  0
  150.7364  141.4827  156.9048 H   0  0  0  0  0  0  0  0  0  0  0  0
  152.2081  138.9240  156.1047 H   0  0  0  0  0  0  0  0  0  0  0  0
  152.9312  140.5171  156.2460 H   0  0  0  0  0  0  0  0  0  0  0  0
  152.3701  138.6525  158.3755 H   0  0  0  0  0  0  0  0  0  0  0  0
  153.9666  141.0018  161.9327 H   0  0  0  0  0  0  0  0  0  0  0  0
  153.0850  143.3403  161.5535 H   0  0  0  0  0  0  0  0  0  0  0  0
  149.7641  139.5144  158.0634 H   0  0  0  0  0  0  0  0  0  0  0  0
  149.7165  138.6181  156.5623 H   0  0  0  0  0  0  0  0  0  0  0  0
  1  2  1  0  0  0  0
  1 20  1  0  0  0  0
  1 21  1  0  0  0  0
  1 22  1  0  0  0  0
  2 19  1  0  0  0  0
  2  3  1  0  0  0  0
  3  4  1  0  0  0  0
  3 23  1  0  0  0  0
  3 24  1  0  0  0  0
  4  5  1  0  0  0  0
  4 25  1  0  0  0  0
  4 26  1  0  0  0  0
  5  6  1  0  0  0  0
  6  7  1  0  0  0  0
  6 19  1  0  0  0  0
  6 27  1  0  0  0  0
  7  8  1  0  0  0  0
  7 28  1  0  0  0  0
  7 29  1  0  0  0  0
  8  9  1  0  0  0  0
  8 30  1  0  0  0  0
  9 18  1  0  0  0  0
  9 10  2  0  0  0  0
 10 11  1  0  0  0  0
 11 12  2  0  0  0  0
 11 31  1  0  0  0  0
 12 13  1  0  0  0  0
 12 32  1  0  0  0  0
 13 14  1  0  0  0  0
 13 18  2  0  0  0  0
 14 15  1  0  0  0  0
 14 16  1  0  0  0  0
 14 17  1  0  0  0  0
 19 33  1  0  0  0  0
 19 34  1  0  0  0  0
M  END
> <s_m_source_file>
AV-unprocessed.smi

> <i_m_source_file_index>
1144

> <i_lp_mmshare_version>
43012

> <i_f3d_flags>
0

> <s_epik_input>
W0NIM11OMVtDSDJdW0NIMl1PW0NASF0oW0NIMl0xKVtDSDJdW05IXWMybltjSF1bY0hdYyhuMilDKEYpKEYpRg==

> <s_epik_cmdline>
J2VwaWtfcHl0aG9uJywgJy1waCcsICc3LjAnLCAnLXRuJywgJzgnLCAnLW1hJywgJzIwMCcsICctbWV0YWxfYmluZGluZycsICctaW1hZScsICc8aW5maWxlLm1hZT4nLCAnLW9tYWUnLCAnPG91dGZpbGUubWFlPic=

> <r_lp_tautomer_probability>
1

> <r_epik_Ionization_Penalty>
0.797829

> <r_epik_Ionization_Penalty_Charging>
0

> <r_epik_Ionization_Penalty_Neutral>
0.797829

> <r_epik_State_Penalty>
0.828842

> <r_epik_Charging_Adjusted_Penalty>
0.828842

> <i_epik_Tot_Q>
0

> <i_epik_Tot_abs_Q>
0

> <r_epik_Metal_State_Penalty>
0.828842

> <b_epik_Metal_Only>
0

> <s_lp_Force_Field>
OPLS_2005

> <r_lp_Energy>
14.496

> <b_lp_Chiralities_Consistent>
1

> <s_lp_Variant>
AV-unprocessed.smi:1144-6

> <Gold.Version>
5.8.1

> <Gold.Id.Protein>
6NUR|6NUR_protein|mol2

> <Gold.PLP.Fitness>
42.4873

> <Gold.PLP.PLP>
-40.1934

> <Gold.PLP.part.hbond>
-1.0000

> <Gold.PLP.part.metal>
0.0000

> <Gold.PLP.part.buried>
-4.8437

> <Gold.PLP.part.nonpolar>
-34.4763

> <Gold.PLP.part.repulsive>
0.1841

> <Gold.PLP.ligand.clash>
0.0000

> <Gold.PLP.ligand.torsion>
0.2580

> <Gold.PLP.Chemscore.Hbond>
0.9280

> <Gold.PLP.Chemscore.CHOScore>
0.0000

> <Gold.PLP.Chemscore.Metal>
0.0000

> <Gold.Chemscore.Hbonds>
donor molecule, donor type, donor heavy atom, donor atom, acceptor molecule, acceptor atom, score
      P1  H  7989  7998       L1     5  0.93

> <Gold.PLP.Chemscore.Internal.Correction>
0.0259

> <Gold.Rescore>
     Score         DG    S(hbond)    S(metal)    S(lipo)     H(rot)  DE(clash)    DE(int)     intcor
     11.99     -13.42       0.80        0.00      73.85       1.31       0.04       1.40       ----

> <Gold.Chemscore.Fitness>
11.9897

> <Gold.Chemscore.DG>
-13.4243

> <Gold.Chemscore.ZeroCoef>
-5.4800

> <Gold.Chemscore.Hbond>
0.7995

> <Gold.Chemscore.Metal>
0.0000

> <Gold.Chemscore.Lipo>
73.8478

> <Gold.Chemscore.Internal_Hbond>
0.0000

> <Gold.Chemscore.DEClash>
0.0396

> <Gold.Chemscore.DEInternal>
1.3951

> <Gold.Chemscore.Rot>
1.3149

> <Gold.Chemscore.Internal.Correction>
   9.000000E+99

> <Gold.Chemscore.Hbonds>
donor molecule, donor type, donor heavy atom, donor atom, acceptor molecule, acceptor atom, score
      P1  H  7989  7998       L1     5  0.45

> <Gold.Chemscore.Hbond.Weighted>
-2.6703

> <Gold.Chemscore.Metal.Weighted>
-0.0000

> <Gold.Chemscore.Lipo.Weighted>
-8.6402

> <Gold.Chemscore.Internal_Hbond.Weighted>
0.0000

> <Gold.Chemscore.DEClash.Weighted>
0.0396

> <Gold.Chemscore.DEInternal.Weighted>
1.3951

> <Gold.Chemscore.Rot.Weighted>
3.3662

> <Gold.Chemscore.Internal.Correction.Weighted>
   9.000000E+99

> <Gold.Protein.RotatedTorsions>
[ 6907 6896 6895 6894 ] final  114.29 input  -60.11 | X-H torsion
[ 7974 7965 7964 7962 ] final   53.31 input  175.53 | X-H torsion
[ 8008 7997 7996 7995 ] final   -8.54 input   59.86 | X-H torsion
[ 10167 10162 10161 10158 ] final   60.09 input  -65.29 | X-H torsion
[ 10718 10713 10712 10709 ] final -108.38 input   66.30 | X-H torsion
[ 10763 10752 10751 10750 ] final -177.91 input  -60.55 | X-H torsion
[ 11005 11000 10999 10996 ] final   32.03 input  -57.11 | X-H torsion

> <Gold.Protein.ActiveResidues>
 VAL166  LYS551  ARG553  GLY616  TRP617  ASP618  TYR619  PRO620  LYS621  CYS622 
 ASP623  PHE694  ASN695  SER759  ASP760  ASP761  ALA762  ILE779  LEU786  VAL792 
 PHE793  MET794  SER795  GLU796  ALA797  LYS798  CYS799  TRP800  GLU811  SER814 

> <Gold.Protein.RotatedAtoms>
  152.4811  133.8256  159.7076 H   0  0  0  0  0  0  0  0  0  0  0  0  # atno 6907 bound_to 6896
  150.8861  133.7296  159.2924 H   0  0  0  0  0  0  0  0  0  0  0  0  # atno 6908 bound_to 6896
  151.4784  135.1054  159.9823 H   0  0  0  0  0  0  0  0  0  0  0  0  # atno 6909 bound_to 6896
  145.9725  139.4163  143.0181 H   0  0  0  0  0  0  0  0  0  0  0  0  # atno 7974 bound_to 7965
  154.5732  140.2378  155.8161 H   0  0  0  0  0  0  0  0  0  0  0  0  # atno 8008 bound_to 7997
  156.2123  140.3022  155.9717 H   0  0  0  0  0  0  0  0  0  0  0  0  # atno 8009 bound_to 7997
  155.2675  140.0417  157.2994 H   0  0  0  0  0  0  0  0  0  0  0  0  # atno 8010 bound_to 7997
  140.1693  144.4292  150.6669 H   0  0  0  0  0  0  0  0  0  0  0  0  # atno 10167 bound_to 10162
  156.0483  130.5710  150.7953 H   0  0  0  0  0  0  0  0  0  0  0  0  # atno 10718 bound_to 10713
  154.5543  135.2815  155.0979 H   0  0  0  0  0  0  0  0  0  0  0  0  # atno 10763 bound_to 10752
  154.2413  135.6356  153.5212 H   0  0  0  0  0  0  0  0  0  0  0  0  # atno 10764 bound_to 10752
  153.0011  135.5560  154.6118 H   0  0  0  0  0  0  0  0  0  0  0  0  # atno 10765 bound_to 10752
  140.2777  134.3009  155.7809 H   0  0  0  0  0  0  0  0  0  0  0  0  # atno 11005 bound_to 11000
  145.7886  140.9824  143.1061 LP  0  0  0  0  0  0  0  0  0  0  0  0  # atno 17320 bound_to 7965
  144.6840  139.9654  143.7481 LP  0  0  0  0  0  0  0  0  0  0  0  0  # atno 17321 bound_to 7965
  140.6592  143.2247  151.5896 LP  0  0  0  0  0  0  0  0  0  0  0  0  # atno 17342 bound_to 10162
  139.5345  144.2820  152.1221 LP  0  0  0  0  0  0  0  0  0  0  0  0  # atno 17343 bound_to 10162
  157.5382  131.0939  150.9863 LP  0  0  0  0  0  0  0  0  0  0  0  0  # atno 17370 bound_to 10713
  157.0153  130.5652  149.5325 LP  0  0  0  0  0  0  0  0  0  0  0  0  # atno 17371 bound_to 10713
  141.2168  133.7506  156.9433 LP  0  0  0  0  0  0  0  0  0  0  0  0  # atno 17394 bound_to 11000
  140.1313  134.9354  157.2340 LP  0  0  0  0  0  0  0  0  0  0  0  0  # atno 17395 bound_to 11000

$$$$
