AV-unprocessed.smi:69|AV-procd|sdf|648|dock10
  -GOLD-   2262016543D 1   1.00000     0.00000
 Structure written by MMmdl.
 32 34  0  0  0  0  0  0  0  0  1 V2000
  152.4713  142.9076  161.6328 N   0  0  0  0  0  0  0  0  0  0  0  0
  152.2212  143.1487  160.3384 C   0  0  0  0  0  0  0  0  0  0  0  0
  152.2549  144.4308  159.9041 N   0  0  0  0  0  0  0  0  0  0  0  0
  152.0056  144.6979  158.6175 C   0  0  0  0  0  0  0  0  0  0  0  0
  151.7082  143.8488  157.6294 N   0  0  0  0  0  0  0  0  0  0  0  0
  151.6777  142.5578  158.0724 C   0  0  0  0  0  0  0  0  0  0  0  0
  151.9208  142.1254  159.4042 C   0  0  0  0  0  0  0  0  0  0  0  0
  151.8006  140.7442  159.4805 N   0  0  0  0  0  0  0  0  0  0  0  0
  151.5004  140.3861  158.2600 C   0  0  0  0  0  0  0  0  0  0  0  0
  151.3983  141.4186  157.3500 N   0  0  0  0  0  0  0  0  0  0  0  0
  151.0714  141.3739  155.8864 C   0  0  1  0  0  0  0  0  0  0  0  0
  150.9335  140.0381  155.5045 O   0  0  0  0  0  0  0  0  0  0  0  0
  149.5534  139.7084  155.3981 C   0  0  2  0  0  0  0  0  0  0  0  0
  149.3448  138.4440  154.5476 C   0  0  0  0  0  0  0  0  0  0  0  0
  150.0609  138.5539  153.3361 O   0  0  0  0  0  0  0  0  0  0  0  0
  148.9506  140.9990  154.8289 C   0  0  2  0  0  0  0  0  0  0  0  0
  149.1554  141.0856  153.4299 O   0  0  0  0  0  0  0  0  0  0  0  0
  149.7363  142.0862  155.5526 C   0  0  1  0  0  0  0  0  0  0  0  0
  149.0102  142.5200  156.6907 O   0  0  0  0  0  0  0  0  0  0  0  0
  151.9403  141.8144  155.3955 H   0  0  0  0  0  0  0  0  0  0  0  0
  149.1434  139.5566  156.3984 H   0  0  0  0  0  0  0  0  0  0  0  0
  147.8773  141.0616  155.0150 H   0  0  0  0  0  0  0  0  0  0  0  0
  149.9297  142.9513  154.9165 H   0  0  0  0  0  0  0  0  0  0  0  0
  152.4499  141.9593  161.9796 H   0  0  0  0  0  0  0  0  0  0  0  0
  152.6779  143.6730  162.2579 H   0  0  0  0  0  0  0  0  0  0  0  0
  152.0503  145.7407  158.3399 H   0  0  0  0  0  0  0  0  0  0  0  0
  151.3445  139.3503  157.9956 H   0  0  0  0  0  0  0  0  0  0  0  0
  149.7281  137.5699  155.0747 H   0  0  0  0  0  0  0  0  0  0  0  0
  148.2877  138.2674  154.3466 H   0  0  0  0  0  0  0  0  0  0  0  0
  149.9469  137.7541  152.8457 H   0  0  0  0  0  0  0  0  0  0  0  0
  149.4168  140.2352  153.1110 H   0  0  0  0  0  0  0  0  0  0  0  0
  148.7871  143.4309  156.5710 H   0  0  0  0  0  0  0  0  0  0  0  0
  1  2  1  0  0  0  0
  1 24  1  0  0  0  0
  1 25  1  0  0  0  0
  2  7  1  0  0  0  0
  2  3  2  0  0  0  0
  3  4  1  0  0  0  0
  4  5  2  0  0  0  0
  4 26  1  0  0  0  0
  5  6  1  0  0  0  0
  6 10  1  0  0  0  0
  6  7  2  0  0  0  0
  7  8  1  0  0  0  0
  8  9  2  0  0  0  0
  9 10  1  0  0  0  0
  9 27  1  0  0  0  0
 10 11  1  0  0  0  0
 11 20  1  0  0  0  0
 11 18  1  0  0  0  0
 11 12  1  0  0  0  0
 12 13  1  0  0  0  0
 13 21  1  0  0  0  0
 13 14  1  0  0  0  0
 13 16  1  0  0  0  0
 14 15  1  0  0  0  0
 14 28  1  0  0  0  0
 14 29  1  0  0  0  0
 15 30  1  0  0  0  0
 16 22  1  0  0  0  0
 16 17  1  0  0  0  0
 16 18  1  0  0  0  0
 17 31  1  0  0  0  0
 18 23  1  0  0  0  0
 18 19  1  0  0  0  0
 19 32  1  0  0  0  0
M  END
> <s_m_source_file>
AV-unprocessed.smi

> <i_m_source_file_index>
69

> <i_lp_mmshare_version>
43012

> <i_f3d_flags>
0

> <s_epik_input>
bjFbY0hdbmMoW05IMl0pYyhjMTIpbltjSF1uMltDQEBIXTNPW0NASF0oW0NIMl1bT0hdKVtDQEBIXShbT0hdKVtDQEhdM1tPSF0=

> <s_epik_cmdline>
J2VwaWtfcHl0aG9uJywgJy1waCcsICc3LjAnLCAnLXRuJywgJzgnLCAnLW1hJywgJzIwMCcsICctbWV0YWxfYmluZGluZycsICctaW1hZScsICc8aW5maWxlLm1hZT4nLCAnLW9tYWUnLCAnPG91dGZpbGUubWFlPic=

> <r_lp_tautomer_probability>
1

> <r_epik_Ionization_Penalty>
0.000428445

> <r_epik_Ionization_Penalty_Charging>
0

> <r_epik_Ionization_Penalty_Neutral>
0.000428445

> <r_epik_State_Penalty>
-0

> <r_epik_Charging_Adjusted_Penalty>
0

> <i_epik_Tot_Q>
0

> <i_epik_Tot_abs_Q>
0

> <r_epik_Metal_State_Penalty>
-0

> <b_epik_Metal_Only>
0

> <s_epik_Chemistry_Notes>
This compound contains an acetal/aminal-like group ( X-CH(R)-Y where X, Y are N, S, or O) that may be acid/base labile, releasing an aldehyde.

> <s_lp_Force_Field>
OPLS_2005

> <r_lp_Energy>
38.9041

> <b_lp_Chiralities_Consistent>
1

> <s_lp_Variant>
AV-unprocessed.smi:69-6

> <Gold.Version>
5.8.1

> <Gold.Id.Protein>
6NUR|6NUR_protein|mol2

> <Gold.PLP.Fitness>
44.1642

> <Gold.PLP.PLP>
-34.1913

> <Gold.PLP.part.hbond>
-5.8455

> <Gold.PLP.part.metal>
0.0000

> <Gold.PLP.part.buried>
-3.7984

> <Gold.PLP.part.nonpolar>
-23.7323

> <Gold.PLP.part.repulsive>
0.2683

> <Gold.PLP.ligand.clash>
0.0000

> <Gold.PLP.ligand.torsion>
0.0749

> <Gold.PLP.Chemscore.Hbond>
3.3461

> <Gold.PLP.Chemscore.CHOScore>
0.0000

> <Gold.PLP.Chemscore.Metal>
0.0000

> <Gold.Chemscore.Hbonds>
donor molecule, donor type, donor heavy atom, donor atom, acceptor molecule, acceptor atom, score
      L1  H    15    30       P1  7948  1.00
      L1  H    17    31       P1  7957  0.34
      L1  H    19    32       P1  8028  0.98
      P1  H  7989  7998       L1    12  0.04
      P1  H  8011  8017       L1    17  1.00

> <Gold.PLP.Chemscore.Internal.Correction>
0.0844

> <Gold.Rescore>
     Score         DG    S(hbond)    S(metal)    S(lipo)     H(rot)  DE(clash)    DE(int)     intcor
      6.77      -8.54       2.88        0.00      31.92       4.03       0.65       1.12       ----

> <Gold.Chemscore.Fitness>
6.7691

> <Gold.Chemscore.DG>
-8.5359

> <Gold.Chemscore.ZeroCoef>
-5.4800

> <Gold.Chemscore.Hbond>
2.8840

> <Gold.Chemscore.Metal>
0.0000

> <Gold.Chemscore.Lipo>
31.9185

> <Gold.Chemscore.Internal_Hbond>
0.0000

> <Gold.Chemscore.DEClash>
0.6518

> <Gold.Chemscore.DEInternal>
1.1151

> <Gold.Chemscore.Rot>
4.0277

> <Gold.Chemscore.Internal.Correction>
   9.000000E+99

> <Gold.Chemscore.Hbonds>
donor molecule, donor type, donor heavy atom, donor atom, acceptor molecule, acceptor atom, score
      L1  H    15    30       P1  7948  0.24
      L1  H    17    31       P1  7957  0.33
      L1  H    19    32       P1  8028  0.75
      P1  H  8011  8017       L1    17  0.73

> <Gold.Chemscore.Hbond.Weighted>
-9.6325

> <Gold.Chemscore.Metal.Weighted>
-0.0000

> <Gold.Chemscore.Lipo.Weighted>
-3.7345

> <Gold.Chemscore.Internal_Hbond.Weighted>
0.0000

> <Gold.Chemscore.DEClash.Weighted>
0.6518

> <Gold.Chemscore.DEInternal.Weighted>
1.1151

> <Gold.Chemscore.Rot.Weighted>
10.3110

> <Gold.Chemscore.Internal.Correction.Weighted>
   9.000000E+99

> <Gold.Protein.RotatedTorsions>
[ 6907 6896 6895 6894 ] final    9.62 input  -60.11 | X-H torsion
[ 7974 7965 7964 7962 ] final  -91.55 input  175.53 | X-H torsion
[ 8008 7997 7996 7995 ] final    0.06 input   59.86 | X-H torsion
[ 10167 10162 10161 10158 ] final    7.68 input  -65.29 | X-H torsion
[ 10718 10713 10712 10709 ] final   15.24 input   66.30 | X-H torsion
[ 10763 10752 10751 10750 ] final   29.09 input  -60.55 | X-H torsion
[ 11005 11000 10999 10996 ] final  -17.58 input  -57.11 | X-H torsion

> <Gold.Protein.ActiveResidues>
 VAL166  LYS551  ARG553  GLY616  TRP617  ASP618  TYR619  PRO620  LYS621  CYS622 
 ASP623  PHE694  ASN695  SER759  ASP760  ASP761  ALA762  ILE779  LEU786  VAL792 
 PHE793  MET794  SER795  GLU796  ALA797  LYS798  CYS799  TRP800  GLU811  SER814 

> <Gold.Protein.RotatedAtoms>
  151.7251  135.0886  160.0290 H   0  0  0  0  0  0  0  0  0  0  0  0  # atno 6907 bound_to 6896
  152.3577  133.6253  159.6000 H   0  0  0  0  0  0  0  0  0  0  0  0  # atno 6908 bound_to 6896
  150.7583  133.9390  159.3491 H   0  0  0  0  0  0  0  0  0  0  0  0  # atno 6909 bound_to 6896
  145.4116  140.9545  143.2231 H   0  0  0  0  0  0  0  0  0  0  0  0  # atno 7974 bound_to 7965
  154.6637  140.2596  155.7081 H   0  0  0  0  0  0  0  0  0  0  0  0  # atno 8008 bound_to 7997
  156.2629  140.2843  156.1041 H   0  0  0  0  0  0  0  0  0  0  0  0  # atno 8009 bound_to 7997
  155.1270  140.0378  157.2755 H   0  0  0  0  0  0  0  0  0  0  0  0  # atno 8010 bound_to 7997
  140.6358  143.7890  150.7357 H   0  0  0  0  0  0  0  0  0  0  0  0  # atno 10167 bound_to 10162
  157.0507  130.6268  149.5767 H   0  0  0  0  0  0  0  0  0  0  0  0  # atno 10718 bound_to 10713
  153.0451  135.6497  154.0838 H   0  0  0  0  0  0  0  0  0  0  0  0  # atno 10763 bound_to 10752
  154.0537  135.2893  155.3338 H   0  0  0  0  0  0  0  0  0  0  0  0  # atno 10764 bound_to 10752
  154.6703  135.5358  153.8195 H   0  0  0  0  0  0  0  0  0  0  0  0  # atno 10765 bound_to 10752
  140.8183  133.8088  155.9633 H   0  0  0  0  0  0  0  0  0  0  0  0  # atno 11005 bound_to 11000
  144.8305  139.5636  143.6946 LP  0  0  0  0  0  0  0  0  0  0  0  0  # atno 17320 bound_to 7965
  146.2702  139.6616  142.9301 LP  0  0  0  0  0  0  0  0  0  0  0  0  # atno 17321 bound_to 7965
  140.1511  143.4357  152.2131 LP  0  0  0  0  0  0  0  0  0  0  0  0  # atno 17342 bound_to 10162
  139.5568  144.7378  151.4270 LP  0  0  0  0  0  0  0  0  0  0  0  0  # atno 17343 bound_to 10162
  156.0008  130.5087  150.7657 LP  0  0  0  0  0  0  0  0  0  0  0  0  # atno 17370 bound_to 10713
  157.5032  131.0920  151.0288 LP  0  0  0  0  0  0  0  0  0  0  0  0  # atno 17371 bound_to 10713
  140.9126  134.2241  157.4976 LP  0  0  0  0  0  0  0  0  0  0  0  0  # atno 17394 bound_to 11000
  139.8710  134.9757  156.4893 LP  0  0  0  0  0  0  0  0  0  0  0  0  # atno 17395 bound_to 11000

$$$$
