#       Name:                AV-unprocessed.smi:702
#       Creating user name   scv26
#       Creation time:       Fri Mar 27 00:40:32 2020


#       File generated by GOLD software.
#

@<TRIPOS>MOLECULE
AV-unprocessed.smi:702
    55    57     1
SMALL
NO_CHARGES


@<TRIPOS>ATOM
      1 ****        -1.0911  -0.3006  -2.1269 C.3            1 S1                 0.0000
      2 ****        -0.6564   0.0844  -0.6942 C.3            1 S1                 0.0000
      3 ****         0.8103   0.1084  -0.6436 N.am           1 S1                 0.0000
      4 ****         1.5920   1.1556  -0.9452 C.2            1 S1                 0.0000
      5 ****         1.1577   2.2494  -1.3057 O.2            1 S1                 0.0000
      6 ****         2.8936   0.8426  -0.8236 N.am           1 S1                 0.0000
      7 ****         4.0216   1.6748  -1.0578 C.ar           1 S1                 0.0000
      8 ****         5.2430   1.0495  -1.3934 C.ar           1 S1                 0.0000
      9 ****         6.3891   1.8390  -1.6198 C.ar           1 S1                 0.0000
     10 ****         6.3144   3.1822  -1.5026 N.pl3          1 S1                 1.0000
     11 ****         5.1742   3.8235  -1.1678 C.ar           1 S1                 0.0000
     12 ****         3.9957   3.0870  -0.9306 C.ar           1 S1                 0.0000
     13 ****        -1.2734  -0.8266   0.4339 C.3            1 S1                 0.0000
     14 ****        -2.7630  -0.9176   0.3170 N.3            1 S1                 0.0000
     15 ****        -3.4242  -1.7435   1.3405 C.3            1 S1                 0.0000
     16 ****        -4.9277  -1.9104   1.0670 C.3            1 S1                 0.0000
     17 ****        -5.5434  -0.6299   1.0136 O.3            1 S1                 0.0000
     18 ****        -4.9759   0.2013   0.0093 C.3            1 S1                 0.0000
     19 ****        -3.4673   0.3728   0.2601 C.3            1 S1                 0.0000
     20 ****        -0.5917  -2.2350   0.3458 C.3            1 S1                 0.0000
     21 ****         0.2782  -2.4149   1.5931 C.3            1 S1                 0.0000
     22 ****        -0.3354  -1.4965   2.6381 C.3            1 S1                 0.0000
     23 ****        -0.8326  -0.2944   1.8355 C.3            1 S1                 0.0000
     24 ****        -2.1735  -0.2780  -2.2491 H              1 S1                 0.0000
     25 ****        -0.7535  -1.2989  -2.4031 H              1 S1                 0.0000
     26 ****        -0.6780   0.3946  -2.8584 H              1 S1                 0.0000
     27 ****        -0.9861   1.1076  -0.5118 H              1 S1                 0.0000
     28 ****         1.2590  -0.7500  -0.3589 H              1 S1                 0.0000
     29 ****         3.1005  -0.1220  -0.6085 H              1 S1                 0.0000
     30 ****         5.3033  -0.0254  -1.4858 H              1 S1                 0.0000
     31 ****         7.3563   1.4392  -1.8877 H              1 S1                 0.0000
     32 ****         5.2394   4.8992  -1.0943 H              1 S1                 0.0000
     33 ****         3.0991   3.6159  -0.6447 H              1 S1                 0.0000
     34 ****        -2.9863  -2.7359   1.4094 H              1 S1                 0.0000
     35 ****        -3.3045  -1.2896   2.3243 H              1 S1                 0.0000
     36 ****        -5.0948  -2.4455   0.1309 H              1 S1                 0.0000
     37 ****        -5.3939  -2.4960   1.8593 H              1 S1                 0.0000
     38 ****        -5.1544  -0.2324  -0.9758 H              1 S1                 0.0000
     39 ****        -5.4749   1.1702   0.0269 H              1 S1                 0.0000
     40 ****        -3.3224   0.9278   1.1865 H              1 S1                 0.0000
     41 ****        -3.0833   0.9996  -0.5413 H              1 S1                 0.0000
     42 ****        -1.3135  -3.0462   0.2821 H              1 S1                 0.0000
     43 ****         0.0207  -2.3697  -0.5450 H              1 S1                 0.0000
     44 ****         0.3253  -3.4525   1.9245 H              1 S1                 0.0000
     45 ****         1.2970  -2.0900   1.3786 H              1 S1                 0.0000
     46 ****        -1.1729  -1.9978   3.1235 H              1 S1                 0.0000
     47 ****         0.3749  -1.2144   3.4157 H              1 S1                 0.0000
     48 ****        -0.0114   0.4173   1.7534 H              1 S1                 0.0000
     49 ****        -1.6147   0.2386   2.3743 H              1 S1                 0.0000
     50 ****         7.1556   3.7354  -1.6694 H              1 S1                 0.0000
     51 ****         0.1715   2.3936  -1.3870 LP             1 S1                 0.0000
     52 ****         1.7910   2.9937  -1.5172 LP             1 S1                 0.0000
     53 ****        -2.8441  -1.3725  -0.5698 LP             1 S1                 0.0000
     54 ****        -5.4328  -0.1828   1.9012 LP             1 S1                 0.0000
     55 ****        -6.5171  -0.7493   0.8196 LP             1 S1                 0.0000
@<TRIPOS>BOND
    1    1    2 1     
    2    1   24 1     
    3    1   25 1     
    4    1   26 1     
    5    2    3 1     
    6    2   13 1     
    7    2   27 1     
    8    3    4 am    
    9    3   28 1     
   10    4    5 2     
   11    4    6 am    
   12    6    7 1     
   13    6   29 1     
   14    7   12 ar    
   15    7    8 ar    
   16    8    9 ar    
   17    8   30 1     
   18    9   10 ar    
   19    9   31 1     
   20   10   11 ar    
   21   10   50 1     
   22   11   12 ar    
   23   11   32 1     
   24   12   33 1     
   25   13   23 1     
   26   13   14 1     
   27   13   20 1     
   28   14   19 1     
   29   14   15 1     
   30   15   16 1     
   31   15   34 1     
   32   15   35 1     
   33   16   17 1     
   34   16   36 1     
   35   16   37 1     
   36   17   18 1     
   37   18   19 1     
   38   18   38 1     
   39   18   39 1     
   40   19   40 1     
   41   19   41 1     
   42   20   21 1     
   43   20   42 1     
   44   20   43 1     
   45   21   22 1     
   46   21   44 1     
   47   21   45 1     
   48   22   23 1     
   49   22   46 1     
   50   22   47 1     
   51   23   48 1     
   52   23   49 1     
   53    5   51 1     
   54    5   52 1     
   55   14   53 1     
   56   17   54 1     
   57   17   55 1     
@<TRIPOS>SUBSTRUCTURE
      1 S1             1
@<TRIPOS>SET
LONE_PAIRS      STATIC     ATOMS    <user>   **** ""
5 51 52 53 54 55
DONOR_HYDROGENS      STATIC     ATOMS    <user>   **** ""
3 28 29 50
ATOM$BLUE        STATIC     ATOMS    COLORGROUP SYSTEM
5 51 52 53 54 55
ATOM$RED        STATIC     ATOMS    COLORGROUP SYSTEM
3 28 29 50
