AV-unprocessed.smi:41|AV-procd|sdf|385|dock4
  -GOLD-   2262016243D 1   1.00000     0.00000
 Structure written by MMmdl.
 26 27  0  0  0  0  0  0  0  0  1 V2000
  150.2518  139.2766  153.7768 N   0  0  0  0  0  0  0  0  0  0  0  0
  150.5007  139.9174  154.9282 C   0  0  0  0  0  0  0  0  0  0  0  0
  151.4416  139.4556  155.7282 N   0  0  0  0  0  0  0  0  0  0  0  0
  151.7669  140.0405  156.9241 C   0  0  0  0  0  0  0  0  0  0  0  0
  152.6739  139.5776  157.6145 O   0  0  0  0  0  0  0  0  0  0  0  0
  151.0213  141.1795  157.3238 N   0  0  0  0  0  0  0  0  0  0  0  0
  151.3551  141.8864  158.5594 C   0  0  2  0  0  0  0  0  0  0  0  0
  150.6196  143.2250  158.7553 C   0  0  0  0  0  0  0  0  0  0  0  0
  151.6114  144.1630  159.9257 S   0  0  0  0  0  0  0  0  0  0  0  0
  153.0036  143.0344  159.6720 C   0  0  1  0  0  0  0  0  0  0  0  0
  153.3214  142.2441  160.9561 C   0  0  0  0  0  0  0  0  0  0  0  0
  154.4424  141.4115  160.7490 O   0  0  0  0  0  0  0  0  0  0  0  0
  152.7232  142.1444  158.5971 O   0  0  0  0  0  0  0  0  0  0  0  0
  150.0557  141.6934  156.4658 C   0  0  0  0  0  0  0  0  0  0  0  0
  149.7590  141.1036  155.2879 C   0  0  0  0  0  0  0  0  0  0  0  0
  148.8123  141.6095  154.4786 F   0  0  0  0  0  0  0  0  0  0  0  0
  151.1246  141.2507  159.4146 H   0  0  0  0  0  0  0  0  0  0  0  0
  153.8657  143.6450  159.4010 H   0  0  0  0  0  0  0  0  0  0  0  0
  149.5389  139.6237  153.1514 H   0  0  0  0  0  0  0  0  0  0  0  0
  150.7758  138.4469  153.5387 H   0  0  0  0  0  0  0  0  0  0  0  0
  150.5630  143.8033  157.8364 H   0  0  0  0  0  0  0  0  0  0  0  0
  149.6070  143.0550  159.1217 H   0  0  0  0  0  0  0  0  0  0  0  0
  153.5807  142.9303  161.7629 H   0  0  0  0  0  0  0  0  0  0  0  0
  152.4729  141.6540  161.3014 H   0  0  0  0  0  0  0  0  0  0  0  0
  154.5006  140.8009  161.4679 H   0  0  0  0  0  0  0  0  0  0  0  0
  149.5202  142.5964  156.7149 H   0  0  0  0  0  0  0  0  0  0  0  0
  1  2  1  0  0  0  0
  1 19  1  0  0  0  0
  1 20  1  0  0  0  0
  2 15  1  0  0  0  0
  2  3  2  0  0  0  0
  3  4  1  0  0  0  0
  4  5  2  0  0  0  0
  4  6  1  0  0  0  0
  6  7  1  0  0  0  0
  6 14  1  0  0  0  0
  7 17  1  0  0  0  0
  7 13  1  0  0  0  0
  7  8  1  0  0  0  0
  8  9  1  0  0  0  0
  8 21  1  0  0  0  0
  8 22  1  0  0  0  0
  9 10  1  0  0  0  0
 10 18  1  0  0  0  0
 10 11  1  0  0  0  0
 10 13  1  0  0  0  0
 11 12  1  0  0  0  0
 11 23  1  0  0  0  0
 11 24  1  0  0  0  0
 12 25  1  0  0  0  0
 14 15  2  0  0  0  0
 14 26  1  0  0  0  0
 15 16  1  0  0  0  0
M  END
> <s_m_source_file>
AV-unprocessed.smi

> <i_m_source_file_index>
41

> <i_lp_mmshare_version>
43012

> <i_f3d_flags>
0

> <s_epik_input>
W05IMl1jMW5jKD1PKW4oW2NIXWMxRilbQ0BASF0yW0NIMl1TW0NAQEhdKE8yKVtDSDJdW09IXQ==

> <s_epik_cmdline>
J2VwaWtfcHl0aG9uJywgJy1waCcsICc3LjAnLCAnLXRuJywgJzgnLCAnLW1hJywgJzIwMCcsICctbWV0YWxfYmluZGluZycsICctaW1hZScsICc8aW5maWxlLm1hZT4nLCAnLW9tYWUnLCAnPG91dGZpbGUubWFlPic=

> <r_lp_tautomer_probability>
1

> <r_epik_Ionization_Penalty>
0.000101883

> <r_epik_Ionization_Penalty_Charging>
1.48607e-08

> <r_epik_Ionization_Penalty_Neutral>
0.000101868

> <r_epik_State_Penalty>
-0

> <r_epik_Charging_Adjusted_Penalty>
1.48607e-08

> <i_epik_Tot_Q>
0

> <i_epik_Tot_abs_Q>
0

> <r_epik_Metal_State_Penalty>
-0

> <b_epik_Metal_Only>
0

> <s_epik_Chemistry_Notes>
This compound contains an acetal/aminal-like group ( X-CH(R)-Y where X, Y are N, S, or O) that may be acid/base labile, releasing an aldehyde.

> <s_lp_Force_Field>
OPLS_2005

> <r_lp_Energy>
16.0015

> <b_lp_Chiralities_Consistent>
1

> <s_lp_Variant>
AV-unprocessed.smi:41-3

> <Gold.Version>
5.8.1

> <Gold.Id.Protein>
6NUR|6NUR_protein|mol2

> <Gold.PLP.Fitness>
39.3809

> <Gold.PLP.PLP>
-31.7614

> <Gold.PLP.part.hbond>
-2.5531

> <Gold.PLP.part.metal>
0.0000

> <Gold.PLP.part.buried>
-0.6269

> <Gold.PLP.part.nonpolar>
-27.6603

> <Gold.PLP.part.repulsive>
0.7987

> <Gold.PLP.ligand.clash>
0.0000

> <Gold.PLP.ligand.torsion>
0.1094

> <Gold.PLP.Chemscore.Hbond>
1.5983

> <Gold.PLP.Chemscore.CHOScore>
1.0000

> <Gold.PLP.Chemscore.Metal>
0.0000

> <Gold.Chemscore.Hbonds>
donor molecule, donor type, donor heavy atom, donor atom, acceptor molecule, acceptor atom, score
      L1  H     1    19       P1  7957  0.60
      P1  H  7997  8010       L1     5  1.00
      L1  C    14    26       P1  8028  1.00

> <Gold.PLP.Chemscore.Internal.Correction>
0.0436

> <Gold.Rescore>
     Score         DG    S(hbond)    S(metal)    S(lipo)     H(rot)  DE(clash)    DE(int)     intcor
      9.48     -11.23       1.49        0.00      54.70       2.19       0.17       1.58       ----

> <Gold.Chemscore.Fitness>
9.4831

> <Gold.Chemscore.DG>
-11.2288

> <Gold.Chemscore.ZeroCoef>
-5.4800

> <Gold.Chemscore.Hbond>
1.4856

> <Gold.Chemscore.Metal>
0.0000

> <Gold.Chemscore.Lipo>
54.7049

> <Gold.Chemscore.Internal_Hbond>
0.0000

> <Gold.Chemscore.DEClash>
0.1658

> <Gold.Chemscore.DEInternal>
1.5799

> <Gold.Chemscore.Rot>
2.1929

> <Gold.Chemscore.Internal.Correction>
   9.000000E+99

> <Gold.Chemscore.Hbonds>
donor molecule, donor type, donor heavy atom, donor atom, acceptor molecule, acceptor atom, score
      L1  H     1    19       P1  7957  0.55
      P1  H  7997  8010       L1     5  0.80

> <Gold.Chemscore.Hbond.Weighted>
-4.9620

> <Gold.Chemscore.Metal.Weighted>
-0.0000

> <Gold.Chemscore.Lipo.Weighted>
-6.4005

> <Gold.Chemscore.Internal_Hbond.Weighted>
0.0000

> <Gold.Chemscore.DEClash.Weighted>
0.1658

> <Gold.Chemscore.DEInternal.Weighted>
1.5799

> <Gold.Chemscore.Rot.Weighted>
5.6137

> <Gold.Chemscore.Internal.Correction.Weighted>
   9.000000E+99

> <Gold.Protein.RotatedTorsions>
[ 6907 6896 6895 6894 ] final   92.18 input  -60.11 | X-H torsion
[ 7974 7965 7964 7962 ] final   11.73 input  175.53 | X-H torsion
[ 8008 7997 7996 7995 ] final   41.08 input   59.86 | X-H torsion
[ 10167 10162 10161 10158 ] final   23.42 input  -65.29 | X-H torsion
[ 10718 10713 10712 10709 ] final  171.56 input   66.30 | X-H torsion
[ 10763 10752 10751 10750 ] final   92.71 input  -60.55 | X-H torsion
[ 11005 11000 10999 10996 ] final   -1.54 input  -57.11 | X-H torsion

> <Gold.Protein.ActiveResidues>
 VAL166  LYS551  ARG553  GLY616  TRP617  ASP618  TYR619  PRO620  LYS621  CYS622 
 ASP623  PHE694  ASN695  SER759  ASP760  ASP761  ALA762  ILE779  LEU786  VAL792 
 PHE793  MET794  SER795  GLU796  ALA797  LYS798  CYS799  TRP800  GLU811  SER814 

> <Gold.Protein.RotatedAtoms>
  152.5452  134.1542  159.8530 H   0  0  0  0  0  0  0  0  0  0  0  0  # atno 6907 bound_to 6896
  151.1566  133.4865  159.2602 H   0  0  0  0  0  0  0  0  0  0  0  0  # atno 6908 bound_to 6896
  151.1416  135.0193  159.8683 H   0  0  0  0  0  0  0  0  0  0  0  0  # atno 6909 bound_to 6896
  146.2365  139.9442  142.8479 H   0  0  0  0  0  0  0  0  0  0  0  0  # atno 7974 bound_to 7965
  155.2638  140.3361  155.4271 H   0  0  0  0  0  0  0  0  0  0  0  0  # atno 8008 bound_to 7997
  156.2163  140.1790  156.7623 H   0  0  0  0  0  0  0  0  0  0  0  0  # atno 8009 bound_to 7997
  154.5758  140.0662  156.9017 H   0  0  0  0  0  0  0  0  0  0  0  0  # atno 8010 bound_to 7997
  140.5270  143.9906  150.6445 H   0  0  0  0  0  0  0  0  0  0  0  0  # atno 10167 bound_to 10162
  156.9918  131.0150  151.2854 H   0  0  0  0  0  0  0  0  0  0  0  0  # atno 10718 bound_to 10713
  153.2222  135.4352  155.0501 H   0  0  0  0  0  0  0  0  0  0  0  0  # atno 10763 bound_to 10752
  154.8255  135.3359  154.6911 H   0  0  0  0  0  0  0  0  0  0  0  0  # atno 10764 bound_to 10752
  153.7342  135.7009  153.5038 H   0  0  0  0  0  0  0  0  0  0  0  0  # atno 10765 bound_to 10752
  140.6485  133.9426  155.8366 H   0  0  0  0  0  0  0  0  0  0  0  0  # atno 11005 bound_to 11000
  145.1923  140.9817  143.4203 LP  0  0  0  0  0  0  0  0  0  0  0  0  # atno 17320 bound_to 7965
  144.9846  139.3749  143.6245 LP  0  0  0  0  0  0  0  0  0  0  0  0  # atno 17321 bound_to 7965
  140.3271  143.3101  152.0725 LP  0  0  0  0  0  0  0  0  0  0  0  0  # atno 17342 bound_to 10162
  139.4941  144.6535  151.6624 LP  0  0  0  0  0  0  0  0  0  0  0  0  # atno 17343 bound_to 10162
  157.5453  130.8146  149.8078 LP  0  0  0  0  0  0  0  0  0  0  0  0  # atno 17370 bound_to 10713
  156.0204  130.3797  150.1979 LP  0  0  0  0  0  0  0  0  0  0  0  0  # atno 17371 bound_to 10713
  141.0554  134.0423  157.3729 LP  0  0  0  0  0  0  0  0  0  0  0  0  # atno 17394 bound_to 11000
  139.9054  135.0178  156.7463 LP  0  0  0  0  0  0  0  0  0  0  0  0  # atno 17395 bound_to 11000

$$$$
