AV-unprocessed.smi:1791|AV-procd|sdf|7221|dock8
  -GOLD-   22720 8463D 1   1.00000     0.00000
 Structure written by MMmdl.
 38 39  0  0  0  0  0  0  0  0  1 V2000
  150.5706  142.4694  157.5010 C   0  0  0  0  0  0  0  0  0  0  0  0
  150.9946  142.0037  156.2245 O   0  0  0  0  0  0  0  0  0  0  0  0
  150.2389  141.0349  155.5968 C   0  0  0  0  0  0  0  0  0  0  0  0
  148.8532  140.9919  155.8488 C   0  0  0  0  0  0  0  0  0  0  0  0
  148.0748  140.0065  155.2119 C   0  0  0  0  0  0  0  0  0  0  0  0
  148.7116  139.0874  154.3442 C   0  0  0  0  0  0  0  0  0  0  0  0
  148.0348  138.0660  153.6252 N   0  0  0  0  0  0  0  0  0  0  0  0
  146.7785  137.6187  153.7904 C   0  0  0  0  0  0  0  0  0  0  0  0
  145.9959  138.0021  154.6595 O   0  0  0  0  0  0  0  0  0  0  0  0
  146.4852  136.6679  152.8916 N   0  0  0  0  0  0  0  0  0  0  0  0
  145.2139  135.9548  152.7785 C   0  0  1  0  0  0  0  0  0  0  0  0
  144.0830  136.9821  152.6249 C   0  0  0  0  0  0  0  0  0  0  0  0
  145.2579  134.9685  151.5942 C   0  0  1  0  0  0  0  0  0  0  0  0
  146.3700  133.9212  151.6639 C   0  0  0  0  0  0  0  0  0  0  0  0
  145.8479  132.7966  150.7851 C   0  0  0  0  0  0  0  0  0  0  0  0
  144.3427  133.0661  150.6919 C   0  0  0  0  0  0  0  0  0  0  0  0
  144.0963  134.1539  151.5734 O   0  0  0  0  0  0  0  0  0  0  0  0
  150.1013  139.2242  154.1487 C   0  0  0  0  0  0  0  0  0  0  0  0
  150.8536  140.1649  154.7576 N   0  0  0  0  0  0  0  0  0  0  0  0
  151.2730  143.2202  157.8625 H   0  0  0  0  0  0  0  0  0  0  0  0
  150.5450  141.6617  158.2338 H   0  0  0  0  0  0  0  0  0  0  0  0
  149.5859  142.9362  157.4473 H   0  0  0  0  0  0  0  0  0  0  0  0
  148.3933  141.7064  156.5155 H   0  0  0  0  0  0  0  0  0  0  0  0
  147.0106  139.9867  155.3884 H   0  0  0  0  0  0  0  0  0  0  0  0
  148.5876  137.5888  152.9284 H   0  0  0  0  0  0  0  0  0  0  0  0
  147.2004  136.4158  152.2253 H   0  0  0  0  0  0  0  0  0  0  0  0
  145.0209  135.3883  153.6913 H   0  0  0  0  0  0  0  0  0  0  0  0
  143.1103  136.4917  152.5791 H   0  0  0  0  0  0  0  0  0  0  0  0
  144.2008  137.5720  151.7153 H   0  0  0  0  0  0  0  0  0  0  0  0
  144.0615  137.6718  153.4693 H   0  0  0  0  0  0  0  0  0  0  0  0
  145.3227  135.5122  150.6493 H   0  0  0  0  0  0  0  0  0  0  0  0
  147.3360  134.3041  151.3335 H   0  0  0  0  0  0  0  0  0  0  0  0
  146.4826  133.5617  152.6878 H   0  0  0  0  0  0  0  0  0  0  0  0
  146.3005  132.8298  149.7934 H   0  0  0  0  0  0  0  0  0  0  0  0
  146.0641  131.8205  151.2206 H   0  0  0  0  0  0  0  0  0  0  0  0
  144.0676  133.3563  149.6771 H   0  0  0  0  0  0  0  0  0  0  0  0
  143.7446  132.1985  150.9711 H   0  0  0  0  0  0  0  0  0  0  0  0
  150.6301  138.5558  153.4850 H   0  0  0  0  0  0  0  0  0  0  0  0
  1  2  1  0  0  0  0
  1 20  1  0  0  0  0
  1 21  1  0  0  0  0
  1 22  1  0  0  0  0
  2  3  1  0  0  0  0
  3 19  1  0  0  0  0
  3  4  2  0  0  0  0
  4  5  1  0  0  0  0
  4 23  1  0  0  0  0
  5  6  2  0  0  0  0
  5 24  1  0  0  0  0
  6  7  1  0  0  0  0
  6 18  1  0  0  0  0
  7  8  1  0  0  0  0
  7 25  1  0  0  0  0
  8  9  2  0  0  0  0
  8 10  1  0  0  0  0
 10 11  1  0  0  0  0
 10 26  1  0  0  0  0
 11 12  1  0  0  0  0
 11 13  1  0  0  0  0
 11 27  1  0  0  0  0
 12 28  1  0  0  0  0
 12 29  1  0  0  0  0
 12 30  1  0  0  0  0
 13 17  1  0  0  0  0
 13 14  1  0  0  0  0
 13 31  1  0  0  0  0
 14 15  1  0  0  0  0
 14 32  1  0  0  0  0
 14 33  1  0  0  0  0
 15 16  1  0  0  0  0
 15 34  1  0  0  0  0
 15 35  1  0  0  0  0
 16 17  1  0  0  0  0
 16 36  1  0  0  0  0
 16 37  1  0  0  0  0
 18 19  2  0  0  0  0
 18 38  1  0  0  0  0
M  END
> <s_m_source_file>
AV-unprocessed.smi

> <i_m_source_file_index>
1791

> <i_lp_mmshare_version>
43012

> <i_f3d_flags>
0

> <s_epik_input>
W0NIM11PYzFbY0hdW2NIXWMoW2NIXW4xKVtOSF1DKD1PKVtOSF1bQ0BIXShbQ0gzXSlbQ0BASF0yW0NIMl1bQ0gyXVtDSDJdTzI=

> <s_epik_cmdline>
J2VwaWtfcHl0aG9uJywgJy1waCcsICc3LjAnLCAnLXRuJywgJzgnLCAnLW1hJywgJzIwMCcsICctbWV0YWxfYmluZGluZycsICctaW1hZScsICc8aW5maWxlLm1hZT4nLCAnLW9tYWUnLCAnPG91dGZpbGUubWFlPic=

> <r_lp_tautomer_probability>
1

> <r_epik_Ionization_Penalty>
9.18737e-05

> <r_epik_Ionization_Penalty_Charging>
0

> <r_epik_Ionization_Penalty_Neutral>
9.18737e-05

> <r_epik_State_Penalty>
-0

> <r_epik_Charging_Adjusted_Penalty>
0

> <i_epik_Tot_Q>
0

> <i_epik_Tot_abs_Q>
0

> <r_epik_Metal_State_Penalty>
-0

> <b_epik_Metal_Only>
0

> <s_lp_Force_Field>
OPLS_2005

> <r_lp_Energy>
20.4699

> <b_lp_Chiralities_Consistent>
1

> <s_lp_Variant>
AV-unprocessed.smi:1791-4

> <Gold.Version>
5.8.1

> <Gold.Id.Protein>
6NUR|6NUR_protein|mol2

> <Gold.PLP.Fitness>
35.7872

> <Gold.PLP.PLP>
-27.6558

> <Gold.PLP.part.hbond>
-3.0000

> <Gold.PLP.part.metal>
0.0000

> <Gold.PLP.part.buried>
-3.1220

> <Gold.PLP.part.nonpolar>
-20.8946

> <Gold.PLP.part.repulsive>
0.4129

> <Gold.PLP.ligand.clash>
0.0000

> <Gold.PLP.ligand.torsion>
0.4438

> <Gold.PLP.Chemscore.Hbond>
2.9920

> <Gold.PLP.Chemscore.CHOScore>
0.0047

> <Gold.PLP.Chemscore.Metal>
0.0000

> <Gold.Chemscore.Hbonds>
donor molecule, donor type, donor heavy atom, donor atom, acceptor molecule, acceptor atom, score
      L1  H     7    25       P1  7948  1.00
      L1  H    10    26       P1  7948  0.99
      P1  H  7989  7998       L1    19  1.00

> <Gold.PLP.Chemscore.Internal.Correction>
0.0287

> <Gold.Rescore>
     Score         DG    S(hbond)    S(metal)    S(lipo)     H(rot)  DE(clash)    DE(int)     intcor
     14.97     -16.77       2.50        0.00      57.27       1.47       0.11       1.68       ----

> <Gold.Chemscore.Fitness>
14.9743

> <Gold.Chemscore.DG>
-16.7677

> <Gold.Chemscore.ZeroCoef>
-5.4800

> <Gold.Chemscore.Hbond>
2.4994

> <Gold.Chemscore.Metal>
0.0000

> <Gold.Chemscore.Lipo>
57.2735

> <Gold.Chemscore.Internal_Hbond>
0.0000

> <Gold.Chemscore.DEClash>
0.1103

> <Gold.Chemscore.DEInternal>
1.6830

> <Gold.Chemscore.Rot>
1.4693

> <Gold.Chemscore.Internal.Correction>
   9.000000E+99

> <Gold.Chemscore.Hbonds>
donor molecule, donor type, donor heavy atom, donor atom, acceptor molecule, acceptor atom, score
      L1  H     7    25       P1  7948  0.98
      L1  H    10    26       P1  7948  0.93
      P1  H  7989  7998       L1    19  0.35

> <Gold.Chemscore.Hbond.Weighted>
-8.3480

> <Gold.Chemscore.Metal.Weighted>
-0.0000

> <Gold.Chemscore.Lipo.Weighted>
-6.7010

> <Gold.Chemscore.Internal_Hbond.Weighted>
0.0000

> <Gold.Chemscore.DEClash.Weighted>
0.1103

> <Gold.Chemscore.DEInternal.Weighted>
1.6830

> <Gold.Chemscore.Rot.Weighted>
3.7613

> <Gold.Chemscore.Internal.Correction.Weighted>
   9.000000E+99

> <Gold.Protein.RotatedTorsions>
[ 6907 6896 6895 6894 ] final   58.31 input  -60.11 | X-H torsion
[ 7974 7965 7964 7962 ] final -156.65 input  175.53 | X-H torsion
[ 8008 7997 7996 7995 ] final   19.01 input   59.86 | X-H torsion
[ 10167 10162 10161 10158 ] final   41.47 input  -65.29 | X-H torsion
[ 10718 10713 10712 10709 ] final -143.35 input   66.30 | X-H torsion
[ 10763 10752 10751 10750 ] final  130.76 input  -60.55 | X-H torsion
[ 11005 11000 10999 10996 ] final -168.81 input  -57.11 | X-H torsion

> <Gold.Protein.ActiveResidues>
 VAL166  LYS551  ARG553  GLY616  TRP617  ASP618  TYR619  PRO620  LYS621  CYS622 
 ASP623  PHE694  ASN695  SER759  ASP760  ASP761  ALA762  ILE779  LEU786  VAL792 
 PHE793  MET794  SER795  GLU796  ALA797  LYS798  CYS799  TRP800  GLU811  SER814 

> <Gold.Protein.RotatedAtoms>
  152.3813  134.6586  160.0141 H   0  0  0  0  0  0  0  0  0  0  0  0  # atno 6907 bound_to 6896
  151.6849  133.3306  159.3236 H   0  0  0  0  0  0  0  0  0  0  0  0  # atno 6908 bound_to 6896
  150.7749  134.6685  159.6423 H   0  0  0  0  0  0  0  0  0  0  0  0  # atno 6909 bound_to 6896
  144.7583  140.4080  143.5995 H   0  0  0  0  0  0  0  0  0  0  0  0  # atno 7974 bound_to 7965
  154.9145  140.3018  155.5249 H   0  0  0  0  0  0  0  0  0  0  0  0  # atno 8008 bound_to 7997
  156.3013  140.2383  156.4123 H   0  0  0  0  0  0  0  0  0  0  0  0  # atno 8009 bound_to 7997
  154.8392  140.0414  157.1519 H   0  0  0  0  0  0  0  0  0  0  0  0  # atno 8010 bound_to 7997
  140.3640  144.2192  150.6136 H   0  0  0  0  0  0  0  0  0  0  0  0  # atno 10167 bound_to 10162
  156.3569  130.7718  151.1879 H   0  0  0  0  0  0  0  0  0  0  0  0  # atno 10718 bound_to 10713
  153.7633  135.3192  155.3340 H   0  0  0  0  0  0  0  0  0  0  0  0  # atno 10763 bound_to 10752
  154.8222  135.4595  154.0816 H   0  0  0  0  0  0  0  0  0  0  0  0  # atno 10764 bound_to 10752
  153.2054  135.6928  153.8263 H   0  0  0  0  0  0  0  0  0  0  0  0  # atno 10765 bound_to 10752
  140.5378  134.5552  157.5092 H   0  0  0  0  0  0  0  0  0  0  0  0  # atno 11005 bound_to 11000
  145.6703  139.1598  143.2758 LP  0  0  0  0  0  0  0  0  0  0  0  0  # atno 17320 bound_to 7965
  146.1619  140.6775  142.9273 LP  0  0  0  0  0  0  0  0  0  0  0  0  # atno 17321 bound_to 7965
  140.5099  143.2293  151.8551 LP  0  0  0  0  0  0  0  0  0  0  0  0  # atno 17342 bound_to 10162
  139.4811  144.4961  151.9121 LP  0  0  0  0  0  0  0  0  0  0  0  0  # atno 17343 bound_to 10162
  157.7468  131.0411  150.4631 LP  0  0  0  0  0  0  0  0  0  0  0  0  # atno 17370 bound_to 10713
  156.4835  130.4079  149.6447 LP  0  0  0  0  0  0  0  0  0  0  0  0  # atno 17371 bound_to 10713
  139.9520  134.7601  156.0428 LP  0  0  0  0  0  0  0  0  0  0  0  0  # atno 17394 bound_to 11000
  141.1244  133.6603  156.3299 LP  0  0  0  0  0  0  0  0  0  0  0  0  # atno 17395 bound_to 11000

$$$$
