AV-unprocessed.smi:1141|AV-procd|sdf|4872|dock9
  -GOLD-   22720 3443D 1   1.00000     0.00000
 Structure written by MMmdl.
 45 46  0  0  0  0  0  0  0  0  1 V2000
  152.2164  144.3814  159.5342 C   0  0  0  0  0  0  0  0  0  0  0  0
  152.5822  143.2900  160.3594 O   0  0  0  0  0  0  0  0  0  0  0  0
  153.3476  142.3175  159.6637 C   0  0  0  0  0  0  0  0  0  0  0  0
  153.7560  141.2060  160.6304 C   0  0  0  0  0  0  0  0  0  0  0  0
  154.3099  141.4995  161.6892 O   0  0  0  0  0  0  0  0  0  0  0  0
  153.5068  139.9486  160.2217 N   0  0  0  0  0  0  0  0  0  0  0  0
  153.8049  138.7250  160.8861 C   0  0  0  0  0  0  0  0  0  0  0  0
  154.2578  138.6802  162.2263 C   0  0  0  0  0  0  0  0  0  0  0  0
  154.4870  137.4326  162.8336 C   0  0  0  0  0  0  0  0  0  0  0  0
  154.2470  136.2636  162.0891 C   0  0  0  0  0  0  0  0  0  0  0  0
  154.4717  135.0398  162.6854 O   0  0  0  0  0  0  0  0  0  0  0  0
  154.4226  134.9629  164.1061 C   0  0  0  0  0  0  0  0  0  0  0  0
  153.7994  136.2966  160.8113 N   0  0  0  0  0  0  0  0  0  0  0  0
  153.5774  137.4932  160.2165 C   0  0  0  0  0  0  0  0  0  0  0  0
  153.1262  137.4745  158.8817 N   0  0  0  0  0  0  0  0  0  0  0  0
  151.7729  138.0040  158.7094 C   0  0  0  0  0  0  0  0  0  0  0  0
  151.2556  137.7237  157.2856 C   0  0  0  0  0  0  0  0  0  0  0  0
  152.2218  138.2522  156.3136 N   0  0  0  0  0  0  0  0  0  0  0  0
  151.9496  139.3015  155.5017 C   0  0  0  0  0  0  0  0  0  0  0  0
  150.5520  139.9245  155.5269 C   0  0  0  0  0  0  0  0  0  0  0  0
  152.7830  139.7813  154.7332 O   0  0  0  0  0  0  0  0  0  0  0  0
  153.5269  137.5900  156.4467 C   0  0  0  0  0  0  0  0  0  0  0  0
  154.0880  137.8751  157.8523 C   0  0  0  0  0  0  0  0  0  0  0  0
  151.6346  145.0990  160.1127 H   0  0  0  0  0  0  0  0  0  0  0  0
  151.6046  144.0517  158.6932 H   0  0  0  0  0  0  0  0  0  0  0  0
  153.0971  144.8953  159.1466 H   0  0  0  0  0  0  0  0  0  0  0  0
  152.7649  141.8829  158.8499 H   0  0  0  0  0  0  0  0  0  0  0  0
  154.2393  142.7753  159.2312 H   0  0  0  0  0  0  0  0  0  0  0  0
  153.1352  139.8549  159.2871 H   0  0  0  0  0  0  0  0  0  0  0  0
  154.4144  139.5778  162.8043 H   0  0  0  0  0  0  0  0  0  0  0  0
  154.8329  137.3744  163.8550 H   0  0  0  0  0  0  0  0  0  0  0  0
  154.6186  133.9375  164.4192 H   0  0  0  0  0  0  0  0  0  0  0  0
  153.4387  135.2423  164.4860 H   0  0  0  0  0  0  0  0  0  0  0  0
  155.1786  135.6001  164.5673 H   0  0  0  0  0  0  0  0  0  0  0  0
  151.0900  137.5692  159.4392 H   0  0  0  0  0  0  0  0  0  0  0  0
  151.7883  139.0790  158.8949 H   0  0  0  0  0  0  0  0  0  0  0  0
  151.1438  136.6492  157.1327 H   0  0  0  0  0  0  0  0  0  0  0  0
  150.2577  138.1477  157.1672 H   0  0  0  0  0  0  0  0  0  0  0  0
  149.7950  139.1865  155.2602 H   0  0  0  0  0  0  0  0  0  0  0  0
  150.4838  140.7440  154.8105 H   0  0  0  0  0  0  0  0  0  0  0  0
  150.3253  140.3266  156.5147 H   0  0  0  0  0  0  0  0  0  0  0  0
  153.3945  136.5155  156.3109 H   0  0  0  0  0  0  0  0  0  0  0  0
  154.2529  137.8922  155.6937 H   0  0  0  0  0  0  0  0  0  0  0  0
  154.3099  138.9390  157.9500 H   0  0  0  0  0  0  0  0  0  0  0  0
  155.0242  137.3343  157.9956 H   0  0  0  0  0  0  0  0  0  0  0  0
  1  2  1  0  0  0  0
  1 24  1  0  0  0  0
  1 25  1  0  0  0  0
  1 26  1  0  0  0  0
  2  3  1  0  0  0  0
  3  4  1  0  0  0  0
  3 27  1  0  0  0  0
  3 28  1  0  0  0  0
  4  5  2  0  0  0  0
  4  6  1  0  0  0  0
  6  7  1  0  0  0  0
  6 29  1  0  0  0  0
  7 14  1  0  0  0  0
  7  8  2  0  0  0  0
  8  9  1  0  0  0  0
  8 30  1  0  0  0  0
  9 10  2  0  0  0  0
  9 31  1  0  0  0  0
 10 11  1  0  0  0  0
 10 13  1  0  0  0  0
 11 12  1  0  0  0  0
 12 32  1  0  0  0  0
 12 33  1  0  0  0  0
 12 34  1  0  0  0  0
 13 14  2  0  0  0  0
 14 15  1  0  0  0  0
 15 23  1  0  0  0  0
 15 16  1  0  0  0  0
 16 17  1  0  0  0  0
 16 35  1  0  0  0  0
 16 36  1  0  0  0  0
 17 18  1  0  0  0  0
 17 37  1  0  0  0  0
 17 38  1  0  0  0  0
 18 19  1  0  0  0  0
 18 22  1  0  0  0  0
 19 20  1  0  0  0  0
 19 21  2  0  0  0  0
 20 39  1  0  0  0  0
 20 40  1  0  0  0  0
 20 41  1  0  0  0  0
 22 23  1  0  0  0  0
 22 42  1  0  0  0  0
 22 43  1  0  0  0  0
 23 44  1  0  0  0  0
 23 45  1  0  0  0  0
M  END
> <s_m_source_file>
AV-unprocessed.smi

> <i_m_source_file_index>
1141

> <i_lp_mmshare_version>
43012

> <i_f3d_flags>
0

> <s_epik_input>
W0NIM11PW0NIMl1DKD1PKVtOSF1jMVtjSF1bY0hdYyhPW0NIM10pbmMxTjJbQ0gyXVtDSDJdTihDKD1PKVtDSDNdKVtDSDJdW0NIMl0y

> <s_epik_cmdline>
J2VwaWtfcHl0aG9uJywgJy1waCcsICc3LjAnLCAnLXRuJywgJzgnLCAnLW1hJywgJzIwMCcsICctbWV0YWxfYmluZGluZycsICctaW1hZScsICc8aW5maWxlLm1hZT4nLCAnLW9tYWUnLCAnPG91dGZpbGUubWFlPic=

> <r_lp_tautomer_probability>
1

> <r_epik_Ionization_Penalty>
0.000141552

> <r_epik_Ionization_Penalty_Charging>
0

> <r_epik_Ionization_Penalty_Neutral>
0.000141552

> <r_epik_State_Penalty>
-0

> <r_epik_Charging_Adjusted_Penalty>
0

> <i_epik_Tot_Q>
0

> <i_epik_Tot_abs_Q>
0

> <r_epik_Metal_State_Penalty>
-0

> <b_epik_Metal_Only>
0

> <s_lp_Force_Field>
OPLS_2005

> <r_lp_Energy>
39.8062

> <b_lp_Chiralities_Consistent>
1

> <s_lp_Variant>
AV-unprocessed.smi:1141-1

> <Gold.Version>
5.8.1

> <Gold.Id.Protein>
6NUR|6NUR_protein|mol2

> <Gold.PLP.Fitness>
41.3683

> <Gold.PLP.PLP>
-36.3581

> <Gold.PLP.part.hbond>
-3.4698

> <Gold.PLP.part.metal>
0.0000

> <Gold.PLP.part.buried>
-3.3782

> <Gold.PLP.part.nonpolar>
-30.2509

> <Gold.PLP.part.repulsive>
0.1212

> <Gold.PLP.ligand.clash>
0.0000

> <Gold.PLP.ligand.torsion>
0.6067

> <Gold.PLP.Chemscore.Hbond>
1.9425

> <Gold.PLP.Chemscore.CHOScore>
0.0000

> <Gold.PLP.Chemscore.Metal>
0.0000

> <Gold.Chemscore.Hbonds>
donor molecule, donor type, donor heavy atom, donor atom, acceptor molecule, acceptor atom, score
      P1  H  6896  6908       L1    13  0.50
      P1  H  7989  7998       L1    21  0.45
      P1  H  7997  8008       L1    21  0.84

> <Gold.PLP.Chemscore.Internal.Correction>
0.3960

> <Gold.Rescore>
     Score         DG    S(hbond)    S(metal)    S(lipo)     H(rot)  DE(clash)    DE(int)     intcor
     13.96     -15.93       1.85        0.00      74.94       1.75       0.06       1.91       ----

> <Gold.Chemscore.Fitness>
13.9633

> <Gold.Chemscore.DG>
-15.9297

> <Gold.Chemscore.ZeroCoef>
-5.4800

> <Gold.Chemscore.Hbond>
1.8476

> <Gold.Chemscore.Metal>
0.0000

> <Gold.Chemscore.Lipo>
74.9376

> <Gold.Chemscore.Internal_Hbond>
0.0000

> <Gold.Chemscore.DEClash>
0.0560

> <Gold.Chemscore.DEInternal>
1.9104

> <Gold.Chemscore.Rot>
1.7535

> <Gold.Chemscore.Internal.Correction>
   9.000000E+99

> <Gold.Chemscore.Hbonds>
donor molecule, donor type, donor heavy atom, donor atom, acceptor molecule, acceptor atom, score
      P1  H  6896  6908       L1    13  0.40
      P1  H  7989  7998       L1    21  0.19
      P1  H  7997  8008       L1    21  0.33

> <Gold.Chemscore.Hbond.Weighted>
-6.1709

> <Gold.Chemscore.Metal.Weighted>
-0.0000

> <Gold.Chemscore.Lipo.Weighted>
-8.7677

> <Gold.Chemscore.Internal_Hbond.Weighted>
0.0000

> <Gold.Chemscore.DEClash.Weighted>
0.0560

> <Gold.Chemscore.DEInternal.Weighted>
1.9104

> <Gold.Chemscore.Rot.Weighted>
4.4890

> <Gold.Chemscore.Internal.Correction.Weighted>
   9.000000E+99

> <Gold.Protein.RotatedTorsions>
[ 6907 6896 6895 6894 ] final  -63.75 input  -60.11 | X-H torsion
[ 7974 7965 7964 7962 ] final  -51.44 input  175.53 | X-H torsion
[ 8008 7997 7996 7995 ] final  -23.30 input   59.86 | X-H torsion
[ 10167 10162 10161 10158 ] final  159.19 input  -65.29 | X-H torsion
[ 10718 10713 10712 10709 ] final   -1.75 input   66.30 | X-H torsion
[ 10763 10752 10751 10750 ] final  126.58 input  -60.55 | X-H torsion
[ 11005 11000 10999 10996 ] final  -49.25 input  -57.11 | X-H torsion

> <Gold.Protein.ActiveResidues>
 VAL166  LYS551  ARG553  GLY616  TRP617  ASP618  TYR619  PRO620  LYS621  CYS622 
 ASP623  PHE694  ASN695  SER759  ASP760  ASP761  ALA762  ILE779  LEU786  VAL792 
 PHE793  MET794  SER795  GLU796  ALA797  LYS798  CYS799  TRP800  GLU811  SER814 

> <Gold.Protein.RotatedAtoms>
  150.7629  134.6392  159.6227 H   0  0  0  0  0  0  0  0  0  0  0  0  # atno 6907 bound_to 6896
  152.3646  134.6820  160.0205 H   0  0  0  0  0  0  0  0  0  0  0  0  # atno 6908 bound_to 6896
  151.7199  133.3278  159.3349 H   0  0  0  0  0  0  0  0  0  0  0  0  # atno 6909 bound_to 6896
  145.9189  140.7851  142.9657 H   0  0  0  0  0  0  0  0  0  0  0  0  # atno 7974 bound_to 7965
  154.4593  140.1984  156.0289 H   0  0  0  0  0  0  0  0  0  0  0  0  # atno 8008 bound_to 7997
  156.0809  140.3271  155.7664 H   0  0  0  0  0  0  0  0  0  0  0  0  # atno 8009 bound_to 7997
  155.5113  140.0562  157.2914 H   0  0  0  0  0  0  0  0  0  0  0  0  # atno 8010 bound_to 7997
  139.4831  144.4753  151.8519 H   0  0  0  0  0  0  0  0  0  0  0  0  # atno 10167 bound_to 10162
  156.8009  130.5393  149.5722 H   0  0  0  0  0  0  0  0  0  0  0  0  # atno 10718 bound_to 10713
  153.6955  135.3292  155.3212 H   0  0  0  0  0  0  0  0  0  0  0  0  # atno 10763 bound_to 10752
  154.8428  135.4442  154.1464 H   0  0  0  0  0  0  0  0  0  0  0  0  # atno 10764 bound_to 10752
  153.2517  135.6982  153.7750 H   0  0  0  0  0  0  0  0  0  0  0  0  # atno 10765 bound_to 10752
  141.0748  133.6669  156.3558 H   0  0  0  0  0  0  0  0  0  0  0  0  # atno 11005 bound_to 11000
  144.6751  140.1944  143.7393 LP  0  0  0  0  0  0  0  0  0  0  0  0  # atno 17320 bound_to 7965
  145.8575  139.2206  143.1736 LP  0  0  0  0  0  0  0  0  0  0  0  0  # atno 17321 bound_to 7965
  140.4225  144.2224  150.5887 LP  0  0  0  0  0  0  0  0  0  0  0  0  # atno 17342 bound_to 10162
  140.4860  143.2363  151.8888 LP  0  0  0  0  0  0  0  0  0  0  0  0  # atno 17343 bound_to 10162
  156.1101  130.6034  151.0034 LP  0  0  0  0  0  0  0  0  0  0  0  0  # atno 17370 bound_to 10713
  157.6554  131.0890  150.7959 LP  0  0  0  0  0  0  0  0  0  0  0  0  # atno 17371 bound_to 10713
  140.5597  134.5947  157.5430 LP  0  0  0  0  0  0  0  0  0  0  0  0  # atno 17394 bound_to 11000
  139.9560  134.7534  156.0340 LP  0  0  0  0  0  0  0  0  0  0  0  0  # atno 17395 bound_to 11000

$$$$
