AV-unprocessed.smi:847|AV-procd|sdf|3938|dock4
  -GOLD-   22720 1403D 1   1.00000     0.00000
 Structure written by MMmdl.
 46 47  0  0  0  0  0  0  0  0  1 V2000
  142.7644  145.8271  155.6985 C   0  0  0  0  0  0  0  0  0  0  0  0
  142.2038  144.6699  156.2931 O   0  0  0  0  0  0  0  0  0  0  0  0
  142.7145  143.4706  155.7351 C   0  0  0  0  0  0  0  0  0  0  0  0
  144.2256  143.4069  155.9757 C   0  0  0  0  0  0  0  0  0  0  0  0
  144.8186  142.6128  154.9526 O   0  0  0  0  0  0  0  0  0  0  0  0
  146.1090  142.1601  155.1342 C   0  0  0  0  0  0  0  0  0  0  0  0
  146.8785  141.8469  153.9955 C   0  0  0  0  0  0  0  0  0  0  0  0
  148.1981  141.3905  154.1730 C   0  0  0  0  0  0  0  0  0  0  0  0
  148.7046  141.2598  155.4828 C   0  0  0  0  0  0  0  0  0  0  0  0
  150.1277  140.7915  155.7294 C   0  0  0  0  0  0  0  0  0  0  0  0
  150.9108  141.7754  156.4677 N   0  0  0  0  0  0  0  0  0  0  0  0
  150.7846  142.0460  157.7755 C   0  0  0  0  0  0  0  0  0  0  0  0
  149.9291  141.5297  158.4959 O   0  0  0  0  0  0  0  0  0  0  0  0
  151.7855  143.0598  158.3614 C   0  0  1  0  0  0  0  0  0  0  0  0
  151.0371  144.2349  159.0106 C   0  0  0  0  0  0  0  0  0  0  0  0
  151.9531  144.7075  160.1237 C   0  0  0  0  0  0  0  0  0  0  0  0
  152.7182  143.4574  160.5562 C   0  0  0  0  0  0  0  0  0  0  0  0
  152.6564  142.5252  159.4273 N   0  0  0  0  0  0  0  0  0  0  0  0
  153.3622  141.3683  159.3760 C   0  0  0  0  0  0  0  0  0  0  0  0
  154.1852  140.9592  160.5999 C   0  0  0  0  0  0  0  0  0  0  0  0
  153.3840  140.6359  158.3866 O   0  0  0  0  0  0  0  0  0  0  0  0
  147.8559  141.5949  156.5584 C   0  0  0  0  0  0  0  0  0  0  0  0
  146.5895  142.0335  156.3967 N   0  0  0  0  0  0  0  0  0  0  0  0
  152.4379  143.4361  157.5713 H   0  0  0  0  0  0  0  0  0  0  0  0
  142.3412  146.7186  156.1613 H   0  0  0  0  0  0  0  0  0  0  0  0
  142.5471  145.8669  154.6304 H   0  0  0  0  0  0  0  0  0  0  0  0
  143.8460  145.8571  155.8372 H   0  0  0  0  0  0  0  0  0  0  0  0
  142.2335  142.6186  156.2176 H   0  0  0  0  0  0  0  0  0  0  0  0
  142.4957  143.4101  154.6678 H   0  0  0  0  0  0  0  0  0  0  0  0
  144.6470  144.4134  155.9933 H   0  0  0  0  0  0  0  0  0  0  0  0
  144.4137  142.9466  156.9470 H   0  0  0  0  0  0  0  0  0  0  0  0
  146.4656  141.9593  153.0038 H   0  0  0  0  0  0  0  0  0  0  0  0
  148.8093  141.1495  153.3161 H   0  0  0  0  0  0  0  0  0  0  0  0
  150.1130  139.8658  156.3055 H   0  0  0  0  0  0  0  0  0  0  0  0
  150.6007  140.5484  154.7763 H   0  0  0  0  0  0  0  0  0  0  0  0
  151.6378  142.2533  155.9550 H   0  0  0  0  0  0  0  0  0  0  0  0
  150.8086  145.0277  158.2976 H   0  0  0  0  0  0  0  0  0  0  0  0
  150.0930  143.9086  159.4511 H   0  0  0  0  0  0  0  0  0  0  0  0
  152.6558  145.4391  159.7225 H   0  0  0  0  0  0  0  0  0  0  0  0
  151.4162  145.1810  160.9461 H   0  0  0  0  0  0  0  0  0  0  0  0
  153.7433  143.7075  160.8326 H   0  0  0  0  0  0  0  0  0  0  0  0
  152.2329  143.0024  161.4209 H   0  0  0  0  0  0  0  0  0  0  0  0
  153.5609  140.9164  161.4925 H   0  0  0  0  0  0  0  0  0  0  0  0
  154.9985  141.6642  160.7723 H   0  0  0  0  0  0  0  0  0  0  0  0
  154.6247  139.9719  160.4539 H   0  0  0  0  0  0  0  0  0  0  0  0
  148.2023  141.5158  157.5784 H   0  0  0  0  0  0  0  0  0  0  0  0
  1  2  1  0  0  0  0
  1 25  1  0  0  0  0
  1 26  1  0  0  0  0
  1 27  1  0  0  0  0
  2  3  1  0  0  0  0
  3  4  1  0  0  0  0
  3 28  1  0  0  0  0
  3 29  1  0  0  0  0
  4  5  1  0  0  0  0
  4 30  1  0  0  0  0
  4 31  1  0  0  0  0
  5  6  1  0  0  0  0
  6 23  1  0  0  0  0
  6  7  2  0  0  0  0
  7  8  1  0  0  0  0
  7 32  1  0  0  0  0
  8  9  2  0  0  0  0
  8 33  1  0  0  0  0
  9 10  1  0  0  0  0
  9 22  1  0  0  0  0
 10 11  1  0  0  0  0
 10 34  1  0  0  0  0
 10 35  1  0  0  0  0
 11 12  1  0  0  0  0
 11 36  1  0  0  0  0
 12 13  2  0  0  0  0
 12 14  1  0  0  0  0
 14 24  1  0  0  0  0
 14 18  1  0  0  0  0
 14 15  1  0  0  0  0
 15 16  1  0  0  0  0
 15 37  1  0  0  0  0
 15 38  1  0  0  0  0
 16 17  1  0  0  0  0
 16 39  1  0  0  0  0
 16 40  1  0  0  0  0
 17 18  1  0  0  0  0
 17 41  1  0  0  0  0
 17 42  1  0  0  0  0
 18 19  1  0  0  0  0
 19 20  1  0  0  0  0
 19 21  2  0  0  0  0
 20 43  1  0  0  0  0
 20 44  1  0  0  0  0
 20 45  1  0  0  0  0
 22 23  2  0  0  0  0
 22 46  1  0  0  0  0
M  END
> <s_m_source_file>
AV-unprocessed.smi

> <i_m_source_file_index>
847

> <i_lp_mmshare_version>
43012

> <i_f3d_flags>
0

> <s_epik_input>
W0NIM11PW0NIMl1bQ0gyXU9jMVtjSF1bY0hdYyhbY0hdbjEpW0NIMl1bTkhdQyg9TylbQ0BASF0yW0NIMl1bQ0gyXVtDSDJdTjJDKD1PKVtDSDNd

> <s_epik_cmdline>
J2VwaWtfcHl0aG9uJywgJy1waCcsICc3LjAnLCAnLXRuJywgJzgnLCAnLW1hJywgJzIwMCcsICctbWV0YWxfYmluZGluZycsICctaW1hZScsICc8aW5maWxlLm1hZT4nLCAnLW9tYWUnLCAnPG91dGZpbGUubWFlPic=

> <r_lp_tautomer_probability>
1

> <r_epik_Ionization_Penalty>
6.04138e-05

> <r_epik_Ionization_Penalty_Charging>
0

> <r_epik_Ionization_Penalty_Neutral>
6.04138e-05

> <r_epik_State_Penalty>
-0

> <r_epik_Charging_Adjusted_Penalty>
0

> <i_epik_Tot_Q>
0

> <i_epik_Tot_abs_Q>
0

> <r_epik_Metal_State_Penalty>
-0

> <b_epik_Metal_Only>
0

> <s_lp_Force_Field>
OPLS_2005

> <r_lp_Energy>
14.1261

> <b_lp_Chiralities_Consistent>
1

> <s_lp_Variant>
AV-unprocessed.smi:847-2

> <Gold.Version>
5.8.1

> <Gold.Id.Protein>
6NUR|6NUR_protein|mol2

> <Gold.PLP.Fitness>
47.6918

> <Gold.PLP.PLP>
-46.5693

> <Gold.PLP.part.hbond>
-1.0000

> <Gold.PLP.part.metal>
0.0000

> <Gold.PLP.part.buried>
-4.8302

> <Gold.PLP.part.nonpolar>
-39.6894

> <Gold.PLP.part.repulsive>
0.5298

> <Gold.PLP.ligand.clash>
0.0000

> <Gold.PLP.ligand.torsion>
0.6548

> <Gold.PLP.Chemscore.Hbond>
0.7293

> <Gold.PLP.Chemscore.CHOScore>
0.0000

> <Gold.PLP.Chemscore.Metal>
0.0000

> <Gold.Chemscore.Hbonds>
donor molecule, donor type, donor heavy atom, donor atom, acceptor molecule, acceptor atom, score
      P1  H  7997  8008       L1    21  0.70

> <Gold.PLP.Chemscore.Internal.Correction>
0.2442

> <Gold.Rescore>
     Score         DG    S(hbond)    S(metal)    S(lipo)     H(rot)  DE(clash)    DE(int)     intcor
     11.56     -14.40       0.92        0.00     100.40       2.31       0.10       2.74       ----

> <Gold.Chemscore.Fitness>
11.5619

> <Gold.Chemscore.DG>
-14.4011

> <Gold.Chemscore.ZeroCoef>
-5.4800

> <Gold.Chemscore.Hbond>
0.9217

> <Gold.Chemscore.Metal>
0.0000

> <Gold.Chemscore.Lipo>
100.3967

> <Gold.Chemscore.Internal_Hbond>
0.0000

> <Gold.Chemscore.DEClash>
0.0973

> <Gold.Chemscore.DEInternal>
2.7420

> <Gold.Chemscore.Rot>
2.3062

> <Gold.Chemscore.Internal.Correction>
   9.000000E+99

> <Gold.Chemscore.Hbonds>
donor molecule, donor type, donor heavy atom, donor atom, acceptor molecule, acceptor atom, score
      P1  H  7997  8008       L1    21  0.70

> <Gold.Chemscore.Hbond.Weighted>
-3.0785

> <Gold.Chemscore.Metal.Weighted>
-0.0000

> <Gold.Chemscore.Lipo.Weighted>
-11.7464

> <Gold.Chemscore.Internal_Hbond.Weighted>
0.0000

> <Gold.Chemscore.DEClash.Weighted>
0.0973

> <Gold.Chemscore.DEInternal.Weighted>
2.7420

> <Gold.Chemscore.Rot.Weighted>
5.9038

> <Gold.Chemscore.Internal.Correction.Weighted>
   9.000000E+99

> <Gold.Protein.RotatedTorsions>
[ 6907 6896 6895 6894 ] final -170.51 input  -60.11 | X-H torsion
[ 7974 7965 7964 7962 ] final   -5.55 input  175.53 | X-H torsion
[ 8008 7997 7996 7995 ] final  -88.73 input   59.86 | X-H torsion
[ 10167 10162 10161 10158 ] final -117.52 input  -65.29 | X-H torsion
[ 10718 10713 10712 10709 ] final  -73.15 input   66.30 | X-H torsion
[ 10763 10752 10751 10750 ] final   45.44 input  -60.55 | X-H torsion
[ 11005 11000 10999 10996 ] final   75.36 input  -57.11 | X-H torsion

> <Gold.Protein.ActiveResidues>
 VAL166  LYS551  ARG553  GLY616  TRP617  ASP618  TYR619  PRO620  LYS621  CYS622 
 ASP623  PHE694  ASN695  SER759  ASP760  ASP761  ALA762  ILE779  LEU786  VAL792 
 PHE793  MET794  SER795  GLU796  ALA797  LYS798  CYS799  TRP800  GLU811  SER814 

> <Gold.Protein.RotatedAtoms>
  151.5089  133.3489  159.2881 H   0  0  0  0  0  0  0  0  0  0  0  0  # atno 6907 bound_to 6896
  150.8725  134.8103  159.7176 H   0  0  0  0  0  0  0  0  0  0  0  0  # atno 6908 bound_to 6896
  152.4708  134.4975  159.9766 H   0  0  0  0  0  0  0  0  0  0  0  0  # atno 6909 bound_to 6896
  146.2350  140.2038  142.8334 H   0  0  0  0  0  0  0  0  0  0  0  0  # atno 7974 bound_to 7965
  154.6782  140.0550  157.0238 H   0  0  0  0  0  0  0  0  0  0  0  0  # atno 8008 bound_to 7997
  155.0990  140.3227  155.4533 H   0  0  0  0  0  0  0  0  0  0  0  0  # atno 8009 bound_to 7997
  156.2684  140.2034  156.6116 H   0  0  0  0  0  0  0  0  0  0  0  0  # atno 8010 bound_to 7997
  140.0675  143.4909  152.1998 H   0  0  0  0  0  0  0  0  0  0  0  0  # atno 10167 bound_to 10162
  156.0291  130.4388  150.2699 H   0  0  0  0  0  0  0  0  0  0  0  0  # atno 10718 bound_to 10713
  152.9824  135.6039  154.3438 H   0  0  0  0  0  0  0  0  0  0  0  0  # atno 10763 bound_to 10752
  154.3132  135.2771  155.2557 H   0  0  0  0  0  0  0  0  0  0  0  0  # atno 10764 bound_to 10752
  154.4757  135.5930  153.6409 H   0  0  0  0  0  0  0  0  0  0  0  0  # atno 10765 bound_to 10752
  139.9347  134.7511  156.1261 H   0  0  0  0  0  0  0  0  0  0  0  0  # atno 11005 bound_to 11000
  144.9761  140.8415  143.5426 LP  0  0  0  0  0  0  0  0  0  0  0  0  # atno 17320 bound_to 7965
  145.2025  139.2245  143.5185 LP  0  0  0  0  0  0  0  0  0  0  0  0  # atno 17321 bound_to 7965
  139.5856  144.7529  151.3529 LP  0  0  0  0  0  0  0  0  0  0  0  0  # atno 17342 bound_to 10162
  140.7142  143.7311  150.7623 LP  0  0  0  0  0  0  0  0  0  0  0  0  # atno 17343 bound_to 10162
  157.0802  131.0141  151.3159 LP  0  0  0  0  0  0  0  0  0  0  0  0  # atno 17370 bound_to 10713
  157.4933  130.7835  149.7529 LP  0  0  0  0  0  0  0  0  0  0  0  0  # atno 17371 bound_to 10713
  141.0955  133.6697  156.2635 LP  0  0  0  0  0  0  0  0  0  0  0  0  # atno 17394 bound_to 11000
  140.6107  134.5461  157.5533 LP  0  0  0  0  0  0  0  0  0  0  0  0  # atno 17395 bound_to 11000

$$$$
