AV-unprocessed.smi:284|AV-procd|sdf|2158|dock5
  -GOLD-   2262021503D 1   1.00000     0.00000
 Structure written by MMmdl.
 60 62  0  0  0  0  0  0  0  0  1 V2000
  157.6651  134.3092  160.5294 C   0  0  0  0  0  0  0  0  0  0  0  0
  156.6014  134.8682  161.4611 C   0  0  0  0  0  0  0  0  0  0  0  0
  155.6603  134.0815  162.0322 C   0  0  0  0  0  0  0  0  0  0  0  0
  154.6808  134.5585  162.8829 N   0  0  0  0  0  0  0  0  0  0  0  0
  153.6533  133.6370  163.4958 C   0  0  1  0  0  0  0  0  0  0  0  0
  153.7674  132.2325  162.9135 C   0  0  0  0  0  0  0  0  0  0  0  0
  153.2640  131.4098  164.0784 C   0  0  1  0  0  0  0  0  0  0  0  0
  153.6758  130.0613  163.9785 O   0  0  0  0  0  0  0  0  0  0  0  0
  153.8187  132.1726  165.2958 C   0  0  1  0  0  0  0  0  0  0  0  0
  155.2349  131.7681  165.7558 C   0  0  0  0  0  0  0  0  0  0  0  0
  155.2617  130.4188  166.1731 O   0  0  0  0  0  0  0  0  0  0  0  0
  153.8765  133.5372  164.8724 O   0  0  0  0  0  0  0  0  0  0  0  0
  154.6072  135.9379  163.1594 C   0  0  0  0  0  0  0  0  0  0  0  0
  153.7220  136.3898  163.8897 O   0  0  0  0  0  0  0  0  0  0  0  0
  155.5735  136.7881  162.5766 N   0  0  0  0  0  0  0  0  0  0  0  0
  155.5162  138.2344  162.8862 C   0  0  0  0  0  0  0  0  0  0  0  0
  154.6938  139.0474  161.8742 C   0  0  0  0  0  0  0  0  0  0  0  0
  154.2373  138.5102  160.8641 O   0  0  0  0  0  0  0  0  0  0  0  0
  154.5006  140.3374  162.2038 N   0  0  0  0  0  0  0  0  0  0  0  0
  153.8217  141.3487  161.4720 C   0  0  0  0  0  0  0  0  0  0  0  0
  153.1205  142.3223  162.2091 C   0  0  0  0  0  0  0  0  0  0  0  0
  152.4455  143.3709  161.5553 C   0  0  0  0  0  0  0  0  0  0  0  0
  152.4649  143.4776  160.1428 C   0  0  0  0  0  0  0  0  0  0  0  0
  151.7460  144.6138  159.3905 C   0  0  0  0  0  0  0  0  0  0  0  0
  152.1224  145.9694  160.0239 C   0  0  0  0  0  0  0  0  0  0  0  0
  150.2062  144.4869  159.4336 C   0  0  0  0  0  0  0  0  0  0  0  0
  152.1723  144.6082  157.9074 C   0  0  0  0  0  0  0  0  0  0  0  0
  153.1849  142.5035  159.4116 C   0  0  0  0  0  0  0  0  0  0  0  0
  153.8597  141.4535  160.0627 C   0  0  0  0  0  0  0  0  0  0  0  0
  156.6046  136.3081  161.7318 C   0  0  0  0  0  0  0  0  0  0  0  0
  157.4451  137.0794  161.2654 O   0  0  0  0  0  0  0  0  0  0  0  0
  157.5787  133.2279  160.4168 H   0  0  0  0  0  0  0  0  0  0  0  0
  158.6624  134.5246  160.9150 H   0  0  0  0  0  0  0  0  0  0  0  0
  157.5764  134.7559  159.5386 H   0  0  0  0  0  0  0  0  0  0  0  0
  155.6787  133.0270  161.8025 H   0  0  0  0  0  0  0  0  0  0  0  0
  152.6727  134.0923  163.3468 H   0  0  0  0  0  0  0  0  0  0  0  0
  153.1761  132.1287  162.0032 H   0  0  0  0  0  0  0  0  0  0  0  0
  154.8127  132.0076  162.6945 H   0  0  0  0  0  0  0  0  0  0  0  0
  152.1737  131.4458  164.0979 H   0  0  0  0  0  0  0  0  0  0  0  0
  154.2058  129.9658  163.2016 H   0  0  0  0  0  0  0  0  0  0  0  0
  153.1299  132.1024  166.1389 H   0  0  0  0  0  0  0  0  0  0  0  0
  155.9748  131.9327  164.9722 H   0  0  0  0  0  0  0  0  0  0  0  0
  155.5339  132.3764  166.6100 H   0  0  0  0  0  0  0  0  0  0  0  0
  154.4130  130.1964  166.5247 H   0  0  0  0  0  0  0  0  0  0  0  0
  155.1070  138.4162  163.8810 H   0  0  0  0  0  0  0  0  0  0  0  0
  156.5234  138.6517  162.9373 H   0  0  0  0  0  0  0  0  0  0  0  0
  154.8407  140.6156  163.1129 H   0  0  0  0  0  0  0  0  0  0  0  0
  153.0932  142.2674  163.2877 H   0  0  0  0  0  0  0  0  0  0  0  0
  151.9204  144.0850  162.1701 H   0  0  0  0  0  0  0  0  0  0  0  0
  151.6158  146.7954  159.5235 H   0  0  0  0  0  0  0  0  0  0  0  0
  153.1925  146.1678  159.9629 H   0  0  0  0  0  0  0  0  0  0  0  0
  151.8419  146.0037  161.0773 H   0  0  0  0  0  0  0  0  0  0  0  0
  149.8257  144.5210  160.4553 H   0  0  0  0  0  0  0  0  0  0  0  0
  149.8657  143.5577  158.9750 H   0  0  0  0  0  0  0  0  0  0  0  0
  149.7280  145.3031  158.8909 H   0  0  0  0  0  0  0  0  0  0  0  0
  151.6602  145.3894  157.3445 H   0  0  0  0  0  0  0  0  0  0  0  0
  151.9353  143.6551  157.4330 H   0  0  0  0  0  0  0  0  0  0  0  0
  153.2419  144.7785  157.7851 H   0  0  0  0  0  0  0  0  0  0  0  0
  153.2341  142.5563  158.3342 H   0  0  0  0  0  0  0  0  0  0  0  0
  154.4134  140.7498  159.4604 H   0  0  0  0  0  0  0  0  0  0  0  0
  1  2  1  0  0  0  0
  1 32  1  0  0  0  0
  1 33  1  0  0  0  0
  1 34  1  0  0  0  0
  2 30  1  0  0  0  0
  2  3  2  0  0  0  0
  3  4  1  0  0  0  0
  3 35  1  0  0  0  0
  4  5  1  0  0  0  0
  4 13  1  0  0  0  0
  5 12  1  0  0  0  0
  5  6  1  0  0  0  0
  5 36  1  0  0  0  0
  6  7  1  0  0  0  0
  6 37  1  0  0  0  0
  6 38  1  0  0  0  0
  7  8  1  0  0  0  0
  7  9  1  0  0  0  0
  7 39  1  0  0  0  0
  8 40  1  0  0  0  0
  9 10  1  0  0  0  0
  9 12  1  0  0  0  0
  9 41  1  0  0  0  0
 10 11  1  0  0  0  0
 10 42  1  0  0  0  0
 10 43  1  0  0  0  0
 11 44  1  0  0  0  0
 13 14  2  0  0  0  0
 13 15  1  0  0  0  0
 15 16  1  0  0  0  0
 15 30  1  0  0  0  0
 16 17  1  0  0  0  0
 16 45  1  0  0  0  0
 16 46  1  0  0  0  0
 17 18  2  0  0  0  0
 17 19  1  0  0  0  0
 19 20  1  0  0  0  0
 19 47  1  0  0  0  0
 20 29  1  0  0  0  0
 20 21  2  0  0  0  0
 21 22  1  0  0  0  0
 21 48  1  0  0  0  0
 22 23  2  0  0  0  0
 22 49  1  0  0  0  0
 23 24  1  0  0  0  0
 23 28  1  0  0  0  0
 24 25  1  0  0  0  0
 24 26  1  0  0  0  0
 24 27  1  0  0  0  0
 25 50  1  0  0  0  0
 25 51  1  0  0  0  0
 25 52  1  0  0  0  0
 26 53  1  0  0  0  0
 26 54  1  0  0  0  0
 26 55  1  0  0  0  0
 27 56  1  0  0  0  0
 27 57  1  0  0  0  0
 27 58  1  0  0  0  0
 28 29  2  0  0  0  0
 28 59  1  0  0  0  0
 29 60  1  0  0  0  0
 30 31  2  0  0  0  0
M  END
> <s_m_source_file>
AV-unprocessed.smi

> <i_m_source_file_index>
284

> <i_lp_mmshare_version>
43012

> <i_f3d_flags>
0

> <s_epik_input>
W09IXVtDSDJdW0NAQEhdKE8xKVtDQEhdKFtPSF0pW0NIMl1bQ0BIXTFuKFtjSF1jMltDSDNdKWMoPU8pbihjMj1PKVtDSDJdQyg9TylbTkhdYzNbY0hdW2NIXWMoQyhbQ0gzXSkoW0NIM10pW0NIM10pW2NIXVtjSF0z

> <s_epik_cmdline>
J2VwaWtfcHl0aG9uJywgJy1waCcsICc3LjAnLCAnLXRuJywgJzgnLCAnLW1hJywgJzIwMCcsICctbWV0YWxfYmluZGluZycsICctaW1hZScsICc8aW5maWxlLm1hZT4nLCAnLW9tYWUnLCAnPG91dGZpbGUubWFlPic=

> <r_lp_tautomer_probability>
1

> <r_epik_Ionization_Penalty>
4.92358e-06

> <r_epik_Ionization_Penalty_Charging>
1.29777e-07

> <r_epik_Ionization_Penalty_Neutral>
4.79381e-06

> <r_epik_State_Penalty>
-0

> <r_epik_Charging_Adjusted_Penalty>
1.29777e-07

> <i_epik_Tot_Q>
0

> <i_epik_Tot_abs_Q>
0

> <r_epik_Metal_State_Penalty>
-0

> <b_epik_Metal_Only>
0

> <s_epik_Chemistry_Notes>
This compound contains an acetal/aminal-like group ( X-CH(R)-Y where X, Y are N, S, or O) that may be acid/base labile, releasing an aldehyde.

> <s_lp_Force_Field>
OPLS_2005

> <r_lp_Energy>
41.7726

> <b_lp_Chiralities_Consistent>
1

> <s_lp_Variant>
AV-unprocessed.smi:284-2

> <Gold.Version>
5.8.1

> <Gold.Id.Protein>
6NUR|6NUR_protein|mol2

> <Gold.PLP.Fitness>
54.6597

> <Gold.PLP.PLP>
-56.7534

> <Gold.PLP.part.hbond>
0.0000

> <Gold.PLP.part.metal>
0.0000

> <Gold.PLP.part.buried>
-7.4365

> <Gold.PLP.part.nonpolar>
-49.6303

> <Gold.PLP.part.repulsive>
0.1598

> <Gold.PLP.ligand.clash>
0.0000

> <Gold.PLP.ligand.torsion>
1.1135

> <Gold.PLP.Chemscore.Hbond>
0.0000

> <Gold.PLP.Chemscore.CHOScore>
0.0000

> <Gold.PLP.Chemscore.Metal>
0.0000

> <Gold.PLP.Chemscore.Internal.Correction>
0.1334

> <Gold.Rescore>
     Score         DG    S(hbond)    S(metal)    S(lipo)     H(rot)  DE(clash)    DE(int)     intcor
     12.36     -14.63       0.00        0.00     149.82       3.27       0.05       2.22       ----

> <Gold.Chemscore.Fitness>
12.3588

> <Gold.Chemscore.DG>
-14.6291

> <Gold.Chemscore.ZeroCoef>
-5.4800

> <Gold.Chemscore.Hbond>
0.0000

> <Gold.Chemscore.Metal>
0.0000

> <Gold.Chemscore.Lipo>
149.8220

> <Gold.Chemscore.Internal_Hbond>
0.0000

> <Gold.Chemscore.DEClash>
0.0550

> <Gold.Chemscore.DEInternal>
2.2153

> <Gold.Chemscore.Rot>
3.2735

> <Gold.Chemscore.Internal.Correction>
   9.000000E+99

> <Gold.Chemscore.Hbond.Weighted>
-0.0000

> <Gold.Chemscore.Metal.Weighted>
-0.0000

> <Gold.Chemscore.Lipo.Weighted>
-17.5292

> <Gold.Chemscore.Internal_Hbond.Weighted>
0.0000

> <Gold.Chemscore.DEClash.Weighted>
0.0550

> <Gold.Chemscore.DEInternal.Weighted>
2.2153

> <Gold.Chemscore.Rot.Weighted>
8.3801

> <Gold.Chemscore.Internal.Correction.Weighted>
   9.000000E+99

> <Gold.Protein.RotatedTorsions>
[ 6907 6896 6895 6894 ] final  106.12 input  -60.11 | X-H torsion
[ 7974 7965 7964 7962 ] final -117.15 input  175.53 | X-H torsion
[ 8008 7997 7996 7995 ] final   60.13 input   59.86 | X-H torsion
[ 10167 10162 10161 10158 ] final   20.55 input  -65.29 | X-H torsion
[ 10718 10713 10712 10709 ] final -159.66 input   66.30 | X-H torsion
[ 10763 10752 10751 10750 ] final -136.64 input  -60.55 | X-H torsion
[ 11005 11000 10999 10996 ] final  173.51 input  -57.11 | X-H torsion

> <Gold.Protein.ActiveResidues>
 VAL166  LYS551  ARG553  GLY616  TRP617  ASP618  TYR619  PRO620  LYS621  CYS622 
 ASP623  PHE694  ASN695  SER759  ASP760  ASP761  ALA762  ILE779  LEU786  VAL792 
 PHE793  MET794  SER795  GLU796  ALA797  LYS798  CYS799  TRP800  GLU811  SER814 

> <Gold.Protein.RotatedAtoms>
  152.5205  133.9428  159.7634 H   0  0  0  0  0  0  0  0  0  0  0  0  # atno 6907 bound_to 6896
  150.9754  133.6292  159.2738 H   0  0  0  0  0  0  0  0  0  0  0  0  # atno 6908 bound_to 6896
  151.3488  135.0885  159.9449 H   0  0  0  0  0  0  0  0  0  0  0  0  # atno 6909 bound_to 6896
  145.0885  140.8474  143.3996 H   0  0  0  0  0  0  0  0  0  0  0  0  # atno 7974 bound_to 7965
  155.5774  140.3491  155.4531 H   0  0  0  0  0  0  0  0  0  0  0  0  # atno 8008 bound_to 7997
  156.0399  140.1293  157.0192 H   0  0  0  0  0  0  0  0  0  0  0  0  # atno 8009 bound_to 7997
  154.4387  140.1026  156.6207 H   0  0  0  0  0  0  0  0  0  0  0  0  # atno 8010 bound_to 7997
  140.5495  143.9535  150.6569 H   0  0  0  0  0  0  0  0  0  0  0  0  # atno 10167 bound_to 10162
  156.5712  130.8689  151.2838 H   0  0  0  0  0  0  0  0  0  0  0  0  # atno 10718 bound_to 10713
  154.8679  135.3666  154.5094 H   0  0  0  0  0  0  0  0  0  0  0  0  # atno 10763 bound_to 10752
  153.5730  135.7020  153.5501 H   0  0  0  0  0  0  0  0  0  0  0  0  # atno 10764 bound_to 10752
  153.3525  135.4068  155.1619 H   0  0  0  0  0  0  0  0  0  0  0  0  # atno 10765 bound_to 10752
  140.3412  134.7274  157.4204 H   0  0  0  0  0  0  0  0  0  0  0  0  # atno 11005 bound_to 11000
  145.1094  139.2767  143.5645 LP  0  0  0  0  0  0  0  0  0  0  0  0  # atno 17320 bound_to 7965
  146.3531  140.0685  142.8625 LP  0  0  0  0  0  0  0  0  0  0  0  0  # atno 17321 bound_to 7965
  140.2957  143.3294  152.1020 LP  0  0  0  0  0  0  0  0  0  0  0  0  # atno 17342 bound_to 10162
  139.5021  144.6728  151.6202 LP  0  0  0  0  0  0  0  0  0  0  0  0  # atno 17343 bound_to 10162
  157.7348  130.9751  150.2046 LP  0  0  0  0  0  0  0  0  0  0  0  0  # atno 17370 bound_to 10713
  156.2713  130.3722  149.8029 LP  0  0  0  0  0  0  0  0  0  0  0  0  # atno 17371 bound_to 10713
  140.0779  134.5771  155.8571 LP  0  0  0  0  0  0  0  0  0  0  0  0  # atno 17394 bound_to 11000
  141.2038  133.6634  156.6082 LP  0  0  0  0  0  0  0  0  0  0  0  0  # atno 17395 bound_to 11000

$$$$
