#       Name:                AV-unprocessed.smi:3136
#       Creating user name   scv26
#       Creation time:       Fri Mar 27 17:34:38 2020


#       File generated by GOLD software.
#

@<TRIPOS>MOLECULE
AV-unprocessed.smi:3136
    43    43     1
SMALL
NO_CHARGES


@<TRIPOS>ATOM
      1 ****        -4.4139   2.3544  -1.3383 C.3            1 S1                 0.0000
      2 ****        -4.0213   3.0361  -0.0208 C.3            1 S1                 0.0000
      3 ****        -2.6364   2.7526   0.3376 N.am           1 S1                 0.0000
      4 ****        -2.2098   1.6330   0.9419 C.2            1 S1                 0.0000
      5 ****        -2.9611   0.7143   1.2697 O.2            1 S1                 0.0000
      6 ****        -0.7056   1.5413   1.2154 C.3            1 S1                 0.0000
      7 ****        -0.1866   0.0939   1.2052 C.3            1 S1                 0.0000
      8 ****         1.2881   0.0589   1.2923 N.4            1 S1                 1.0000
      9 ****         1.8943  -1.2880   1.1684 C.3            1 S1                 0.0000
     10 ****         2.8974  -1.4737   2.3190 C.3            1 S1                 0.0000
     11 ****         2.5474  -1.4714  -0.2296 C.3            1 S1                 0.0000
     12 ****         3.2408  -2.8359  -0.4077 C.3            1 S1                 0.0000
     13 ****         1.5769  -1.2653  -1.2995 N.pl3          1 S1                 0.0000
     14 ****         0.5959  -2.1225  -1.7600 C.2            1 S1                 0.0000
     15 ****        -0.0940  -1.4668  -2.7388 C.2            1 S1                 0.0000
     16 ****         0.5379  -0.1944  -2.8034 C.2            1 S1                 0.0000
     17 ****         1.5300  -0.0739  -1.9363 N.2            1 S1                 0.0000
     18 ****        -5.4405   2.6006  -1.6098 H              1 S1                 0.0000
     19 ****        -4.3443   1.2690  -1.2614 H              1 S1                 0.0000
     20 ****        -3.7683   2.6756  -2.1564 H              1 S1                 0.0000
     21 ****        -4.1330   4.1161  -0.1188 H              1 S1                 0.0000
     22 ****        -4.6924   2.7265   0.7820 H              1 S1                 0.0000
     23 ****        -1.9533   3.4591   0.1054 H              1 S1                 0.0000
     24 ****        -0.1765   2.1216   0.4573 H              1 S1                 0.0000
     25 ****        -0.4940   2.0110   2.1767 H              1 S1                 0.0000
     26 ****        -0.6037  -0.4666   2.0432 H              1 S1                 0.0000
     27 ****        -0.5088  -0.4072   0.2923 H              1 S1                 0.0000
     28 ****         1.6730   0.6456   0.5653 H              1 S1                 0.0000
     29 ****         1.1141  -2.0410   1.2959 H              1 S1                 0.0000
     30 ****         3.2795  -2.4935   2.3614 H              1 S1                 0.0000
     31 ****         2.4277  -1.2731   3.2827 H              1 S1                 0.0000
     32 ****         3.7488  -0.7995   2.2184 H              1 S1                 0.0000
     33 ****         3.3208  -0.7090  -0.3431 H              1 S1                 0.0000
     34 ****         4.1018  -2.9381   0.2521 H              1 S1                 0.0000
     35 ****         3.6093  -2.9570  -1.4270 H              1 S1                 0.0000
     36 ****         2.5616  -3.6627  -0.1990 H              1 S1                 0.0000
     37 ****         0.4672  -3.1159  -1.3561 H              1 S1                 0.0000
     38 ****        -0.9265  -1.8382  -3.3181 H              1 S1                 0.0000
     39 ****         0.3032   0.6413  -3.4461 H              1 S1                 0.0000
     40 ****         1.5526   0.4434   2.1879 H              1 S1                 0.0000
     41 ****        -3.9420   0.7815   1.0876 LP             1 S1                 0.0000
     42 ****        -2.5903  -0.0991   1.7180 LP             1 S1                 0.0000
     43 ****         2.1157   0.7225  -1.7854 LP             1 S1                 0.0000
@<TRIPOS>BOND
    1    1    2 1     
    2    1   18 1     
    3    1   19 1     
    4    1   20 1     
    5    2    3 1     
    6    2   21 1     
    7    2   22 1     
    8    3    4 am    
    9    3   23 1     
   10    4    5 2     
   11    4    6 1     
   12    6    7 1     
   13    6   24 1     
   14    6   25 1     
   15    7    8 1     
   16    7   26 1     
   17    7   27 1     
   18    8    9 1     
   19    8   28 1     
   20    8   40 1     
   21    9   10 1     
   22    9   11 1     
   23    9   29 1     
   24   10   30 1     
   25   10   31 1     
   26   10   32 1     
   27   11   12 1     
   28   11   13 1     
   29   11   33 1     
   30   12   34 1     
   31   12   35 1     
   32   12   36 1     
   33   13   17 1     
   34   13   14 1     
   35   14   15 2     
   36   14   37 1     
   37   15   16 1     
   38   15   38 1     
   39   16   17 2     
   40   16   39 1     
   41    5   41 1     
   42    5   42 1     
   43   17   43 1     
@<TRIPOS>SUBSTRUCTURE
      1 S1             1
@<TRIPOS>SET
LONE_PAIRS      STATIC     ATOMS    <user>   **** ""
3 41 42 43
DONOR_HYDROGENS      STATIC     ATOMS    <user>   **** ""
3 23 28 40
ATOM$BLUE        STATIC     ATOMS    COLORGROUP SYSTEM
3 41 42 43
ATOM$RED        STATIC     ATOMS    COLORGROUP SYSTEM
3 23 28 40
