AV-unprocessed.smi:3337|AV-procd|sdf|12866|dock4
  -GOLD-   2272019263D 1   1.00000     0.00000
 Structure written by MMmdl.
 46 47  0  0  0  0  0  0  0  0  2 V2000
  142.9334  134.5036  152.4475 C   0  0  0  0  0  0  0  0  0  0  0  0
  144.2632  133.7806  152.1914 C   0  0  1  0  0  0  0  0  0  0  0  0
  144.2775  133.1094  150.8066 C   0  0  0  0  0  0  0  0  0  0  0  0
  145.6310  132.4299  150.5348 C   0  0  1  0  0  0  0  0  0  0  0  0
  145.6632  131.7815  149.1437 C   0  0  0  0  0  0  0  0  0  0  0  0
  146.7776  133.4486  150.7080 C   0  0  0  0  0  0  0  0  0  0  0  0
  146.7651  134.0811  152.0534 N   0  3  2  0  0  0  0  0  0  0  0  0
  147.2598  133.1815  153.1302 C   0  0  0  0  0  0  0  0  0  0  0  0
  148.7871  132.9847  153.0899 C   0  0  0  0  0  0  0  0  0  0  0  0
  149.1657  131.6838  153.6282 N   0  0  0  0  0  0  0  0  0  0  0  0
  149.9381  131.4942  154.7104 C   0  0  0  0  0  0  0  0  0  0  0  0
  150.4147  132.4264  155.3589 O   0  0  0  0  0  0  0  0  0  0  0  0
  150.2234  130.0333  155.1008 C   0  0  1  0  0  0  0  0  0  0  0  0
  149.5279  129.0153  154.1737 C   0  0  0  0  0  0  0  0  0  0  0  0
  151.6590  129.7933  155.1904 N   0  0  0  0  0  0  0  0  0  0  0  0
  152.4173  128.8836  154.5746 C   0  0  0  0  0  0  0  0  0  0  0  0
  153.6957  128.9238  154.9217 N   0  0  0  0  0  0  0  0  0  0  0  0
  153.6551  129.9490  155.8237 C   0  0  0  0  0  0  0  0  0  0  0  0
  152.4578  130.4967  156.0312 N   0  0  0  0  0  0  0  0  0  0  0  0
  145.4618  134.7446  152.3328 C   0  0  0  0  0  0  0  0  0  0  0  0
  142.7706  135.3042  151.7251 H   0  0  0  0  0  0  0  0  0  0  0  0
  142.9116  134.9453  153.4443 H   0  0  0  0  0  0  0  0  0  0  0  0
  142.0914  133.8145  152.3752 H   0  0  0  0  0  0  0  0  0  0  0  0
  144.3506  133.0002  152.9476 H   0  0  0  0  0  0  0  0  0  0  0  0
  143.4732  132.3755  150.7415 H   0  0  0  0  0  0  0  0  0  0  0  0
  144.0794  133.8547  150.0348 H   0  0  0  0  0  0  0  0  0  0  0  0
  145.7630  131.6300  151.2646 H   0  0  0  0  0  0  0  0  0  0  0  0
  145.5355  132.5241  148.3553 H   0  0  0  0  0  0  0  0  0  0  0  0
  144.8684  131.0425  149.0370 H   0  0  0  0  0  0  0  0  0  0  0  0
  146.6112  131.2711  148.9706 H   0  0  0  0  0  0  0  0  0  0  0  0
  147.7440  132.9767  150.5258 H   0  0  0  0  0  0  0  0  0  0  0  0
  146.6832  134.2365  149.9592 H   0  0  0  0  0  0  0  0  0  0  0  0
  146.9499  133.5445  154.1098 H   0  0  0  0  0  0  0  0  0  0  0  0
  146.7879  132.2057  153.0071 H   0  0  0  0  0  0  0  0  0  0  0  0
  149.1627  133.0940  152.0709 H   0  0  0  0  0  0  0  0  0  0  0  0
  149.2939  133.7381  153.6915 H   0  0  0  0  0  0  0  0  0  0  0  0
  148.8112  130.8687  153.1488 H   0  0  0  0  0  0  0  0  0  0  0  0
  149.8127  129.8897  156.1014 H   0  0  0  0  0  0  0  0  0  0  0  0
  148.4471  129.1606  154.1689 H   0  0  0  0  0  0  0  0  0  0  0  0
  149.7167  127.9943  154.5064 H   0  0  0  0  0  0  0  0  0  0  0  0
  149.8772  129.0962  153.1434 H   0  0  0  0  0  0  0  0  0  0  0  0
  152.0255  128.1741  153.8605 H   0  0  0  0  0  0  0  0  0  0  0  0
  154.5329  130.2978  156.3478 H   0  0  0  0  0  0  0  0  0  0  0  0
  145.3477  135.5655  151.6234 H   0  0  0  0  0  0  0  0  0  0  0  0
  145.4657  135.2079  153.3184 H   0  0  0  0  0  0  0  0  0  0  0  0
  147.4497  134.8223  152.0040 H   0  0  0  0  0  0  0  0  0  0  0  0
  1  2  1  0  0  0  0
  1 21  1  0  0  0  0
  1 22  1  0  0  0  0
  1 23  1  0  0  0  0
  2 20  1  0  0  0  0
  2  3  1  0  0  0  0
  2 24  1  0  0  0  0
  3  4  1  0  0  0  0
  3 25  1  0  0  0  0
  3 26  1  0  0  0  0
  4  5  1  0  0  0  0
  4  6  1  0  0  0  0
  4 27  1  0  0  0  0
  5 28  1  0  0  0  0
  5 29  1  0  0  0  0
  5 30  1  0  0  0  0
  6  7  1  0  0  0  0
  6 31  1  0  0  0  0
  6 32  1  0  0  0  0
  7  8  1  0  0  0  0
  7 20  1  0  0  0  0
  7 46  1  0  0  0  0
  8  9  1  0  0  0  0
  8 33  1  0  0  0  0
  8 34  1  0  0  0  0
  9 10  1  0  0  0  0
  9 35  1  0  0  0  0
  9 36  1  0  0  0  0
 10 11  1  0  0  0  0
 10 37  1  0  0  0  0
 11 12  2  0  0  0  0
 11 13  1  0  0  0  0
 13 14  1  0  0  0  0
 13 15  1  0  0  0  0
 13 38  1  0  0  0  0
 14 39  1  0  0  0  0
 14 40  1  0  0  0  0
 14 41  1  0  0  0  0
 15 19  1  0  0  0  0
 15 16  1  0  0  0  0
 16 17  2  0  0  0  0
 16 42  1  0  0  0  0
 17 18  1  0  0  0  0
 18 19  2  0  0  0  0
 18 43  1  0  0  0  0
 20 44  1  0  0  0  0
 20 45  1  0  0  0  0
M  CHG  1   7   1
M  END
> <s_m_source_file>
AV-unprocessed.smi

> <i_m_source_file_index>
3337

> <i_lp_mmshare_version>
43012

> <i_f3d_flags>
0

> <s_epik_input>
W0NIM11bQ0BASF0xW0NIMl1bQ0BASF0oW0NIM10pW0NIMl1OKFtDSDJdMSlbQ0gyXVtDSDJdW05IXUMoPU8pW0NASF0oW0NIM10pbjJbY0hdbltjSF1uMg==

> <s_epik_cmdline>
J2VwaWtfcHl0aG9uJywgJy1waCcsICc3LjAnLCAnLXRuJywgJzgnLCAnLW1hJywgJzIwMCcsICctbWV0YWxfYmluZGluZycsICctaW1hZScsICc8aW5maWxlLm1hZT4nLCAnLW9tYWUnLCAnPG91dGZpbGUubWFlPic=

> <r_lp_tautomer_probability>
1

> <r_epik_Ionization_Penalty>
0.00175613

> <r_epik_Ionization_Penalty_Charging>
0.00174812

> <r_epik_Ionization_Penalty_Neutral>
8.01354e-06

> <r_epik_State_Penalty>
0.00118332

> <r_epik_Charging_Adjusted_Penalty>
0.00293143

> <i_epik_Tot_Q>
1

> <i_epik_Tot_abs_Q>
1

> <r_epik_Metal_State_Penalty>
-0

> <b_epik_Metal_Only>
0

> <s_lp_Force_Field>
OPLS_2005

> <r_lp_Energy>
23.9818

> <b_lp_Chiralities_Consistent>
1

> <s_lp_Variant>
AV-unprocessed.smi:3337-6

> <Gold.Version>
5.8.1

> <Gold.Id.Protein>
6NUR|6NUR_protein|mol2

> <Gold.PLP.Fitness>
43.7987

> <Gold.PLP.PLP>
-35.6051

> <Gold.PLP.part.hbond>
-1.0000

> <Gold.PLP.part.metal>
0.0000

> <Gold.PLP.part.buried>
-5.6526

> <Gold.PLP.part.nonpolar>
-28.5773

> <Gold.PLP.part.repulsive>
0.0826

> <Gold.PLP.ligand.clash>
0.0854

> <Gold.PLP.ligand.torsion>
0.4082

> <Gold.PLP.Chemscore.Hbond>
1.9825

> <Gold.PLP.Chemscore.CHOScore>
1.0000

> <Gold.PLP.Chemscore.Metal>
0.0000

> <Gold.Chemscore.Hbonds>
donor molecule, donor type, donor heavy atom, donor atom, acceptor molecule, acceptor atom, score
      L1  H     7    46       P1  7948  2.00
      L1  C    16    42       P1 10737  1.00

> <Gold.PLP.Chemscore.Internal.Correction>
0.1480

> <Gold.Rescore>
     Score         DG    S(hbond)    S(metal)    S(lipo)     H(rot)  DE(clash)    DE(int)     intcor
      8.67     -10.24       0.81        0.00      72.63       2.51       0.04       1.53       ----

> <Gold.Chemscore.Fitness>
8.6655

> <Gold.Chemscore.DG>
-10.2401

> <Gold.Chemscore.ZeroCoef>
-5.4800

> <Gold.Chemscore.Hbond>
0.8070

> <Gold.Chemscore.Metal>
0.0000

> <Gold.Chemscore.Lipo>
72.6316

> <Gold.Chemscore.Internal_Hbond>
0.0000

> <Gold.Chemscore.DEClash>
0.0440

> <Gold.Chemscore.DEInternal>
1.5306

> <Gold.Chemscore.Rot>
2.5129

> <Gold.Chemscore.Internal.Correction>
   9.000000E+99

> <Gold.Chemscore.Hbonds>
donor molecule, donor type, donor heavy atom, donor atom, acceptor molecule, acceptor atom, score
      L1  H     7    46       P1  7948  0.78

> <Gold.Chemscore.Hbond.Weighted>
-2.6953

> <Gold.Chemscore.Metal.Weighted>
-0.0000

> <Gold.Chemscore.Lipo.Weighted>
-8.4979

> <Gold.Chemscore.Internal_Hbond.Weighted>
0.0000

> <Gold.Chemscore.DEClash.Weighted>
0.0440

> <Gold.Chemscore.DEInternal.Weighted>
1.5306

> <Gold.Chemscore.Rot.Weighted>
6.4331

> <Gold.Chemscore.Internal.Correction.Weighted>
   9.000000E+99

> <Gold.Protein.RotatedTorsions>
[ 6907 6896 6895 6894 ] final   31.00 input  -60.11 | X-H torsion
[ 7974 7965 7964 7962 ] final  172.83 input  175.53 | X-H torsion
[ 8008 7997 7996 7995 ] final  -33.86 input   59.86 | X-H torsion
[ 10167 10162 10161 10158 ] final -175.75 input  -65.29 | X-H torsion
[ 10718 10713 10712 10709 ] final   35.78 input   66.30 | X-H torsion
[ 10763 10752 10751 10750 ] final   94.63 input  -60.55 | X-H torsion
[ 11005 11000 10999 10996 ] final    2.55 input  -57.11 | X-H torsion

> <Gold.Protein.ActiveResidues>
 VAL166  LYS551  ARG553  GLY616  TRP617  ASP618  TYR619  PRO620  LYS621  CYS622 
 ASP623  PHE694  ASN695  SER759  ASP760  ASP761  ALA762  ILE779  LEU786  VAL792 
 PHE793  MET794  SER795  GLU796  ALA797  LYS798  CYS799  TRP800  GLU811  SER814 

> <Gold.Protein.RotatedAtoms>
  152.0540  134.9636  160.0574 H   0  0  0  0  0  0  0  0  0  0  0  0  # atno 6907 bound_to 6896
  152.1026  133.4253  159.4602 H   0  0  0  0  0  0  0  0  0  0  0  0  # atno 6908 bound_to 6896
  150.6840  134.2662  159.4613 H   0  0  0  0  0  0  0  0  0  0  0  0  # atno 6909 bound_to 6896
  144.7258  139.9556  143.6433 H   0  0  0  0  0  0  0  0  0  0  0  0  # atno 7974 bound_to 7965
  154.4137  140.1699  156.1956 H   0  0  0  0  0  0  0  0  0  0  0  0  # atno 8008 bound_to 7997
  155.9567  140.3396  155.6431 H   0  0  0  0  0  0  0  0  0  0  0  0  # atno 8009 bound_to 7997
  155.6801  140.0721  157.2478 H   0  0  0  0  0  0  0  0  0  0  0  0  # atno 8010 bound_to 7997
  139.5565  144.1977  152.1167 H   0  0  0  0  0  0  0  0  0  0  0  0  # atno 10167 bound_to 10162
  157.3268  130.7477  149.6821 H   0  0  0  0  0  0  0  0  0  0  0  0  # atno 10718 bound_to 10713
  153.2438  135.4283  155.0726 H   0  0  0  0  0  0  0  0  0  0  0  0  # atno 10763 bound_to 10752
  154.8352  135.3409  154.6611 H   0  0  0  0  0  0  0  0  0  0  0  0  # atno 10764 bound_to 10752
  153.7033  135.7027  153.5113 H   0  0  0  0  0  0  0  0  0  0  0  0  # atno 10765 bound_to 10752
  140.6030  133.9818  155.8141 H   0  0  0  0  0  0  0  0  0  0  0  0  # atno 11005 bound_to 11000
  146.0677  139.3667  143.0542 LP  0  0  0  0  0  0  0  0  0  0  0  0  # atno 17320 bound_to 7965
  145.8009  140.9771  143.0999 LP  0  0  0  0  0  0  0  0  0  0  0  0  # atno 17321 bound_to 7965
  140.1482  144.5139  150.6703 LP  0  0  0  0  0  0  0  0  0  0  0  0  # atno 17342 bound_to 10162
  140.6838  143.2340  151.5314 LP  0  0  0  0  0  0  0  0  0  0  0  0  # atno 17343 bound_to 10162
  155.9691  130.4207  150.4434 LP  0  0  0  0  0  0  0  0  0  0  0  0  # atno 17370 bound_to 10713
  157.2459  131.0535  151.2409 LP  0  0  0  0  0  0  0  0  0  0  0  0  # atno 17371 bound_to 10713
  141.0859  133.9991  157.3313 LP  0  0  0  0  0  0  0  0  0  0  0  0  # atno 17394 bound_to 11000
  139.9224  135.0201  156.8113 LP  0  0  0  0  0  0  0  0  0  0  0  0  # atno 17395 bound_to 11000

$$$$
