AV-unprocessed.smi:2734|AV-procd|sdf|10537|dock5
  -GOLD-   2272014583D 1   1.00000     0.00000
 Structure written by MMmdl.
 40 42  0  0  0  0  0  0  0  0  1 V2000
  153.3656  143.0009  161.8810 C   0  0  0  0  0  0  0  0  0  0  0  0
  152.8042  142.5211  160.5540 C   0  0  0  0  0  0  0  0  0  0  0  0
  153.1583  141.2368  160.0825 C   0  0  0  0  0  0  0  0  0  0  0  0
  152.6566  140.7523  158.8545 C   0  0  0  0  0  0  0  0  0  0  0  0
  152.8670  139.5450  158.2109 N   0  0  0  0  0  0  0  0  0  0  0  0
  152.1291  139.6941  157.1142 C   0  0  0  0  0  0  0  0  0  0  0  0
  151.4654  140.8575  156.9713 N   0  0  0  0  0  0  0  0  0  0  0  0
  150.6057  141.2489  155.8687 C   0  0  0  0  0  0  0  0  0  0  0  0
  149.6106  140.1406  155.4762 C   0  0  2  0  0  0  0  0  0  0  0  0
  150.2923  139.1223  154.7690 O   0  0  0  0  0  0  0  0  0  0  0  0
  148.4639  140.6807  154.6070 C   0  0  0  0  0  0  0  0  0  0  0  0
  146.9933  139.6116  154.6736 S   0  0  0  0  0  0  0  0  0  0  0  0
  145.8838  140.6782  155.5407 C   0  0  0  0  0  0  0  0  0  0  0  0
  145.3697  140.4750  156.7485 N   0  0  0  0  0  0  0  0  0  0  0  0
  144.5756  141.5849  156.9653 N   0  0  0  0  0  0  0  0  0  0  0  0
  144.6134  142.3973  155.9497 N   0  0  0  0  0  0  0  0  0  0  0  0
  145.4410  141.8362  155.0352 N   0  0  0  0  0  0  0  0  0  0  0  0
  145.7093  142.4877  153.7687 C   0  0  0  0  0  0  0  0  0  0  0  0
  151.7855  141.5955  158.1049 C   0  0  0  0  0  0  0  0  0  0  0  0
  151.4262  142.8753  158.5628 C   0  0  0  0  0  0  0  0  0  0  0  0
  151.9348  143.3431  159.7925 C   0  0  0  0  0  0  0  0  0  0  0  0
  151.5384  144.7253  160.2804 C   0  0  0  0  0  0  0  0  0  0  0  0
  154.0259  142.2566  162.3269 H   0  0  0  0  0  0  0  0  0  0  0  0
  152.5588  143.1983  162.5874 H   0  0  0  0  0  0  0  0  0  0  0  0
  153.9395  143.9175  161.7447 H   0  0  0  0  0  0  0  0  0  0  0  0
  153.8198  140.6100  160.6622 H   0  0  0  0  0  0  0  0  0  0  0  0
  152.0650  138.9116  156.3722 H   0  0  0  0  0  0  0  0  0  0  0  0
  150.0686  142.1511  156.1634 H   0  0  0  0  0  0  0  0  0  0  0  0
  151.2302  141.5220  155.0166 H   0  0  0  0  0  0  0  0  0  0  0  0
  149.1923  139.7006  156.3825 H   0  0  0  0  0  0  0  0  0  0  0  0
  149.8297  138.9583  153.9612 H   0  0  0  0  0  0  0  0  0  0  0  0
  148.1797  141.6744  154.9555 H   0  0  0  0  0  0  0  0  0  0  0  0
  148.7909  140.7839  153.5714 H   0  0  0  0  0  0  0  0  0  0  0  0
  145.3165  141.8793  152.9541 H   0  0  0  0  0  0  0  0  0  0  0  0
  146.7850  142.6084  153.6381 H   0  0  0  0  0  0  0  0  0  0  0  0
  145.2376  143.4705  153.7359 H   0  0  0  0  0  0  0  0  0  0  0  0
  150.7631  143.4900  157.9722 H   0  0  0  0  0  0  0  0  0  0  0  0
  150.8577  145.2136  159.5825 H   0  0  0  0  0  0  0  0  0  0  0  0
  152.4186  145.3593  160.3883 H   0  0  0  0  0  0  0  0  0  0  0  0
  151.0369  144.6602  161.2462 H   0  0  0  0  0  0  0  0  0  0  0  0
  1  2  1  0  0  0  0
  1 23  1  0  0  0  0
  1 24  1  0  0  0  0
  1 25  1  0  0  0  0
  2 21  1  0  0  0  0
  2  3  2  0  0  0  0
  3  4  1  0  0  0  0
  3 26  1  0  0  0  0
  4 19  2  0  0  0  0
  4  5  1  0  0  0  0
  5  6  2  0  0  0  0
  6  7  1  0  0  0  0
  6 27  1  0  0  0  0
  7  8  1  0  0  0  0
  7 19  1  0  0  0  0
  8  9  1  0  0  0  0
  8 28  1  0  0  0  0
  8 29  1  0  0  0  0
  9 10  1  0  0  0  0
  9 11  1  0  0  0  0
  9 30  1  0  0  0  0
 10 31  1  0  0  0  0
 11 12  1  0  0  0  0
 11 32  1  0  0  0  0
 11 33  1  0  0  0  0
 12 13  1  0  0  0  0
 13 17  1  0  0  0  0
 13 14  2  0  0  0  0
 14 15  1  0  0  0  0
 15 16  2  0  0  0  0
 16 17  1  0  0  0  0
 17 18  1  0  0  0  0
 18 34  1  0  0  0  0
 18 35  1  0  0  0  0
 18 36  1  0  0  0  0
 19 20  1  0  0  0  0
 20 21  2  0  0  0  0
 20 37  1  0  0  0  0
 21 22  1  0  0  0  0
 22 38  1  0  0  0  0
 22 39  1  0  0  0  0
 22 40  1  0  0  0  0
M  END
> <s_m_source_file>
AV-unprocessed.smi

> <i_m_source_file_index>
2734

> <i_lp_mmshare_version>
43012

> <i_f3d_flags>
0

> <s_epik_input>
W0NIM11jKFtjSF0xKWMoW0NIM10pW2NIXWMoYzEyKW4oW2NIXW4yKVtDSDJdW0NASF0oW09IXSlbQ0gyXVNjM25ubm4zW0NIM10=

> <s_epik_cmdline>
J2VwaWtfcHl0aG9uJywgJy1waCcsICc3LjAnLCAnLXRuJywgJzgnLCAnLW1hJywgJzIwMCcsICctbWV0YWxfYmluZGluZycsICctaW1hZScsICc8aW5maWxlLm1hZT4nLCAnLW9tYWUnLCAnPG91dGZpbGUubWFlPic=

> <r_lp_tautomer_probability>
1

> <r_epik_Ionization_Penalty>
0.105517

> <r_epik_Ionization_Penalty_Charging>
0

> <r_epik_Ionization_Penalty_Neutral>
0.105517

> <r_epik_State_Penalty>
0.0953887

> <r_epik_Charging_Adjusted_Penalty>
0.0953887

> <i_epik_Tot_Q>
0

> <i_epik_Tot_abs_Q>
0

> <r_epik_Metal_State_Penalty>
0.0808533

> <b_epik_Metal_Only>
0

> <s_lp_Force_Field>
OPLS_2005

> <r_lp_Energy>
9.5145

> <b_lp_Chiralities_Consistent>
1

> <s_lp_Variant>
AV-unprocessed.smi:2734-1

> <Gold.Version>
5.8.1

> <Gold.Id.Protein>
6NUR|6NUR_protein|mol2

> <Gold.PLP.Fitness>
53.4561

> <Gold.PLP.PLP>
-46.6096

> <Gold.PLP.part.hbond>
-3.0000

> <Gold.PLP.part.metal>
0.0000

> <Gold.PLP.part.buried>
-4.4874

> <Gold.PLP.part.nonpolar>
-37.9477

> <Gold.PLP.part.repulsive>
0.2169

> <Gold.PLP.ligand.clash>
0.0000

> <Gold.PLP.ligand.torsion>
0.8748

> <Gold.PLP.Chemscore.Hbond>
2.8577

> <Gold.PLP.Chemscore.CHOScore>
0.0000

> <Gold.PLP.Chemscore.Metal>
0.0000

> <Gold.Chemscore.Hbonds>
donor molecule, donor type, donor heavy atom, donor atom, acceptor molecule, acceptor atom, score
      P1  H  7997  8009       L1     5  0.14

> <Gold.PLP.Chemscore.Internal.Correction>
0.0231

> <Gold.Rescore>
     Score         DG    S(hbond)    S(metal)    S(lipo)     H(rot)  DE(clash)    DE(int)     intcor
     15.24     -17.00       1.69        0.00     112.46       2.85       0.96       0.80       ----

> <Gold.Chemscore.Fitness>
15.2429

> <Gold.Chemscore.DG>
-17.0039

> <Gold.Chemscore.ZeroCoef>
-5.4800

> <Gold.Chemscore.Hbond>
1.6914

> <Gold.Chemscore.Metal>
0.0000

> <Gold.Chemscore.Lipo>
112.4648

> <Gold.Chemscore.Internal_Hbond>
0.0000

> <Gold.Chemscore.DEClash>
0.9641

> <Gold.Chemscore.DEInternal>
0.7969

> <Gold.Chemscore.Rot>
2.8452

> <Gold.Chemscore.Internal.Correction>
   9.000000E+99

> <Gold.Chemscore.Hbond.Weighted>
-5.6492

> <Gold.Chemscore.Metal.Weighted>
-0.0000

> <Gold.Chemscore.Lipo.Weighted>
-13.1584

> <Gold.Chemscore.Internal_Hbond.Weighted>
0.0000

> <Gold.Chemscore.DEClash.Weighted>
0.9641

> <Gold.Chemscore.DEInternal.Weighted>
0.7969

> <Gold.Chemscore.Rot.Weighted>
7.2837

> <Gold.Chemscore.Internal.Correction.Weighted>
   9.000000E+99

> <Gold.Protein.RotatedTorsions>
[ 6907 6896 6895 6894 ] final   23.64 input  -60.11 | X-H torsion
[ 7974 7965 7964 7962 ] final   94.30 input  175.53 | X-H torsion
[ 8008 7997 7996 7995 ] final  164.61 input   59.86 | X-H torsion
[ 10167 10162 10161 10158 ] final   94.91 input  -65.29 | X-H torsion
[ 10718 10713 10712 10709 ] final -177.03 input   66.30 | X-H torsion
[ 10763 10752 10751 10750 ] final   93.71 input  -60.55 | X-H torsion
[ 11005 11000 10999 10996 ] final  136.63 input  -57.11 | X-H torsion

> <Gold.Protein.ActiveResidues>
 VAL166  LYS551  ARG553  GLY616  TRP617  ASP618  TYR619  PRO620  LYS621  CYS622 
 ASP623  PHE694  ASN695  SER759  ASP760  ASP761  ALA762  ILE779  LEU786  VAL792 
 PHE793  MET794  SER795  GLU796  ALA797  LYS798  CYS799  TRP800  GLU811  SER814 

> <Gold.Protein.RotatedAtoms>
  151.9455  135.0193  160.0538 H   0  0  0  0  0  0  0  0  0  0  0  0  # atno 6907 bound_to 6896
  152.1999  133.4829  159.5061 H   0  0  0  0  0  0  0  0  0  0  0  0  # atno 6908 bound_to 6896
  150.6952  134.1521  159.4187 H   0  0  0  0  0  0  0  0  0  0  0  0  # atno 6909 bound_to 6896
  145.4675  139.2283  143.2953 H   0  0  0  0  0  0  0  0  0  0  0  0  # atno 7974 bound_to 7965
  156.1866  140.1692  156.8172 H   0  0  0  0  0  0  0  0  0  0  0  0  # atno 8008 bound_to 7997
  154.5422  140.0734  156.8561 H   0  0  0  0  0  0  0  0  0  0  0  0  # atno 8009 bound_to 7997
  155.3193  140.3372  155.4244 H   0  0  0  0  0  0  0  0  0  0  0  0  # atno 8010 bound_to 7997
  139.8039  144.6802  150.9729 H   0  0  0  0  0  0  0  0  0  0  0  0  # atno 10167 bound_to 10162
  156.8235  130.9628  151.3110 H   0  0  0  0  0  0  0  0  0  0  0  0  # atno 10718 bound_to 10713
  153.2334  135.4315  155.0620 H   0  0  0  0  0  0  0  0  0  0  0  0  # atno 10763 bound_to 10752
  154.8307  135.3385  154.6754 H   0  0  0  0  0  0  0  0  0  0  0  0  # atno 10764 bound_to 10752
  153.7180  135.7019  153.5076 H   0  0  0  0  0  0  0  0  0  0  0  0  # atno 10765 bound_to 10752
  140.0059  134.9459  157.0173 H   0  0  0  0  0  0  0  0  0  0  0  0  # atno 11005 bound_to 11000
  146.2416  140.5449  142.8931 LP  0  0  0  0  0  0  0  0  0  0  0  0  # atno 17320 bound_to 7965
  144.7965  140.6133  143.6506 LP  0  0  0  0  0  0  0  0  0  0  0  0  # atno 17321 bound_to 7965
  140.7819  143.4253  151.0777 LP  0  0  0  0  0  0  0  0  0  0  0  0  # atno 17342 bound_to 10162
  139.7924  143.8200  152.3153 LP  0  0  0  0  0  0  0  0  0  0  0  0  # atno 17343 bound_to 10162
  157.6444  130.8832  149.9511 LP  0  0  0  0  0  0  0  0  0  0  0  0  # atno 17370 bound_to 10713
  156.0975  130.3658  150.0279 LP  0  0  0  0  0  0  0  0  0  0  0  0  # atno 17371 bound_to 10713
  140.4642  134.1452  155.7195 LP  0  0  0  0  0  0  0  0  0  0  0  0  # atno 17394 bound_to 11000
  141.1676  133.8672  157.1667 LP  0  0  0  0  0  0  0  0  0  0  0  0  # atno 17395 bound_to 11000

$$$$
