AV-unprocessed.smi:2559|AV-procd|sdf|10034|dock1
  -GOLD-   2272014 73D 1   1.00000     0.00000
 Structure written by MMmdl.
 44 46  0  0  0  0  0  0  0  0  1 V2000
  153.2318  137.7455  159.0363 C   0  0  0  0  0  0  0  0  0  0  0  0
  152.6191  138.1079  157.7566 N   0  0  0  0  0  0  0  0  0  0  0  0
  152.5115  137.1725  156.7600 C   0  0  0  0  0  0  0  0  0  0  0  0
  152.9206  136.0191  156.8928 O   0  0  0  0  0  0  0  0  0  0  0  0
  151.9235  137.5592  155.5876 N   0  0  0  0  0  0  0  0  0  0  0  0
  151.4259  138.7811  155.2782 C   0  0  0  0  0  0  0  0  0  0  0  0
  150.8959  139.0364  154.1995 O   0  0  0  0  0  0  0  0  0  0  0  0
  151.5817  139.7612  156.3641 C   0  0  0  0  0  0  0  0  0  0  0  0
  152.1462  139.4362  157.5556 C   0  0  0  0  0  0  0  0  0  0  0  0
  152.1429  140.5222  158.4164 N   0  0  0  0  0  0  0  0  0  0  0  0
  151.5829  141.4886  157.6843 C   0  0  0  0  0  0  0  0  0  0  0  0
  151.3658  142.7799  158.1682 N   0  0  0  0  0  0  0  0  0  0  0  0
  150.5409  143.1385  159.3228 C   0  0  0  0  0  0  0  0  0  0  0  0
  151.2834  144.0883  160.2791 C   0  0  0  0  0  0  0  0  0  0  0  0
  151.7165  145.3610  159.5392 C   0  0  0  0  0  0  0  0  0  0  0  0
  152.4877  144.9907  158.2648 C   0  0  0  0  0  0  0  0  0  0  0  0
  151.6870  143.9899  157.4123 C   0  0  0  0  0  0  0  0  0  0  0  0
  151.1963  141.1033  156.4366 N   0  0  0  0  0  0  0  0  0  0  0  0
  150.4879  141.8865  155.4239 C   0  0  0  0  0  0  0  0  0  0  0  0
  149.2537  141.1450  154.8688 C   0  0  2  0  0  0  0  0  0  0  0  0
  149.1356  141.3152  153.4697 O   0  0  0  0  0  0  0  0  0  0  0  0
  147.9295  141.5397  155.5490 C   0  0  0  0  0  0  0  0  0  0  0  0
  147.3399  142.6682  154.9354 O   0  0  0  0  0  0  0  0  0  0  0  0
  151.8485  136.8518  154.8712 H   0  0  0  0  0  0  0  0  0  0  0  0
  152.7181  136.8920  159.4817 H   0  0  0  0  0  0  0  0  0  0  0  0
  153.1984  138.5571  159.7629 H   0  0  0  0  0  0  0  0  0  0  0  0
  154.2792  137.4757  158.8935 H   0  0  0  0  0  0  0  0  0  0  0  0
  149.6302  143.6198  158.9637 H   0  0  0  0  0  0  0  0  0  0  0  0
  150.2080  142.2436  159.8470 H   0  0  0  0  0  0  0  0  0  0  0  0
  150.6429  144.3464  161.1227 H   0  0  0  0  0  0  0  0  0  0  0  0
  152.1583  143.5887  160.6951 H   0  0  0  0  0  0  0  0  0  0  0  0
  150.8351  145.9465  159.2744 H   0  0  0  0  0  0  0  0  0  0  0  0
  152.3281  145.9899  160.1867 H   0  0  0  0  0  0  0  0  0  0  0  0
  152.7038  145.8883  157.6847 H   0  0  0  0  0  0  0  0  0  0  0  0
  153.4511  144.5547  158.5320 H   0  0  0  0  0  0  0  0  0  0  0  0
  152.2659  143.7240  156.5272 H   0  0  0  0  0  0  0  0  0  0  0  0
  150.7643  144.4479  157.0538 H   0  0  0  0  0  0  0  0  0  0  0  0
  150.1866  142.8405  155.8460 H   0  0  0  0  0  0  0  0  0  0  0  0
  151.1727  142.1523  154.6220 H   0  0  0  0  0  0  0  0  0  0  0  0
  149.3946  140.0761  155.0303 H   0  0  0  0  0  0  0  0  0  0  0  0
  149.3898  140.5095  153.0468 H   0  0  0  0  0  0  0  0  0  0  0  0
  147.2239  140.7083  155.5335 H   0  0  0  0  0  0  0  0  0  0  0  0
  148.1084  141.7818  156.5969 H   0  0  0  0  0  0  0  0  0  0  0  0
  147.9885  143.3533  154.8796 H   0  0  0  0  0  0  0  0  0  0  0  0
  1  2  1  0  0  0  0
  1 25  1  0  0  0  0
  1 26  1  0  0  0  0
  1 27  1  0  0  0  0
  2  9  1  0  0  0  0
  2  3  1  0  0  0  0
  3  4  2  0  0  0  0
  3  5  1  0  0  0  0
  5 24  1  0  0  0  0
  5  6  1  0  0  0  0
  6  7  2  0  0  0  0
  6  8  1  0  0  0  0
  8 18  1  0  0  0  0
  8  9  2  0  0  0  0
  9 10  1  0  0  0  0
 10 11  2  0  0  0  0
 11 12  1  0  0  0  0
 11 18  1  0  0  0  0
 12 17  1  0  0  0  0
 12 13  1  0  0  0  0
 13 14  1  0  0  0  0
 13 28  1  0  0  0  0
 13 29  1  0  0  0  0
 14 15  1  0  0  0  0
 14 30  1  0  0  0  0
 14 31  1  0  0  0  0
 15 16  1  0  0  0  0
 15 32  1  0  0  0  0
 15 33  1  0  0  0  0
 16 17  1  0  0  0  0
 16 34  1  0  0  0  0
 16 35  1  0  0  0  0
 17 36  1  0  0  0  0
 17 37  1  0  0  0  0
 18 19  1  0  0  0  0
 19 20  1  0  0  0  0
 19 38  1  0  0  0  0
 19 39  1  0  0  0  0
 20 21  1  0  0  0  0
 20 22  1  0  0  0  0
 20 40  1  0  0  0  0
 21 41  1  0  0  0  0
 22 23  1  0  0  0  0
 22 42  1  0  0  0  0
 22 43  1  0  0  0  0
 23 44  1  0  0  0  0
M  END
> <s_m_source_file>
AV-unprocessed.smi

> <i_m_source_file_index>
2559

> <i_lp_mmshare_version>
43012

> <i_f3d_flags>
0

> <s_epik_input>
Tz1jMVtuSF1jKD1PKW4oW0NIM10pYyhjMTIpbmMobjJbQ0gyXVtDQEhdKFtPSF0pW0NIMl1bT0hdKU4zW0NIMl1bQ0gyXVtDSDJdW0NIMl1bQ0gyXTM=

> <s_epik_cmdline>
J2VwaWtfcHl0aG9uJywgJy1waCcsICc3LjAnLCAnLXRuJywgJzgnLCAnLW1hJywgJzIwMCcsICctbWV0YWxfYmluZGluZycsICctaW1hZScsICc8aW5maWxlLm1hZT4nLCAnLW9tYWUnLCAnPG91dGZpbGUubWFlPic=

> <r_lp_tautomer_probability>
1

> <r_epik_Ionization_Penalty>
0.0023969

> <r_epik_Ionization_Penalty_Charging>
9.35512e-05

> <r_epik_Ionization_Penalty_Neutral>
0.00230335

> <r_epik_State_Penalty>
-0

> <r_epik_Charging_Adjusted_Penalty>
9.35512e-05

> <i_epik_Tot_Q>
0

> <i_epik_Tot_abs_Q>
0

> <r_epik_Metal_State_Penalty>
0.0757518

> <b_epik_Metal_Only>
0

> <s_lp_Force_Field>
OPLS_2005

> <r_lp_Energy>
44.2112

> <b_lp_Chiralities_Consistent>
1

> <s_lp_Variant>
AV-unprocessed.smi:2559-1

> <Gold.Version>
5.8.1

> <Gold.Id.Protein>
6NUR|6NUR_protein|mol2

> <Gold.PLP.Fitness>
51.5138

> <Gold.PLP.PLP>
-40.9821

> <Gold.PLP.part.hbond>
-6.0000

> <Gold.PLP.part.metal>
0.0000

> <Gold.PLP.part.buried>
-4.0029

> <Gold.PLP.part.nonpolar>
-31.6869

> <Gold.PLP.part.repulsive>
0.3105

> <Gold.PLP.ligand.clash>
0.0000

> <Gold.PLP.ligand.torsion>
1.8812

> <Gold.PLP.Chemscore.Hbond>
4.5185

> <Gold.PLP.Chemscore.CHOScore>
0.0000

> <Gold.PLP.Chemscore.Metal>
0.0000

> <Gold.Chemscore.Hbonds>
donor molecule, donor type, donor heavy atom, donor atom, acceptor molecule, acceptor atom, score
      L1  H    21    41       P1  7957  0.62
      L1  H    23    44       P1  8028  0.99
      P1  H  7989  7998       L1     7  0.86
      P1  H  8011  8017       L1    21  0.86
      P1  H 10752 10764       L1     4  1.00

> <Gold.PLP.Chemscore.Internal.Correction>
0.7386

> <Gold.Rescore>
     Score         DG    S(hbond)    S(metal)    S(lipo)     H(rot)  DE(clash)    DE(int)     intcor
     14.24     -19.19       3.33        0.00      86.99       2.97       1.86       3.09       ----

> <Gold.Chemscore.Fitness>
14.2364

> <Gold.Chemscore.DG>
-19.1852

> <Gold.Chemscore.ZeroCoef>
-5.4800

> <Gold.Chemscore.Hbond>
3.3312

> <Gold.Chemscore.Metal>
0.0000

> <Gold.Chemscore.Lipo>
86.9940

> <Gold.Chemscore.Internal_Hbond>
0.0000

> <Gold.Chemscore.DEClash>
1.8617

> <Gold.Chemscore.DEInternal>
3.0870

> <Gold.Chemscore.Rot>
2.9685

> <Gold.Chemscore.Internal.Correction>
   9.000000E+99

> <Gold.Chemscore.Hbonds>
donor molecule, donor type, donor heavy atom, donor atom, acceptor molecule, acceptor atom, score
      L1  H    21    41       P1  7957  0.61
      L1  H    23    44       P1  8028  0.78
      P1  H  7989  7998       L1     7  0.58
      P1  H  8011  8017       L1    21  0.16
      P1  H 10752 10764       L1     4  0.78

> <Gold.Chemscore.Hbond.Weighted>
-11.1263

> <Gold.Chemscore.Metal.Weighted>
-0.0000

> <Gold.Chemscore.Lipo.Weighted>
-10.1783

> <Gold.Chemscore.Internal_Hbond.Weighted>
0.0000

> <Gold.Chemscore.DEClash.Weighted>
1.8617

> <Gold.Chemscore.DEInternal.Weighted>
3.0870

> <Gold.Chemscore.Rot.Weighted>
7.5994

> <Gold.Chemscore.Internal.Correction.Weighted>
   9.000000E+99

> <Gold.Protein.RotatedTorsions>
[ 6907 6896 6895 6894 ] final  -92.00 input  -60.11 | X-H torsion
[ 7974 7965 7964 7962 ] final   36.74 input  175.53 | X-H torsion
[ 8008 7997 7996 7995 ] final -124.78 input   59.86 | X-H torsion
[ 10167 10162 10161 10158 ] final  -88.77 input  -65.29 | X-H torsion
[ 10718 10713 10712 10709 ] final  120.24 input   66.30 | X-H torsion
[ 10763 10752 10751 10750 ] final    0.86 input  -60.55 | X-H torsion
[ 11005 11000 10999 10996 ] final -163.76 input  -57.11 | X-H torsion

> <Gold.Protein.ActiveResidues>
 VAL166  LYS551  ARG553  GLY616  TRP617  ASP618  TYR619  PRO620  LYS621  CYS622 
 ASP623  PHE694  ASN695  SER759  ASP760  ASP761  ALA762  ILE779  LEU786  VAL792 
 PHE793  MET794  SER795  GLU796  ALA797  LYS798  CYS799  TRP800  GLU811  SER814 

> <Gold.Protein.RotatedAtoms>
  150.6900  134.2189  159.4388 H   0  0  0  0  0  0  0  0  0  0  0  0  # atno 6907 bound_to 6896
  152.0147  134.9854  160.0578 H   0  0  0  0  0  0  0  0  0  0  0  0  # atno 6908 bound_to 6896
  152.1455  133.4455  159.4824 H   0  0  0  0  0  0  0  0  0  0  0  0  # atno 6909 bound_to 6896
  146.1189  139.5980  142.9303 H   0  0  0  0  0  0  0  0  0  0  0  0  # atno 7974 bound_to 7965
  155.2026  140.0416  157.2920 H   0  0  0  0  0  0  0  0  0  0  0  0  # atno 8008 bound_to 7997
  154.6065  140.2465  155.7696 H   0  0  0  0  0  0  0  0  0  0  0  0  # atno 8009 bound_to 7997
  156.2353  140.2924  156.0305 H   0  0  0  0  0  0  0  0  0  0  0  0  # atno 8010 bound_to 7997
  140.3714  143.2792  151.9496 H   0  0  0  0  0  0  0  0  0  0  0  0  # atno 10167 bound_to 10162
  157.5905  131.1065  150.8008 H   0  0  0  0  0  0  0  0  0  0  0  0  # atno 10718 bound_to 10713
  153.3153  135.6965  153.7079 H   0  0  0  0  0  0  0  0  0  0  0  0  # atno 10763 bound_to 10752
  153.5940  135.3474  155.2922 H   0  0  0  0  0  0  0  0  0  0  0  0  # atno 10764 bound_to 10752
  154.8585  135.4325  154.2302 H   0  0  0  0  0  0  0  0  0  0  0  0  # atno 10765 bound_to 10752
  140.5945  134.5010  157.5197 H   0  0  0  0  0  0  0  0  0  0  0  0  # atno 11005 bound_to 11000
  145.5508  141.0413  143.2280 LP  0  0  0  0  0  0  0  0  0  0  0  0  # atno 17320 bound_to 7965
  144.7579  139.7029  143.7246 LP  0  0  0  0  0  0  0  0  0  0  0  0  # atno 17321 bound_to 7965
  139.4803  144.5903  151.7783 LP  0  0  0  0  0  0  0  0  0  0  0  0  # atno 17342 bound_to 10162
  140.5029  144.1141  150.5975 LP  0  0  0  0  0  0  0  0  0  0  0  0  # atno 17343 bound_to 10162
  156.8431  130.5055  149.5319 LP  0  0  0  0  0  0  0  0  0  0  0  0  # atno 17370 bound_to 10713
  156.0959  130.5932  150.9812 LP  0  0  0  0  0  0  0  0  0  0  0  0  # atno 17371 bound_to 10713
  139.9259  134.8057  156.1070 LP  0  0  0  0  0  0  0  0  0  0  0  0  # atno 17394 bound_to 11000
  141.0913  133.6713  156.2546 LP  0  0  0  0  0  0  0  0  0  0  0  0  # atno 17395 bound_to 11000

$$$$
