AV-unprocessed.smi:1169|AV-procd|sdf|4940|dock7
  -GOLD-   22720 3523D 1   1.00000     0.00000
 Structure written by MMmdl.
 29 30  0  0  0  0  0  0  0  0  1 V2000
  152.4725  140.0268  155.2644 O   0  0  0  0  0  0  0  0  0  0  0  0
  151.7472  140.1710  156.2481 C   0  0  0  0  0  0  0  0  0  0  0  0
  152.2326  139.6997  157.6242 C   0  0  0  0  0  0  0  0  0  0  0  0
  152.3181  140.7848  158.5885 N   0  0  0  0  0  0  0  0  0  0  0  0
  152.8335  140.7558  159.8667 C   0  0  0  0  0  0  0  0  0  0  0  0
  152.6856  142.0069  160.3920 C   0  0  0  0  0  0  0  0  0  0  0  0
  152.0638  142.7509  159.3474 C   0  0  0  0  0  0  0  0  0  0  0  0
  151.6528  144.1997  159.3489 C   0  0  0  0  0  0  0  0  0  0  0  0
  152.3407  144.8765  158.4295 F   0  0  0  0  0  0  0  0  0  0  0  0
  150.3527  144.3041  159.0746 F   0  0  0  0  0  0  0  0  0  0  0  0
  151.8905  144.7390  160.5443 F   0  0  0  0  0  0  0  0  0  0  0  0
  151.8493  142.0101  158.2683 N   0  0  0  0  0  0  0  0  0  0  0  0
  150.5182  140.7085  156.1812 N   0  0  0  0  0  0  0  0  0  0  0  0
  149.8763  141.1892  154.9655 C   0  0  0  0  0  0  0  0  0  0  0  0
  148.3842  140.9297  154.8917 C   0  0  0  0  0  0  0  0  0  0  0  0
  147.6526  141.0283  153.5738 C   0  0  0  0  0  0  0  0  0  0  0  0
  147.4101  142.0587  154.6510 C   0  0  0  0  0  0  0  0  0  0  0  0
  151.5482  138.9414  158.0059 H   0  0  0  0  0  0  0  0  0  0  0  0
  153.2132  139.2294  157.5337 H   0  0  0  0  0  0  0  0  0  0  0  0
  153.2537  139.8565  160.2926 H   0  0  0  0  0  0  0  0  0  0  0  0
  152.9776  142.3417  161.3763 H   0  0  0  0  0  0  0  0  0  0  0  0
  149.9896  140.7898  157.0375 H   0  0  0  0  0  0  0  0  0  0  0  0
  150.0573  142.2621  154.8916 H   0  0  0  0  0  0  0  0  0  0  0  0
  150.3537  140.7400  154.0931 H   0  0  0  0  0  0  0  0  0  0  0  0
  148.0439  140.1366  155.5551 H   0  0  0  0  0  0  0  0  0  0  0  0
  148.2206  141.3408  152.6997 H   0  0  0  0  0  0  0  0  0  0  0  0
  146.8625  140.3051  153.3825 H   0  0  0  0  0  0  0  0  0  0  0  0
  146.4598  142.0213  155.1796 H   0  0  0  0  0  0  0  0  0  0  0  0
  147.8170  143.0558  154.4941 H   0  0  0  0  0  0  0  0  0  0  0  0
  1  2  2  0  0  0  0
  2  3  1  0  0  0  0
  2 13  1  0  0  0  0
  3  4  1  0  0  0  0
  3 18  1  0  0  0  0
  3 19  1  0  0  0  0
  4 12  1  0  0  0  0
  4  5  1  0  0  0  0
  5  6  2  0  0  0  0
  5 20  1  0  0  0  0
  6  7  1  0  0  0  0
  6 21  1  0  0  0  0
  7  8  1  0  0  0  0
  7 12  2  0  0  0  0
  8  9  1  0  0  0  0
  8 10  1  0  0  0  0
  8 11  1  0  0  0  0
 13 14  1  0  0  0  0
 13 22  1  0  0  0  0
 14 15  1  0  0  0  0
 14 23  1  0  0  0  0
 14 24  1  0  0  0  0
 15 17  1  0  0  0  0
 15 16  1  0  0  0  0
 15 25  1  0  0  0  0
 16 17  1  0  0  0  0
 16 26  1  0  0  0  0
 16 27  1  0  0  0  0
 17 28  1  0  0  0  0
 17 29  1  0  0  0  0
M  END
> <s_m_source_file>
AV-unprocessed.smi

> <i_m_source_file_index>
1169

> <i_lp_mmshare_version>
43012

> <i_f3d_flags>
0

> <s_epik_input>
W0NIMl0xW0NIMl1bQ0hdMVtDSDJdW05IXUMoPU8pW0NIMl1uMltjSF1bY0hdYyhuMilDKEYpKEYpRg==

> <s_epik_cmdline>
J2VwaWtfcHl0aG9uJywgJy1waCcsICc3LjAnLCAnLXRuJywgJzgnLCAnLW1hJywgJzIwMCcsICctbWV0YWxfYmluZGluZycsICctaW1hZScsICc8aW5maWxlLm1hZT4nLCAnLW9tYWUnLCAnPG91dGZpbGUubWFlPic=

> <r_lp_tautomer_probability>
1

> <r_epik_Ionization_Penalty>
8.05593e-08

> <r_epik_Ionization_Penalty_Charging>
0

> <r_epik_Ionization_Penalty_Neutral>
8.05593e-08

> <r_epik_State_Penalty>
-0

> <r_epik_Charging_Adjusted_Penalty>
0

> <i_epik_Tot_Q>
0

> <i_epik_Tot_abs_Q>
0

> <r_epik_Metal_State_Penalty>
-0

> <b_epik_Metal_Only>
0

> <s_lp_Force_Field>
OPLS_2005

> <r_lp_Energy>
14.9907

> <b_lp_Chiralities_Consistent>
1

> <s_lp_Variant>
AV-unprocessed.smi:1169-1

> <Gold.Version>
5.8.1

> <Gold.Id.Protein>
6NUR|6NUR_protein|mol2

> <Gold.PLP.Fitness>
45.8252

> <Gold.PLP.PLP>
-42.4266

> <Gold.PLP.part.hbond>
-1.9342

> <Gold.PLP.part.metal>
0.0000

> <Gold.PLP.part.buried>
-2.7560

> <Gold.PLP.part.nonpolar>
-36.9235

> <Gold.PLP.part.repulsive>
0.0915

> <Gold.PLP.ligand.clash>
0.0000

> <Gold.PLP.ligand.torsion>
0.6817

> <Gold.PLP.Chemscore.Hbond>
1.4069

> <Gold.PLP.Chemscore.CHOScore>
0.0000

> <Gold.PLP.Chemscore.Metal>
0.0000

> <Gold.Chemscore.Hbonds>
donor molecule, donor type, donor heavy atom, donor atom, acceptor molecule, acceptor atom, score
      P1  H  7989  7998       L1     1  0.49
      P1  H  7997  8009       L1     1  0.91

> <Gold.PLP.Chemscore.Internal.Correction>
0.5416

> <Gold.Rescore>
     Score         DG    S(hbond)    S(metal)    S(lipo)     H(rot)  DE(clash)    DE(int)     intcor
     11.97     -12.68       0.94        0.00      74.80       1.84       0.04       0.66       ----

> <Gold.Chemscore.Fitness>
11.9745

> <Gold.Chemscore.DG>
-12.6822

> <Gold.Chemscore.ZeroCoef>
-5.4800

> <Gold.Chemscore.Hbond>
0.9433

> <Gold.Chemscore.Metal>
0.0000

> <Gold.Chemscore.Lipo>
74.7993

> <Gold.Chemscore.Internal_Hbond>
0.0000

> <Gold.Chemscore.DEClash>
0.0439

> <Gold.Chemscore.DEInternal>
0.6639

> <Gold.Chemscore.Rot>
1.8359

> <Gold.Chemscore.Internal.Correction>
   9.000000E+99

> <Gold.Chemscore.Hbonds>
donor molecule, donor type, donor heavy atom, donor atom, acceptor molecule, acceptor atom, score
      P1  H  7989  7998       L1     1  0.43
      P1  H  7997  8009       L1     1  0.40

> <Gold.Chemscore.Hbond.Weighted>
-3.1507

> <Gold.Chemscore.Metal.Weighted>
-0.0000

> <Gold.Chemscore.Lipo.Weighted>
-8.7515

> <Gold.Chemscore.Internal_Hbond.Weighted>
0.0000

> <Gold.Chemscore.DEClash.Weighted>
0.0439

> <Gold.Chemscore.DEInternal.Weighted>
0.6639

> <Gold.Chemscore.Rot.Weighted>
4.7000

> <Gold.Chemscore.Internal.Correction.Weighted>
   9.000000E+99

> <Gold.Protein.RotatedTorsions>
[ 6907 6896 6895 6894 ] final  112.97 input  -60.11 | X-H torsion
[ 7974 7965 7964 7962 ] final  176.58 input  175.53 | X-H torsion
[ 8008 7997 7996 7995 ] final -144.29 input   59.86 | X-H torsion
[ 10167 10162 10161 10158 ] final  100.73 input  -65.29 | X-H torsion
[ 10718 10713 10712 10709 ] final   -7.81 input   66.30 | X-H torsion
[ 10763 10752 10751 10750 ] final  -58.54 input  -60.55 | X-H torsion
[ 11005 11000 10999 10996 ] final -110.09 input  -57.11 | X-H torsion

> <Gold.Protein.ActiveResidues>
 VAL166  LYS551  ARG553  GLY616  TRP617  ASP618  TYR619  PRO620  LYS621  CYS622 
 ASP623  PHE694  ASN695  SER759  ASP760  ASP761  ALA762  ILE779  LEU786  VAL792 
 PHE793  MET794  SER795  GLU796  ALA797  LYS798  CYS799  TRP800  GLU811  SER814 

> <Gold.Protein.RotatedAtoms>
  152.4887  133.8442  159.7167 H   0  0  0  0  0  0  0  0  0  0  0  0  # atno 6907 bound_to 6896
  150.8997  133.7126  159.2889 H   0  0  0  0  0  0  0  0  0  0  0  0  # atno 6908 bound_to 6896
  151.4571  135.1039  159.9766 H   0  0  0  0  0  0  0  0  0  0  0  0  # atno 6909 bound_to 6896
  144.7182  140.0118  143.6440 H   0  0  0  0  0  0  0  0  0  0  0  0  # atno 7974 bound_to 7965
  155.5246  140.0594  157.2900 H   0  0  0  0  0  0  0  0  0  0  0  0  # atno 8008 bound_to 7997
  154.4506  140.1946  156.0478 H   0  0  0  0  0  0  0  0  0  0  0  0  # atno 8009 bound_to 7997
  156.0695  140.3262  155.7562 H   0  0  0  0  0  0  0  0  0  0  0  0  # atno 8010 bound_to 7997
  139.7501  144.6986  151.0445 H   0  0  0  0  0  0  0  0  0  0  0  0  # atno 10167 bound_to 10162
  156.7118  130.5124  149.5890 H   0  0  0  0  0  0  0  0  0  0  0  0  # atno 10718 bound_to 10713
  154.2397  135.6345  153.5203 H   0  0  0  0  0  0  0  0  0  0  0  0  # atno 10763 bound_to 10752
  152.9932  135.5539  154.5923 H   0  0  0  0  0  0  0  0  0  0  0  0  # atno 10764 bound_to 10752
  154.5426  135.2896  155.1056 H   0  0  0  0  0  0  0  0  0  0  0  0  # atno 10765 bound_to 10752
  141.0811  133.9217  157.2285 H   0  0  0  0  0  0  0  0  0  0  0  0  # atno 11005 bound_to 11000
  146.0252  139.3286  143.0789 LP  0  0  0  0  0  0  0  0  0  0  0  0  # atno 17320 bound_to 7965
  145.8520  140.9523  143.0745 LP  0  0  0  0  0  0  0  0  0  0  0  0  # atno 17321 bound_to 7965
  140.7797  143.4820  151.0006 LP  0  0  0  0  0  0  0  0  0  0  0  0  # atno 17342 bound_to 10162
  139.8507  143.7442  152.3178 LP  0  0  0  0  0  0  0  0  0  0  0  0  # atno 17343 bound_to 10162
  156.1655  130.6403  151.0773 LP  0  0  0  0  0  0  0  0  0  0  0  0  # atno 17370 bound_to 10713
  157.6933  131.0803  150.7044 LP  0  0  0  0  0  0  0  0  0  0  0  0  # atno 17371 bound_to 10713
  139.9625  135.0150  156.9300 LP  0  0  0  0  0  0  0  0  0  0  0  0  # atno 17394 bound_to 11000
  140.5465  134.0668  155.7356 LP  0  0  0  0  0  0  0  0  0  0  0  0  # atno 17395 bound_to 11000

$$$$
