#       Name:                AV-unprocessed.smi:31
#       Creating user name   scv26
#       Creation time:       Thu Mar 26 15:46:35 2020


#       File generated by GOLD software.
#

@<TRIPOS>MOLECULE
AV-unprocessed.smi:31
    61    64     1
SMALL
NO_CHARGES


@<TRIPOS>ATOM
      1 ****         0.1710   0.6913  -0.2412 O.2            1 S1                 0.0000
      2 ****         0.6795   0.3905  -1.3222 C.2            1 S1                 0.0000
      3 ****         2.2065   0.4076  -1.4978 C.3            1 S1                 0.0000
      4 ****         2.9428   0.6566  -0.2389 N.am           1 S1                 0.0000
      5 ****         3.2769   1.9905   0.1038 C.2            1 S1                 0.0000
      6 ****         2.9827   2.9325  -0.6336 O.2            1 S1                 0.0000
      7 ****         3.9709   2.1590   1.3756 C.2            1 S1                 0.0000
      8 ****         4.3226   3.3901   1.7841 F              1 S1                 0.0000
      9 ****         4.2612   1.0969   2.1546 C.2            1 S1                 0.0000
     10 ****         3.9301  -0.1999   1.8065 N.am           1 S1                 0.0000
     11 ****         4.2480  -1.3657   2.7164 C.3            1 S1                 0.0000
     12 ****         3.0584  -1.6564   3.6382 C.3            1 S1                 0.0000
     13 ****         3.4194  -0.8592   4.8723 C.3            1 S1                 0.0000
     14 ****         4.9368  -1.0028   4.8961 C.3            1 S1                 0.0000
     15 ****         5.3368  -1.0299   3.5282 O.3            1 S1                 0.0000
     16 ****         3.2471  -0.4452   0.5957 C.2            1 S1                 0.0000
     17 ****         2.9138  -1.5900   0.2812 O.2            1 S1                 0.0000
     18 ****        -0.0154   0.0139  -2.4110 N.am           1 S1                 0.0000
     19 ****        -1.4227  -0.1164  -2.5586 C.ar           1 S1                 0.0000
     20 ****        -1.8914  -1.0074  -3.5421 C.ar           1 S1                 0.0000
     21 ****        -3.2725  -1.1874  -3.7368 C.ar           1 S1                 0.0000
     22 ****        -4.2106  -0.4762  -2.9625 C.ar           1 S1                 0.0000
     23 ****        -3.7452   0.4830  -2.0157 C.ar           1 S1                 0.0000
     24 ****        -2.3587   0.6356  -1.8108 C.ar           1 S1                 0.0000
     25 ****        -4.5668   1.3097  -1.2806 O.3            1 S1                 0.0000
     26 ****        -5.7587   1.7394  -1.9218 C.3            1 S1                 0.0000
     27 ****        -6.8718   0.7001  -1.7735 C.3            1 S1                 0.0000
     28 ****        -6.3781  -0.7253  -2.0292 C.3            1 S1                 0.0000
     29 ****        -5.5379  -0.7793  -3.1728 O.3            1 S1                 0.0000
     30 ****         2.5184  -0.5387  -1.9431 H              1 S1                 0.0000
     31 ****         2.4560   1.1507  -2.2567 H              1 S1                 0.0000
     32 ****         4.7683   1.2837   3.0894 H              1 S1                 0.0000
     33 ****         4.5188  -2.1975   2.0644 H              1 S1                 0.0000
     34 ****         2.1040  -1.3768   3.1901 H              1 S1                 0.0000
     35 ****         3.0448  -2.7235   3.8632 H              1 S1                 0.0000
     36 ****         3.1389   0.1867   4.7423 H              1 S1                 0.0000
     37 ****         2.9410  -1.2311   5.7786 H              1 S1                 0.0000
     38 ****         5.4270  -0.1958   5.4407 H              1 S1                 0.0000
     39 ****         5.2203  -1.9479   5.3611 H              1 S1                 0.0000
     40 ****         0.5339  -0.2908  -3.2015 H              1 S1                 0.0000
     41 ****        -1.1926  -1.5747  -4.1398 H              1 S1                 0.0000
     42 ****        -3.6166  -1.8995  -4.4724 H              1 S1                 0.0000
     43 ****        -2.0308   1.3698  -1.0913 H              1 S1                 0.0000
     44 ****        -6.0753   2.6813  -1.4734 H              1 S1                 0.0000
     45 ****        -5.5682   1.9567  -2.9748 H              1 S1                 0.0000
     46 ****        -7.2992   0.7515  -0.7718 H              1 S1                 0.0000
     47 ****        -7.6780   0.9451  -2.4654 H              1 S1                 0.0000
     48 ****        -5.8567  -1.1185  -1.1542 H              1 S1                 0.0000
     49 ****        -7.2309  -1.3846  -2.1913 H              1 S1                 0.0000
     50 ****         0.7526   0.9491   0.5304 LP             1 S1                 0.0000
     51 ****        -0.8232   0.6776  -0.1353 LP             1 S1                 0.0000
     52 ****         2.4991   2.7631  -1.4923 LP             1 S1                 0.0000
     53 ****         3.2276   3.8665  -0.3734 LP             1 S1                 0.0000
     54 ****         5.6795  -0.1279   3.2658 LP             1 S1                 0.0000
     55 ****         6.0608  -1.7093   3.4086 LP             1 S1                 0.0000
     56 ****         2.4213  -1.7502  -0.5741 LP             1 S1                 0.0000
     57 ****         3.1361  -2.3583   0.8816 LP             1 S1                 0.0000
     58 ****        -4.0407   2.1244  -1.0366 LP             1 S1                 0.0000
     59 ****        -4.8273   0.8197  -0.4486 LP             1 S1                 0.0000
     60 ****        -5.5848  -1.7070  -3.5432 LP             1 S1                 0.0000
     61 ****        -5.8962  -0.1329  -3.8463 LP             1 S1                 0.0000
@<TRIPOS>BOND
    1    1    2 2     
    2    2    3 1     
    3    2   18 am    
    4    3    4 1     
    5    3   30 1     
    6    3   31 1     
    7    4   16 am    
    8    4    5 am    
    9    5    6 2     
   10    5    7 1     
   11    7    8 1     
   12    7    9 2     
   13    9   10 1     
   14    9   32 1     
   15   10   11 1     
   16   10   16 am    
   17   11   15 1     
   18   11   12 1     
   19   11   33 1     
   20   12   13 1     
   21   12   34 1     
   22   12   35 1     
   23   13   14 1     
   24   13   36 1     
   25   13   37 1     
   26   14   15 1     
   27   14   38 1     
   28   14   39 1     
   29   16   17 2     
   30   18   19 1     
   31   18   40 1     
   32   19   24 ar    
   33   19   20 ar    
   34   20   21 ar    
   35   20   41 1     
   36   21   22 ar    
   37   21   42 1     
   38   22   29 1     
   39   22   23 ar    
   40   23   24 ar    
   41   23   25 1     
   42   24   43 1     
   43   25   26 1     
   44   26   27 1     
   45   26   44 1     
   46   26   45 1     
   47   27   28 1     
   48   27   46 1     
   49   27   47 1     
   50   28   29 1     
   51   28   48 1     
   52   28   49 1     
   53    1   50 1     
   54    1   51 1     
   55    6   52 1     
   56    6   53 1     
   57   15   54 1     
   58   15   55 1     
   59   17   56 1     
   60   17   57 1     
   61   25   58 1     
   62   25   59 1     
   63   29   60 1     
   64   29   61 1     
@<TRIPOS>SUBSTRUCTURE
      1 S1             1
@<TRIPOS>SET
LONE_PAIRS      STATIC     ATOMS    <user>   **** ""
12 50 51 52 53 54 55 56 57 58 59 60 61
DONOR_HYDROGENS      STATIC     ATOMS    <user>   **** ""
1 40
ATOM$BLUE        STATIC     ATOMS    COLORGROUP SYSTEM
12 50 51 52 53 54 55 56 57 58 59 60 61
ATOM$RED        STATIC     ATOMS    COLORGROUP SYSTEM
1 40
