#       Name:                AV-unprocessed.smi:987
#       Creating user name   scv26
#       Creation time:       Fri Mar 27 02:22:45 2020


#       File generated by GOLD software.
#

@<TRIPOS>MOLECULE
AV-unprocessed.smi:987
    58    60     1
SMALL
NO_CHARGES


@<TRIPOS>ATOM
      1 ****        -6.3805   1.5536   1.0655 C.3            1 S1                 0.0000
      2 ****        -5.6509   0.3051   0.5588 C.3            1 S1                 0.0000
      3 ****        -4.1662   0.5866   0.2652 C.3            1 S1                 0.0000
      4 ****        -3.5351  -0.5869  -0.3317 N.3            1 S1                 0.0000
      5 ****        -2.1261  -0.6191  -0.4027 C.ar           1 S1                 0.0000
      6 ****        -1.4610  -1.8296  -0.7072 C.ar           1 S1                 0.0000
      7 ****        -0.0553  -1.8405  -0.7785 C.ar           1 S1                 0.0000
      8 ****         0.6556  -0.6457  -0.5547 C.ar           1 S1                 0.0000
      9 ****         2.0747  -0.6901  -0.6172 N.am           1 S1                 0.0000
     10 ****         2.9355   0.3249  -0.8054 C.2            1 S1                 0.0000
     11 ****         2.6199   1.4977  -1.0030 O.2            1 S1                 0.0000
     12 ****         4.2039  -0.1063  -0.7709 N.am           1 S1                 0.0000
     13 ****         5.3855   0.7378  -0.9227 C.3            1 S1                 0.0000
     14 ****         5.8400   1.3588   0.4104 C.3            1 S1                 0.0000
     15 ****         5.2298   2.6339   0.4572 O.3            1 S1                 0.0000
     16 ****         5.7066   0.5330   1.7055 C.3            1 S1                 0.0000
     17 ****         7.0782   1.0447   2.1483 C.3            1 S1                 0.0000
     18 ****         7.3547   1.4061   0.6876 C.3            1 S1                 0.0000
     19 ****        -0.0932   0.5129  -0.2394 C.ar           1 S1                 0.0000
     20 ****        -1.4411   0.5263  -0.1658 N.ar           1 S1                 0.0000
     21 ****        -4.2304  -1.0705  -1.5211 C.3            1 S1                 0.0000
     22 ****        -5.7278  -1.2974  -1.2340 C.3            1 S1                 0.0000
     23 ****        -6.0079  -2.5704  -0.4153 C.3            1 S1                 0.0000
     24 ****        -6.2997  -0.1324  -0.6347 O.3            1 S1                 0.0000
     25 ****        -5.9326   1.9218   1.9888 H              1 S1                 0.0000
     26 ****        -7.4293   1.3365   1.2689 H              1 S1                 0.0000
     27 ****        -6.3434   2.3583   0.3307 H              1 S1                 0.0000
     28 ****        -5.7328  -0.4659   1.3252 H              1 S1                 0.0000
     29 ****        -4.0694   1.4324  -0.4173 H              1 S1                 0.0000
     30 ****        -3.6589   0.8556   1.1928 H              1 S1                 0.0000
     31 ****        -2.0101  -2.7448  -0.8712 H              1 S1                 0.0000
     32 ****         0.4674  -2.7583  -1.0049 H              1 S1                 0.0000
     33 ****         2.4820  -1.6116  -0.5564 H              1 S1                 0.0000
     34 ****         4.3671  -1.0897  -0.6127 H              1 S1                 0.0000
     35 ****         6.1683   0.0890  -1.3157 H              1 S1                 0.0000
     36 ****         5.2256   1.4921  -1.6961 H              1 S1                 0.0000
     37 ****         5.4923   3.0374   1.2703 H              1 S1                 0.0000
     38 ****         4.8833   0.8311   2.3559 H              1 S1                 0.0000
     39 ****         5.7036  -0.5440   1.5297 H              1 S1                 0.0000
     40 ****         7.0133   1.9208   2.7951 H              1 S1                 0.0000
     41 ****         7.7384   0.2818   2.5619 H              1 S1                 0.0000
     42 ****         7.9132   0.6277   0.1652 H              1 S1                 0.0000
     43 ****         7.8186   2.3837   0.5500 H              1 S1                 0.0000
     44 ****         0.3788   1.4567  -0.0161 H              1 S1                 0.0000
     45 ****        -4.1191  -0.3215  -2.3064 H              1 S1                 0.0000
     46 ****        -3.7913  -1.9906  -1.9053 H              1 S1                 0.0000
     47 ****        -6.2323  -1.4233  -2.1923 H              1 S1                 0.0000
     48 ****        -5.6813  -3.4573  -0.9586 H              1 S1                 0.0000
     49 ****        -7.0744  -2.6788  -0.2178 H              1 S1                 0.0000
     50 ****        -5.4879  -2.5698   0.5422 H              1 S1                 0.0000
     51 ****        -3.6743  -1.2822   0.3734 LP             1 S1                 0.0000
     52 ****         1.6547   1.7574  -1.0332 LP             1 S1                 0.0000
     53 ****         3.3286   2.1910  -1.1334 LP             1 S1                 0.0000
     54 ****         4.2348   2.5394   0.4266 LP             1 S1                 0.0000
     55 ****         5.5359   3.1893  -0.3160 LP             1 S1                 0.0000
     56 ****        -1.9277   1.3700   0.0605 LP             1 S1                 0.0000
     57 ****        -6.2601   0.6119  -1.3013 LP             1 S1                 0.0000
     58 ****        -7.2544  -0.3324  -0.4146 LP             1 S1                 0.0000
@<TRIPOS>BOND
    1    1    2 1     
    2    1   25 1     
    3    1   26 1     
    4    1   27 1     
    5    2   24 1     
    6    2    3 1     
    7    2   28 1     
    8    3    4 1     
    9    3   29 1     
   10    3   30 1     
   11    4    5 1     
   12    4   21 1     
   13    5   20 ar    
   14    5    6 ar    
   15    6    7 ar    
   16    6   31 1     
   17    7    8 ar    
   18    7   32 1     
   19    8    9 1     
   20    8   19 ar    
   21    9   10 am    
   22    9   33 1     
   23   10   11 2     
   24   10   12 am    
   25   12   13 1     
   26   12   34 1     
   27   13   14 1     
   28   13   35 1     
   29   13   36 1     
   30   14   18 1     
   31   14   15 1     
   32   14   16 1     
   33   15   37 1     
   34   16   17 1     
   35   16   38 1     
   36   16   39 1     
   37   17   18 1     
   38   17   40 1     
   39   17   41 1     
   40   18   42 1     
   41   18   43 1     
   42   19   20 ar    
   43   19   44 1     
   44   21   22 1     
   45   21   45 1     
   46   21   46 1     
   47   22   23 1     
   48   22   24 1     
   49   22   47 1     
   50   23   48 1     
   51   23   49 1     
   52   23   50 1     
   53    4   51 1     
   54   11   52 1     
   55   11   53 1     
   56   15   54 1     
   57   15   55 1     
   58   20   56 1     
   59   24   57 1     
   60   24   58 1     
@<TRIPOS>SUBSTRUCTURE
      1 S1             1
@<TRIPOS>SET
LONE_PAIRS      STATIC     ATOMS    <user>   **** ""
8 51 52 53 54 55 56 57 58
DONOR_HYDROGENS      STATIC     ATOMS    <user>   **** ""
3 33 34 37
ATOM$BLUE        STATIC     ATOMS    COLORGROUP SYSTEM
8 51 52 53 54 55 56 57 58
ATOM$RED        STATIC     ATOMS    COLORGROUP SYSTEM
3 33 34 37
