AV-unprocessed.smi:3268|AV-procd|sdf|12509|dock5
  -GOLD-   2272018413D 1   1.00000     0.00000
 Structure written by MMmdl.
 40 41  0  0  0  0  0  0  0  0  2 V2000
  146.9427  142.3001  154.0763 C   0  0  0  0  0  0  0  0  0  0  0  0
  147.7944  141.0870  153.6494 C   0  0  1  0  0  0  0  0  0  0  0  0
  149.0110  140.8545  154.5629 C   0  0  0  0  0  0  0  0  0  0  0  0
  150.0718  140.4265  154.1061 O   0  0  0  0  0  0  0  0  0  0  0  0
  148.8432  141.1358  155.8656 N   0  0  0  0  0  0  0  0  0  0  0  0
  149.8805  141.0199  156.8835 C   0  0  0  0  0  0  0  0  0  0  0  0
  150.8210  142.2406  156.8768 C   0  0  0  0  0  0  0  0  0  0  0  0
  151.2700  142.6212  158.2403 N   0  3  0  0  0  0  0  0  0  0  0  0
  151.8904  143.9722  158.2677 C   0  0  0  0  0  0  0  0  0  0  0  0
  152.2173  144.4078  159.7062 C   0  0  0  0  0  0  0  0  0  0  0  0
  153.1202  143.3805  160.4005 C   0  0  0  0  0  0  0  0  0  0  0  0
  152.4777  141.9895  160.3317 C   0  0  0  0  0  0  0  0  0  0  0  0
  152.1493  141.6048  158.8791 C   0  0  0  0  0  0  0  0  0  0  0  0
  146.9898  139.8754  153.5448 N   0  0  0  0  0  0  0  0  0  0  0  0
  146.8090  139.0507  152.5110 C   0  0  0  0  0  0  0  0  0  0  0  0
  146.0298  138.0126  152.7798 N   0  0  0  0  0  0  0  0  0  0  0  0
  145.7454  138.2739  154.0900 C   0  0  0  0  0  0  0  0  0  0  0  0
  146.3019  139.3724  154.6003 N   0  0  0  0  0  0  0  0  0  0  0  0
  147.5331  143.2169  154.0770 H   0  0  0  0  0  0  0  0  0  0  0  0
  146.5255  142.1743  155.0763 H   0  0  0  0  0  0  0  0  0  0  0  0
  146.1097  142.4503  153.3890 H   0  0  0  0  0  0  0  0  0  0  0  0
  148.1844  141.3000  152.6527 H   0  0  0  0  0  0  0  0  0  0  0  0
  147.9424  141.4805  156.1649 H   0  0  0  0  0  0  0  0  0  0  0  0
  149.4251  140.8927  157.8672 H   0  0  0  0  0  0  0  0  0  0  0  0
  150.4303  140.1030  156.6756 H   0  0  0  0  0  0  0  0  0  0  0  0
  151.6872  142.0595  156.2385 H   0  0  0  0  0  0  0  0  0  0  0  0
  150.2851  143.0828  156.4366 H   0  0  0  0  0  0  0  0  0  0  0  0
  152.7966  143.9696  157.6598 H   0  0  0  0  0  0  0  0  0  0  0  0
  151.2119  144.7007  157.8219 H   0  0  0  0  0  0  0  0  0  0  0  0
  152.7019  145.3848  159.6994 H   0  0  0  0  0  0  0  0  0  0  0  0
  151.2924  144.5249  160.2724 H   0  0  0  0  0  0  0  0  0  0  0  0
  154.0975  143.3603  159.9164 H   0  0  0  0  0  0  0  0  0  0  0  0
  153.2906  143.6671  161.4388 H   0  0  0  0  0  0  0  0  0  0  0  0
  153.1457  141.2488  160.7723 H   0  0  0  0  0  0  0  0  0  0  0  0
  151.5650  141.9769  160.9292 H   0  0  0  0  0  0  0  0  0  0  0  0
  151.6682  140.6278  158.8784 H   0  0  0  0  0  0  0  0  0  0  0  0
  153.0693  141.5034  158.3013 H   0  0  0  0  0  0  0  0  0  0  0  0
  147.2598  139.2105  151.5426 H   0  0  0  0  0  0  0  0  0  0  0  0
  145.1144  137.6321  154.6869 H   0  0  0  0  0  0  0  0  0  0  0  0
  150.4356  142.6861  158.8061 H   0  0  0  0  0  0  0  0  0  0  0  0
  1  2  1  0  0  0  0
  1 19  1  0  0  0  0
  1 20  1  0  0  0  0
  1 21  1  0  0  0  0
  2  3  1  0  0  0  0
  2 14  1  0  0  0  0
  2 22  1  0  0  0  0
  3  4  2  0  0  0  0
  3  5  1  0  0  0  0
  5  6  1  0  0  0  0
  5 23  1  0  0  0  0
  6  7  1  0  0  0  0
  6 24  1  0  0  0  0
  6 25  1  0  0  0  0
  7  8  1  0  0  0  0
  7 26  1  0  0  0  0
  7 27  1  0  0  0  0
  8 13  1  0  0  0  0
  8  9  1  0  0  0  0
  8 40  1  0  0  0  0
  9 10  1  0  0  0  0
  9 28  1  0  0  0  0
  9 29  1  0  0  0  0
 10 11  1  0  0  0  0
 10 30  1  0  0  0  0
 10 31  1  0  0  0  0
 11 12  1  0  0  0  0
 11 32  1  0  0  0  0
 11 33  1  0  0  0  0
 12 13  1  0  0  0  0
 12 34  1  0  0  0  0
 12 35  1  0  0  0  0
 13 36  1  0  0  0  0
 13 37  1  0  0  0  0
 14 18  1  0  0  0  0
 14 15  1  0  0  0  0
 15 16  2  0  0  0  0
 15 38  1  0  0  0  0
 16 17  1  0  0  0  0
 17 18  2  0  0  0  0
 17 39  1  0  0  0  0
M  CHG  1   8   1
M  END
> <s_m_source_file>
AV-unprocessed.smi

> <i_m_source_file_index>
3268

> <i_lp_mmshare_version>
43012

> <i_f3d_flags>
0

> <s_epik_input>
bjFbY0hdbltjSF1uMVtDQEhdKFtDSDNdKUMoPU8pW05IXVtDSDJdW0NIMl1OMltDSDJdW0NIMl1bQ0gyXVtDSDJdW0NIMl0y

> <s_epik_cmdline>
J2VwaWtfcHl0aG9uJywgJy1waCcsICc3LjAnLCAnLXRuJywgJzgnLCAnLW1hJywgJzIwMCcsICctbWV0YWxfYmluZGluZycsICctaW1hZScsICc8aW5maWxlLm1hZT4nLCAnLW9tYWUnLCAnPG91dGZpbGUubWFlPic=

> <r_lp_tautomer_probability>
1

> <r_epik_Ionization_Penalty>
0.00266407

> <r_epik_Ionization_Penalty_Charging>
0.00265606

> <r_epik_Ionization_Penalty_Neutral>
8.01095e-06

> <r_epik_State_Penalty>
0.00184955

> <r_epik_Charging_Adjusted_Penalty>
0.00450561

> <i_epik_Tot_Q>
1

> <i_epik_Tot_abs_Q>
1

> <r_epik_Metal_State_Penalty>
-0

> <b_epik_Metal_Only>
0

> <s_lp_Force_Field>
OPLS_2005

> <r_lp_Energy>
21.812

> <b_lp_Chiralities_Consistent>
1

> <s_lp_Variant>
AV-unprocessed.smi:3268-2

> <Gold.Version>
5.8.1

> <Gold.Id.Protein>
6NUR|6NUR_protein|mol2

> <Gold.PLP.Fitness>
40.1478

> <Gold.PLP.PLP>
-37.2747

> <Gold.PLP.part.hbond>
-1.0000

> <Gold.PLP.part.metal>
0.0000

> <Gold.PLP.part.buried>
-5.8067

> <Gold.PLP.part.nonpolar>
-32.5689

> <Gold.PLP.part.repulsive>
1.3397

> <Gold.PLP.ligand.clash>
0.0000

> <Gold.PLP.ligand.torsion>
1.2523

> <Gold.PLP.Chemscore.Hbond>
0.8160

> <Gold.PLP.Chemscore.CHOScore>
0.9323

> <Gold.PLP.Chemscore.Metal>
0.0000

> <Gold.Chemscore.Hbonds>
donor molecule, donor type, donor heavy atom, donor atom, acceptor molecule, acceptor atom, score
      P1  H  7989  7998       L1     4  0.82
      L1  C    15    38       P1  7957  0.93

> <Gold.PLP.Chemscore.Internal.Correction>
0.1328

> <Gold.Rescore>
     Score         DG    S(hbond)    S(metal)    S(lipo)     H(rot)  DE(clash)    DE(int)     intcor
     10.75     -12.49       0.95        0.00      88.86       2.57       0.54       1.20       ----

> <Gold.Chemscore.Fitness>
10.7494

> <Gold.Chemscore.DG>
-12.4851

> <Gold.Chemscore.ZeroCoef>
-5.4800

> <Gold.Chemscore.Hbond>
0.9536

> <Gold.Chemscore.Metal>
0.0000

> <Gold.Chemscore.Lipo>
88.8603

> <Gold.Chemscore.Internal_Hbond>
0.0000

> <Gold.Chemscore.DEClash>
0.5390

> <Gold.Chemscore.DEInternal>
1.1967

> <Gold.Chemscore.Rot>
2.5690

> <Gold.Chemscore.Internal.Correction>
   9.000000E+99

> <Gold.Chemscore.Hbonds>
donor molecule, donor type, donor heavy atom, donor atom, acceptor molecule, acceptor atom, score
      P1  H  7989  7998       L1     4  0.81

> <Gold.Chemscore.Hbond.Weighted>
-3.1850

> <Gold.Chemscore.Metal.Weighted>
-0.0000

> <Gold.Chemscore.Lipo.Weighted>
-10.3967

> <Gold.Chemscore.Internal_Hbond.Weighted>
0.0000

> <Gold.Chemscore.DEClash.Weighted>
0.5390

> <Gold.Chemscore.DEInternal.Weighted>
1.1967

> <Gold.Chemscore.Rot.Weighted>
6.5766

> <Gold.Chemscore.Internal.Correction.Weighted>
   9.000000E+99

> <Gold.Protein.RotatedTorsions>
[ 6907 6896 6895 6894 ] final   85.55 input  -60.11 | X-H torsion
[ 7974 7965 7964 7962 ] final -123.29 input  175.53 | X-H torsion
[ 8008 7997 7996 7995 ] final   26.32 input   59.86 | X-H torsion
[ 10167 10162 10161 10158 ] final  -34.50 input  -65.29 | X-H torsion
[ 10718 10713 10712 10709 ] final  -59.55 input   66.30 | X-H torsion
[ 10763 10752 10751 10750 ] final -121.20 input  -60.55 | X-H torsion
[ 11005 11000 10999 10996 ] final   31.12 input  -57.11 | X-H torsion

> <Gold.Protein.ActiveResidues>
 VAL166  LYS551  ARG553  GLY616  TRP617  ASP618  TYR619  PRO620  LYS621  CYS622 
 ASP623  PHE694  ASN695  SER759  ASP760  ASP761  ALA762  ILE779  LEU786  VAL792 
 PHE793  MET794  SER795  GLU796  ALA797  LYS798  CYS799  TRP800  GLU811  SER814 

> <Gold.Protein.RotatedAtoms>
  152.5377  134.2569  159.8920 H   0  0  0  0  0  0  0  0  0  0  0  0  # atno 6907 bound_to 6896
  151.2530  133.4333  159.2620 H   0  0  0  0  0  0  0  0  0  0  0  0  # atno 6908 bound_to 6896
  151.0521  134.9694  159.8273 H   0  0  0  0  0  0  0  0  0  0  0  0  # atno 6909 bound_to 6896
  145.0203  140.7982  143.4385 H   0  0  0  0  0  0  0  0  0  0  0  0  # atno 7974 bound_to 7965
  155.0254  140.3152  155.4778 H   0  0  0  0  0  0  0  0  0  0  0  0  # atno 8008 bound_to 7997
  156.2884  140.2190  156.5316 H   0  0  0  0  0  0  0  0  0  0  0  0  # atno 8009 bound_to 7997
  154.7416  140.0473  157.0803 H   0  0  0  0  0  0  0  0  0  0  0  0  # atno 8010 bound_to 7997
  140.7184  143.3543  151.2091 H   0  0  0  0  0  0  0  0  0  0  0  0  # atno 10167 bound_to 10162
  156.1054  130.4181  150.0730 H   0  0  0  0  0  0  0  0  0  0  0  0  # atno 10718 bound_to 10713
  154.8662  135.4176  154.2582 H   0  0  0  0  0  0  0  0  0  0  0  0  # atno 10763 bound_to 10752
  153.3515  135.6999  153.6790 H   0  0  0  0  0  0  0  0  0  0  0  0  # atno 10764 bound_to 10752
  153.5728  135.3588  155.2817 H   0  0  0  0  0  0  0  0  0  0  0  0  # atno 10765 bound_to 10752
  140.2872  134.2906  155.7785 H   0  0  0  0  0  0  0  0  0  0  0  0  # atno 11005 bound_to 11000
  145.1905  139.2303  143.5245 LP  0  0  0  0  0  0  0  0  0  0  0  0  # atno 17320 bound_to 7965
  146.3484  140.1700  142.8590 LP  0  0  0  0  0  0  0  0  0  0  0  0  # atno 17321 bound_to 7965
  139.7081  143.9421  152.2935 LP  0  0  0  0  0  0  0  0  0  0  0  0  # atno 17342 bound_to 10162
  139.9137  144.6841  150.8535 LP  0  0  0  0  0  0  0  0  0  0  0  0  # atno 17343 bound_to 10162
  156.8707  130.9523  151.3609 LP  0  0  0  0  0  0  0  0  0  0  0  0  # atno 17370 bound_to 10713
  157.6230  130.8670  149.9141 LP  0  0  0  0  0  0  0  0  0  0  0  0  # atno 17371 bound_to 10713
  141.2152  133.7562  156.9570 LP  0  0  0  0  0  0  0  0  0  0  0  0  # atno 17394 bound_to 11000
  140.1229  134.9405  157.2228 LP  0  0  0  0  0  0  0  0  0  0  0  0  # atno 17395 bound_to 11000

$$$$
