#       Name:                AV-unprocessed.smi:2751
#       Creating user name   scv26
#       Creation time:       Fri Mar 27 15:04:43 2020


#       File generated by GOLD software.
#

@<TRIPOS>MOLECULE
AV-unprocessed.smi:2751
    41    42     1
SMALL
NO_CHARGES


@<TRIPOS>ATOM
      1 ****        -1.7393   1.8547   0.7865 O.2            1 S1                 0.0000
      2 ****        -2.2054   0.7311   0.9784 C.2            1 S1                 0.0000
      3 ****        -1.4511  -0.3680   1.1247 N.am           1 S1                 0.0000
      4 ****         0.0067  -0.3923   1.0934 C.3            1 S1                 0.0000
      5 ****         0.5439  -0.4108  -0.3480 C.3            1 S1                 0.0000
      6 ****         2.0791  -0.4395  -0.4099 C.3            1 S1                 0.0000
      7 ****         2.6010  -0.3249  -1.8554 C.3            1 S1                 0.0000
      8 ****         4.1301  -0.4276  -1.8853 C.3            1 S1                 0.0000
      9 ****         4.5771  -1.6990  -1.1561 C.3            1 S1                 0.0000
     10 ****         3.9535  -1.7561   0.2475 C.3            1 S1                 0.0000
     11 ****         2.5349  -1.6690   0.1521 O.3            1 S1                 0.0000
     12 ****        -3.5141   0.4411   1.0695 N.am           1 S1                 0.0000
     13 ****        -4.6058   1.3411   0.9790 C.2            1 S1                 0.0000
     14 ****        -4.5369   2.6554   0.7614 N.2            1 S1                 0.0000
     15 ****        -5.8577   3.0798   0.7637 C.2            1 S1                 0.0000
     16 ****        -6.6576   1.9881   0.9843 C.2            1 S1                 0.0000
     17 ****        -5.8743   0.8736   1.1220 O.3            1 S1                 0.0000
     18 ****        -1.9170  -1.2509   1.2760 H              1 S1                 0.0000
     19 ****         0.4077   0.4623   1.6410 H              1 S1                 0.0000
     20 ****         0.3380  -1.2834   1.6270 H              1 S1                 0.0000
     21 ****         0.1386  -1.2706  -0.8833 H              1 S1                 0.0000
     22 ****         0.1856   0.4748  -0.8746 H              1 S1                 0.0000
     23 ****         2.4687   0.3917   0.1810 H              1 S1                 0.0000
     24 ****         2.1702  -1.1188  -2.4670 H              1 S1                 0.0000
     25 ****         2.2835   0.6193  -2.2992 H              1 S1                 0.0000
     26 ****         4.4925  -0.4299  -2.9136 H              1 S1                 0.0000
     27 ****         4.5658   0.4466  -1.3998 H              1 S1                 0.0000
     28 ****         4.2696  -2.5762  -1.7268 H              1 S1                 0.0000
     29 ****         5.6647  -1.7339  -1.0889 H              1 S1                 0.0000
     30 ****         4.2168  -2.6938   0.7368 H              1 S1                 0.0000
     31 ****         4.3359  -0.9510   0.8768 H              1 S1                 0.0000
     32 ****        -3.7563  -0.5253   1.2302 H              1 S1                 0.0000
     33 ****        -6.1223   4.1157   0.6107 H              1 S1                 0.0000
     34 ****        -7.7248   1.8447   1.0660 H              1 S1                 0.0000
     35 ****        -0.7490   1.9827   0.7326 LP             1 S1                 0.0000
     36 ****        -2.3512   2.6391   0.6846 LP             1 S1                 0.0000
     37 ****         2.2091  -2.4200  -0.4222 LP             1 S1                 0.0000
     38 ****         2.1493  -1.7600   1.0703 LP             1 S1                 0.0000
     39 ****        -3.7163   3.2108   0.6267 LP             1 S1                 0.0000
     40 ****        -6.0008   0.4599   2.0236 LP             1 S1                 0.0000
     41 ****        -6.0867   0.2005   0.4136 LP             1 S1                 0.0000
@<TRIPOS>BOND
    1    1    2 2     
    2    2    3 am    
    3    2   12 am    
    4    3    4 1     
    5    3   18 1     
    6    4    5 1     
    7    4   19 1     
    8    4   20 1     
    9    5    6 1     
   10    5   21 1     
   11    5   22 1     
   12    6   11 1     
   13    6    7 1     
   14    6   23 1     
   15    7    8 1     
   16    7   24 1     
   17    7   25 1     
   18    8    9 1     
   19    8   26 1     
   20    8   27 1     
   21    9   10 1     
   22    9   28 1     
   23    9   29 1     
   24   10   11 1     
   25   10   30 1     
   26   10   31 1     
   27   12   13 1     
   28   12   32 1     
   29   13   17 1     
   30   13   14 2     
   31   14   15 1     
   32   15   16 2     
   33   15   33 1     
   34   16   17 1     
   35   16   34 1     
   36    1   35 1     
   37    1   36 1     
   38   11   37 1     
   39   11   38 1     
   40   14   39 1     
   41   17   40 1     
   42   17   41 1     
@<TRIPOS>SUBSTRUCTURE
      1 S1             1
@<TRIPOS>SET
LONE_PAIRS      STATIC     ATOMS    <user>   **** ""
7 35 36 37 38 39 40 41
DONOR_HYDROGENS      STATIC     ATOMS    <user>   **** ""
2 18 32
ATOM$BLUE        STATIC     ATOMS    COLORGROUP SYSTEM
7 35 36 37 38 39 40 41
ATOM$RED        STATIC     ATOMS    COLORGROUP SYSTEM
2 18 32
