AV-unprocessed.smi:485|AV-procd|sdf|2693|dock3
  -GOLD-   2262023123D 1   1.00000     0.00000
 Structure written by MMmdl.
 37 39  0  0  0  0  0  0  0  0  2 V2000
  151.4340  136.3862  154.1072 O   0  0  0  0  0  0  0  0  0  0  0  0
  151.7318  137.6546  154.6473 C   0  0  0  0  0  0  0  0  0  0  0  0
  150.6087  138.6232  154.4709 C   0  0  0  0  0  0  0  0  0  0  0  0
  149.4894  138.4112  153.7235 N   0  3  0  0  0  0  0  0  0  0  0  0
  148.6697  139.5388  153.7681 C   0  0  0  0  0  0  0  0  0  0  0  0
  147.4417  139.7942  153.1654 C   0  0  0  0  0  0  0  0  0  0  0  0
  146.8683  141.0592  153.4085 C   0  0  0  0  0  0  0  0  0  0  0  0
  147.5127  142.0123  154.2229 C   0  0  0  0  0  0  0  0  0  0  0  0
  148.7557  141.7405  154.8306 C   0  0  0  0  0  0  0  0  0  0  0  0
  149.3183  140.4871  154.5859 C   0  0  0  0  0  0  0  0  0  0  0  0
  150.5125  139.8791  154.9967 N   0  0  0  0  0  0  0  0  0  0  0  0
  151.4495  140.6194  155.8589 C   0  0  0  0  0  0  0  0  0  0  0  0
  151.1497  140.4248  157.3587 C   0  0  2  0  0  0  0  0  0  0  0  0
  149.7587  140.5743  157.5530 O   0  0  0  0  0  0  0  0  0  0  0  0
  151.9621  141.3647  158.2386 C   0  0  0  0  0  0  0  0  0  0  0  0
  151.8854  142.7594  158.0337 C   0  0  0  0  0  0  0  0  0  0  0  0
  152.6085  143.6396  158.8615 C   0  0  0  0  0  0  0  0  0  0  0  0
  153.4134  143.1304  159.8987 C   0  0  0  0  0  0  0  0  0  0  0  0
  153.4949  141.7403  160.1074 C   0  0  0  0  0  0  0  0  0  0  0  0
  152.7713  140.8596  159.2803 C   0  0  0  0  0  0  0  0  0  0  0  0
  151.1210  136.5017  153.2227 H   0  0  0  0  0  0  0  0  0  0  0  0
  151.9501  137.5454  155.7098 H   0  0  0  0  0  0  0  0  0  0  0  0
  152.6345  138.0415  154.1753 H   0  0  0  0  0  0  0  0  0  0  0  0
  146.9475  139.0664  152.5387 H   0  0  0  0  0  0  0  0  0  0  0  0
  145.9162  141.3042  152.9602 H   0  0  0  0  0  0  0  0  0  0  0  0
  147.0451  142.9729  154.3844 H   0  0  0  0  0  0  0  0  0  0  0  0
  149.2385  142.4840  155.4469 H   0  0  0  0  0  0  0  0  0  0  0  0
  152.4748  140.3396  155.6184 H   0  0  0  0  0  0  0  0  0  0  0  0
  151.3595  141.6734  155.5946 H   0  0  0  0  0  0  0  0  0  0  0  0
  151.3874  139.3979  157.6383 H   0  0  0  0  0  0  0  0  0  0  0  0
  149.5445  140.2765  158.4242 H   0  0  0  0  0  0  0  0  0  0  0  0
  151.2635  143.1588  157.2458 H   0  0  0  0  0  0  0  0  0  0  0  0
  152.5443  144.7057  158.7014 H   0  0  0  0  0  0  0  0  0  0  0  0
  153.9679  143.8055  160.5339 H   0  0  0  0  0  0  0  0  0  0  0  0
  154.1107  141.3487  160.9036 H   0  0  0  0  0  0  0  0  0  0  0  0
  152.8323  139.7952  159.4546 H   0  0  0  0  0  0  0  0  0  0  0  0
  149.3068  137.5568  153.2129 H   0  0  0  0  0  0  0  0  0  0  0  0
  1  2  1  0  0  0  0
  1 21  1  0  0  0  0
  2  3  1  0  0  0  0
  2 22  1  0  0  0  0
  2 23  1  0  0  0  0
  3 11  1  0  0  0  0
  3  4  2  0  0  0  0
  4  5  1  0  0  0  0
  4 37  1  0  0  0  0
  5 10  2  0  0  0  0
  5  6  1  0  0  0  0
  6  7  2  0  0  0  0
  6 24  1  0  0  0  0
  7  8  1  0  0  0  0
  7 25  1  0  0  0  0
  8  9  2  0  0  0  0
  8 26  1  0  0  0  0
  9 10  1  0  0  0  0
  9 27  1  0  0  0  0
 10 11  1  0  0  0  0
 11 12  1  0  0  0  0
 12 13  1  0  0  0  0
 12 28  1  0  0  0  0
 12 29  1  0  0  0  0
 13 14  1  0  0  0  0
 13 15  1  0  0  0  0
 13 30  1  0  0  0  0
 14 31  1  0  0  0  0
 15 20  1  0  0  0  0
 15 16  2  0  0  0  0
 16 17  1  0  0  0  0
 16 32  1  0  0  0  0
 17 18  2  0  0  0  0
 17 33  1  0  0  0  0
 18 19  1  0  0  0  0
 18 34  1  0  0  0  0
 19 20  2  0  0  0  0
 19 35  1  0  0  0  0
 20 36  1  0  0  0  0
M  CHG  1   4   1
M  END
> <s_m_source_file>
AV-unprocessed.smi

> <i_m_source_file_index>
485

> <i_lp_mmshare_version>
43012

> <i_f3d_flags>
0

> <s_epik_input>
W2NIXTFbY0hdW2NIXVtjSF1jKGMxMiluKGMobjIpW0NIMl1bT0hdKVtDSDJdW0NASF0oW09IXSljM1tjSF1bY0hdW2NIXVtjSF1bY0hdMw==

> <s_epik_cmdline>
J2VwaWtfcHl0aG9uJywgJy1waCcsICc3LjAnLCAnLXRuJywgJzgnLCAnLW1hJywgJzIwMCcsICctbWV0YWxfYmluZGluZycsICctaW1hZScsICc8aW5maWxlLm1hZT4nLCAnLW9tYWUnLCAnPG91dGZpbGUubWFlPic=

> <r_epik_Ionization_Penalty>
1.35643

> <r_epik_Ionization_Penalty_Charging>
1.35557

> <r_epik_Ionization_Penalty_Neutral>
0.000857128

> <r_epik_State_Penalty>
1.43401

> <r_epik_Charging_Adjusted_Penalty>
2.78958

> <i_epik_Tot_Q>
1

> <i_epik_Tot_abs_Q>
1

> <r_epik_Metal_State_Penalty>
5.47166

> <b_epik_Metal_Only>
0

> <s_lp_Force_Field>
OPLS_2005

> <r_lp_Energy>
15.2591

> <b_lp_Chiralities_Consistent>
1

> <s_lp_Variant>
AV-unprocessed.smi:485-3

> <Gold.Version>
5.8.1

> <Gold.Id.Protein>
6NUR|6NUR_protein|mol2

> <Gold.PLP.Fitness>
59.0448

> <Gold.PLP.PLP>
-48.1372

> <Gold.PLP.part.hbond>
-3.9394

> <Gold.PLP.part.metal>
0.0000

> <Gold.PLP.part.buried>
1.2982

> <Gold.PLP.part.nonpolar>
-45.1190

> <Gold.PLP.part.repulsive>
0.0559

> <Gold.PLP.ligand.clash>
0.0000

> <Gold.PLP.ligand.torsion>
0.5710

> <Gold.PLP.Chemscore.Hbond>
4.0000

> <Gold.PLP.Chemscore.CHOScore>
0.0000

> <Gold.PLP.Chemscore.Metal>
0.0000

> <Gold.Chemscore.Hbonds>
donor molecule, donor type, donor heavy atom, donor atom, acceptor molecule, acceptor atom, score
      L1  H     1    21       P1  7949  0.96
      L1  H     4    37       P1  7948  2.00
      P1  H 10752 10763       L1     1  0.95

> <Gold.PLP.Chemscore.Internal.Correction>
0.0497

> <Gold.Rescore>
     Score         DG    S(hbond)    S(metal)    S(lipo)     H(rot)  DE(clash)    DE(int)     intcor
     20.32     -20.92       2.49        0.00     119.91       2.70       0.36       0.24       ----

> <Gold.Chemscore.Fitness>
20.3192

> <Gold.Chemscore.DG>
-20.9182

> <Gold.Chemscore.ZeroCoef>
-5.4800

> <Gold.Chemscore.Hbond>
2.4883

> <Gold.Chemscore.Metal>
0.0000

> <Gold.Chemscore.Lipo>
119.9112

> <Gold.Chemscore.Internal_Hbond>
0.0000

> <Gold.Chemscore.DEClash>
0.3588

> <Gold.Chemscore.DEInternal>
0.2402

> <Gold.Chemscore.Rot>
2.6963

> <Gold.Chemscore.Internal.Correction>
   9.000000E+99

> <Gold.Chemscore.Hbonds>
donor molecule, donor type, donor heavy atom, donor atom, acceptor molecule, acceptor atom, score
      L1  H     1    21       P1  7949  0.37
      L1  H     4    37       P1  7948  0.98
      P1  H 10752 10763       L1     1  0.21

> <Gold.Chemscore.Hbond.Weighted>
-8.3110

> <Gold.Chemscore.Metal.Weighted>
-0.0000

> <Gold.Chemscore.Lipo.Weighted>
-14.0296

> <Gold.Chemscore.Internal_Hbond.Weighted>
0.0000

> <Gold.Chemscore.DEClash.Weighted>
0.3588

> <Gold.Chemscore.DEInternal.Weighted>
0.2402

> <Gold.Chemscore.Rot.Weighted>
6.9024

> <Gold.Chemscore.Internal.Correction.Weighted>
   9.000000E+99

> <Gold.Protein.RotatedTorsions>
[ 6907 6896 6895 6894 ] final -129.35 input  -60.11 | X-H torsion
[ 7974 7965 7964 7962 ] final  -63.06 input  175.53 | X-H torsion
[ 8008 7997 7996 7995 ] final   45.68 input   59.86 | X-H torsion
[ 10167 10162 10161 10158 ] final  136.23 input  -65.29 | X-H torsion
[ 10718 10713 10712 10709 ] final -172.24 input   66.30 | X-H torsion
[ 10763 10752 10751 10750 ] final   52.52 input  -60.55 | X-H torsion
[ 11005 11000 10999 10996 ] final  -36.35 input  -57.11 | X-H torsion

> <Gold.Protein.ActiveResidues>
 VAL166  LYS551  ARG553  GLY616  TRP617  ASP618  TYR619  PRO620  LYS621  CYS622 
 ASP623  PHE694  ASN695  SER759  ASP760  ASP761  ALA762  ILE779  LEU786  VAL792 
 PHE793  MET794  SER795  GLU796  ALA797  LYS798  CYS799  TRP800  GLU811  SER814 

> <Gold.Protein.RotatedAtoms>
  150.9277  133.6803  159.2817 H   0  0  0  0  0  0  0  0  0  0  0  0  # atno 6907 bound_to 6896
  151.4236  135.0999  159.9631 H   0  0  0  0  0  0  0  0  0  0  0  0  # atno 6908 bound_to 6896
  152.5011  133.8724  159.7360 H   0  0  0  0  0  0  0  0  0  0  0  0  # atno 6909 bound_to 6896
  145.7837  140.8748  143.0317 H   0  0  0  0  0  0  0  0  0  0  0  0  # atno 7974 bound_to 7965
  155.3399  140.3407  155.4239 H   0  0  0  0  0  0  0  0  0  0  0  0  # atno 8008 bound_to 7997
  156.1818  140.1667  156.8295 H   0  0  0  0  0  0  0  0  0  0  0  0  # atno 8009 bound_to 7997
  154.5342  140.0738  156.8382 H   0  0  0  0  0  0  0  0  0  0  0  0  # atno 8010 bound_to 7997
  139.5187  144.6475  151.5397 H   0  0  0  0  0  0  0  0  0  0  0  0  # atno 10167 bound_to 10162
  156.7527  130.9384  151.3115 H   0  0  0  0  0  0  0  0  0  0  0  0  # atno 10718 bound_to 10713
  152.9789  135.5810  154.4591 H   0  0  0  0  0  0  0  0  0  0  0  0  # atno 10763 bound_to 10752
  154.4170  135.2771  155.2002 H   0  0  0  0  0  0  0  0  0  0  0  0  # atno 10764 bound_to 10752
  154.3768  135.6155  153.5823 H   0  0  0  0  0  0  0  0  0  0  0  0  # atno 10765 bound_to 10752
  140.9868  133.7026  156.1779 H   0  0  0  0  0  0  0  0  0  0  0  0  # atno 11005 bound_to 11000
  144.6792  140.0024  143.7484 LP  0  0  0  0  0  0  0  0  0  0  0  0  # atno 17320 bound_to 7965
  146.0048  139.3121  143.0906 LP  0  0  0  0  0  0  0  0  0  0  0  0  # atno 17321 bound_to 7965
  140.6266  143.9156  150.6570 LP  0  0  0  0  0  0  0  0  0  0  0  0  # atno 17342 bound_to 10162
  140.2447  143.3637  152.1457 LP  0  0  0  0  0  0  0  0  0  0  0  0  # atno 17343 bound_to 10162
  157.6770  130.9104  150.0174 LP  0  0  0  0  0  0  0  0  0  0  0  0  # atno 17370 bound_to 10713
  156.1391  130.3642  149.9611 LP  0  0  0  0  0  0  0  0  0  0  0  0  # atno 17371 bound_to 10713
  140.7102  134.4469  157.5582 LP  0  0  0  0  0  0  0  0  0  0  0  0  # atno 17394 bound_to 11000
  139.8974  134.8637  156.2046 LP  0  0  0  0  0  0  0  0  0  0  0  0  # atno 17395 bound_to 11000

$$$$
