AV-unprocessed.smi:103|AV-procd|sdf|986|dock4
  -GOLD-   2262017553D 1   1.00000     0.00000
 Structure written by MMmdl.
 53 55  0  0  0  0  0  0  0  0  1 V2000
  142.6569  131.5644  159.0418 C   0  0  0  0  0  0  0  0  0  0  0  0
  143.3990  132.7388  158.4182 C   0  0  0  0  0  0  0  0  0  0  0  0
  142.7929  133.7024  157.9493 O   0  0  0  0  0  0  0  0  0  0  0  0
  144.7331  132.5788  158.4601 O   0  0  0  0  0  0  0  0  0  0  0  0
  145.5950  133.5233  157.8413 C   0  0  0  0  0  0  0  0  0  0  0  0
  146.8448  133.7183  158.7094 C   0  0  1  0  0  0  0  0  0  0  0  0
  147.9803  133.7637  157.8473 O   0  0  0  0  0  0  0  0  0  0  0  0
  148.7618  134.8743  158.1384 C   0  0  1  0  0  0  0  0  0  0  0  0
  149.4313  135.3556  156.8864 N   0  0  0  0  0  0  0  0  0  0  0  0
  149.4677  134.7698  155.6378 C   0  0  0  0  0  0  0  0  0  0  0  0
  148.6321  133.2662  155.1494 S   0  0  0  0  0  0  0  0  0  0  0  0
  149.1717  133.0861  153.4013 C   0  0  0  0  0  0  0  0  0  0  0  0
  149.2053  132.1755  155.9535 O   0  0  0  0  0  0  0  0  0  0  0  0
  147.1874  133.5412  155.1832 O   0  0  0  0  0  0  0  0  0  0  0  0
  150.0906  135.4281  154.6983 N   0  0  0  0  0  0  0  0  0  0  0  0
  150.5960  136.5314  155.3716 C   0  0  0  0  0  0  0  0  0  0  0  0
  151.3963  137.6371  154.9889 C   0  0  0  0  0  0  0  0  0  0  0  0
  151.8527  137.8119  153.7410 N   0  0  0  0  0  0  0  0  0  0  0  0
  151.7189  138.5584  155.9265 N   0  0  0  0  0  0  0  0  0  0  0  0
  151.2785  138.4053  157.1792 C   0  0  0  0  0  0  0  0  0  0  0  0
  150.5224  137.4274  157.6839 N   0  0  0  0  0  0  0  0  0  0  0  0
  150.1958  136.4978  156.7382 C   0  0  0  0  0  0  0  0  0  0  0  0
  147.8314  135.9257  158.7433 C   0  0  1  0  0  0  0  0  0  0  0  0
  147.2092  136.7171  157.7368 O   0  0  0  0  0  0  0  0  0  0  0  0
  146.4830  137.7955  158.0655 C   0  0  0  0  0  0  0  0  0  0  0  0
  145.9352  138.5172  156.8415 C   0  0  0  0  0  0  0  0  0  0  0  0
  146.2586  138.2004  159.2056 O   0  0  0  0  0  0  0  0  0  0  0  0
  146.8125  135.0574  159.4650 C   0  0  2  0  0  0  0  0  0  0  0  0
  147.2029  134.8671  160.8202 O   0  0  0  0  0  0  0  0  0  0  0  0
  147.4004  135.9259  161.6266 C   0  0  0  0  0  0  0  0  0  0  0  0
  147.3832  135.5467  163.1013 C   0  0  0  0  0  0  0  0  0  0  0  0
  147.5839  137.0882  161.2657 O   0  0  0  0  0  0  0  0  0  0  0  0
  143.0743  130.6201  158.6919 H   0  0  0  0  0  0  0  0  0  0  0  0
  141.6005  131.5945  158.7742 H   0  0  0  0  0  0  0  0  0  0  0  0
  142.7400  131.5995  160.1281 H   0  0  0  0  0  0  0  0  0  0  0  0
  145.8881  133.2317  156.8319 H   0  0  0  0  0  0  0  0  0  0  0  0
  145.0522  134.4648  157.7543 H   0  0  0  0  0  0  0  0  0  0  0  0
  146.9468  132.8865  159.4081 H   0  0  0  0  0  0  0  0  0  0  0  0
  149.5619  134.5687  158.8115 H   0  0  0  0  0  0  0  0  0  0  0  0
  148.7242  132.1890  152.9743 H   0  0  0  0  0  0  0  0  0  0  0  0
  150.2579  133.0027  153.3646 H   0  0  0  0  0  0  0  0  0  0  0  0
  148.8560  133.9578  152.8291 H   0  0  0  0  0  0  0  0  0  0  0  0
  151.6283  137.1371  153.0239 H   0  0  0  0  0  0  0  0  0  0  0  0
  152.4227  138.6156  153.5209 H   0  0  0  0  0  0  0  0  0  0  0  0
  151.5708  139.1763  157.8770 H   0  0  0  0  0  0  0  0  0  0  0  0
  148.4065  136.5553  159.4241 H   0  0  0  0  0  0  0  0  0  0  0  0
  145.7566  137.8138  156.0276 H   0  0  0  0  0  0  0  0  0  0  0  0
  146.6468  139.2686  156.4990 H   0  0  0  0  0  0  0  0  0  0  0  0
  144.9947  139.0137  157.0809 H   0  0  0  0  0  0  0  0  0  0  0  0
  145.8145  135.4978  159.4279 H   0  0  0  0  0  0  0  0  0  0  0  0
  146.6923  134.7223  163.2791 H   0  0  0  0  0  0  0  0  0  0  0  0
  147.0688  136.3959  163.7084 H   0  0  0  0  0  0  0  0  0  0  0  0
  148.3792  135.2416  163.4228 H   0  0  0  0  0  0  0  0  0  0  0  0
  1  2  1  0  0  0  0
  1 33  1  0  0  0  0
  1 34  1  0  0  0  0
  1 35  1  0  0  0  0
  2  3  2  0  0  0  0
  2  4  1  0  0  0  0
  4  5  1  0  0  0  0
  5  6  1  0  0  0  0
  5 36  1  0  0  0  0
  5 37  1  0  0  0  0
  6 28  1  0  0  0  0
  6  7  1  0  0  0  0
  6 38  1  0  0  0  0
  7  8  1  0  0  0  0
  8  9  1  0  0  0  0
  8 23  1  0  0  0  0
  8 39  1  0  0  0  0
  9 22  1  0  0  0  0
  9 10  1  0  0  0  0
 10 11  1  0  0  0  0
 10 15  2  0  0  0  0
 11 12  1  0  0  0  0
 11 13  2  0  0  0  0
 11 14  2  0  0  0  0
 12 40  1  0  0  0  0
 12 41  1  0  0  0  0
 12 42  1  0  0  0  0
 15 16  1  0  0  0  0
 16 22  2  0  0  0  0
 16 17  1  0  0  0  0
 17 18  1  0  0  0  0
 17 19  2  0  0  0  0
 18 43  1  0  0  0  0
 18 44  1  0  0  0  0
 19 20  1  0  0  0  0
 20 21  2  0  0  0  0
 20 45  1  0  0  0  0
 21 22  1  0  0  0  0
 23 24  1  0  0  0  0
 23 28  1  0  0  0  0
 23 46  1  0  0  0  0
 24 25  1  0  0  0  0
 25 26  1  0  0  0  0
 25 27  2  0  0  0  0
 26 47  1  0  0  0  0
 26 48  1  0  0  0  0
 26 49  1  0  0  0  0
 28 29  1  0  0  0  0
 28 50  1  0  0  0  0
 29 30  1  0  0  0  0
 30 31  1  0  0  0  0
 30 32  2  0  0  0  0
 31 51  1  0  0  0  0
 31 52  1  0  0  0  0
 31 53  1  0  0  0  0
M  END
> <s_m_source_file>
AV-unprocessed.smi

> <i_m_source_file_index>
103

> <i_lp_mmshare_version>
43012

> <i_f3d_flags>
0

> <s_epik_input>
W0NIM11DKD1PKU9bQ0gyXVtDQEBIXTFPW0NASF0oW0NAQEhdKE9DKD1PKVtDSDNdKVtDQEhdMU9DKD1PKVtDSDNdKW4oYyhuMilTKD1PKSg9TylbQ0gzXSljKGMyMyluW2NIXW5jM1tOSDJd

> <s_epik_cmdline>
J2VwaWtfcHl0aG9uJywgJy1waCcsICc3LjAnLCAnLXRuJywgJzgnLCAnLW1hJywgJzIwMCcsICctbWV0YWxfYmluZGluZycsICctaW1hZScsICc8aW5maWxlLm1hZT4nLCAnLW9tYWUnLCAnPG91dGZpbGUubWFlPic=

> <r_lp_tautomer_probability>
1

> <r_epik_Ionization_Penalty>
1.51338e-05

> <r_epik_Ionization_Penalty_Charging>
0

> <r_epik_Ionization_Penalty_Neutral>
1.51338e-05

> <r_epik_State_Penalty>
-0

> <r_epik_Charging_Adjusted_Penalty>
0

> <i_epik_Tot_Q>
0

> <i_epik_Tot_abs_Q>
0

> <r_epik_Metal_State_Penalty>
-0

> <b_epik_Metal_Only>
0

> <s_epik_Chemistry_Notes>
This compound has an ester and may undergo hydrolysis at high or low pH. This compound contains an acetal/aminal-like group ( X-CH(R)-Y where X, Y are N, S, or O) that may be acid/base labile, releasing an aldehyde.

> <s_lp_Force_Field>
OPLS_2005

> <r_lp_Energy>
13.7998

> <b_lp_Chiralities_Consistent>
1

> <s_lp_Variant>
AV-unprocessed.smi:103-10

> <Gold.Version>
5.8.1

> <Gold.Id.Protein>
6NUR|6NUR_protein|mol2

> <Gold.PLP.Fitness>
37.7223

> <Gold.PLP.PLP>
-28.8032

> <Gold.PLP.part.hbond>
-5.0000

> <Gold.PLP.part.metal>
0.0000

> <Gold.PLP.part.buried>
-4.8547

> <Gold.PLP.part.nonpolar>
-20.3875

> <Gold.PLP.part.repulsive>
0.4676

> <Gold.PLP.ligand.clash>
0.0000

> <Gold.PLP.ligand.torsion>
2.5550

> <Gold.PLP.Chemscore.Hbond>
3.8880

> <Gold.PLP.Chemscore.CHOScore>
0.0000

> <Gold.PLP.Chemscore.Metal>
0.0000

> <Gold.Chemscore.Hbonds>
donor molecule, donor type, donor heavy atom, donor atom, acceptor molecule, acceptor atom, score
      L1  H    18    43       P1  7949  1.00
      P1  H  6931  6943       L1    32  0.98
      P1  H  6934  6947       L1    32  0.91
      P1  H 11000 11005       L1     3  1.00

> <Gold.PLP.Chemscore.Internal.Correction>
2.3651

> <Gold.Rescore>
     Score         DG    S(hbond)    S(metal)    S(lipo)     H(rot)  DE(clash)    DE(int)     intcor
      2.08     -10.98       3.73        0.00      33.45       4.25       0.26       8.64       ----

> <Gold.Chemscore.Fitness>
2.0751

> <Gold.Chemscore.DG>
-10.9768

> <Gold.Chemscore.ZeroCoef>
-5.4800

> <Gold.Chemscore.Hbond>
3.7281

> <Gold.Chemscore.Metal>
0.0000

> <Gold.Chemscore.Lipo>
33.4480

> <Gold.Chemscore.Internal_Hbond>
0.0000

> <Gold.Chemscore.DEClash>
0.2648

> <Gold.Chemscore.DEInternal>
8.6369

> <Gold.Chemscore.Rot>
4.2456

> <Gold.Chemscore.Internal.Correction>
   9.000000E+99

> <Gold.Chemscore.Hbonds>
donor molecule, donor type, donor heavy atom, donor atom, acceptor molecule, acceptor atom, score
      L1  H    18    43       P1  7949  0.94
      P1  H  6931  6943       L1    32  0.92
      P1  H  6934  6947       L1    32  0.85
      P1  H 11000 11005       L1     3  0.99

> <Gold.Chemscore.Hbond.Weighted>
-12.4520

> <Gold.Chemscore.Metal.Weighted>
-0.0000

> <Gold.Chemscore.Lipo.Weighted>
-3.9134

> <Gold.Chemscore.Internal_Hbond.Weighted>
0.0000

> <Gold.Chemscore.DEClash.Weighted>
0.2648

> <Gold.Chemscore.DEInternal.Weighted>
8.6369

> <Gold.Chemscore.Rot.Weighted>
10.8687

> <Gold.Chemscore.Internal.Correction.Weighted>
   9.000000E+99

> <Gold.Protein.RotatedTorsions>
[ 6907 6896 6895 6894 ] final  -99.47 input  -60.11 | X-H torsion
[ 7974 7965 7964 7962 ] final   23.85 input  175.53 | X-H torsion
[ 8008 7997 7996 7995 ] final  156.33 input   59.86 | X-H torsion
[ 10167 10162 10161 10158 ] final   62.21 input  -65.29 | X-H torsion
[ 10718 10713 10712 10709 ] final -143.95 input   66.30 | X-H torsion
[ 10763 10752 10751 10750 ] final  -56.80 input  -60.55 | X-H torsion
[ 11005 11000 10999 10996 ] final -119.11 input  -57.11 | X-H torsion

> <Gold.Protein.ActiveResidues>
 VAL166  LYS551  ARG553  GLY616  TRP617  ASP618  TYR619  PRO620  LYS621  CYS622 
 ASP623  PHE694  ASN695  SER759  ASP760  ASP761  ALA762  ILE779  LEU786  VAL792 
 PHE793  MET794  SER795  GLU796  ALA797  LYS798  CYS799  TRP800  GLU811  SER814 

> <Gold.Protein.RotatedAtoms>
  150.7081  134.1036  159.3974 H   0  0  0  0  0  0  0  0  0  0  0  0  # atno 6907 bound_to 6896
  151.9023  135.0371  160.0516 H   0  0  0  0  0  0  0  0  0  0  0  0  # atno 6908 bound_to 6896
  152.2404  133.5095  159.5303 H   0  0  0  0  0  0  0  0  0  0  0  0  # atno 6909 bound_to 6896
  146.1965  139.7686  142.8793 H   0  0  0  0  0  0  0  0  0  0  0  0  # atno 7974 bound_to 7965
  156.2429  140.1915  156.6938 H   0  0  0  0  0  0  0  0  0  0  0  0  # atno 8008 bound_to 7997
  154.6232  140.0606  156.9667 H   0  0  0  0  0  0  0  0  0  0  0  0  # atno 8009 bound_to 7997
  155.1828  140.3278  155.4374 H   0  0  0  0  0  0  0  0  0  0  0  0  # atno 8010 bound_to 7997
  140.1464  144.4504  150.6783 H   0  0  0  0  0  0  0  0  0  0  0  0  # atno 10167 bound_to 10162
  156.3642  130.7754  151.1926 H   0  0  0  0  0  0  0  0  0  0  0  0  # atno 10718 bound_to 10713
  154.2124  135.6392  153.5119 H   0  0  0  0  0  0  0  0  0  0  0  0  # atno 10763 bound_to 10752
  152.9987  135.5477  154.6201 H   0  0  0  0  0  0  0  0  0  0  0  0  # atno 10764 bound_to 10752
  154.5641  135.2911  155.0865 H   0  0  0  0  0  0  0  0  0  0  0  0  # atno 10765 bound_to 10752
  141.0238  134.0084  157.3243 H   0  0  0  0  0  0  0  0  0  0  0  0  # atno 11005 bound_to 11000
  145.3626  141.0328  143.3276 LP  0  0  0  0  0  0  0  0  0  0  0  0  # atno 17320 bound_to 7965
  144.8591  139.5204  143.6820 LP  0  0  0  0  0  0  0  0  0  0  0  0  # atno 17321 bound_to 7965
  140.6729  143.2293  151.5580 LP  0  0  0  0  0  0  0  0  0  0  0  0  # atno 17342 bound_to 10162
  139.5447  144.2554  152.1419 LP  0  0  0  0  0  0  0  0  0  0  0  0  # atno 17343 bound_to 10162
  157.7477  131.0391  150.4534 LP  0  0  0  0  0  0  0  0  0  0  0  0  # atno 17370 bound_to 10713
  156.4750  130.4061  149.6495 LP  0  0  0  0  0  0  0  0  0  0  0  0  # atno 17371 bound_to 10713
  139.9163  135.0197  156.7894 LP  0  0  0  0  0  0  0  0  0  0  0  0  # atno 17394 bound_to 11000
  140.6526  133.9717  155.7763 LP  0  0  0  0  0  0  0  0  0  0  0  0  # atno 17395 bound_to 11000

$$$$
