AV-unprocessed.smi:2922|AV-procd|sdf|11201|dock8
  -GOLD-   2272016 93D 1   1.00000     0.00000
 Structure written by MMmdl.
 30 31  0  0  0  0  0  0  0  0  1 V2000
  149.2012  136.7170  154.4345 N   0  0  0  0  0  0  0  0  0  0  0  0
  149.2307  137.8859  155.0815 C   0  0  0  0  0  0  0  0  0  0  0  0
  148.9570  137.9721  156.2770 O   0  0  0  0  0  0  0  0  0  0  0  0
  149.5953  139.1406  154.2677 C   0  0  1  0  0  0  0  0  0  0  0  0
  148.4662  140.1883  154.1923 C   0  0  0  0  0  0  0  0  0  0  0  0
  149.0843  141.4415  154.7891 C   0  0  0  0  0  0  0  0  0  0  0  0
  150.1800  140.8818  155.6882 C   0  0  2  0  0  0  0  0  0  0  0  0
  151.2845  141.8947  156.0274 C   0  0  0  0  0  0  0  0  0  0  0  0
  150.8143  142.9299  156.9381 N   0  0  0  0  0  0  0  0  0  0  0  0
  151.2955  143.1231  158.2206 C   0  0  0  0  0  0  0  0  0  0  0  0
  152.0162  142.1467  158.7862 N   0  0  0  0  0  0  0  0  0  0  0  0
  152.4644  142.3603  160.0423 C   0  0  0  0  0  0  0  0  0  0  0  0
  152.1897  143.5599  160.7282 C   0  0  0  0  0  0  0  0  0  0  0  0
  152.7565  143.8384  162.3335 Cl  0  0  0  0  0  0  0  0  0  0  0  0
  151.4270  144.5199  160.0338 C   0  0  0  0  0  0  0  0  0  0  0  0
  150.9816  144.2961  158.7775 N   0  0  0  0  0  0  0  0  0  0  0  0
  150.6854  139.8235  154.8869 O   0  0  0  0  0  0  0  0  0  0  0  0
  148.9700  135.8703  154.9338 H   0  0  0  0  0  0  0  0  0  0  0  0
  149.4146  136.6872  153.4478 H   0  0  0  0  0  0  0  0  0  0  0  0
  149.9038  138.8290  153.2693 H   0  0  0  0  0  0  0  0  0  0  0  0
  148.1316  140.3561  153.1681 H   0  0  0  0  0  0  0  0  0  0  0  0
  147.5925  139.8969  154.7771 H   0  0  0  0  0  0  0  0  0  0  0  0
  149.5228  142.0501  153.9967 H   0  0  0  0  0  0  0  0  0  0  0  0
  148.3634  142.0558  155.3293 H   0  0  0  0  0  0  0  0  0  0  0  0
  149.7356  140.4754  156.5991 H   0  0  0  0  0  0  0  0  0  0  0  0
  152.1650  141.3928  156.4304 H   0  0  0  0  0  0  0  0  0  0  0  0
  151.6064  142.3941  155.1135 H   0  0  0  0  0  0  0  0  0  0  0  0
  149.9436  143.3876  156.7101 H   0  0  0  0  0  0  0  0  0  0  0  0
  153.0425  141.5708  160.4997 H   0  0  0  0  0  0  0  0  0  0  0  0
  151.1715  145.4672  160.4851 H   0  0  0  0  0  0  0  0  0  0  0  0
  1  2  1  0  0  0  0
  1 18  1  0  0  0  0
  1 19  1  0  0  0  0
  2  3  2  0  0  0  0
  2  4  1  0  0  0  0
  4 17  1  0  0  0  0
  4  5  1  0  0  0  0
  4 20  1  0  0  0  0
  5  6  1  0  0  0  0
  5 21  1  0  0  0  0
  5 22  1  0  0  0  0
  6  7  1  0  0  0  0
  6 23  1  0  0  0  0
  6 24  1  0  0  0  0
  7  8  1  0  0  0  0
  7 17  1  0  0  0  0
  7 25  1  0  0  0  0
  8  9  1  0  0  0  0
  8 26  1  0  0  0  0
  8 27  1  0  0  0  0
  9 10  1  0  0  0  0
  9 28  1  0  0  0  0
 10 16  1  0  0  0  0
 10 11  2  0  0  0  0
 11 12  1  0  0  0  0
 12 13  2  0  0  0  0
 12 29  1  0  0  0  0
 13 14  1  0  0  0  0
 13 15  1  0  0  0  0
 15 16  2  0  0  0  0
 15 30  1  0  0  0  0
M  END
> <s_m_source_file>
AV-unprocessed.smi

> <i_m_source_file_index>
2922

> <i_lp_mmshare_version>
43012

> <i_f3d_flags>
0

> <s_epik_input>
W05IMl1DKD1PKVtDQEBIXTFbQ0gyXVtDSDJdW0NASF0oTzEpW0NIMl1bTkhdYzJuW2NIXWMoQ2wpW2NIXW4y

> <s_epik_cmdline>
J2VwaWtfcHl0aG9uJywgJy1waCcsICc3LjAnLCAnLXRuJywgJzgnLCAnLW1hJywgJzIwMCcsICctbWV0YWxfYmluZGluZycsICctaW1hZScsICc8aW5maWxlLm1hZT4nLCAnLW9tYWUnLCAnPG91dGZpbGUubWFlPic=

> <r_lp_tautomer_probability>
1

> <r_epik_Ionization_Penalty>
6.13883e-06

> <r_epik_Ionization_Penalty_Charging>
0

> <r_epik_Ionization_Penalty_Neutral>
6.13883e-06

> <r_epik_State_Penalty>
-0

> <r_epik_Charging_Adjusted_Penalty>
0

> <i_epik_Tot_Q>
0

> <i_epik_Tot_abs_Q>
0

> <r_epik_Metal_State_Penalty>
-0

> <b_epik_Metal_Only>
0

> <s_lp_Force_Field>
OPLS_2005

> <r_lp_Energy>
9.79995

> <b_lp_Chiralities_Consistent>
1

> <s_lp_Variant>
AV-unprocessed.smi:2922-4

> <Gold.Version>
5.8.1

> <Gold.Id.Protein>
6NUR|6NUR_protein|mol2

> <Gold.PLP.Fitness>
40.1863

> <Gold.PLP.PLP>
-31.4182

> <Gold.PLP.part.hbond>
-3.0000

> <Gold.PLP.part.metal>
0.0000

> <Gold.PLP.part.buried>
-5.6896

> <Gold.PLP.part.nonpolar>
-23.0953

> <Gold.PLP.part.repulsive>
0.2234

> <Gold.PLP.ligand.clash>
0.0000

> <Gold.PLP.ligand.torsion>
0.1300

> <Gold.PLP.Chemscore.Hbond>
3.0000

> <Gold.PLP.Chemscore.CHOScore>
0.0000

> <Gold.PLP.Chemscore.Metal>
0.0000

> <Gold.Chemscore.Hbonds>
donor molecule, donor type, donor heavy atom, donor atom, acceptor molecule, acceptor atom, score
      L1  H     1    19       P1  7948  1.00
      L1  H     9    28       P1  8028  1.00
      P1  H  7989  7998       L1    17  1.00

> <Gold.PLP.Chemscore.Internal.Correction>
0.0281

> <Gold.Rescore>
     Score         DG    S(hbond)    S(metal)    S(lipo)     H(rot)  DE(clash)    DE(int)     intcor
     17.62     -18.20       2.53        0.00      78.42       1.91       0.50       0.08       ----

> <Gold.Chemscore.Fitness>
17.6172

> <Gold.Chemscore.DG>
-18.1960

> <Gold.Chemscore.ZeroCoef>
-5.4800

> <Gold.Chemscore.Hbond>
2.5273

> <Gold.Chemscore.Metal>
0.0000

> <Gold.Chemscore.Lipo>
78.4207

> <Gold.Chemscore.Internal_Hbond>
0.0000

> <Gold.Chemscore.DEClash>
0.4951

> <Gold.Chemscore.DEInternal>
0.0837

> <Gold.Chemscore.Rot>
1.9142

> <Gold.Chemscore.Internal.Correction>
   9.000000E+99

> <Gold.Chemscore.Hbonds>
donor molecule, donor type, donor heavy atom, donor atom, acceptor molecule, acceptor atom, score
      L1  H     1    19       P1  7948  0.81
      L1  H     9    28       P1  8028  0.92
      P1  H  7989  7998       L1    17  0.16

> <Gold.Chemscore.Hbond.Weighted>
-8.4411

> <Gold.Chemscore.Metal.Weighted>
-0.0000

> <Gold.Chemscore.Lipo.Weighted>
-9.1752

> <Gold.Chemscore.Internal_Hbond.Weighted>
0.0000

> <Gold.Chemscore.DEClash.Weighted>
0.4951

> <Gold.Chemscore.DEInternal.Weighted>
0.0837

> <Gold.Chemscore.Rot.Weighted>
4.9002

> <Gold.Chemscore.Internal.Correction.Weighted>
   9.000000E+99

> <Gold.Protein.RotatedTorsions>
[ 6907 6896 6895 6894 ] final  -42.17 input  -60.11 | X-H torsion
[ 7974 7965 7964 7962 ] final   27.43 input  175.53 | X-H torsion
[ 8008 7997 7996 7995 ] final   28.91 input   59.86 | X-H torsion
[ 10167 10162 10161 10158 ] final -140.11 input  -65.29 | X-H torsion
[ 10718 10713 10712 10709 ] final  129.35 input   66.30 | X-H torsion
[ 10763 10752 10751 10750 ] final -137.14 input  -60.55 | X-H torsion
[ 11005 11000 10999 10996 ] final   54.66 input  -57.11 | X-H torsion

> <Gold.Protein.ActiveResidues>
 VAL166  LYS551  ARG553  GLY616  TRP617  ASP618  TYR619  PRO620  LYS621  CYS622 
 ASP623  PHE694  ASN695  SER759  ASP760  ASP761  ALA762  ILE779  LEU786  VAL792 
 PHE793  MET794  SER795  GLU796  ALA797  LYS798  CYS799  TRP800  GLU811  SER814 

> <Gold.Protein.RotatedAtoms>
  150.9583  134.8975  159.7714 H   0  0  0  0  0  0  0  0  0  0  0  0  # atno 6907 bound_to 6896
  152.5146  134.3708  159.9327 H   0  0  0  0  0  0  0  0  0  0  0  0  # atno 6908 bound_to 6896
  151.3721  133.3810  159.2735 H   0  0  0  0  0  0  0  0  0  0  0  0  # atno 6909 bound_to 6896
  146.1784  139.7192  142.8918 H   0  0  0  0  0  0  0  0  0  0  0  0  # atno 7974 bound_to 7965
  155.0661  140.3195  155.4645 H   0  0  0  0  0  0  0  0  0  0  0  0  # atno 8008 bound_to 7997
  156.2801  140.2120  156.5733 H   0  0  0  0  0  0  0  0  0  0  0  0  # atno 8009 bound_to 7997
  154.7092  140.0499  157.0521 H   0  0  0  0  0  0  0  0  0  0  0  0  # atno 8010 bound_to 7997
  139.8314  143.7442  152.2666 H   0  0  0  0  0  0  0  0  0  0  0  0  # atno 10167 bound_to 10162
  157.5162  131.1097  150.9220 H   0  0  0  0  0  0  0  0  0  0  0  0  # atno 10718 bound_to 10713
  154.8668  135.3651  154.5175 H   0  0  0  0  0  0  0  0  0  0  0  0  # atno 10763 bound_to 10752
  153.5806  135.7018  153.5469 H   0  0  0  0  0  0  0  0  0  0  0  0  # atno 10764 bound_to 10752
  153.3460  135.4085  155.1572 H   0  0  0  0  0  0  0  0  0  0  0  0  # atno 10765 bound_to 10752
  140.0668  134.5525  155.9090 H   0  0  0  0  0  0  0  0  0  0  0  0  # atno 11005 bound_to 11000
  145.4145  141.0400  143.2998 LP  0  0  0  0  0  0  0  0  0  0  0  0  # atno 17320 bound_to 7965
  144.8274  139.5686  143.6959 LP  0  0  0  0  0  0  0  0  0  0  0  0  # atno 17321 bound_to 7965
  139.7651  144.7494  151.0307 LP  0  0  0  0  0  0  0  0  0  0  0  0  # atno 17342 bound_to 10162
  140.7806  143.4708  151.0149 LP  0  0  0  0  0  0  0  0  0  0  0  0  # atno 17343 bound_to 10162
  156.9845  130.5539  149.5298 LP  0  0  0  0  0  0  0  0  0  0  0  0  # atno 17370 bound_to 10713
  156.0322  130.5412  150.8563 LP  0  0  0  0  0  0  0  0  0  0  0  0  # atno 17371 bound_to 10713
  141.1996  133.6608  156.5853 LP  0  0  0  0  0  0  0  0  0  0  0  0  # atno 17394 bound_to 11000
  140.3686  134.7625  157.4583 LP  0  0  0  0  0  0  0  0  0  0  0  0  # atno 17395 bound_to 11000

$$$$
