AV-unprocessed.smi:1527|AV-procd|sdf|6150|dock3
  -GOLD-   22720 6293D 1   1.00000     0.00000
 Structure written by MMmdl.
 31 31  0  0  0  0  0  0  0  0  1 V2000
  153.3442  142.4428  161.3676 C   0  0  0  0  0  0  0  0  0  0  0  0
  152.9308  142.4475  159.8884 C   0  0  0  0  0  0  0  0  0  0  0  0
  151.6529  143.2584  159.6044 C   0  0  1  0  0  0  0  0  0  0  0  0
  151.9020  144.7698  159.7283 C   0  0  0  0  0  0  0  0  0  0  0  0
  151.1484  142.9402  158.2721 N   0  0  0  0  0  0  0  0  0  0  0  0
  150.6938  141.7430  157.8640 C   0  0  0  0  0  0  0  0  0  0  0  0
  150.6235  140.7662  158.6092 O   0  0  0  0  0  0  0  0  0  0  0  0
  150.2510  141.5993  156.3972 C   0  0  0  0  0  0  0  0  0  0  0  0
  150.3736  140.2405  155.8429 N   0  0  0  0  0  0  0  0  0  0  0  0
  149.2975  139.8491  155.0606 N   0  0  0  0  0  0  0  0  0  0  0  0
  149.2932  138.6845  154.5057 C   0  0  0  0  0  0  0  0  0  0  0  0
  148.2091  138.3382  153.7369 O   0  0  0  0  0  0  0  0  0  0  0  0
  150.3965  137.7660  154.6848 C   0  0  0  0  0  0  0  0  0  0  0  0
  151.4395  138.1551  155.4503 C   0  0  0  0  0  0  0  0  0  0  0  0
  151.4779  139.4706  156.0915 C   0  0  0  0  0  0  0  0  0  0  0  0
  152.4207  139.8561  156.7820 O   0  0  0  0  0  0  0  0  0  0  0  0
  148.4887  137.5932  153.2277 H   0  0  0  0  0  0  0  0  0  0  0  0
  154.2791  141.8992  161.5054 H   0  0  0  0  0  0  0  0  0  0  0  0
  152.5915  141.9646  161.9949 H   0  0  0  0  0  0  0  0  0  0  0  0
  153.4929  143.4576  161.7374 H   0  0  0  0  0  0  0  0  0  0  0  0
  153.7522  142.8565  159.2992 H   0  0  0  0  0  0  0  0  0  0  0  0
  152.7984  141.4190  159.5502 H   0  0  0  0  0  0  0  0  0  0  0  0
  150.9042  142.9724  160.3456 H   0  0  0  0  0  0  0  0  0  0  0  0
  152.2731  145.0253  160.7210 H   0  0  0  0  0  0  0  0  0  0  0  0
  150.9844  145.3365  159.5667 H   0  0  0  0  0  0  0  0  0  0  0  0
  152.6377  145.1126  158.9998 H   0  0  0  0  0  0  0  0  0  0  0  0
  151.1672  143.6872  157.5932 H   0  0  0  0  0  0  0  0  0  0  0  0
  149.2212  141.9497  156.3078 H   0  0  0  0  0  0  0  0  0  0  0  0
  150.8431  142.2960  155.8011 H   0  0  0  0  0  0  0  0  0  0  0  0
  150.3784  136.7937  154.2148 H   0  0  0  0  0  0  0  0  0  0  0  0
  152.2700  137.4794  155.5930 H   0  0  0  0  0  0  0  0  0  0  0  0
  1  2  1  0  0  0  0
  1 18  1  0  0  0  0
  1 19  1  0  0  0  0
  1 20  1  0  0  0  0
  2  3  1  0  0  0  0
  2 21  1  0  0  0  0
  2 22  1  0  0  0  0
  3  4  1  0  0  0  0
  3  5  1  0  0  0  0
  3 23  1  0  0  0  0
  4 24  1  0  0  0  0
  4 25  1  0  0  0  0
  4 26  1  0  0  0  0
  5  6  1  0  0  0  0
  5 27  1  0  0  0  0
  6  7  2  0  0  0  0
  6  8  1  0  0  0  0
  8 28  1  0  0  0  0
  8 29  1  0  0  0  0
  8  9  1  0  0  0  0
  9 10  1  0  0  0  0
  9 15  1  0  0  0  0
 10 11  2  0  0  0  0
 11 12  1  0  0  0  0
 11 13  1  0  0  0  0
 12 17  1  0  0  0  0
 13 30  1  0  0  0  0
 13 14  2  0  0  0  0
 14 31  1  0  0  0  0
 14 15  1  0  0  0  0
 15 16  2  0  0  0  0
M  END
> <s_m_source_file>
AV-unprocessed.smi

> <i_m_source_file_index>
1527

> <i_lp_mmshare_version>
43012

> <i_f3d_flags>
0

> <s_epik_input>
W0NIM11bQ0gyXVtDQEhdKFtDSDNdKVtOSF1DKD1PKVtDSDJdbjFbbkhdYyg9TylbY0hdW2NIXWMxPU8=

> <s_epik_cmdline>
J2VwaWtfcHl0aG9uJywgJy1waCcsICc3LjAnLCAnLXRuJywgJzgnLCAnLW1hJywgJzIwMCcsICctbWV0YWxfYmluZGluZycsICctaW1hZScsICc8aW5maWxlLm1hZT4nLCAnLW9tYWUnLCAnPG91dGZpbGUubWFlPic=

> <r_lp_tautomer_probability>
0.9996

> <r_epik_Ionization_Penalty>
2.12171

> <r_epik_Ionization_Penalty_Charging>
3.79077e-08

> <r_epik_Ionization_Penalty_Neutral>
2.12171

> <r_epik_State_Penalty>
1.69857

> <r_epik_Charging_Adjusted_Penalty>
1.69857

> <i_epik_Tot_Q>
0

> <i_epik_Tot_abs_Q>
0

> <r_epik_Metal_State_Penalty>
1.69857

> <b_epik_Metal_Only>
0

> <s_lp_Force_Field>
OPLS_2005

> <r_lp_Energy>
12.9148

> <b_lp_Chiralities_Consistent>
1

> <s_lp_Variant>
AV-unprocessed.smi:1527-4

> <Gold.Version>
5.8.1

> <Gold.Id.Protein>
6NUR|6NUR_protein|mol2

> <Gold.PLP.Fitness>
43.7890

> <Gold.PLP.PLP>
-39.2234

> <Gold.PLP.part.hbond>
-3.8259

> <Gold.PLP.part.metal>
0.0000

> <Gold.PLP.part.buried>
-2.9897

> <Gold.PLP.part.nonpolar>
-30.9477

> <Gold.PLP.part.repulsive>
0.1105

> <Gold.PLP.ligand.clash>
0.0000

> <Gold.PLP.ligand.torsion>
0.7261

> <Gold.PLP.Chemscore.Hbond>
2.0000

> <Gold.PLP.Chemscore.CHOScore>
0.0000

> <Gold.PLP.Chemscore.Metal>
0.0000

> <Gold.Chemscore.Hbonds>
donor molecule, donor type, donor heavy atom, donor atom, acceptor molecule, acceptor atom, score
      L1  H    12    17       P1  7948  1.00
      P1  H  7997  8010       L1    16  1.00

> <Gold.PLP.Chemscore.Internal.Correction>
0.0178

> <Gold.Rescore>
     Score         DG    S(hbond)    S(metal)    S(lipo)     H(rot)  DE(clash)    DE(int)     intcor
     12.05     -13.20       1.93        0.00      67.47       2.58       0.03       1.13       ----

> <Gold.Chemscore.Fitness>
12.0457

> <Gold.Chemscore.DG>
-13.1989

> <Gold.Chemscore.ZeroCoef>
-5.4800

> <Gold.Chemscore.Hbond>
1.9256

> <Gold.Chemscore.Metal>
0.0000

> <Gold.Chemscore.Lipo>
67.4660

> <Gold.Chemscore.Internal_Hbond>
0.0000

> <Gold.Chemscore.DEClash>
0.0279

> <Gold.Chemscore.DEInternal>
1.1253

> <Gold.Chemscore.Rot>
2.5806

> <Gold.Chemscore.Internal.Correction>
   9.000000E+99

> <Gold.Chemscore.Hbonds>
donor molecule, donor type, donor heavy atom, donor atom, acceptor molecule, acceptor atom, score
      L1  H    12    17       P1  7948  0.98
      P1  H  7997  8010       L1    16  0.98

> <Gold.Chemscore.Hbond.Weighted>
-6.4317

> <Gold.Chemscore.Metal.Weighted>
-0.0000

> <Gold.Chemscore.Lipo.Weighted>
-7.8935

> <Gold.Chemscore.Internal_Hbond.Weighted>
0.0000

> <Gold.Chemscore.DEClash.Weighted>
0.0279

> <Gold.Chemscore.DEInternal.Weighted>
1.1253

> <Gold.Chemscore.Rot.Weighted>
6.6063

> <Gold.Chemscore.Internal.Correction.Weighted>
   9.000000E+99

> <Gold.Protein.RotatedTorsions>
[ 6907 6896 6895 6894 ] final   50.12 input  -60.11 | X-H torsion
[ 7974 7965 7964 7962 ] final -178.81 input  175.53 | X-H torsion
[ 8008 7997 7996 7995 ] final   69.46 input   59.86 | X-H torsion
[ 10167 10162 10161 10158 ] final  -52.32 input  -65.29 | X-H torsion
[ 10718 10713 10712 10709 ] final  115.24 input   66.30 | X-H torsion
[ 10763 10752 10751 10750 ] final  -69.26 input  -60.55 | X-H torsion
[ 11005 11000 10999 10996 ] final   13.96 input  -57.11 | X-H torsion

> <Gold.Protein.ActiveResidues>
 VAL166  LYS551  ARG553  GLY616  TRP617  ASP618  TYR619  PRO620  LYS621  CYS622 
 ASP623  PHE694  ASN695  SER759  ASP760  ASP761  ALA762  ILE779  LEU786  VAL792 
 PHE793  MET794  SER795  GLU796  ALA797  LYS798  CYS799  TRP800  GLU811  SER814 

> <Gold.Protein.RotatedAtoms>
  152.2984  134.7640  160.0362 H   0  0  0  0  0  0  0  0  0  0  0  0  # atno 6907 bound_to 6896
  151.8162  133.3383  159.3578 H   0  0  0  0  0  0  0  0  0  0  0  0  # atno 6908 bound_to 6896
  150.7262  134.5546  159.5856 H   0  0  0  0  0  0  0  0  0  0  0  0  # atno 6909 bound_to 6896
  144.7133  140.0813  143.6425 H   0  0  0  0  0  0  0  0  0  0  0  0  # atno 7974 bound_to 7965
  155.7239  140.3493  155.5028 H   0  0  0  0  0  0  0  0  0  0  0  0  # atno 8008 bound_to 7997
  155.9244  140.1073  157.1203 H   0  0  0  0  0  0  0  0  0  0  0  0  # atno 8009 bound_to 7997
  154.4075  140.1243  156.4708 H   0  0  0  0  0  0  0  0  0  0  0  0  # atno 8010 bound_to 7997
  140.6543  143.2588  151.4631 H   0  0  0  0  0  0  0  0  0  0  0  0  # atno 10167 bound_to 10162
  157.6233  131.1010  150.7302 H   0  0  0  0  0  0  0  0  0  0  0  0  # atno 10718 bound_to 10713
  154.4008  135.6031  153.5896 H   0  0  0  0  0  0  0  0  0  0  0  0  # atno 10763 bound_to 10752
  152.9788  135.5906  154.4186 H   0  0  0  0  0  0  0  0  0  0  0  0  # atno 10764 bound_to 10752
  154.3984  135.2842  155.2090 H   0  0  0  0  0  0  0  0  0  0  0  0  # atno 10765 bound_to 10752
  140.4749  134.0993  155.7739 H   0  0  0  0  0  0  0  0  0  0  0  0  # atno 11005 bound_to 11000
  145.9700  139.2862  143.1104 LP  0  0  0  0  0  0  0  0  0  0  0  0  # atno 17320 bound_to 7965
  145.9127  140.9169  143.0445 LP  0  0  0  0  0  0  0  0  0  0  0  0  # atno 17321 bound_to 7965
  139.5763  144.1811  152.1908 LP  0  0  0  0  0  0  0  0  0  0  0  0  # atno 17342 bound_to 10162
  140.1123  144.5446  150.6917 LP  0  0  0  0  0  0  0  0  0  0  0  0  # atno 17343 bound_to 10162
  156.7655  130.4812  149.5428 LP  0  0  0  0  0  0  0  0  0  0  0  0  # atno 17370 bound_to 10713
  156.1391  130.6232  151.0442 LP  0  0  0  0  0  0  0  0  0  0  0  0  # atno 17371 bound_to 10713
  141.1559  133.8883  157.1978 LP  0  0  0  0  0  0  0  0  0  0  0  0  # atno 17394 bound_to 11000
  139.9862  135.0081  156.9868 LP  0  0  0  0  0  0  0  0  0  0  0  0  # atno 17395 bound_to 11000

$$$$
