AV-unprocessed.smi:2605|AV-procd|sdf|10195|dock9
  -GOLD-   2272014203D 1   1.00000     0.00000
 Structure written by MMmdl.
 26 27  0  0  0  0  0  0  0  0  2 V2000
  144.3859  133.1339  149.8011 C   0  0  0  0  0  0  0  0  0  0  0  0
  144.4057  134.4497  150.3058 C   0  0  0  0  0  0  0  0  0  0  0  0
  145.3878  134.7938  151.2587 C   0  0  0  0  0  0  0  0  0  0  0  0
  145.4378  136.1983  151.8396 C   0  0  2  0  0  0  0  0  0  0  0  0
  145.7263  137.2825  150.7752 C   0  0  0  0  0  0  0  0  0  0  0  0
  145.7317  138.6038  151.3968 N   0  0  0  0  0  0  0  0  0  0  0  0
  146.8001  138.6542  152.3901 C   0  0  0  0  0  0  0  0  0  0  0  0
  146.5334  137.6164  153.4965 C   0  0  0  0  0  0  0  0  0  0  0  0
  146.4516  136.2620  152.9134 N   0  3  0  0  0  0  0  0  0  0  0  0
  146.3010  133.7971  151.6682 C   0  0  0  0  0  0  0  0  0  0  0  0
  146.1946  132.5112  151.1012 C   0  0  0  0  0  0  0  0  0  0  0  0
  145.2589  132.1793  150.1869 N   0  0  0  0  0  0  0  0  0  0  0  0
  143.6476  132.8408  149.0695 H   0  0  0  0  0  0  0  0  0  0  0  0
  143.6812  135.1739  149.9629 H   0  0  0  0  0  0  0  0  0  0  0  0
  144.4662  136.4094  152.2907 H   0  0  0  0  0  0  0  0  0  0  0  0
  146.6817  137.1120  150.2778 H   0  0  0  0  0  0  0  0  0  0  0  0
  144.9559  137.2634  150.0038 H   0  0  0  0  0  0  0  0  0  0  0  0
  145.8931  139.3089  150.6906 H   0  0  0  0  0  0  0  0  0  0  0  0
  147.7641  138.4752  151.9117 H   0  0  0  0  0  0  0  0  0  0  0  0
  146.8369  139.6561  152.8186 H   0  0  0  0  0  0  0  0  0  0  0  0
  147.3326  137.6370  154.2374 H   0  0  0  0  0  0  0  0  0  0  0  0
  145.6045  137.8445  154.0213 H   0  0  0  0  0  0  0  0  0  0  0  0
  146.2171  135.5963  153.6357 H   0  0  0  0  0  0  0  0  0  0  0  0
  147.0666  134.0029  152.4014 H   0  0  0  0  0  0  0  0  0  0  0  0
  146.8779  131.7274  151.3934 H   0  0  0  0  0  0  0  0  0  0  0  0
  147.3502  136.0215  152.5202 H   0  0  0  0  0  0  0  0  0  0  0  0
  1 12  1  0  0  0  0
  1  2  2  0  0  0  0
  1 13  1  0  0  0  0
  2  3  1  0  0  0  0
  2 14  1  0  0  0  0
  3  4  1  0  0  0  0
  3 10  2  0  0  0  0
  4  9  1  0  0  0  0
  4  5  1  0  0  0  0
  4 15  1  0  0  0  0
  5  6  1  0  0  0  0
  5 16  1  0  0  0  0
  5 17  1  0  0  0  0
  6  7  1  0  0  0  0
  6 18  1  0  0  0  0
  7  8  1  0  0  0  0
  7 19  1  0  0  0  0
  7 20  1  0  0  0  0
  8  9  1  0  0  0  0
  8 21  1  0  0  0  0
  8 22  1  0  0  0  0
  9 23  1  0  0  0  0
  9 26  1  0  0  0  0
 10 11  1  0  0  0  0
 10 24  1  0  0  0  0
 11 12  2  0  0  0  0
 11 25  1  0  0  0  0
M  CHG  1   9   1
M  END
> <s_m_source_file>
AV-unprocessed.smi

> <i_m_source_file_index>
2605

> <i_lp_mmshare_version>
43012

> <i_f3d_flags>
0

> <s_epik_input>
W2NIXTFbY0hdbltjSF1bY0hdYzFbQ0BASF0yW0NIMl1bTkhdW0NIMl1bQ0gyXVtOSF0y

> <s_epik_cmdline>
J2VwaWtfcHl0aG9uJywgJy1waCcsICc3LjAnLCAnLXRuJywgJzgnLCAnLW1hJywgJzIwMCcsICctbWV0YWxfYmluZGluZycsICctaW1hZScsICc8aW5maWxlLm1hZT4nLCAnLW9tYWUnLCAnPG91dGZpbGUubWFlPic=

> <r_epik_Ionization_Penalty>
0.0246915

> <r_epik_Ionization_Penalty_Charging>
0.015072

> <r_epik_Ionization_Penalty_Neutral>
0.00961942

> <r_epik_State_Penalty>
0.518662

> <r_epik_Charging_Adjusted_Penalty>
0.533734

> <i_epik_Tot_Q>
1

> <i_epik_Tot_abs_Q>
1

> <r_epik_Metal_State_Penalty>
0.520249

> <b_epik_Metal_Only>
0

> <s_lp_Force_Field>
OPLS_2005

> <r_lp_Energy>
7.08803

> <b_lp_Chiralities_Consistent>
1

> <s_lp_Variant>
AV-unprocessed.smi:2605-3

> <Gold.Version>
5.8.1

> <Gold.Id.Protein>
6NUR|6NUR_protein|mol2

> <Gold.PLP.Fitness>
31.6838

> <Gold.PLP.PLP>
-22.7462

> <Gold.PLP.part.hbond>
-2.6712

> <Gold.PLP.part.metal>
0.0000

> <Gold.PLP.part.buried>
1.4890

> <Gold.PLP.part.nonpolar>
-21.9923

> <Gold.PLP.part.repulsive>
0.1393

> <Gold.PLP.ligand.clash>
0.0000

> <Gold.PLP.ligand.torsion>
0.0371

> <Gold.PLP.Chemscore.Hbond>
2.0000

> <Gold.PLP.Chemscore.CHOScore>
1.0000

> <Gold.PLP.Chemscore.Metal>
0.0000

> <Gold.Chemscore.Hbonds>
donor molecule, donor type, donor heavy atom, donor atom, acceptor molecule, acceptor atom, score
      L1  H     9    26       P1  7948  2.00
      L1  C    11    25       P1 10747  0.99

> <Gold.PLP.Chemscore.Internal.Correction>
0.0118

> <Gold.Rescore>
     Score         DG    S(hbond)    S(metal)    S(lipo)     H(rot)  DE(clash)    DE(int)     intcor
     12.13     -14.26       0.96        0.00      69.36       1.00       2.09       0.03       ----

> <Gold.Chemscore.Fitness>
12.1332

> <Gold.Chemscore.DG>
-14.2559

> <Gold.Chemscore.ZeroCoef>
-5.4800

> <Gold.Chemscore.Hbond>
0.9642

> <Gold.Chemscore.Metal>
0.0000

> <Gold.Chemscore.Lipo>
69.3639

> <Gold.Chemscore.Internal_Hbond>
0.0000

> <Gold.Chemscore.DEClash>
2.0943

> <Gold.Chemscore.DEInternal>
0.0285

> <Gold.Chemscore.Rot>
1.0000

> <Gold.Chemscore.Internal.Correction>
   9.000000E+99

> <Gold.Chemscore.Hbonds>
donor molecule, donor type, donor heavy atom, donor atom, acceptor molecule, acceptor atom, score
      L1  H     9    26       P1  7948  1.00

> <Gold.Chemscore.Hbond.Weighted>
-3.2203

> <Gold.Chemscore.Metal.Weighted>
-0.0000

> <Gold.Chemscore.Lipo.Weighted>
-8.1156

> <Gold.Chemscore.Internal_Hbond.Weighted>
0.0000

> <Gold.Chemscore.DEClash.Weighted>
2.0943

> <Gold.Chemscore.DEInternal.Weighted>
0.0285

> <Gold.Chemscore.Rot.Weighted>
2.5600

> <Gold.Chemscore.Internal.Correction.Weighted>
   9.000000E+99

> <Gold.Protein.RotatedTorsions>
[ 6907 6896 6895 6894 ] final  -77.96 input  -60.11 | X-H torsion
[ 7974 7965 7964 7962 ] final  156.42 input  175.53 | X-H torsion
[ 8008 7997 7996 7995 ] final  -43.03 input   59.86 | X-H torsion
[ 10167 10162 10161 10158 ] final   74.42 input  -65.29 | X-H torsion
[ 10718 10713 10712 10709 ] final  146.37 input   66.30 | X-H torsion
[ 10763 10752 10751 10750 ] final    4.31 input  -60.55 | X-H torsion
[ 11005 11000 10999 10996 ] final  130.81 input  -57.11 | X-H torsion

> <Gold.Protein.ActiveResidues>
 VAL166  LYS551  ARG553  GLY616  TRP617  ASP618  TYR619  PRO620  LYS621  CYS622 
 ASP623  PHE694  ASN695  SER759  ASP760  ASP761  ALA762  ILE779  LEU786  VAL792 
 PHE793  MET794  SER795  GLU796  ALA797  LYS798  CYS799  TRP800  GLU811  SER814 

> <Gold.Protein.RotatedAtoms>
  150.6985  134.4345  159.5263 H   0  0  0  0  0  0  0  0  0  0  0  0  # atno 6907 bound_to 6896
  152.2065  134.8537  160.0511 H   0  0  0  0  0  0  0  0  0  0  0  0  # atno 6908 bound_to 6896
  151.9438  133.3611  159.4012 H   0  0  0  0  0  0  0  0  0  0  0  0  # atno 6909 bound_to 6896
  144.7964  139.7201  143.6200 H   0  0  0  0  0  0  0  0  0  0  0  0  # atno 7974 bound_to 7965
  154.3997  140.1458  156.3453 H   0  0  0  0  0  0  0  0  0  0  0  0  # atno 8008 bound_to 7997
  155.8319  140.3465  155.5556 H   0  0  0  0  0  0  0  0  0  0  0  0  # atno 8009 bound_to 7997
  155.8179  140.0893  157.1856 H   0  0  0  0  0  0  0  0  0  0  0  0  # atno 8010 bound_to 7997
  140.0139  144.5593  150.7636 H   0  0  0  0  0  0  0  0  0  0  0  0  # atno 10167 bound_to 10162
  157.3340  131.0925  151.1139 H   0  0  0  0  0  0  0  0  0  0  0  0  # atno 10718 bound_to 10713
  153.2728  135.6933  153.7463 H   0  0  0  0  0  0  0  0  0  0  0  0  # atno 10763 bound_to 10752
  153.6480  135.3381  155.3092 H   0  0  0  0  0  0  0  0  0  0  0  0  # atno 10764 bound_to 10752
  154.8469  135.4447  154.1756 H   0  0  0  0  0  0  0  0  0  0  0  0  # atno 10765 bound_to 10752
  139.9694  134.9582  156.9348 H   0  0  0  0  0  0  0  0  0  0  0  0  # atno 11005 bound_to 11000
  146.2233  139.5676  142.9604 LP  0  0  0  0  0  0  0  0  0  0  0  0  # atno 17320 bound_to 7965
  145.5662  141.0399  143.2199 LP  0  0  0  0  0  0  0  0  0  0  0  0  # atno 17321 bound_to 7965
  140.7370  143.2760  151.3740 LP  0  0  0  0  0  0  0  0  0  0  0  0  # atno 17342 bound_to 10162
  139.6186  144.0952  152.2369 LP  0  0  0  0  0  0  0  0  0  0  0  0  # atno 17343 bound_to 10162
  157.2376  130.6554  149.5876 LP  0  0  0  0  0  0  0  0  0  0  0  0  # atno 17370 bound_to 10713
  155.9699  130.4578  150.5978 LP  0  0  0  0  0  0  0  0  0  0  0  0  # atno 17371 bound_to 10713
  140.5327  134.0798  155.7320 LP  0  0  0  0  0  0  0  0  0  0  0  0  # atno 17394 bound_to 11000
  141.1373  133.9199  157.2404 LP  0  0  0  0  0  0  0  0  0  0  0  0  # atno 17395 bound_to 11000

$$$$
