#       Name:                AV-unprocessed.smi:1484
#       Creating user name   scv26
#       Creation time:       Fri Mar 27 06:09:26 2020


#       File generated by GOLD software.
#

@<TRIPOS>MOLECULE
AV-unprocessed.smi:1484
    45    46     1
SMALL
NO_CHARGES


@<TRIPOS>ATOM
      1 ****        -3.6104  -0.7847   3.5770 C.3            1 S1                 0.0000
      2 ****        -3.1728  -0.7232   2.1067 C.3            1 S1                 0.0000
      3 ****        -3.6429  -1.9656   1.3263 C.3            1 S1                 0.0000
      4 ****        -3.2046  -1.9045  -0.1452 C.3            1 S1                 0.0000
      5 ****        -1.6832  -1.7294  -0.2680 C.3            1 S1                 0.0000
      6 ****        -1.1977  -0.4880   0.5071 C.3            1 S1                 0.0000
      7 ****         0.2564  -0.3766   0.4434 N.am           1 S1                 0.0000
      8 ****         0.9503   0.1587  -0.5725 C.2            1 S1                 0.0000
      9 ****         0.4196   0.6083  -1.5895 O.2            1 S1                 0.0000
     10 ****         2.4779   0.1619  -0.4134 C.3            1 S1                 0.0000
     11 ****         3.1531   1.1478  -1.2697 N.am           1 S1                 0.0000
     12 ****         3.7041   0.6130  -2.4243 N.2            1 S1                 0.0000
     13 ****         4.3114   1.3807  -3.2646 C.2            1 S1                 0.0000
     14 ****         4.8398   0.8104  -4.3967 O.3            1 S1                 0.0000
     15 ****         4.4357   2.8018  -3.0254 C.2            1 S1                 0.0000
     16 ****         3.9005   3.3128  -1.8951 C.2            1 S1                 0.0000
     17 ****         3.2051   2.4701  -0.9207 C.2            1 S1                 0.0000
     18 ****         2.7106   2.9085   0.1177 O.2            1 S1                 0.0000
     19 ****        -1.6461  -0.5532   1.9796 C.3            1 S1                 0.0000
     20 ****         5.2332   1.5222  -4.8774 H              1 S1                 0.0000
     21 ****        -3.1690  -1.6416   4.0870 H              1 S1                 0.0000
     22 ****        -4.6942  -0.8692   3.6607 H              1 S1                 0.0000
     23 ****        -3.3083   0.1146   4.1144 H              1 S1                 0.0000
     24 ****        -3.6461   0.1528   1.6607 H              1 S1                 0.0000
     25 ****        -3.2387  -2.8674   1.7885 H              1 S1                 0.0000
     26 ****        -4.7287  -2.0518   1.3798 H              1 S1                 0.0000
     27 ****        -3.5169  -2.8112  -0.6641 H              1 S1                 0.0000
     28 ****        -3.7086  -1.0749  -0.6426 H              1 S1                 0.0000
     29 ****        -1.1844  -2.6220   0.1123 H              1 S1                 0.0000
     30 ****        -1.4104  -1.6482  -1.3209 H              1 S1                 0.0000
     31 ****        -1.6408   0.4037   0.0589 H              1 S1                 0.0000
     32 ****         0.7742  -0.7278   1.2360 H              1 S1                 0.0000
     33 ****         2.7353   0.3407   0.6326 H              1 S1                 0.0000
     34 ****         2.8419  -0.8428  -0.6359 H              1 S1                 0.0000
     35 ****         4.9463   3.4324  -3.7385 H              1 S1                 0.0000
     36 ****         3.9858   4.3723  -1.7038 H              1 S1                 0.0000
     37 ****        -1.3326   0.3536   2.4987 H              1 S1                 0.0000
     38 ****        -1.1448  -1.3834   2.4801 H              1 S1                 0.0000
     39 ****        -0.5754   0.5847  -1.6865 LP             1 S1                 0.0000
     40 ****         0.9839   0.9968  -2.3179 LP             1 S1                 0.0000
     41 ****         3.6307  -0.3677  -2.6056 LP             1 S1                 0.0000
     42 ****         4.1195   0.3781  -4.9392 LP             1 S1                 0.0000
     43 ****         5.5299   0.1282  -4.1550 LP             1 S1                 0.0000
     44 ****         2.2449   2.2893   0.7500 LP             1 S1                 0.0000
     45 ****         2.7745   3.8838   0.3291 LP             1 S1                 0.0000
@<TRIPOS>BOND
    1    1    2 1     
    2    1   21 1     
    3    1   22 1     
    4    1   23 1     
    5    2   19 1     
    6    2    3 1     
    7    2   24 1     
    8    3    4 1     
    9    3   25 1     
   10    3   26 1     
   11    4    5 1     
   12    4   27 1     
   13    4   28 1     
   14    5    6 1     
   15    5   29 1     
   16    5   30 1     
   17    6    7 1     
   18    6   19 1     
   19    6   31 1     
   20    7    8 am    
   21    7   32 1     
   22    8    9 2     
   23    8   10 1     
   24   10   33 1     
   25   10   34 1     
   26   10   11 1     
   27   11   12 1     
   28   11   17 am    
   29   12   13 2     
   30   13   14 1     
   31   13   15 1     
   32   14   20 1     
   33   15   35 1     
   34   15   16 2     
   35   16   36 1     
   36   16   17 1     
   37   17   18 2     
   38   19   37 1     
   39   19   38 1     
   40    9   39 1     
   41    9   40 1     
   42   12   41 1     
   43   14   42 1     
   44   14   43 1     
   45   18   44 1     
   46   18   45 1     
@<TRIPOS>SUBSTRUCTURE
      1 S1             1
@<TRIPOS>SET
LONE_PAIRS      STATIC     ATOMS    <user>   **** ""
7 39 40 41 42 43 44 45
DONOR_HYDROGENS      STATIC     ATOMS    <user>   **** ""
2 32 20
ATOM$BLUE        STATIC     ATOMS    COLORGROUP SYSTEM
7 39 40 41 42 43 44 45
ATOM$RED        STATIC     ATOMS    COLORGROUP SYSTEM
2 32 20
