#       Name:                AV-unprocessed.smi:2562
#       Creating user name   scv26
#       Creation time:       Fri Mar 27 14:08:54 2020


#       File generated by GOLD software.
#

@<TRIPOS>MOLECULE
AV-unprocessed.smi:2562
    35    36     1
SMALL
NO_CHARGES


@<TRIPOS>ATOM
      1 ****        -2.5163   4.4028   1.0921 C.3            1 S1                 0.0000
      2 ****        -1.9573   2.9758   1.0897 C.3            1 S1                 0.0000
      3 ****        -0.4248   2.9430   1.1774 C.3            1 S1                 0.0000
      4 ****         0.1196   1.5523   1.1794 C.2            1 S1                 0.0000
      5 ****         0.4211   0.9059   2.3074 N.pl3          1 S1                 0.0000
      6 ****         0.8627  -0.3340   2.0073 N.2            1 S1                 0.0000
      7 ****         0.8060  -0.3353   0.6761 C.2            1 S1                 0.0000
      8 ****         1.1704  -1.5590  -0.1052 C.3            1 S1                 0.0000
      9 ****        -0.0517  -2.4523  -0.3921 C.3            1 S1                 0.0000
     10 ****         0.3449  -3.5861  -1.2496 N.4            1 S1                 1.0000
     11 ****         1.0060  -3.1233  -2.4862 C.3            1 S1                 0.0000
     12 ****         2.1882  -2.1996  -2.1426 C.3            1 S1                 0.0000
     13 ****         1.7352  -1.1160  -1.3375 O.3            1 S1                 0.0000
     14 ****         0.3283   0.8096   0.0978 N.2            1 S1                 0.0000
     15 ****         0.3377   1.2494   3.2539 H              1 S1                 0.0000
     16 ****        -3.6044   4.3937   1.0267 H              1 S1                 0.0000
     17 ****        -2.1370   4.9760   0.2457 H              1 S1                 0.0000
     18 ****        -2.2427   4.9316   2.0055 H              1 S1                 0.0000
     19 ****        -2.3833   2.4225   1.9275 H              1 S1                 0.0000
     20 ****        -2.2833   2.4644   0.1831 H              1 S1                 0.0000
     21 ****         0.0094   3.4832   0.3353 H              1 S1                 0.0000
     22 ****        -0.0901   3.4553   2.0805 H              1 S1                 0.0000
     23 ****         1.9235  -2.1196   0.4528 H              1 S1                 0.0000
     24 ****        -0.4794  -2.8329   0.5358 H              1 S1                 0.0000
     25 ****        -0.8321  -1.8806  -0.8972 H              1 S1                 0.0000
     26 ****         0.9909  -4.1690  -0.7364 H              1 S1                 0.0000
     27 ****         1.3460  -3.9858  -3.0597 H              1 S1                 0.0000
     28 ****         0.2805  -2.5918  -3.1036 H              1 S1                 0.0000
     29 ****         2.9729  -2.7500  -1.6210 H              1 S1                 0.0000
     30 ****         2.6321  -1.8009  -3.0549 H              1 S1                 0.0000
     31 ****        -0.4720  -4.1304  -1.4881 H              1 S1                 0.0000
     32 ****         1.1566  -1.0635   2.6249 LP             1 S1                 0.0000
     33 ****         2.5104  -0.5162  -1.1392 LP             1 S1                 0.0000
     34 ****         1.0406  -0.6061  -1.8451 LP             1 S1                 0.0000
     35 ****         0.1785   1.0261  -0.8669 LP             1 S1                 0.0000
@<TRIPOS>BOND
    1    1    2 1     
    2    1   16 1     
    3    1   17 1     
    4    1   18 1     
    5    2    3 1     
    6    2   19 1     
    7    2   20 1     
    8    3   21 1     
    9    3   22 1     
   10    3    4 1     
   11    4   14 2     
   12    4    5 1     
   13    5    6 1     
   14    5   15 1     
   15    6    7 2     
   16    7   14 1     
   17    7    8 1     
   18    8   13 1     
   19    8    9 1     
   20    8   23 1     
   21    9   10 1     
   22    9   24 1     
   23    9   25 1     
   24   10   11 1     
   25   10   26 1     
   26   10   31 1     
   27   11   12 1     
   28   11   27 1     
   29   11   28 1     
   30   12   13 1     
   31   12   29 1     
   32   12   30 1     
   33    6   32 1     
   34   13   33 1     
   35   13   34 1     
   36   14   35 1     
@<TRIPOS>SUBSTRUCTURE
      1 S1             1
@<TRIPOS>SET
LONE_PAIRS      STATIC     ATOMS    <user>   **** ""
4 32 33 34 35
DONOR_HYDROGENS      STATIC     ATOMS    <user>   **** ""
3 15 26 31
ATOM$BLUE        STATIC     ATOMS    COLORGROUP SYSTEM
4 32 33 34 35
ATOM$RED        STATIC     ATOMS    COLORGROUP SYSTEM
3 15 26 31
