AV-unprocessed.smi:798|AV-procd|sdf|3774|dock4
  -GOLD-   22720 1203D 1   1.00000     0.00000
 Structure written by MMmdl.
 34 36  0  0  0  0  0  0  0  0  1 V2000
  142.7777  136.2074  153.1395 O   0  0  0  0  0  0  0  0  0  0  0  0
  142.0420  135.2550  152.8794 C   0  0  0  0  0  0  0  0  0  0  0  0
  140.7161  135.2154  153.0980 N   0  0  0  0  0  0  0  0  0  0  0  0
  139.8858  136.2218  153.6584 C   0  0  0  0  0  0  0  0  0  0  0  0
  139.5807  136.2946  154.9634 N   0  0  0  0  0  0  0  0  0  0  0  0
  138.7527  137.3739  155.2439 N   0  0  0  0  0  0  0  0  0  0  0  0
  138.4661  138.0712  154.1410 C   0  0  0  0  0  0  0  0  0  0  0  0
  139.1784  137.4769  152.6512 S   0  0  0  0  0  0  0  0  0  0  0  0
  142.4747  134.1097  152.3338 N   0  0  0  0  0  0  0  0  0  0  0  0
  143.8543  133.8263  151.9453 C   0  0  1  0  0  0  0  0  0  0  0  0
  143.9881  132.3683  151.4526 C   0  0  2  0  0  0  0  0  0  0  0  0
  145.4795  131.9891  151.4317 C   0  0  0  0  0  0  0  0  0  0  0  0
  146.0103  132.7964  150.2321 C   0  0  0  0  0  0  0  0  0  0  0  0
  144.7519  133.5343  149.7260 C   0  0  1  0  0  0  0  0  0  0  0  0
  143.6787  132.4793  149.9623 C   0  0  0  0  0  0  0  0  0  0  0  0
  144.2990  134.6441  150.7050 C   0  0  2  0  0  0  0  0  0  0  0  0
  145.3526  135.7328  150.9869 C   0  0  0  0  0  0  0  0  0  0  0  0
  145.5030  136.5674  149.8588 O   0  0  0  0  0  0  0  0  0  0  0  0
  140.2440  134.3648  152.8302 H   0  0  0  0  0  0  0  0  0  0  0  0
  137.8305  138.9419  154.2051 H   0  0  0  0  0  0  0  0  0  0  0  0
  141.7981  133.3816  152.1584 H   0  0  0  0  0  0  0  0  0  0  0  0
  144.5193  133.9896  152.7960 H   0  0  0  0  0  0  0  0  0  0  0  0
  143.3724  131.6544  152.0011 H   0  0  0  0  0  0  0  0  0  0  0  0
  145.9886  132.2394  152.3631 H   0  0  0  0  0  0  0  0  0  0  0  0
  145.6060  130.9196  151.2594 H   0  0  0  0  0  0  0  0  0  0  0  0
  146.8250  133.4668  150.5033 H   0  0  0  0  0  0  0  0  0  0  0  0
  146.3899  132.1221  149.4633 H   0  0  0  0  0  0  0  0  0  0  0  0
  144.8329  133.8744  148.6933 H   0  0  0  0  0  0  0  0  0  0  0  0
  143.8522  131.5516  149.4139 H   0  0  0  0  0  0  0  0  0  0  0  0
  142.6674  132.8323  149.7528 H   0  0  0  0  0  0  0  0  0  0  0  0
  143.4310  135.1285  150.2522 H   0  0  0  0  0  0  0  0  0  0  0  0
  145.0777  136.3467  151.8444 H   0  0  0  0  0  0  0  0  0  0  0  0
  146.3185  135.2776  151.2065 H   0  0  0  0  0  0  0  0  0  0  0  0
  144.7272  137.0998  149.7711 H   0  0  0  0  0  0  0  0  0  0  0  0
  1  2  2  0  0  0  0
  2  3  1  0  0  0  0
  2  9  1  0  0  0  0
  3  4  1  0  0  0  0
  3 19  1  0  0  0  0
  4  8  1  0  0  0  0
  4  5  2  0  0  0  0
  5  6  1  0  0  0  0
  6  7  2  0  0  0  0
  7  8  1  0  0  0  0
  7 20  1  0  0  0  0
  9 10  1  0  0  0  0
  9 21  1  0  0  0  0
 10 16  1  0  0  0  0
 10 11  1  0  0  0  0
 10 22  1  0  0  0  0
 11 15  1  0  0  0  0
 11 12  1  0  0  0  0
 11 23  1  0  0  0  0
 12 13  1  0  0  0  0
 12 24  1  0  0  0  0
 12 25  1  0  0  0  0
 13 14  1  0  0  0  0
 13 26  1  0  0  0  0
 13 27  1  0  0  0  0
 14 15  1  0  0  0  0
 14 16  1  0  0  0  0
 14 28  1  0  0  0  0
 15 29  1  0  0  0  0
 15 30  1  0  0  0  0
 16 17  1  0  0  0  0
 16 31  1  0  0  0  0
 17 18  1  0  0  0  0
 17 32  1  0  0  0  0
 17 33  1  0  0  0  0
 18 34  1  0  0  0  0
M  END
> <s_m_source_file>
AV-unprocessed.smi

> <i_m_source_file_index>
798

> <i_lp_mmshare_version>
43012

> <i_f3d_flags>
0

> <s_epik_input>
W0NIMl0xW0NIMl1bQ0BASF0oW0NIMl0yKVtDQEBIXShbQ0gyXVtPSF0pW0NAQEhdKFtDQEhdMTIpW05IXUMoPU8pW05IXWMzbm5bY0hdczM=

> <s_epik_cmdline>
J2VwaWtfcHl0aG9uJywgJy1waCcsICc3LjAnLCAnLXRuJywgJzgnLCAnLW1hJywgJzIwMCcsICctbWV0YWxfYmluZGluZycsICctaW1hZScsICc8aW5maWxlLm1hZT4nLCAnLW9tYWUnLCAnPG91dGZpbGUubWFlPic=

> <r_lp_tautomer_probability>
1

> <r_epik_Ionization_Penalty>
0.000329046

> <r_epik_Ionization_Penalty_Charging>
0

> <r_epik_Ionization_Penalty_Neutral>
0.000329046

> <r_epik_State_Penalty>
-0

> <r_epik_Charging_Adjusted_Penalty>
0

> <i_epik_Tot_Q>
0

> <i_epik_Tot_abs_Q>
0

> <r_epik_Metal_State_Penalty>
0.173433

> <b_epik_Metal_Only>
0

> <s_lp_Force_Field>
OPLS_2005

> <r_lp_Energy>
48.4277

> <b_lp_Chiralities_Consistent>
1

> <s_lp_Variant>
AV-unprocessed.smi:798-6

> <Gold.Version>
5.8.1

> <Gold.Id.Protein>
6NUR|6NUR_protein|mol2

> <Gold.PLP.Fitness>
39.3293

> <Gold.PLP.PLP>
-35.0523

> <Gold.PLP.part.hbond>
-4.0351

> <Gold.PLP.part.metal>
0.0000

> <Gold.PLP.part.buried>
-4.7129

> <Gold.PLP.part.nonpolar>
-27.4023

> <Gold.PLP.part.repulsive>
0.3412

> <Gold.PLP.ligand.clash>
0.0000

> <Gold.PLP.ligand.torsion>
0.8723

> <Gold.PLP.Chemscore.Hbond>
2.0000

> <Gold.PLP.Chemscore.CHOScore>
0.0000

> <Gold.PLP.Chemscore.Metal>
0.0000

> <Gold.Chemscore.Hbonds>
donor molecule, donor type, donor heavy atom, donor atom, acceptor molecule, acceptor atom, score
      L1  H    18    34       P1 10171  1.00
      P1  H 11000 11005       L1     5  1.00

> <Gold.PLP.Chemscore.Internal.Correction>
0.0216

> <Gold.Rescore>
     Score         DG    S(hbond)    S(metal)    S(lipo)     H(rot)  DE(clash)    DE(int)     intcor
     15.35     -16.35       1.97        0.00      79.29       1.94       0.17       0.84       ----

> <Gold.Chemscore.Fitness>
15.3488

> <Gold.Chemscore.DG>
-16.3534

> <Gold.Chemscore.ZeroCoef>
-5.4800

> <Gold.Chemscore.Hbond>
1.9681

> <Gold.Chemscore.Metal>
0.0000

> <Gold.Chemscore.Lipo>
79.2895

> <Gold.Chemscore.Internal_Hbond>
0.0000

> <Gold.Chemscore.DEClash>
0.1658

> <Gold.Chemscore.DEInternal>
0.8388

> <Gold.Chemscore.Rot>
1.9442

> <Gold.Chemscore.Internal.Correction>
   9.000000E+99

> <Gold.Chemscore.Hbonds>
donor molecule, donor type, donor heavy atom, donor atom, acceptor molecule, acceptor atom, score
      L1  H    18    34       P1 10171  0.98
      P1  H 11000 11005       L1     5  0.96

> <Gold.Chemscore.Hbond.Weighted>
-6.5736

> <Gold.Chemscore.Metal.Weighted>
-0.0000

> <Gold.Chemscore.Lipo.Weighted>
-9.2769

> <Gold.Chemscore.Internal_Hbond.Weighted>
0.0000

> <Gold.Chemscore.DEClash.Weighted>
0.1658

> <Gold.Chemscore.DEInternal.Weighted>
0.8388

> <Gold.Chemscore.Rot.Weighted>
4.9771

> <Gold.Chemscore.Internal.Correction.Weighted>
   9.000000E+99

> <Gold.Protein.RotatedTorsions>
[ 6907 6896 6895 6894 ] final   51.08 input  -60.11 | X-H torsion
[ 7974 7965 7964 7962 ] final  -86.95 input  175.53 | X-H torsion
[ 8008 7997 7996 7995 ] final -136.55 input   59.86 | X-H torsion
[ 10167 10162 10161 10158 ] final  -76.72 input  -65.29 | X-H torsion
[ 10718 10713 10712 10709 ] final   67.22 input   66.30 | X-H torsion
[ 10763 10752 10751 10750 ] final   -0.52 input  -60.55 | X-H torsion
[ 11005 11000 10999 10996 ] final   72.03 input  -57.11 | X-H torsion

> <Gold.Protein.ActiveResidues>
 VAL166  LYS551  ARG553  GLY616  TRP617  ASP618  TYR619  PRO620  LYS621  CYS622 
 ASP623  PHE694  ASN695  SER759  ASP760  ASP761  ALA762  ILE779  LEU786  VAL792 
 PHE793  MET794  SER795  GLU796  ALA797  LYS798  CYS799  TRP800  GLU811  SER814 

> <Gold.Protein.RotatedAtoms>
  152.3087  134.7523  160.0341 H   0  0  0  0  0  0  0  0  0  0  0  0  # atno 6907 bound_to 6896
  151.8011  133.3365  159.3535 H   0  0  0  0  0  0  0  0  0  0  0  0  # atno 6908 bound_to 6896
  150.7309  134.5683  159.5921 H   0  0  0  0  0  0  0  0  0  0  0  0  # atno 6909 bound_to 6896
  145.4730  140.9559  143.1906 H   0  0  0  0  0  0  0  0  0  0  0  0  # atno 7974 bound_to 7965
  155.3972  140.0503  157.3038 H   0  0  0  0  0  0  0  0  0  0  0  0  # atno 8008 bound_to 7997
  154.5008  140.2156  155.9312 H   0  0  0  0  0  0  0  0  0  0  0  0  # atno 8009 bound_to 7997
  156.1465  140.3144  155.8583 H   0  0  0  0  0  0  0  0  0  0  0  0  # atno 8010 bound_to 7997
  140.4832  143.2397  151.8024 H   0  0  0  0  0  0  0  0  0  0  0  0  # atno 10167 bound_to 10162
  157.6217  130.9309  150.0214 H   0  0  0  0  0  0  0  0  0  0  0  0  # atno 10718 bound_to 10713
  153.3330  135.6976  153.6931 H   0  0  0  0  0  0  0  0  0  0  0  0  # atno 10763 bound_to 10752
  153.5727  135.3513  155.2844 H   0  0  0  0  0  0  0  0  0  0  0  0  # atno 10764 bound_to 10752
  154.8622  135.4276  154.2523 H   0  0  0  0  0  0  0  0  0  0  0  0  # atno 10765 bound_to 10752
  139.9512  134.7223  156.0858 H   0  0  0  0  0  0  0  0  0  0  0  0  # atno 11005 bound_to 11000
  144.7934  139.6283  143.7103 LP  0  0  0  0  0  0  0  0  0  0  0  0  # atno 17320 bound_to 7965
  146.2385  139.5954  142.9507 LP  0  0  0  0  0  0  0  0  0  0  0  0  # atno 17321 bound_to 7965
  139.4837  144.4745  151.9384 LP  0  0  0  0  0  0  0  0  0  0  0  0  # atno 17342 bound_to 10162
  140.3831  144.2711  150.5906 LP  0  0  0  0  0  0  0  0  0  0  0  0  # atno 17343 bound_to 10162
  156.1366  130.3642  149.9647 LP  0  0  0  0  0  0  0  0  0  0  0  0  # atno 17370 bound_to 10713
  156.7697  130.9181  151.3644 LP  0  0  0  0  0  0  0  0  0  0  0  0  # atno 17371 bound_to 10713
  141.1175  133.6623  156.3131 LP  0  0  0  0  0  0  0  0  0  0  0  0  # atno 17394 bound_to 11000
  140.5715  134.5836  157.5458 LP  0  0  0  0  0  0  0  0  0  0  0  0  # atno 17395 bound_to 11000

$$$$
