#       Name:                AV-unprocessed.smi:1645
#       Creating user name   scv26
#       Creation time:       Fri Mar 27 07:30:35 2020


#       File generated by GOLD software.
#

@<TRIPOS>MOLECULE
AV-unprocessed.smi:1645
    59    62     1
SMALL
NO_CHARGES


@<TRIPOS>ATOM
      1 ****        -0.8404   1.5372   0.2081 O.2            1 S1                 0.0000
      2 ****        -1.1974   0.4803   0.7282 C.2            1 S1                 0.0000
      3 ****        -0.3770  -0.5199   1.0913 N.am           1 S1                 0.0000
      4 ****         1.0308  -0.5980   0.9192 C.ar           1 S1                 0.0000
      5 ****         1.7388   0.0651  -0.1095 C.ar           1 S1                 0.0000
      6 ****         3.1339  -0.1029  -0.1945 C.ar           1 S1                 0.0000
      7 ****         3.7891  -0.9325   0.7451 C.ar           1 S1                 0.0000
      8 ****         5.1872  -1.1095   0.6742 N.3            1 S1                 0.0000
      9 ****         5.6807  -1.6227  -0.6052 C.3            1 S1                 0.0000
     10 ****         7.1998  -1.4183  -0.7376 C.3            1 S1                 0.0000
     11 ****         7.9447  -2.0148   0.4660 C.3            1 S1                 0.0000
     12 ****         7.3859  -1.4301   1.7714 C.3            1 S1                 0.0000
     13 ****         5.8642  -1.6359   1.8619 C.3            1 S1                 0.0000
     14 ****         3.1059  -1.5753   1.7241 N.ar           1 S1                 0.0000
     15 ****         1.7680  -1.4159   1.7984 C.ar           1 S1                 0.0000
     16 ****        -2.4743   0.1980   1.0229 N.am           1 S1                 0.0000
     17 ****        -3.6041   1.0932   0.7886 C.3            1 S1                 0.0000
     18 ****        -4.7858   0.8285   1.7375 C.3            1 S1                 0.0000
     19 ****        -6.0504   1.0906   0.8954 C.3            1 S1                 0.0000
     20 ****        -5.5586   1.5255  -0.4263 N.4            1 S1                 1.0000
     21 ****        -6.4512   1.3054  -1.5849 C.3            1 S1                 0.0000
     22 ****        -5.8031   1.9095  -2.8464 C.3            1 S1                 0.0000
     23 ****        -4.3719   1.3778  -3.0630 C.3            1 S1                 0.0000
     24 ****        -3.5164   1.5480  -1.7928 C.3            1 S1                 0.0000
     25 ****        -4.2354   0.9051  -0.5940 C.3            1 S1                 0.0000
     26 ****        -0.7954  -1.2820   1.6045 H              1 S1                 0.0000
     27 ****         1.2401   0.6860  -0.8378 H              1 S1                 0.0000
     28 ****         3.6857   0.4101  -0.9682 H              1 S1                 0.0000
     29 ****         5.4435  -2.6856  -0.6667 H              1 S1                 0.0000
     30 ****         5.1837  -1.1433  -1.4479 H              1 S1                 0.0000
     31 ****         7.5578  -1.8731  -1.6617 H              1 S1                 0.0000
     32 ****         7.4193  -0.3523  -0.8113 H              1 S1                 0.0000
     33 ****         7.8310  -3.0996   0.4697 H              1 S1                 0.0000
     34 ****         9.0132  -1.8114   0.3874 H              1 S1                 0.0000
     35 ****         7.8758  -1.8908   2.6293 H              1 S1                 0.0000
     36 ****         7.6132  -0.3644   1.8200 H              1 S1                 0.0000
     37 ****         5.4890  -1.1387   2.7573 H              1 S1                 0.0000
     38 ****         5.6371  -2.6981   1.9627 H              1 S1                 0.0000
     39 ****         1.2721  -1.9547   2.5927 H              1 S1                 0.0000
     40 ****        -2.6772  -0.6927   1.4529 H              1 S1                 0.0000
     41 ****        -3.2959   2.1342   0.9086 H              1 S1                 0.0000
     42 ****        -4.7880  -0.2052   2.0869 H              1 S1                 0.0000
     43 ****        -4.7392   1.4711   2.6172 H              1 S1                 0.0000
     44 ****        -6.6341   0.1737   0.7995 H              1 S1                 0.0000
     45 ****        -6.6906   1.8558   1.3355 H              1 S1                 0.0000
     46 ****        -6.6300   0.2376  -1.7199 H              1 S1                 0.0000
     47 ****        -7.4176   1.7744  -1.3968 H              1 S1                 0.0000
     48 ****        -6.4179   1.6971  -3.7215 H              1 S1                 0.0000
     49 ****        -5.7710   2.9956  -2.7498 H              1 S1                 0.0000
     50 ****        -4.4150   0.3216  -3.3320 H              1 S1                 0.0000
     51 ****        -3.9032   1.8913  -3.9029 H              1 S1                 0.0000
     52 ****        -2.5400   1.0874  -1.9434 H              1 S1                 0.0000
     53 ****        -3.3387   2.6072  -1.6017 H              1 S1                 0.0000
     54 ****        -4.3725  -0.1622  -0.7835 H              1 S1                 0.0000
     55 ****        -5.3972   2.5203  -0.3574 H              1 S1                 0.0000
     56 ****         0.1288   1.7021   0.0251 LP             1 S1                 0.0000
     57 ****        -1.5196   2.2310  -0.0315 LP             1 S1                 0.0000
     58 ****         5.4987  -0.1595   0.6950 LP             1 S1                 0.0000
     59 ****         3.5855  -2.1578   2.3802 LP             1 S1                 0.0000
@<TRIPOS>BOND
    1    1    2 2     
    2    2    3 am    
    3    2   16 am    
    4    3    4 1     
    5    3   26 1     
    6    4   15 ar    
    7    4    5 ar    
    8    5    6 ar    
    9    5   27 1     
   10    6    7 ar    
   11    6   28 1     
   12    7    8 1     
   13    7   14 ar    
   14    8   13 1     
   15    8    9 1     
   16    9   10 1     
   17    9   29 1     
   18    9   30 1     
   19   10   11 1     
   20   10   31 1     
   21   10   32 1     
   22   11   12 1     
   23   11   33 1     
   24   11   34 1     
   25   12   13 1     
   26   12   35 1     
   27   12   36 1     
   28   13   37 1     
   29   13   38 1     
   30   14   15 ar    
   31   15   39 1     
   32   16   17 1     
   33   16   40 1     
   34   17   25 1     
   35   17   18 1     
   36   17   41 1     
   37   18   19 1     
   38   18   42 1     
   39   18   43 1     
   40   19   20 1     
   41   19   44 1     
   42   19   45 1     
   43   20   25 1     
   44   20   21 1     
   45   20   55 1     
   46   21   22 1     
   47   21   46 1     
   48   21   47 1     
   49   22   23 1     
   50   22   48 1     
   51   22   49 1     
   52   23   24 1     
   53   23   50 1     
   54   23   51 1     
   55   24   25 1     
   56   24   52 1     
   57   24   53 1     
   58   25   54 1     
   59    1   56 1     
   60    1   57 1     
   61    8   58 1     
   62   14   59 1     
@<TRIPOS>SUBSTRUCTURE
      1 S1             1
@<TRIPOS>SET
LONE_PAIRS      STATIC     ATOMS    <user>   **** ""
4 56 57 58 59
DONOR_HYDROGENS      STATIC     ATOMS    <user>   **** ""
3 26 40 55
ATOM$BLUE        STATIC     ATOMS    COLORGROUP SYSTEM
4 56 57 58 59
ATOM$RED        STATIC     ATOMS    COLORGROUP SYSTEM
3 26 40 55
