AV-unprocessed.smi:3187|AV-procd|sdf|12181|dock7
  -GOLD-   2272018 23D 1   1.00000     0.00000
 Structure written by MMmdl.
 42 43  0  0  0  0  0  0  0  0  3 V2000
  153.0084  140.6005  159.5099 C   0  0  0  0  0  0  0  0  0  0  0  0
  152.5267  141.9837  159.9157 C   0  0  0  0  0  0  0  0  0  0  0  0
  152.7864  142.4448  161.1542 C   0  0  0  0  0  0  0  0  0  0  0  0
  152.4234  143.8280  161.6426 C   0  0  0  0  0  0  0  0  0  0  0  0
  152.2023  144.7842  160.4683 C   0  0  0  0  0  0  0  0  0  0  0  0
  151.2501  144.1794  159.4235 C   0  0  1  0  0  0  0  0  0  0  0  0
  150.9861  145.2143  158.3127 C   0  0  0  0  0  0  0  0  0  0  0  0
  151.7702  142.8194  158.8623 C   0  0  2  0  0  0  0  0  0  0  0  0
  150.6057  142.0372  158.1985 C   0  0  0  0  0  0  0  0  0  0  0  0
  150.4007  142.3990  156.7804 N   0  3  0  0  0  0  0  0  0  0  0  0
  149.8489  141.3069  155.9546 C   0  0  0  0  0  0  0  0  0  0  0  0
  149.2111  141.8526  154.6692 C   0  0  0  0  0  0  0  0  0  0  0  0
  148.2681  140.8978  154.0815 N   0  0  0  0  0  0  0  0  0  0  0  0
  148.4234  139.5399  153.9661 C   0  0  0  0  0  0  0  0  0  0  0  0
  147.2916  139.0678  153.3524 C   0  0  0  0  0  0  0  0  0  0  0  0
  146.4939  140.1558  153.1196 N   0  3  0  0  0  0  0  0  0  0  0  0
  147.0893  141.2678  153.5635 C   0  0  0  0  0  0  0  0  0  0  0  0
  153.5610  140.6482  158.5714 H   0  0  0  0  0  0  0  0  0  0  0  0
  152.1707  139.9130  159.3961 H   0  0  0  0  0  0  0  0  0  0  0  0
  153.6743  140.1768  160.2625 H   0  0  0  0  0  0  0  0  0  0  0  0
  153.2997  141.8161  161.8675 H   0  0  0  0  0  0  0  0  0  0  0  0
  151.5279  143.7571  162.2605 H   0  0  0  0  0  0  0  0  0  0  0  0
  153.2242  144.2054  162.2790 H   0  0  0  0  0  0  0  0  0  0  0  0
  151.8090  145.7300  160.8428 H   0  0  0  0  0  0  0  0  0  0  0  0
  153.1606  145.0136  159.9996 H   0  0  0  0  0  0  0  0  0  0  0  0
  150.3032  143.9939  159.9337 H   0  0  0  0  0  0  0  0  0  0  0  0
  151.8964  145.4356  157.7545 H   0  0  0  0  0  0  0  0  0  0  0  0
  150.6248  146.1532  158.7337 H   0  0  0  0  0  0  0  0  0  0  0  0
  150.2343  144.8797  157.5998 H   0  0  0  0  0  0  0  0  0  0  0  0
  152.5085  143.0513  158.0931 H   0  0  0  0  0  0  0  0  0  0  0  0
  150.7892  140.9648  158.2810 H   0  0  0  0  0  0  0  0  0  0  0  0
  149.6641  142.2253  158.7113 H   0  0  0  0  0  0  0  0  0  0  0  0
  149.7722  143.1889  156.7395 H   0  0  0  0  0  0  0  0  0  0  0  0
  150.6489  140.6077  155.7063 H   0  0  0  0  0  0  0  0  0  0  0  0
  149.1073  140.7571  156.5360 H   0  0  0  0  0  0  0  0  0  0  0  0
  148.6669  142.7767  154.8700 H   0  0  0  0  0  0  0  0  0  0  0  0
  149.9742  142.0839  153.9242 H   0  0  0  0  0  0  0  0  0  0  0  0
  149.3034  139.0220  154.3196 H   0  0  0  0  0  0  0  0  0  0  0  0
  147.0015  138.0654  153.0716 H   0  0  0  0  0  0  0  0  0  0  0  0
  146.6927  142.2663  153.5127 H   0  0  0  0  0  0  0  0  0  0  0  0
  151.2919  142.6762  156.3937 H   0  0  0  0  0  0  0  0  0  0  0  0
  145.5834  140.1256  152.6774 H   0  0  0  0  0  0  0  0  0  0  0  0
  1  2  1  0  0  0  0
  1 18  1  0  0  0  0
  1 19  1  0  0  0  0
  1 20  1  0  0  0  0
  2  8  1  0  0  0  0
  2  3  2  0  0  0  0
  3  4  1  0  0  0  0
  3 21  1  0  0  0  0
  4  5  1  0  0  0  0
  4 22  1  0  0  0  0
  4 23  1  0  0  0  0
  5  6  1  0  0  0  0
  5 24  1  0  0  0  0
  5 25  1  0  0  0  0
  6  7  1  0  0  0  0
  6  8  1  0  0  0  0
  6 26  1  0  0  0  0
  7 27  1  0  0  0  0
  7 28  1  0  0  0  0
  7 29  1  0  0  0  0
  8  9  1  0  0  0  0
  8 30  1  0  0  0  0
  9 10  1  0  0  0  0
  9 31  1  0  0  0  0
  9 32  1  0  0  0  0
 10 11  1  0  0  0  0
 10 33  1  0  0  0  0
 10 41  1  0  0  0  0
 11 12  1  0  0  0  0
 11 34  1  0  0  0  0
 11 35  1  0  0  0  0
 12 13  1  0  0  0  0
 12 36  1  0  0  0  0
 12 37  1  0  0  0  0
 13 17  1  0  0  0  0
 13 14  1  0  0  0  0
 14 15  2  0  0  0  0
 14 38  1  0  0  0  0
 15 16  1  0  0  0  0
 15 39  1  0  0  0  0
 16 17  2  0  0  0  0
 16 42  1  0  0  0  0
 17 40  1  0  0  0  0
M  CHG  1  10   1
M  CHG  1  16   1
M  END
> <s_m_source_file>
AV-unprocessed.smi

> <i_m_source_file_index>
3187

> <i_lp_mmshare_version>
43012

> <i_f3d_flags>
0

> <s_epik_input>
W0NIM11DMT1bQ0hdW0NIMl1bQ0gyXVtDQEBIXShbQ0gzXSlbQ0BIXTFbQ0gyXVtOSF1bQ0gyXVtDSDJdbjJbY0hdW2NIXW5bY0hdMg==

> <s_epik_cmdline>
J2VwaWtfcHl0aG9uJywgJy1waCcsICc3LjAnLCAnLXRuJywgJzgnLCAnLW1hJywgJzIwMCcsICctbWV0YWxfYmluZGluZycsICctaW1hZScsICc8aW5maWxlLm1hZT4nLCAnLW9tYWUnLCAnPG91dGZpbGUubWFlPic=

> <r_lp_tautomer_probability>
1

> <r_epik_Ionization_Penalty>
1.51066

> <r_epik_Ionization_Penalty_Charging>
0.0026721

> <r_epik_Ionization_Penalty_Neutral>
1.50798

> <r_epik_State_Penalty>
1.12593

> <r_epik_Charging_Adjusted_Penalty>
1.12861

> <i_epik_Tot_Q>
2

> <i_epik_Tot_abs_Q>
2

> <r_epik_Metal_State_Penalty>
5.12155

> <b_epik_Metal_Only>
0

> <s_lp_Force_Field>
OPLS_2005

> <r_lp_Energy>
24.2978

> <b_lp_Chiralities_Consistent>
1

> <s_lp_Variant>
AV-unprocessed.smi:3187-7

> <Gold.Version>
5.8.1

> <Gold.Id.Protein>
6NUR|6NUR_protein|mol2

> <Gold.PLP.Fitness>
51.2431

> <Gold.PLP.PLP>
-41.3514

> <Gold.PLP.part.hbond>
-2.0000

> <Gold.PLP.part.metal>
0.0000

> <Gold.PLP.part.buried>
-1.4907

> <Gold.PLP.part.nonpolar>
-36.4394

> <Gold.PLP.part.repulsive>
0.0507

> <Gold.PLP.ligand.clash>
0.0000

> <Gold.PLP.ligand.torsion>
1.0038

> <Gold.PLP.Chemscore.Hbond>
3.9500

> <Gold.PLP.Chemscore.CHOScore>
0.0000

> <Gold.PLP.Chemscore.Metal>
0.0000

> <Gold.Chemscore.Hbonds>
donor molecule, donor type, donor heavy atom, donor atom, acceptor molecule, acceptor atom, score
      L1  H    10    33       P1  8028  1.82
      L1  H    16    42       P1 10175  2.00

> <Gold.PLP.Chemscore.Internal.Correction>
0.0494

> <Gold.Rescore>
     Score         DG    S(hbond)    S(metal)    S(lipo)     H(rot)  DE(clash)    DE(int)     intcor
     19.17     -20.72       1.96        0.00     117.59       1.97       0.45       1.10       ----

> <Gold.Chemscore.Fitness>
19.1712

> <Gold.Chemscore.DG>
-20.7178

> <Gold.Chemscore.ZeroCoef>
-5.4800

> <Gold.Chemscore.Hbond>
1.9554

> <Gold.Chemscore.Metal>
0.0000

> <Gold.Chemscore.Lipo>
117.5906

> <Gold.Chemscore.Internal_Hbond>
0.0000

> <Gold.Chemscore.DEClash>
0.4485

> <Gold.Chemscore.DEInternal>
1.0980

> <Gold.Chemscore.Rot>
1.9732

> <Gold.Chemscore.Internal.Correction>
   9.000000E+99

> <Gold.Chemscore.Hbonds>
donor molecule, donor type, donor heavy atom, donor atom, acceptor molecule, acceptor atom, score
      L1  H    10    33       P1  8028  0.82
      L1  H    16    42       P1 10175  0.93

> <Gold.Chemscore.Hbond.Weighted>
-6.5310

> <Gold.Chemscore.Metal.Weighted>
-0.0000

> <Gold.Chemscore.Lipo.Weighted>
-13.7581

> <Gold.Chemscore.Internal_Hbond.Weighted>
0.0000

> <Gold.Chemscore.DEClash.Weighted>
0.4485

> <Gold.Chemscore.DEInternal.Weighted>
1.0980

> <Gold.Chemscore.Rot.Weighted>
5.0514

> <Gold.Chemscore.Internal.Correction.Weighted>
   9.000000E+99

> <Gold.Protein.RotatedTorsions>
[ 6907 6896 6895 6894 ] final  -52.25 input  -60.11 | X-H torsion
[ 7974 7965 7964 7962 ] final -175.42 input  175.53 | X-H torsion
[ 8008 7997 7996 7995 ] final   -4.79 input   59.86 | X-H torsion
[ 10167 10162 10161 10158 ] final -131.89 input  -65.29 | X-H torsion
[ 10718 10713 10712 10709 ] final   29.27 input   66.30 | X-H torsion
[ 10763 10752 10751 10750 ] final   74.28 input  -60.55 | X-H torsion
[ 11005 11000 10999 10996 ] final -145.19 input  -57.11 | X-H torsion

> <Gold.Protein.ActiveResidues>
 VAL166  LYS551  ARG553  GLY616  TRP617  ASP618  TYR619  PRO620  LYS621  CYS622 
 ASP623  PHE694  ASN695  SER759  ASP760  ASP761  ALA762  ILE779  LEU786  VAL792 
 PHE793  MET794  SER795  GLU796  ALA797  LYS798  CYS799  TRP800  GLU811  SER814 

> <Gold.Protein.RotatedAtoms>
  150.8535  134.7867  159.7026 H   0  0  0  0  0  0  0  0  0  0  0  0  # atno 6907 bound_to 6896
  152.4593  134.5217  159.9794 H   0  0  0  0  0  0  0  0  0  0  0  0  # atno 6908 bound_to 6896
  151.5334  133.3407  159.2958 H   0  0  0  0  0  0  0  0  0  0  0  0  # atno 6909 bound_to 6896
  144.7128  140.1323  143.6398 H   0  0  0  0  0  0  0  0  0  0  0  0  # atno 7974 bound_to 7965
  154.6107  140.2475  155.7673 H   0  0  0  0  0  0  0  0  0  0  0  0  # atno 8008 bound_to 7997
  156.2368  140.2947  156.0286 H   0  0  0  0  0  0  0  0  0  0  0  0  # atno 8009 bound_to 7997
  155.2058  140.0395  157.2915 H   0  0  0  0  0  0  0  0  0  0  0  0  # atno 8010 bound_to 7997
  139.9142  143.6458  152.2568 H   0  0  0  0  0  0  0  0  0  0  0  0  # atno 10167 bound_to 10162
  157.2444  130.7084  149.6374 H   0  0  0  0  0  0  0  0  0  0  0  0  # atno 10718 bound_to 10713
  153.0576  135.5031  154.8019 H   0  0  0  0  0  0  0  0  0  0  0  0  # atno 10763 bound_to 10752
  154.6832  135.2972  154.9586 H   0  0  0  0  0  0  0  0  0  0  0  0  # atno 10764 bound_to 10752
  154.0365  135.6722  153.4838 H   0  0  0  0  0  0  0  0  0  0  0  0  # atno 10765 bound_to 10752
  140.7947  134.2927  157.5000 H   0  0  0  0  0  0  0  0  0  0  0  0  # atno 11005 bound_to 11000
  145.9276  139.2585  143.1344 LP  0  0  0  0  0  0  0  0  0  0  0  0  # atno 17320 bound_to 7965
  145.9556  140.8875  143.0237 LP  0  0  0  0  0  0  0  0  0  0  0  0  # atno 17321 bound_to 7965
  139.6916  144.7646  151.1428 LP  0  0  0  0  0  0  0  0  0  0  0  0  # atno 17342 bound_to 10162
  140.7678  143.5581  150.9129 LP  0  0  0  0  0  0  0  0  0  0  0  0  # atno 17343 bound_to 10162
  155.9668  130.4448  150.5474 LP  0  0  0  0  0  0  0  0  0  0  0  0  # atno 17370 bound_to 10713
  157.3345  131.0705  151.1836 LP  0  0  0  0  0  0  0  0  0  0  0  0  # atno 17371 bound_to 10713
  139.8727  134.9395  156.3744 LP  0  0  0  0  0  0  0  0  0  0  0  0  # atno 17394 bound_to 11000
  140.9354  133.7550  156.0078 LP  0  0  0  0  0  0  0  0  0  0  0  0  # atno 17395 bound_to 11000

$$$$
