AV-unprocessed.smi:1368|AV-procd|sdf|5577|dock2
  -GOLD-   22720 5173D 1   1.00000     0.00000
 Structure written by MMmdl.
 47 49  0  0  0  0  0  0  0  0  2 V2000
  155.4156  132.5996  166.0883 C   0  0  0  0  0  0  0  0  0  0  0  0
  155.1617  133.2695  164.7414 C   0  0  0  0  0  0  0  0  0  0  0  0
  155.1663  132.5848  163.7193 O   0  0  0  0  0  0  0  0  0  0  0  0
  154.9727  134.6019  164.7785 N   0  0  0  0  0  0  0  0  0  0  0  0
  154.7030  135.4969  163.7069 C   0  0  0  0  0  0  0  0  0  0  0  0
  154.4932  136.8509  164.0358 C   0  0  0  0  0  0  0  0  0  0  0  0
  154.2009  137.7939  163.0324 C   0  0  0  0  0  0  0  0  0  0  0  0
  154.1028  137.4046  161.6818 C   0  0  0  0  0  0  0  0  0  0  0  0
  153.8117  138.3912  160.7638 O   0  0  0  0  0  0  0  0  0  0  0  0
  153.0933  138.0281  159.5920 C   0  0  0  0  0  0  0  0  0  0  0  0
  152.1074  139.1532  159.2399 C   0  0  2  0  0  0  0  0  0  0  0  0
  150.8135  138.5946  159.1227 O   0  0  0  0  0  0  0  0  0  0  0  0
  152.4847  139.8484  157.9161 C   0  0  0  0  0  0  0  0  0  0  0  0
  151.8402  141.1616  157.7508 N   0  0  0  0  0  0  0  0  0  0  0  0
  150.9907  141.6014  156.7791 C   0  0  0  0  0  0  0  0  0  0  0  0
  150.4985  140.8208  155.6071 C   0  0  0  0  0  0  0  0  0  0  0  0
  150.6677  142.8914  157.0772 N   0  3  0  0  0  0  0  0  0  0  0  0
  151.3169  143.2817  158.2493 C   0  0  0  0  0  0  0  0  0  0  0  0
  151.2993  144.4891  158.9408 C   0  0  0  0  0  0  0  0  0  0  0  0
  152.0833  144.5599  160.1110 C   0  0  0  0  0  0  0  0  0  0  0  0
  152.8452  143.4585  160.5516 C   0  0  0  0  0  0  0  0  0  0  0  0
  152.8540  142.2391  159.8428 C   0  0  0  0  0  0  0  0  0  0  0  0
  152.0744  142.1759  158.6877 C   0  0  0  0  0  0  0  0  0  0  0  0
  154.3003  136.0408  161.3518 C   0  0  0  0  0  0  0  0  0  0  0  0
  154.5924  135.0956  162.3543 C   0  0  0  0  0  0  0  0  0  0  0  0
  154.9333  133.1469  166.8993 H   0  0  0  0  0  0  0  0  0  0  0  0
  156.4859  132.5556  166.2907 H   0  0  0  0  0  0  0  0  0  0  0  0
  155.0246  131.5816  166.0886 H   0  0  0  0  0  0  0  0  0  0  0  0
  155.0869  135.0357  165.6831 H   0  0  0  0  0  0  0  0  0  0  0  0
  154.5598  137.1756  165.0640 H   0  0  0  0  0  0  0  0  0  0  0  0
  154.0488  138.8285  163.3033 H   0  0  0  0  0  0  0  0  0  0  0  0
  153.8084  137.9087  158.7762 H   0  0  0  0  0  0  0  0  0  0  0  0
  152.5688  137.0790  159.7172 H   0  0  0  0  0  0  0  0  0  0  0  0
  152.0992  139.8954  160.0389 H   0  0  0  0  0  0  0  0  0  0  0  0
  150.4168  138.5774  159.9808 H   0  0  0  0  0  0  0  0  0  0  0  0
  153.5619  140.0155  157.8807 H   0  0  0  0  0  0  0  0  0  0  0  0
  152.2513  139.2193  157.0568 H   0  0  0  0  0  0  0  0  0  0  0  0
  149.8815  141.4454  154.9608 H   0  0  0  0  0  0  0  0  0  0  0  0
  149.9008  139.9742  155.9452 H   0  0  0  0  0  0  0  0  0  0  0  0
  151.3390  140.4441  155.0244 H   0  0  0  0  0  0  0  0  0  0  0  0
  150.7180  145.3350  158.6038 H   0  0  0  0  0  0  0  0  0  0  0  0
  152.1021  145.4778  160.6808 H   0  0  0  0  0  0  0  0  0  0  0  0
  153.4368  143.5505  161.4508 H   0  0  0  0  0  0  0  0  0  0  0  0
  153.4473  141.4050  160.1865 H   0  0  0  0  0  0  0  0  0  0  0  0
  154.2279  135.6893  160.3340 H   0  0  0  0  0  0  0  0  0  0  0  0
  154.7123  134.0652  162.0590 H   0  0  0  0  0  0  0  0  0  0  0  0
  150.0479  143.4622  156.5170 H   0  0  0  0  0  0  0  0  0  0  0  0
  1  2  1  0  0  0  0
  1 26  1  0  0  0  0
  1 27  1  0  0  0  0
  1 28  1  0  0  0  0
  2  3  2  0  0  0  0
  2  4  1  0  0  0  0
  4  5  1  0  0  0  0
  4 29  1  0  0  0  0
  5 25  1  0  0  0  0
  5  6  2  0  0  0  0
  6  7  1  0  0  0  0
  6 30  1  0  0  0  0
  7  8  2  0  0  0  0
  7 31  1  0  0  0  0
  8  9  1  0  0  0  0
  8 24  1  0  0  0  0
  9 10  1  0  0  0  0
 10 11  1  0  0  0  0
 10 32  1  0  0  0  0
 10 33  1  0  0  0  0
 11 12  1  0  0  0  0
 11 13  1  0  0  0  0
 11 34  1  0  0  0  0
 12 35  1  0  0  0  0
 13 14  1  0  0  0  0
 13 36  1  0  0  0  0
 13 37  1  0  0  0  0
 14 23  1  0  0  0  0
 14 15  1  0  0  0  0
 15 16  1  0  0  0  0
 15 17  2  0  0  0  0
 16 38  1  0  0  0  0
 16 39  1  0  0  0  0
 16 40  1  0  0  0  0
 17 18  1  0  0  0  0
 17 47  1  0  0  0  0
 18 23  2  0  0  0  0
 18 19  1  0  0  0  0
 19 20  2  0  0  0  0
 19 41  1  0  0  0  0
 20 21  1  0  0  0  0
 20 42  1  0  0  0  0
 21 22  2  0  0  0  0
 21 43  1  0  0  0  0
 22 23  1  0  0  0  0
 22 44  1  0  0  0  0
 24 25  2  0  0  0  0
 24 45  1  0  0  0  0
 25 46  1  0  0  0  0
M  CHG  1  17   1
M  END
> <s_m_source_file>
AV-unprocessed.smi

> <i_m_source_file_index>
1368

> <i_lp_mmshare_version>
43012

> <i_f3d_flags>
0

> <s_epik_input>
W0NIM11DKD1PKVtOSF1jMVtjSF1bY0hdYyhbY0hdW2NIXTEpT1tDSDJdW0NASF0oW09IXSlbQ0gyXW4oYyhuMilbQ0gzXSljKGMyMylbY0hdW2NIXVtjSF1bY0hdMw==

> <s_epik_cmdline>
J2VwaWtfcHl0aG9uJywgJy1waCcsICc3LjAnLCAnLXRuJywgJzgnLCAnLW1hJywgJzIwMCcsICctbWV0YWxfYmluZGluZycsICctaW1hZScsICc8aW5maWxlLm1hZT4nLCAnLW9tYWUnLCAnPG91dGZpbGUubWFlPic=

> <r_lp_tautomer_probability>
1

> <r_epik_Ionization_Penalty>
1.00673

> <r_epik_Ionization_Penalty_Charging>
1.00673

> <r_epik_Ionization_Penalty_Neutral>
2.60899e-06

> <r_epik_State_Penalty>
1.05579

> <r_epik_Charging_Adjusted_Penalty>
2.06252

> <i_epik_Tot_Q>
1

> <i_epik_Tot_abs_Q>
1

> <r_epik_Metal_State_Penalty>
1.15682

> <b_epik_Metal_Only>
0

> <s_lp_Force_Field>
OPLS_2005

> <r_lp_Energy>
25.0727

> <b_lp_Chiralities_Consistent>
1

> <s_lp_Variant>
AV-unprocessed.smi:1368-3

> <Gold.Version>
5.8.1

> <Gold.Id.Protein>
6NUR|6NUR_protein|mol2

> <Gold.PLP.Fitness>
54.4742

> <Gold.PLP.PLP>
-51.4079

> <Gold.PLP.part.hbond>
-2.2257

> <Gold.PLP.part.metal>
0.0000

> <Gold.PLP.part.buried>
-6.0612

> <Gold.PLP.part.nonpolar>
-42.0835

> <Gold.PLP.part.repulsive>
0.0320

> <Gold.PLP.ligand.clash>
0.0000

> <Gold.PLP.ligand.torsion>
1.5148

> <Gold.PLP.Chemscore.Hbond>
2.0000

> <Gold.PLP.Chemscore.CHOScore>
0.0000

> <Gold.PLP.Chemscore.Metal>
0.0000

> <Gold.Chemscore.Hbonds>
donor molecule, donor type, donor heavy atom, donor atom, acceptor molecule, acceptor atom, score
      L1  H    17    47       P1  8028  2.00

> <Gold.PLP.Chemscore.Internal.Correction>
0.0959

> <Gold.Rescore>
     Score         DG    S(hbond)    S(metal)    S(lipo)     H(rot)  DE(clash)    DE(int)     intcor
     16.12     -19.22       0.99        0.00     143.10       2.47       0.30       2.79       ----

> <Gold.Chemscore.Fitness>
16.1236

> <Gold.Chemscore.DG>
-19.2153

> <Gold.Chemscore.ZeroCoef>
-5.4800

> <Gold.Chemscore.Hbond>
0.9939

> <Gold.Chemscore.Metal>
0.0000

> <Gold.Chemscore.Lipo>
143.1005

> <Gold.Chemscore.Internal_Hbond>
0.0000

> <Gold.Chemscore.DEClash>
0.2971

> <Gold.Chemscore.DEInternal>
2.7946

> <Gold.Chemscore.Rot>
2.4715

> <Gold.Chemscore.Internal.Correction>
   9.000000E+99

> <Gold.Chemscore.Hbonds>
donor molecule, donor type, donor heavy atom, donor atom, acceptor molecule, acceptor atom, score
      L1  H    17    47       P1  8028  1.00

> <Gold.Chemscore.Hbond.Weighted>
-3.3196

> <Gold.Chemscore.Metal.Weighted>
-0.0000

> <Gold.Chemscore.Lipo.Weighted>
-16.7428

> <Gold.Chemscore.Internal_Hbond.Weighted>
0.0000

> <Gold.Chemscore.DEClash.Weighted>
0.2971

> <Gold.Chemscore.DEInternal.Weighted>
2.7946

> <Gold.Chemscore.Rot.Weighted>
6.3271

> <Gold.Chemscore.Internal.Correction.Weighted>
   9.000000E+99

> <Gold.Protein.RotatedTorsions>
[ 6907 6896 6895 6894 ] final   94.00 input  -60.11 | X-H torsion
[ 7974 7965 7964 7962 ] final   72.69 input  175.53 | X-H torsion
[ 8008 7997 7996 7995 ] final   54.34 input   59.86 | X-H torsion
[ 10167 10162 10161 10158 ] final    9.70 input  -65.29 | X-H torsion
[ 10718 10713 10712 10709 ] final  -30.21 input   66.30 | X-H torsion
[ 10763 10752 10751 10750 ] final   92.74 input  -60.55 | X-H torsion
[ 11005 11000 10999 10996 ] final  156.66 input  -57.11 | X-H torsion

> <Gold.Protein.ActiveResidues>
 VAL166  LYS551  ARG553  GLY616  TRP617  ASP618  TYR619  PRO620  LYS621  CYS622 
 ASP623  PHE694  ASN695  SER759  ASP760  ASP761  ALA762  ILE779  LEU786  VAL792 
 PHE793  MET794  SER795  GLU796  ALA797  LYS798  CYS799  TRP800  GLU811  SER814 

> <Gold.Protein.RotatedAtoms>
  152.5451  134.1262  159.8419 H   0  0  0  0  0  0  0  0  0  0  0  0  # atno 6907 bound_to 6896
  151.1312  133.5028  159.2606 H   0  0  0  0  0  0  0  0  0  0  0  0  # atno 6908 bound_to 6896
  151.1673  135.0311  159.8791 H   0  0  0  0  0  0  0  0  0  0  0  0  # atno 6909 bound_to 6896
  145.7502  139.2757  143.1435 H   0  0  0  0  0  0  0  0  0  0  0  0  # atno 7974 bound_to 7965
  155.4830  140.3469  155.4343 H   0  0  0  0  0  0  0  0  0  0  0  0  # atno 8008 bound_to 7997
  156.1026  140.1439  156.9475 H   0  0  0  0  0  0  0  0  0  0  0  0  # atno 8009 bound_to 7997
  154.4704  140.0903  156.7107 H   0  0  0  0  0  0  0  0  0  0  0  0  # atno 8010 bound_to 7997
  140.6239  143.8144  150.7209 H   0  0  0  0  0  0  0  0  0  0  0  0  # atno 10167 bound_to 10162
  156.4027  130.4393  149.7310 H   0  0  0  0  0  0  0  0  0  0  0  0  # atno 10718 bound_to 10713
  153.2226  135.4350  155.0506 H   0  0  0  0  0  0  0  0  0  0  0  0  # atno 10763 bound_to 10752
  154.8257  135.3360  154.6905 H   0  0  0  0  0  0  0  0  0  0  0  0  # atno 10764 bound_to 10752
  153.7336  135.7009  153.5039 H   0  0  0  0  0  0  0  0  0  0  0  0  # atno 10765 bound_to 10752
  140.1696  134.8553  157.2674 H   0  0  0  0  0  0  0  0  0  0  0  0  # atno 11005 bound_to 11000
  146.0364  140.8208  142.9850 LP  0  0  0  0  0  0  0  0  0  0  0  0  # atno 17320 bound_to 7965
  144.6851  140.2844  143.7287 LP  0  0  0  0  0  0  0  0  0  0  0  0  # atno 17321 bound_to 7965
  140.1740  143.4170  152.1980 LP  0  0  0  0  0  0  0  0  0  0  0  0  # atno 17342 bound_to 10162
  139.5462  144.7300  151.4575 LP  0  0  0  0  0  0  0  0  0  0  0  0  # atno 17343 bound_to 10162
  156.4320  130.7820  151.2840 LP  0  0  0  0  0  0  0  0  0  0  0  0  # atno 17370 bound_to 10713
  157.7504  131.0151  150.3490 LP  0  0  0  0  0  0  0  0  0  0  0  0  # atno 17371 bound_to 10713
  140.2393  134.3814  155.7487 LP  0  0  0  0  0  0  0  0  0  0  0  0  # atno 17394 bound_to 11000
  141.2216  133.7257  156.8764 LP  0  0  0  0  0  0  0  0  0  0  0  0  # atno 17395 bound_to 11000

$$$$
