AV-unprocessed.smi:3028|AV-procd|sdf|11523|dock8
  -GOLD-   2272016463D 1   1.00000     0.00000
 Structure written by MMmdl.
 47 48  0  0  0  0  0  0  0  0  1 V2000
  152.9369  138.7953  154.5137 C   0  0  0  0  0  0  0  0  0  0  0  0
  151.4414  138.6805  154.4453 C   0  0  0  0  0  0  0  0  0  0  0  0
  150.6506  137.5010  154.5402 C   0  0  0  0  0  0  0  0  0  0  0  0
  149.3547  137.7430  154.4395 N   0  0  0  0  0  0  0  0  0  0  0  0
  149.2660  139.0837  154.2839 N   0  0  0  0  0  0  0  0  0  0  0  0
  147.9666  139.7305  154.1148 C   0  0  2  0  0  0  0  0  0  0  0  0
  147.1194  139.0438  153.0267 C   0  0  0  0  0  0  0  0  0  0  0  0
  148.0609  141.2770  153.9665 C   0  0  1  0  0  0  0  0  0  0  0  0
  146.6828  141.9271  153.7553 C   0  0  0  0  0  0  0  0  0  0  0  0
  148.6451  141.9083  155.1468 N   0  0  0  0  0  0  0  0  0  0  0  0
  147.8785  141.6714  156.3771 C   0  0  0  0  0  0  0  0  0  0  0  0
  148.7508  141.7321  157.6410 C   0  0  0  0  0  0  0  0  0  0  0  0
  148.7085  140.8239  158.4702 O   0  0  0  0  0  0  0  0  0  0  0  0
  149.5641  142.7856  157.8251 N   0  0  0  0  0  0  0  0  0  0  0  0
  150.4670  143.0356  158.9465 C   0  0  0  0  0  0  0  0  0  0  0  0
  151.1665  144.3889  158.7515 C   0  0  0  0  0  0  0  0  0  0  0  0
  152.2382  144.6083  159.8317 C   0  0  0  0  0  0  0  0  0  0  0  0
  153.1748  143.5364  159.8121 O   0  0  0  0  0  0  0  0  0  0  0  0
  152.5822  142.2761  160.1079 C   0  0  0  0  0  0  0  0  0  0  0  0
  151.5275  141.9264  159.0456 C   0  0  0  0  0  0  0  0  0  0  0  0
  150.5150  139.6704  154.2767 C   0  0  0  0  0  0  0  0  0  0  0  0
  153.4273  137.8630  154.2327 H   0  0  0  0  0  0  0  0  0  0  0  0
  153.2742  139.0456  155.5196 H   0  0  0  0  0  0  0  0  0  0  0  0
  153.3138  139.5696  153.8452 H   0  0  0  0  0  0  0  0  0  0  0  0
  150.9785  136.4809  154.6768 H   0  0  0  0  0  0  0  0  0  0  0  0
  147.4258  139.5538  155.0457 H   0  0  0  0  0  0  0  0  0  0  0  0
  146.1374  139.5097  152.9422 H   0  0  0  0  0  0  0  0  0  0  0  0
  146.9630  137.9915  153.2649 H   0  0  0  0  0  0  0  0  0  0  0  0
  147.5947  139.0865  152.0470 H   0  0  0  0  0  0  0  0  0  0  0  0
  148.6585  141.5108  153.0836 H   0  0  0  0  0  0  0  0  0  0  0  0
  146.1757  141.4988  152.8906 H   0  0  0  0  0  0  0  0  0  0  0  0
  146.7787  142.9990  153.5781 H   0  0  0  0  0  0  0  0  0  0  0  0
  146.0318  141.7955  154.6203 H   0  0  0  0  0  0  0  0  0  0  0  0
  148.7700  142.8951  154.9653 H   0  0  0  0  0  0  0  0  0  0  0  0
  147.0864  142.4129  156.4650 H   0  0  0  0  0  0  0  0  0  0  0  0
  147.4051  140.6907  156.3195 H   0  0  0  0  0  0  0  0  0  0  0  0
  149.5570  143.4906  157.1021 H   0  0  0  0  0  0  0  0  0  0  0  0
  149.9125  143.0830  159.8842 H   0  0  0  0  0  0  0  0  0  0  0  0
  151.6378  144.4260  157.7680 H   0  0  0  0  0  0  0  0  0  0  0  0
  150.4370  145.1992  158.7788 H   0  0  0  0  0  0  0  0  0  0  0  0
  152.7686  145.5425  159.6476 H   0  0  0  0  0  0  0  0  0  0  0  0
  151.7834  144.6901  160.8203 H   0  0  0  0  0  0  0  0  0  0  0  0
  153.3633  141.5157  160.1236 H   0  0  0  0  0  0  0  0  0  0  0  0
  152.1381  142.2961  161.1044 H   0  0  0  0  0  0  0  0  0  0  0  0
  151.0619  140.9701  159.2849 H   0  0  0  0  0  0  0  0  0  0  0  0
  152.0217  141.7991  158.0811 H   0  0  0  0  0  0  0  0  0  0  0  0
  150.6407  140.7359  154.1519 H   0  0  0  0  0  0  0  0  0  0  0  0
  1  2  1  0  0  0  0
  1 22  1  0  0  0  0
  1 23  1  0  0  0  0
  1 24  1  0  0  0  0
  2 21  2  0  0  0  0
  2  3  1  0  0  0  0
  3  4  2  0  0  0  0
  3 25  1  0  0  0  0
  4  5  1  0  0  0  0
  5  6  1  0  0  0  0
  5 21  1  0  0  0  0
  6  7  1  0  0  0  0
  6  8  1  0  0  0  0
  6 26  1  0  0  0  0
  7 27  1  0  0  0  0
  7 28  1  0  0  0  0
  7 29  1  0  0  0  0
  8  9  1  0  0  0  0
  8 10  1  0  0  0  0
  8 30  1  0  0  0  0
  9 31  1  0  0  0  0
  9 32  1  0  0  0  0
  9 33  1  0  0  0  0
 10 11  1  0  0  0  0
 10 34  1  0  0  0  0
 11 12  1  0  0  0  0
 11 35  1  0  0  0  0
 11 36  1  0  0  0  0
 12 13  2  0  0  0  0
 12 14  1  0  0  0  0
 14 15  1  0  0  0  0
 14 37  1  0  0  0  0
 15 20  1  0  0  0  0
 15 16  1  0  0  0  0
 15 38  1  0  0  0  0
 16 17  1  0  0  0  0
 16 39  1  0  0  0  0
 16 40  1  0  0  0  0
 17 18  1  0  0  0  0
 17 41  1  0  0  0  0
 17 42  1  0  0  0  0
 18 19  1  0  0  0  0
 19 20  1  0  0  0  0
 19 43  1  0  0  0  0
 19 44  1  0  0  0  0
 20 45  1  0  0  0  0
 20 46  1  0  0  0  0
 21 47  1  0  0  0  0
M  END
> <s_m_source_file>
AV-unprocessed.smi

> <i_m_source_file_index>
3028

> <i_lp_mmshare_version>
43012

> <i_f3d_flags>
0

> <s_epik_input>
W0NIM11jMVtjSF1ubihbY0hdMSlbQ0BIXShbQ0gzXSlbQ0BIXShbQ0gzXSlbTkhdW0NIMl1DKD1PKVtOSF1bQ0hdMltDSDJdW0NIMl1PW0NIMl1bQ0gyXTI=

> <s_epik_cmdline>
J2VwaWtfcHl0aG9uJywgJy1waCcsICc3LjAnLCAnLXRuJywgJzgnLCAnLW1hJywgJzIwMCcsICctbWV0YWxfYmluZGluZycsICctaW1hZScsICc8aW5maWxlLm1hZT4nLCAnLW9tYWUnLCAnPG91dGZpbGUubWFlPic=

> <r_lp_tautomer_probability>
1

> <r_epik_Ionization_Penalty>
0.88617

> <r_epik_Ionization_Penalty_Charging>
0

> <r_epik_Ionization_Penalty_Neutral>
0.88617

> <r_epik_State_Penalty>
0.921066

> <r_epik_Charging_Adjusted_Penalty>
0.921066

> <i_epik_Tot_Q>
0

> <i_epik_Tot_abs_Q>
0

> <r_epik_Metal_State_Penalty>
0.917309

> <b_epik_Metal_Only>
0

> <s_lp_Force_Field>
OPLS_2005

> <r_lp_Energy>
19.7658

> <b_lp_Chiralities_Consistent>
1

> <s_lp_Variant>
AV-unprocessed.smi:3028-7

> <Gold.Version>
5.8.1

> <Gold.Id.Protein>
6NUR|6NUR_protein|mol2

> <Gold.PLP.Fitness>
47.2675

> <Gold.PLP.PLP>
-42.3055

> <Gold.PLP.part.hbond>
-3.0000

> <Gold.PLP.part.metal>
0.0000

> <Gold.PLP.part.buried>
-2.8428

> <Gold.PLP.part.nonpolar>
-36.3114

> <Gold.PLP.part.repulsive>
0.2468

> <Gold.PLP.ligand.clash>
0.0000

> <Gold.PLP.ligand.torsion>
0.4004

> <Gold.PLP.Chemscore.Hbond>
1.8320

> <Gold.PLP.Chemscore.CHOScore>
0.0000

> <Gold.PLP.Chemscore.Metal>
0.0000

> <Gold.Chemscore.Hbonds>
donor molecule, donor type, donor heavy atom, donor atom, acceptor molecule, acceptor atom, score
      L1  H    10    34       P1  8028  0.99
      L1  H    14    37       P1  8028  1.00

> <Gold.PLP.Chemscore.Internal.Correction>
0.2667

> <Gold.Rescore>
     Score         DG    S(hbond)    S(metal)    S(lipo)     H(rot)  DE(clash)    DE(int)     intcor
     17.30     -19.24       1.72        0.00     110.60       1.92       0.32       1.62       ----

> <Gold.Chemscore.Fitness>
17.2981

> <Gold.Chemscore.DG>
-19.2398

> <Gold.Chemscore.ZeroCoef>
-5.4800

> <Gold.Chemscore.Hbond>
1.7195

> <Gold.Chemscore.Metal>
0.0000

> <Gold.Chemscore.Lipo>
110.5995

> <Gold.Chemscore.Internal_Hbond>
0.0000

> <Gold.Chemscore.DEClash>
0.3238

> <Gold.Chemscore.DEInternal>
1.6178

> <Gold.Chemscore.Rot>
1.9233

> <Gold.Chemscore.Internal.Correction>
   9.000000E+99

> <Gold.Chemscore.Hbonds>
donor molecule, donor type, donor heavy atom, donor atom, acceptor molecule, acceptor atom, score
      L1  H    10    34       P1  8028  0.94
      L1  H    14    37       P1  8028  0.89

> <Gold.Chemscore.Hbond.Weighted>
-5.7432

> <Gold.Chemscore.Metal.Weighted>
-0.0000

> <Gold.Chemscore.Lipo.Weighted>
-12.9401

> <Gold.Chemscore.Internal_Hbond.Weighted>
0.0000

> <Gold.Chemscore.DEClash.Weighted>
0.3238

> <Gold.Chemscore.DEInternal.Weighted>
1.6178

> <Gold.Chemscore.Rot.Weighted>
4.9235

> <Gold.Chemscore.Internal.Correction.Weighted>
   9.000000E+99

> <Gold.Protein.RotatedTorsions>
[ 6907 6896 6895 6894 ] final  158.35 input  -60.11 | X-H torsion
[ 7974 7965 7964 7962 ] final   65.24 input  175.53 | X-H torsion
[ 8008 7997 7996 7995 ] final   46.52 input   59.86 | X-H torsion
[ 10167 10162 10161 10158 ] final   63.36 input  -65.29 | X-H torsion
[ 10718 10713 10712 10709 ] final   35.44 input   66.30 | X-H torsion
[ 10763 10752 10751 10750 ] final -143.09 input  -60.55 | X-H torsion
[ 11005 11000 10999 10996 ] final   45.80 input  -57.11 | X-H torsion

> <Gold.Protein.ActiveResidues>
 VAL166  LYS551  ARG553  GLY616  TRP617  ASP618  TYR619  PRO620  LYS621  CYS622 
 ASP623  PHE694  ASN695  SER759  ASP760  ASP761  ALA762  ILE779  LEU786  VAL792 
 PHE793  MET794  SER795  GLU796  ALA797  LYS798  CYS799  TRP800  GLU811  SER814 

> <Gold.Protein.RotatedAtoms>
  152.0016  133.3827  159.4183 H   0  0  0  0  0  0  0  0  0  0  0  0  # atno 6907 bound_to 6896
  150.6909  134.3827  159.5050 H   0  0  0  0  0  0  0  0  0  0  0  0  # atno 6908 bound_to 6896
  152.1575  134.8938  160.0594 H   0  0  0  0  0  0  0  0  0  0  0  0  # atno 6909 bound_to 6896
  145.8408  139.3194  143.0933 H   0  0  0  0  0  0  0  0  0  0  0  0  # atno 7974 bound_to 7965
  155.3538  140.3415  155.4239 H   0  0  0  0  0  0  0  0  0  0  0  0  # atno 8008 bound_to 7997
  156.1750  140.1644  156.8414 H   0  0  0  0  0  0  0  0  0  0  0  0  # atno 8009 bound_to 7997
  154.5272  140.0753  156.8263 H   0  0  0  0  0  0  0  0  0  0  0  0  # atno 8010 bound_to 7997
  140.1339  144.4617  150.6849 H   0  0  0  0  0  0  0  0  0  0  0  0  # atno 10167 bound_to 10162
  157.3227  130.7456  149.6795 H   0  0  0  0  0  0  0  0  0  0  0  0  # atno 10718 bound_to 10713
  154.8483  135.3477  154.6132 H   0  0  0  0  0  0  0  0  0  0  0  0  # atno 10763 bound_to 10752
  153.6741  135.6983  153.5142 H   0  0  0  0  0  0  0  0  0  0  0  0  # atno 10764 bound_to 10752
  153.2719  135.4290  155.0953 H   0  0  0  0  0  0  0  0  0  0  0  0  # atno 10765 bound_to 10752
  140.1426  134.4563  155.8438 H   0  0  0  0  0  0  0  0  0  0  0  0  # atno 11005 bound_to 11000
  145.9467  140.8939  143.0280 LP  0  0  0  0  0  0  0  0  0  0  0  0  # atno 17320 bound_to 7965
  144.6734  140.1624  143.7421 LP  0  0  0  0  0  0  0  0  0  0  0  0  # atno 17321 bound_to 7965
  140.6801  143.2322  151.5407 LP  0  0  0  0  0  0  0  0  0  0  0  0  # atno 17342 bound_to 10162
  139.5506  144.2406  152.1523 LP  0  0  0  0  0  0  0  0  0  0  0  0  # atno 17343 bound_to 10162
  155.9687  130.4218  150.4488 LP  0  0  0  0  0  0  0  0  0  0  0  0  # atno 17370 bound_to 10713
  157.2506  131.0545  151.2381 LP  0  0  0  0  0  0  0  0  0  0  0  0  # atno 17371 bound_to 10713
  141.2188  133.6839  156.7276 LP  0  0  0  0  0  0  0  0  0  0  0  0  # atno 17394 bound_to 11000
  140.2703  134.8398  157.3840 LP  0  0  0  0  0  0  0  0  0  0  0  0  # atno 17395 bound_to 11000

$$$$
