AV-unprocessed.smi:1371|AV-procd|sdf|5581|dock7
  -GOLD-   22720 5183D 1   1.00000     0.00000
 Structure written by MMmdl.
 31 31  0  0  0  0  0  0  0  0  1 V2000
  152.2591  144.4258  159.0947 C   0  0  0  0  0  0  0  0  0  0  0  0
  151.8842  143.2338  159.9828 C   0  0  0  0  0  0  0  0  0  0  0  0
  153.1339  142.4705  160.4518 C   0  0  0  0  0  0  0  0  0  0  0  0
  151.0395  142.3908  159.2104 O   0  0  0  0  0  0  0  0  0  0  0  0
  151.6261  141.8935  158.0158 C   0  0  0  0  0  0  0  0  0  0  0  0
  150.7015  140.8310  157.4146 C   0  0  0  0  0  0  0  0  0  0  0  0
  151.2229  140.3637  155.7356 S   0  0  0  0  0  0  0  0  0  0  0  0
  149.7012  140.4565  154.8061 C   0  0  0  0  0  0  0  0  0  0  0  0
  149.3494  139.3937  154.0753 N   0  0  0  0  0  0  0  0  0  0  0  0
  148.1933  139.4911  153.3855 C   0  0  0  0  0  0  0  0  0  0  0  0
  147.8098  138.3926  152.6200 N   0  0  0  0  0  0  0  0  0  0  0  0
  147.3967  140.6544  153.4308 C   0  0  0  0  0  0  0  0  0  0  0  0
  147.8775  141.7084  154.2357 C   0  0  0  0  0  0  0  0  0  0  0  0
  147.1665  142.9005  154.3487 N   0  0  0  0  0  0  0  0  0  0  0  0
  149.0344  141.6073  154.9243 N   0  0  0  0  0  0  0  0  0  0  0  0
  152.8897  145.1344  159.6320 H   0  0  0  0  0  0  0  0  0  0  0  0
  151.3685  144.9602  158.7633 H   0  0  0  0  0  0  0  0  0  0  0  0
  152.8024  144.1013  158.2066 H   0  0  0  0  0  0  0  0  0  0  0  0
  151.3397  143.6147  160.8484 H   0  0  0  0  0  0  0  0  0  0  0  0
  153.8216  143.1347  160.9757 H   0  0  0  0  0  0  0  0  0  0  0  0
  153.6695  142.0369  159.6069 H   0  0  0  0  0  0  0  0  0  0  0  0
  152.8830  141.6626  161.1384 H   0  0  0  0  0  0  0  0  0  0  0  0
  151.7903  142.6929  157.2935 H   0  0  0  0  0  0  0  0  0  0  0  0
  152.5966  141.4484  158.2383 H   0  0  0  0  0  0  0  0  0  0  0  0
  150.7067  139.9417  158.0454 H   0  0  0  0  0  0  0  0  0  0  0  0
  149.6780  141.2063  157.3872 H   0  0  0  0  0  0  0  0  0  0  0  0
  148.3706  137.5540  152.5791 H   0  0  0  0  0  0  0  0  0  0  0  0
  146.9538  138.3992  152.0845 H   0  0  0  0  0  0  0  0  0  0  0  0
  146.4710  140.7338  152.8795 H   0  0  0  0  0  0  0  0  0  0  0  0
  146.2936  143.0445  153.8622 H   0  0  0  0  0  0  0  0  0  0  0  0
  147.4892  143.6488  154.9456 H   0  0  0  0  0  0  0  0  0  0  0  0
  1  2  1  0  0  0  0
  1 16  1  0  0  0  0
  1 17  1  0  0  0  0
  1 18  1  0  0  0  0
  2  3  1  0  0  0  0
  2  4  1  0  0  0  0
  2 19  1  0  0  0  0
  3 20  1  0  0  0  0
  3 21  1  0  0  0  0
  3 22  1  0  0  0  0
  4  5  1  0  0  0  0
  5  6  1  0  0  0  0
  5 23  1  0  0  0  0
  5 24  1  0  0  0  0
  6  7  1  0  0  0  0
  6 25  1  0  0  0  0
  6 26  1  0  0  0  0
  7  8  1  0  0  0  0
  8 15  1  0  0  0  0
  8  9  2  0  0  0  0
  9 10  1  0  0  0  0
 10 11  1  0  0  0  0
 10 12  2  0  0  0  0
 11 27  1  0  0  0  0
 11 28  1  0  0  0  0
 12 13  1  0  0  0  0
 12 29  1  0  0  0  0
 13 14  1  0  0  0  0
 13 15  2  0  0  0  0
 14 30  1  0  0  0  0
 14 31  1  0  0  0  0
M  END
> <s_m_source_file>
AV-unprocessed.smi

> <i_m_source_file_index>
1371

> <i_lp_mmshare_version>
43012

> <i_f3d_flags>
0

> <s_epik_input>
W0NIM11bQ0hdKFtDSDNdKU9bQ0gyXVtDSDJdU2MxbmMoW05IMl0pW2NIXWMobjEpW05IMl0=

> <s_epik_cmdline>
J2VwaWtfcHl0aG9uJywgJy1waCcsICc3LjAnLCAnLXRuJywgJzgnLCAnLW1hJywgJzIwMCcsICctbWV0YWxfYmluZGluZycsICctaW1hZScsICc8aW5maWxlLm1hZT4nLCAnLW9tYWUnLCAnPG91dGZpbGUubWFlPic=

> <r_lp_tautomer_probability>
1

> <r_epik_Ionization_Penalty>
0.00548925

> <r_epik_Ionization_Penalty_Charging>
0

> <r_epik_Ionization_Penalty_Neutral>
0.00548925

> <r_epik_State_Penalty>
0.0040157

> <r_epik_Charging_Adjusted_Penalty>
0.0040157

> <i_epik_Tot_Q>
0

> <i_epik_Tot_abs_Q>
0

> <r_epik_Metal_State_Penalty>
-0

> <b_epik_Metal_Only>
0

> <s_lp_Force_Field>
OPLS_2005

> <r_lp_Energy>
-2.92027

> <b_lp_Chiralities_Consistent>
1

> <s_lp_Variant>
AV-unprocessed.smi:1371-1

> <Gold.Version>
5.8.1

> <Gold.Id.Protein>
6NUR|6NUR_protein|mol2

> <Gold.PLP.Fitness>
37.2868

> <Gold.PLP.PLP>
-32.7501

> <Gold.PLP.part.hbond>
-3.1616

> <Gold.PLP.part.metal>
0.0000

> <Gold.PLP.part.buried>
-1.3398

> <Gold.PLP.part.nonpolar>
-28.9207

> <Gold.PLP.part.repulsive>
1.1894

> <Gold.PLP.ligand.clash>
0.0000

> <Gold.PLP.ligand.torsion>
0.4510

> <Gold.PLP.Chemscore.Hbond>
1.8000

> <Gold.PLP.Chemscore.CHOScore>
0.0000

> <Gold.PLP.Chemscore.Metal>
0.0000

> <Gold.Chemscore.Hbonds>
donor molecule, donor type, donor heavy atom, donor atom, acceptor molecule, acceptor atom, score
      L1  H    11    27       P1  7948  1.00
      L1  H    14    31       P1  8028  0.70

> <Gold.PLP.Chemscore.Internal.Correction>
0.0388

> <Gold.Rescore>
     Score         DG    S(hbond)    S(metal)    S(lipo)     H(rot)  DE(clash)    DE(int)     intcor
      9.36      -9.95       0.93        0.00      65.74       2.47       0.12       0.48       ----

> <Gold.Chemscore.Fitness>
9.3578

> <Gold.Chemscore.DG>
-9.9549

> <Gold.Chemscore.ZeroCoef>
-5.4800

> <Gold.Chemscore.Hbond>
0.9308

> <Gold.Chemscore.Metal>
0.0000

> <Gold.Chemscore.Lipo>
65.7391

> <Gold.Chemscore.Internal_Hbond>
0.0000

> <Gold.Chemscore.DEClash>
0.1218

> <Gold.Chemscore.DEInternal>
0.4752

> <Gold.Chemscore.Rot>
2.4708

> <Gold.Chemscore.Internal.Correction>
   9.000000E+99

> <Gold.Chemscore.Hbonds>
donor molecule, donor type, donor heavy atom, donor atom, acceptor molecule, acceptor atom, score
      L1  H    11    27       P1  7948  0.95
      L1  H    14    31       P1  8028  0.07

> <Gold.Chemscore.Hbond.Weighted>
-3.1087

> <Gold.Chemscore.Metal.Weighted>
-0.0000

> <Gold.Chemscore.Lipo.Weighted>
-7.6915

> <Gold.Chemscore.Internal_Hbond.Weighted>
0.0000

> <Gold.Chemscore.DEClash.Weighted>
0.1218

> <Gold.Chemscore.DEInternal.Weighted>
0.4752

> <Gold.Chemscore.Rot.Weighted>
6.3253

> <Gold.Chemscore.Internal.Correction.Weighted>
   9.000000E+99

> <Gold.Protein.RotatedTorsions>
[ 6907 6896 6895 6894 ] final   60.27 input  -60.11 | X-H torsion
[ 7974 7965 7964 7962 ] final  -61.44 input  175.53 | X-H torsion
[ 8008 7997 7996 7995 ] final  -38.57 input   59.86 | X-H torsion
[ 10167 10162 10161 10158 ] final  -46.99 input  -65.29 | X-H torsion
[ 10718 10713 10712 10709 ] final   62.35 input   66.30 | X-H torsion
[ 10763 10752 10751 10750 ] final  155.39 input  -60.55 | X-H torsion
[ 11005 11000 10999 10996 ] final  177.74 input  -57.11 | X-H torsion

> <Gold.Protein.ActiveResidues>
 VAL166  LYS551  ARG553  GLY616  TRP617  ASP618  TYR619  PRO620  LYS621  CYS622 
 ASP623  PHE694  ASN695  SER759  ASP760  ASP761  ALA762  ILE779  LEU786  VAL792 
 PHE793  MET794  SER795  GLU796  ALA797  LYS798  CYS799  TRP800  GLU811  SER814 

> <Gold.Protein.RotatedAtoms>
  152.3988  134.6321  160.0077 H   0  0  0  0  0  0  0  0  0  0  0  0  # atno 6907 bound_to 6896
  151.6532  133.3314  159.3165 H   0  0  0  0  0  0  0  0  0  0  0  0  # atno 6908 bound_to 6896
  150.7891  134.6944  159.6559 H   0  0  0  0  0  0  0  0  0  0  0  0  # atno 6909 bound_to 6896
  145.8034  140.8642  143.0219 H   0  0  0  0  0  0  0  0  0  0  0  0  # atno 7974 bound_to 7965
  154.4035  140.1574  156.2721 H   0  0  0  0  0  0  0  0  0  0  0  0  # atno 8008 bound_to 7997
  155.8944  140.3437  155.5958 H   0  0  0  0  0  0  0  0  0  0  0  0  # atno 8009 bound_to 7997
  155.7521  140.0806  157.2187 H   0  0  0  0  0  0  0  0  0  0  0  0  # atno 8010 bound_to 7997
  140.6794  143.2805  151.3862 H   0  0  0  0  0  0  0  0  0  0  0  0  # atno 10167 bound_to 10162
  157.5894  130.9045  149.9577 H   0  0  0  0  0  0  0  0  0  0  0  0  # atno 10718 bound_to 10713
  154.1677  135.2806  155.3090 H   0  0  0  0  0  0  0  0  0  0  0  0  # atno 10763 bound_to 10752
  154.6099  135.5502  153.7465 H   0  0  0  0  0  0  0  0  0  0  0  0  # atno 10764 bound_to 10752
  153.0174  135.6413  154.1817 H   0  0  0  0  0  0  0  0  0  0  0  0  # atno 10765 bound_to 10752
  140.3874  134.6892  157.4487 H   0  0  0  0  0  0  0  0  0  0  0  0  # atno 11005 bound_to 11000
  144.6766  140.0291  143.7483 LP  0  0  0  0  0  0  0  0  0  0  0  0  # atno 17320 bound_to 7965
  145.9854  139.2973  143.1017 LP  0  0  0  0  0  0  0  0  0  0  0  0  # atno 17321 bound_to 7965
  139.6106  144.1105  152.2295 LP  0  0  0  0  0  0  0  0  0  0  0  0  # atno 17342 bound_to 10162
  140.0518  144.5926  150.7330 LP  0  0  0  0  0  0  0  0  0  0  0  0  # atno 17343 bound_to 10162
  156.0947  130.3660  150.0328 LP  0  0  0  0  0  0  0  0  0  0  0  0  # atno 17370 bound_to 10713
  156.8453  130.9440  151.3629 LP  0  0  0  0  0  0  0  0  0  0  0  0  # atno 17371 bound_to 10713
  140.0432  134.6237  155.8954 LP  0  0  0  0  0  0  0  0  0  0  0  0  # atno 17394 bound_to 11000
  141.1902  133.6568  156.5404 LP  0  0  0  0  0  0  0  0  0  0  0  0  # atno 17395 bound_to 11000

$$$$
