AV-unprocessed.smi:1897|AV-procd|sdf|7694|dock4
  -GOLD-   22720 9433D 1   1.00000     0.00000
 Structure written by MMmdl.
 38 40  0  0  0  0  0  0  0  0  3 V2000
  153.9881  136.9970  160.3985 C   0  0  0  0  0  0  0  0  0  0  0  0
  153.4093  136.9998  159.0252 C   0  0  0  0  0  0  0  0  0  0  0  0
  153.3960  135.9164  158.2451 N   0  0  0  0  0  0  0  0  0  0  0  0
  152.8004  136.1637  157.0170 N   0  0  0  0  0  0  0  0  0  0  0  0
  152.3844  137.4306  156.8798 C   0  0  0  0  0  0  0  0  0  0  0  0
  151.7849  137.8770  155.7601 N   0  5  0  0  0  0  0  0  0  0  0  0
  151.3375  139.1526  155.6274 C   0  0  0  0  0  0  0  0  0  0  0  0
  151.6962  139.9058  154.7233 O   0  0  0  0  0  0  0  0  0  0  0  0
  150.4559  139.6053  156.5382 N   0  0  0  0  0  0  0  0  0  0  0  0
  149.8606  140.9354  156.5631 C   0  0  2  0  0  0  0  0  0  0  0  0
  149.3403  141.3605  157.9493 C   0  0  0  0  0  0  0  0  0  0  0  0
  148.0201  142.1079  157.6769 C   0  0  0  0  0  0  0  0  0  0  0  0
  147.9146  142.1871  156.2075 N   0  3  2  0  0  0  0  0  0  0  0  0
  146.5618  142.3552  155.6340 C   0  0  0  0  0  0  0  0  0  0  0  0
  146.6736  142.4957  154.1022 C   0  0  0  0  0  0  0  0  0  0  0  0
  147.4669  141.3297  153.4763 C   0  0  0  0  0  0  0  0  0  0  0  0
  148.8265  141.1416  154.1771 C   0  0  0  0  0  0  0  0  0  0  0  0
  148.6084  140.9981  155.6921 C   0  0  1  0  0  0  0  0  0  0  0  0
  152.6951  138.4298  158.2992 S   0  0  0  0  0  0  0  0  0  0  0  0
  155.0710  137.1105  160.3465 H   0  0  0  0  0  0  0  0  0  0  0  0
  153.7561  136.0594  160.9048 H   0  0  0  0  0  0  0  0  0  0  0  0
  153.5764  137.8190  160.9841 H   0  0  0  0  0  0  0  0  0  0  0  0
  150.1823  138.9683  157.2720 H   0  0  0  0  0  0  0  0  0  0  0  0
  150.5798  141.6746  156.2042 H   0  0  0  0  0  0  0  0  0  0  0  0
  149.1518  140.4961  158.5878 H   0  0  0  0  0  0  0  0  0  0  0  0
  150.0670  141.9926  158.4607 H   0  0  0  0  0  0  0  0  0  0  0  0
  147.1801  141.5417  158.0824 H   0  0  0  0  0  0  0  0  0  0  0  0
  148.0049  143.1031  158.1220 H   0  0  0  0  0  0  0  0  0  0  0  0
  145.9381  141.4988  155.8949 H   0  0  0  0  0  0  0  0  0  0  0  0
  146.0906  143.2412  156.0606 H   0  0  0  0  0  0  0  0  0  0  0  0
  145.6794  142.5528  153.6581 H   0  0  0  0  0  0  0  0  0  0  0  0
  147.1709  143.4366  153.8631 H   0  0  0  0  0  0  0  0  0  0  0  0
  146.8857  140.4105  153.5603 H   0  0  0  0  0  0  0  0  0  0  0  0
  147.6150  141.5058  152.4104 H   0  0  0  0  0  0  0  0  0  0  0  0
  149.3346  140.2607  153.7832 H   0  0  0  0  0  0  0  0  0  0  0  0
  149.4723  141.9959  153.9692 H   0  0  0  0  0  0  0  0  0  0  0  0
  147.9877  140.1202  155.8894 H   0  0  0  0  0  0  0  0  0  0  0  0
  148.4662  142.9836  155.9225 H   0  0  0  0  0  0  0  0  0  0  0  0
  1  2  1  0  0  0  0
  1 20  1  0  0  0  0
  1 21  1  0  0  0  0
  1 22  1  0  0  0  0
  2 19  1  0  0  0  0
  2  3  2  0  0  0  0
  3  4  1  0  0  0  0
  4  5  2  0  0  0  0
  5  6  1  0  0  0  0
  5 19  1  0  0  0  0
  6  7  1  0  0  0  0
  7  8  2  0  0  0  0
  7  9  1  0  0  0  0
  9 10  1  0  0  0  0
  9 23  1  0  0  0  0
 10 18  1  0  0  0  0
 10 11  1  0  0  0  0
 10 24  1  0  0  0  0
 11 12  1  0  0  0  0
 11 25  1  0  0  0  0
 11 26  1  0  0  0  0
 12 13  1  0  0  0  0
 12 27  1  0  0  0  0
 12 28  1  0  0  0  0
 13 18  1  0  0  0  0
 13 14  1  0  0  0  0
 13 38  1  0  0  0  0
 14 15  1  0  0  0  0
 14 29  1  0  0  0  0
 14 30  1  0  0  0  0
 15 16  1  0  0  0  0
 15 31  1  0  0  0  0
 15 32  1  0  0  0  0
 16 17  1  0  0  0  0
 16 33  1  0  0  0  0
 16 34  1  0  0  0  0
 17 18  1  0  0  0  0
 17 35  1  0  0  0  0
 17 36  1  0  0  0  0
 18 37  1  0  0  0  0
M  CHG  1   6  -1
M  CHG  1  13   1
M  END
> <s_m_source_file>
AV-unprocessed.smi

> <i_m_source_file_index>
1897

> <i_lp_mmshare_version>
43012

> <i_f3d_flags>
0

> <s_epik_input>
W0NIM11jMW5uYyhzMSlbTkhdQyg9TylbTkhdW0NASF0oW0NIMl1bQ0gyXTIpW0NAQEhdKE4yMylbQ0gyXVtDSDJdW0NIMl1bQ0gyXTM=

> <s_epik_cmdline>
J2VwaWtfcHl0aG9uJywgJy1waCcsICc3LjAnLCAnLXRuJywgJzgnLCAnLW1hJywgJzIwMCcsICctbWV0YWxfYmluZGluZycsICctaW1hZScsICc8aW5maWxlLm1hZT4nLCAnLW9tYWUnLCAnPG91dGZpbGUubWFlPic=

> <r_lp_tautomer_probability>
1

> <r_epik_Ionization_Penalty>
3.77712

> <r_epik_Ionization_Penalty_Charging>
3.67739

> <r_epik_Ionization_Penalty_Neutral>
0.0997294

> <r_epik_State_Penalty>
3.67514

> <r_epik_Charging_Adjusted_Penalty>
7.35254

> <i_epik_Tot_Q>
0

> <i_epik_Tot_abs_Q>
2

> <r_epik_Metal_State_Penalty>
0.540795

> <b_epik_Metal_Only>
1

> <s_lp_Force_Field>
OPLS_2005

> <r_lp_Energy>
28.3617

> <b_lp_Chiralities_Consistent>
1

> <s_lp_Variant>
AV-unprocessed.smi:1897-11

> <Gold.Version>
5.8.1

> <Gold.Id.Protein>
6NUR|6NUR_protein|mol2

> <Gold.PLP.Fitness>
37.7522

> <Gold.PLP.PLP>
-27.4631

> <Gold.PLP.part.hbond>
-3.7235

> <Gold.PLP.part.metal>
0.0000

> <Gold.PLP.part.buried>
-5.1448

> <Gold.PLP.part.nonpolar>
-18.7653

> <Gold.PLP.part.repulsive>
0.1387

> <Gold.PLP.ligand.clash>
0.0000

> <Gold.PLP.ligand.torsion>
0.8624

> <Gold.PLP.Chemscore.Hbond>
4.0000

> <Gold.PLP.Chemscore.CHOScore>
0.0000

> <Gold.PLP.Chemscore.Metal>
0.0000

> <Gold.Chemscore.Hbonds>
donor molecule, donor type, donor heavy atom, donor atom, acceptor molecule, acceptor atom, score
      L1  H    13    38       P1  8028  2.00
      P1  H  7989  7998       L1     8  1.00
      P1  H 10752 10763       L1     4  0.96

> <Gold.PLP.Chemscore.Internal.Correction>
0.0139

> <Gold.Rescore>
     Score         DG    S(hbond)    S(metal)    S(lipo)     H(rot)  DE(clash)    DE(int)     intcor
     17.70     -18.64       2.81        0.00      54.29       1.00       0.02       0.93       ----

> <Gold.Chemscore.Fitness>
17.7007

> <Gold.Chemscore.DG>
-18.6424

> <Gold.Chemscore.ZeroCoef>
-5.4800

> <Gold.Chemscore.Hbond>
2.8056

> <Gold.Chemscore.Metal>
0.0000

> <Gold.Chemscore.Lipo>
54.2876

> <Gold.Chemscore.Internal_Hbond>
0.0000

> <Gold.Chemscore.DEClash>
0.0158

> <Gold.Chemscore.DEInternal>
0.9259

> <Gold.Chemscore.Rot>
1.0000

> <Gold.Chemscore.Internal.Correction>
   9.000000E+99

> <Gold.Chemscore.Hbonds>
donor molecule, donor type, donor heavy atom, donor atom, acceptor molecule, acceptor atom, score
      L1  H    13    38       P1  8028  0.97
      P1  H  7989  7998       L1     8  0.93
      P1  H 10752 10763       L1     4  0.58

> <Gold.Chemscore.Hbond.Weighted>
-9.3707

> <Gold.Chemscore.Metal.Weighted>
-0.0000

> <Gold.Chemscore.Lipo.Weighted>
-6.3516

> <Gold.Chemscore.Internal_Hbond.Weighted>
0.0000

> <Gold.Chemscore.DEClash.Weighted>
0.0158

> <Gold.Chemscore.DEInternal.Weighted>
0.9259

> <Gold.Chemscore.Rot.Weighted>
2.5600

> <Gold.Chemscore.Internal.Correction.Weighted>
   9.000000E+99

> <Gold.Protein.RotatedTorsions>
[ 6907 6896 6895 6894 ] final -115.87 input  -60.11 | X-H torsion
[ 7974 7965 7964 7962 ] final    2.51 input  175.53 | X-H torsion
[ 8008 7997 7996 7995 ] final  -37.20 input   59.86 | X-H torsion
[ 10167 10162 10161 10158 ] final  141.42 input  -65.29 | X-H torsion
[ 10718 10713 10712 10709 ] final   16.42 input   66.30 | X-H torsion
[ 10763 10752 10751 10750 ] final   96.05 input  -60.55 | X-H torsion
[ 11005 11000 10999 10996 ] final -172.61 input  -57.11 | X-H torsion

> <Gold.Protein.ActiveResidues>
 VAL166  LYS551  ARG553  GLY616  TRP617  ASP618  TYR619  PRO620  LYS621  CYS622 
 ASP623  PHE694  ASN695  SER759  ASP760  ASP761  ALA762  ILE779  LEU786  VAL792 
 PHE793  MET794  SER795  GLU796  ALA797  LYS798  CYS799  TRP800  GLU811  SER814 

> <Gold.Protein.RotatedAtoms>
  150.8012  133.8597  159.3228 H   0  0  0  0  0  0  0  0  0  0  0  0  # atno 6907 bound_to 6896
  151.6408  135.1011  160.0150 H   0  0  0  0  0  0  0  0  0  0  0  0  # atno 6908 bound_to 6896
  152.4099  133.6907  159.6423 H   0  0  0  0  0  0  0  0  0  0  0  0  # atno 6909 bound_to 6896
  146.2444  140.0825  142.8356 H   0  0  0  0  0  0  0  0  0  0  0  0  # atno 7974 bound_to 7965
  154.4058  140.1610  156.2499 H   0  0  0  0  0  0  0  0  0  0  0  0  # atno 8008 bound_to 7997
  155.9128  140.3426  155.6089 H   0  0  0  0  0  0  0  0  0  0  0  0  # atno 8009 bound_to 7997
  155.7315  140.0781  157.2277 H   0  0  0  0  0  0  0  0  0  0  0  0  # atno 8010 bound_to 7997
  139.5021  144.6172  151.6136 H   0  0  0  0  0  0  0  0  0  0  0  0  # atno 10167 bound_to 10162
  157.0676  130.6335  149.5799 H   0  0  0  0  0  0  0  0  0  0  0  0  # atno 10718 bound_to 10713
  153.2604  135.4232  155.0888 H   0  0  0  0  0  0  0  0  0  0  0  0  # atno 10763 bound_to 10752
  154.8418  135.3447  154.6385 H   0  0  0  0  0  0  0  0  0  0  0  0  # atno 10764 bound_to 10752
  153.6806  135.7039  153.5176 H   0  0  0  0  0  0  0  0  0  0  0  0  # atno 10765 bound_to 10752
  140.4950  134.5948  157.4968 H   0  0  0  0  0  0  0  0  0  0  0  0  # atno 11005 bound_to 11000
  145.0721  140.9162  143.4876 LP  0  0  0  0  0  0  0  0  0  0  0  0  # atno 17320 bound_to 7965
  145.0961  139.2855  143.5710 LP  0  0  0  0  0  0  0  0  0  0  0  0  # atno 17321 bound_to 7965
  140.5864  143.9857  150.6298 LP  0  0  0  0  0  0  0  0  0  0  0  0  # atno 17342 bound_to 10162
  140.3023  143.3252  152.0960 LP  0  0  0  0  0  0  0  0  0  0  0  0  # atno 17343 bound_to 10162
  155.9960  130.5028  150.7479 LP  0  0  0  0  0  0  0  0  0  0  0  0  # atno 17370 bound_to 10713
  157.4904  131.0910  151.0434 LP  0  0  0  0  0  0  0  0  0  0  0  0  # atno 17371 bound_to 10713
  139.9746  134.7236  155.9974 LP  0  0  0  0  0  0  0  0  0  0  0  0  # atno 17394 bound_to 11000
  141.1464  133.6555  156.3882 LP  0  0  0  0  0  0  0  0  0  0  0  0  # atno 17395 bound_to 11000

$$$$
