#       Name:                AV-unprocessed.smi:2521
#       Creating user name   scv26
#       Creation time:       Fri Mar 27 13:55:14 2020


#       File generated by GOLD software.
#

@<TRIPOS>MOLECULE
AV-unprocessed.smi:2521
    42    43     1
SMALL
NO_CHARGES


@<TRIPOS>ATOM
      1 ****        -5.8527  -0.4027   1.3199 C.3            1 S1                 0.0000
      2 ****        -5.4171  -0.1850  -0.1364 C.3            1 S1                 0.0000
      3 ****        -6.1238  -1.1250  -1.1237 C.3            1 S1                 0.0000
      4 ****        -3.9284  -0.2193  -0.2906 C.2            1 S1                 0.0000
      5 ****        -3.1960  -1.3172  -0.0584 N.2            1 S1                 0.0000
      6 ****        -1.8409  -1.1018  -0.2641 N.2            1 S1                 0.0000
      7 ****        -1.5875   0.1574  -0.6456 C.2            1 S1                 0.0000
      8 ****        -0.2845   0.6536  -0.9146 N.am           1 S1                 0.0000
      9 ****         0.8852  -0.0079  -0.8685 C.2            1 S1                 0.0000
     10 ****         1.0166  -1.2040  -0.6078 O.2            1 S1                 0.0000
     11 ****         1.9137   0.8069  -1.1456 N.am           1 S1                 0.0000
     12 ****         3.3202   0.4166  -1.1752 C.3            1 S1                 0.0000
     13 ****         4.0231   0.6945   0.1672 C.3            1 S1                 0.0000
     14 ****         5.5035   0.3728   0.1607 C.3            1 S1                 0.0000
     15 ****         5.8191   0.2861   1.6514 C.3            1 S1                 0.0000
     16 ****         4.6200  -0.1556   2.2813 O.3            1 S1                 0.0000
     17 ****         3.5495  -0.1635   1.3422 C.3            1 S1                 0.0000
     18 ****        -2.9987   1.1909  -0.7876 S.3            1 S1                 0.0000
     19 ****        -5.3967   0.3358   1.9800 H              1 S1                 0.0000
     20 ****        -5.5647  -1.3920   1.6768 H              1 S1                 0.0000
     21 ****        -6.9345  -0.3146   1.4236 H              1 S1                 0.0000
     22 ****        -5.7296   0.8259  -0.4008 H              1 S1                 0.0000
     23 ****        -5.8548  -0.8869  -2.1532 H              1 S1                 0.0000
     24 ****        -7.2074  -1.0421  -1.0378 H              1 S1                 0.0000
     25 ****        -5.8555  -2.1662  -0.9415 H              1 S1                 0.0000
     26 ****        -0.2366   1.6314  -1.1600 H              1 S1                 0.0000
     27 ****         1.7097   1.7744  -1.3488 H              1 S1                 0.0000
     28 ****         3.4273  -0.6321  -1.4580 H              1 S1                 0.0000
     29 ****         3.8042   0.9937  -1.9635 H              1 S1                 0.0000
     30 ****         3.9011   1.7468   0.4299 H              1 S1                 0.0000
     31 ****         5.6814  -0.5931  -0.3146 H              1 S1                 0.0000
     32 ****         6.1036   1.1225  -0.3558 H              1 S1                 0.0000
     33 ****         6.6507  -0.3870   1.8606 H              1 S1                 0.0000
     34 ****         6.0732   1.2709   2.0450 H              1 S1                 0.0000
     35 ****         2.6272   0.2089   1.7888 H              1 S1                 0.0000
     36 ****         3.3797  -1.1931   1.0243 H              1 S1                 0.0000
     37 ****        -3.5826  -2.1930   0.2306 LP             1 S1                 0.0000
     38 ****        -1.1377  -1.8023  -0.1422 LP             1 S1                 0.0000
     39 ****         0.2122  -1.7636  -0.4084 LP             1 S1                 0.0000
     40 ****         1.9278  -1.6159  -0.5954 LP             1 S1                 0.0000
     41 ****         4.3949   0.4624   3.0346 LP             1 S1                 0.0000
     42 ****         4.7546  -1.0802   2.6376 LP             1 S1                 0.0000
@<TRIPOS>BOND
    1    1    2 1     
    2    1   19 1     
    3    1   20 1     
    4    1   21 1     
    5    2    3 1     
    6    2    4 1     
    7    2   22 1     
    8    3   23 1     
    9    3   24 1     
   10    3   25 1     
   11    4   18 1     
   12    4    5 2     
   13    5    6 1     
   14    6    7 2     
   15    7    8 1     
   16    7   18 1     
   17    8    9 am    
   18    8   26 1     
   19    9   10 2     
   20    9   11 am    
   21   11   12 1     
   22   11   27 1     
   23   12   13 1     
   24   12   28 1     
   25   12   29 1     
   26   13   17 1     
   27   13   14 1     
   28   13   30 1     
   29   14   15 1     
   30   14   31 1     
   31   14   32 1     
   32   15   16 1     
   33   15   33 1     
   34   15   34 1     
   35   16   17 1     
   36   17   35 1     
   37   17   36 1     
   38    5   37 1     
   39    6   38 1     
   40   10   39 1     
   41   10   40 1     
   42   16   41 1     
   43   16   42 1     
@<TRIPOS>SUBSTRUCTURE
      1 S1             1
@<TRIPOS>SET
LONE_PAIRS      STATIC     ATOMS    <user>   **** ""
6 37 38 39 40 41 42
DONOR_HYDROGENS      STATIC     ATOMS    <user>   **** ""
2 26 27
ATOM$BLUE        STATIC     ATOMS    COLORGROUP SYSTEM
6 37 38 39 40 41 42
ATOM$RED        STATIC     ATOMS    COLORGROUP SYSTEM
2 26 27
