AV-unprocessed.smi:1654|AV-procd|sdf|6643|dock3
  -GOLD-   22720 7343D 1   1.00000     0.00000
 Structure written by MMmdl.
 39 40  0  0  0  0  0  0  0  0  2 V2000
  151.0566  140.4496  155.2746 O   0  0  0  0  0  0  0  0  0  0  0  0
  152.0130  139.4239  155.7222 S   0  0  0  0  0  0  0  0  0  0  0  0
  152.9281  138.8526  154.7199 O   0  0  0  0  0  0  0  0  0  0  0  0
  152.7689  139.7935  157.1087 N   0  5  0  0  0  0  0  0  0  0  0  0
  152.0783  140.6136  158.0876 C   0  0  0  0  0  0  0  0  0  0  0  0
  153.0982  141.2251  159.0695 C   0  0  0  0  0  0  0  0  0  0  0  0
  152.7240  142.6197  159.5555 C   0  0  0  0  0  0  0  0  0  0  0  0
  152.5343  142.8851  160.9294 C   0  0  0  0  0  0  0  0  0  0  0  0
  152.1753  144.1871  161.3286 C   0  0  0  0  0  0  0  0  0  0  0  0
  152.0157  145.1726  160.3345 C   0  0  0  0  0  0  0  0  0  0  0  0
  152.1872  144.9324  159.0169 N   0  0  0  0  0  0  0  0  0  0  0  0
  152.5325  143.6812  158.6426 C   0  0  0  0  0  0  0  0  0  0  0  0
  151.0453  138.1092  156.3314 N   0  0  0  0  0  0  0  0  0  0  0  0
  150.5810  137.0691  155.3935 C   0  0  0  0  0  0  0  0  0  0  0  0
  150.9380  135.6717  155.9223 C   0  0  0  0  0  0  0  0  0  0  0  0
  149.8872  135.0394  156.8531 C   0  0  0  0  0  0  0  0  0  0  0  0
  149.1496  136.0025  157.8012 C   0  0  0  0  0  0  0  0  0  0  0  0
  150.0189  137.1199  158.3997 C   0  0  0  0  0  0  0  0  0  0  0  0
  150.1550  138.3515  157.4839 C   0  0  0  0  0  0  0  0  0  0  0  0
  151.5185  141.4191  157.6111 H   0  0  0  0  0  0  0  0  0  0  0  0
  151.3476  140.0323  158.6511 H   0  0  0  0  0  0  0  0  0  0  0  0
  153.2108  140.5750  159.9386 H   0  0  0  0  0  0  0  0  0  0  0  0
  154.0813  141.2748  158.5991 H   0  0  0  0  0  0  0  0  0  0  0  0
  152.6635  142.1050  161.6653 H   0  0  0  0  0  0  0  0  0  0  0  0
  152.0258  144.4242  162.3714 H   0  0  0  0  0  0  0  0  0  0  0  0
  151.7405  146.1814  160.6051 H   0  0  0  0  0  0  0  0  0  0  0  0
  152.6600  143.5225  157.5818 H   0  0  0  0  0  0  0  0  0  0  0  0
  149.5123  137.1737  155.2027 H   0  0  0  0  0  0  0  0  0  0  0  0
  151.0645  137.2042  154.4275 H   0  0  0  0  0  0  0  0  0  0  0  0
  151.0887  134.9986  155.0779 H   0  0  0  0  0  0  0  0  0  0  0  0
  151.9030  135.7144  156.4300 H   0  0  0  0  0  0  0  0  0  0  0  0
  149.1405  134.5222  156.2494 H   0  0  0  0  0  0  0  0  0  0  0  0
  150.3779  134.2620  157.4398 H   0  0  0  0  0  0  0  0  0  0  0  0
  148.2976  136.4469  157.2852 H   0  0  0  0  0  0  0  0  0  0  0  0
  148.7193  135.4129  158.6115 H   0  0  0  0  0  0  0  0  0  0  0  0
  149.5429  137.4525  159.3226 H   0  0  0  0  0  0  0  0  0  0  0  0
  150.9986  136.7401  158.6928 H   0  0  0  0  0  0  0  0  0  0  0  0
  150.5420  139.1775  158.0794 H   0  0  0  0  0  0  0  0  0  0  0  0
  149.1802  138.6822  157.1240 H   0  0  0  0  0  0  0  0  0  0  0  0
  1  2  2  0  0  0  0
  2  3  2  0  0  0  0
  2  4  1  0  0  0  0
  2 13  1  0  0  0  0
  4  5  1  0  0  0  0
  5  6  1  0  0  0  0
  5 20  1  0  0  0  0
  5 21  1  0  0  0  0
  6  7  1  0  0  0  0
  6 22  1  0  0  0  0
  6 23  1  0  0  0  0
  7 12  1  0  0  0  0
  7  8  2  0  0  0  0
  8  9  1  0  0  0  0
  8 24  1  0  0  0  0
  9 10  2  0  0  0  0
  9 25  1  0  0  0  0
 10 11  1  0  0  0  0
 10 26  1  0  0  0  0
 11 12  2  0  0  0  0
 12 27  1  0  0  0  0
 13 19  1  0  0  0  0
 13 14  1  0  0  0  0
 14 15  1  0  0  0  0
 14 28  1  0  0  0  0
 14 29  1  0  0  0  0
 15 16  1  0  0  0  0
 15 30  1  0  0  0  0
 15 31  1  0  0  0  0
 16 17  1  0  0  0  0
 16 32  1  0  0  0  0
 16 33  1  0  0  0  0
 17 18  1  0  0  0  0
 17 34  1  0  0  0  0
 17 35  1  0  0  0  0
 18 19  1  0  0  0  0
 18 36  1  0  0  0  0
 18 37  1  0  0  0  0
 19 38  1  0  0  0  0
 19 39  1  0  0  0  0
M  CHG  1   4  -1
M  END
> <s_m_source_file>
AV-unprocessed.smi

> <i_m_source_file_index>
1654

> <i_lp_mmshare_version>
43012

> <i_f3d_flags>
0

> <s_epik_input>
W0NIMl0xW0NIMl1bQ0gyXVtDSDJdW0NIMl1bQ0gyXU4xUyg9TykoPU8pW05IXVtDSDJdW0NIMl1jMltjSF1bY0hdW2NIXW5bY0hdMg==

> <s_epik_cmdline>
J2VwaWtfcHl0aG9uJywgJy1waCcsICc3LjAnLCAnLXRuJywgJzgnLCAnLW1hJywgJzIwMCcsICctbWV0YWxfYmluZGluZycsICctaW1hZScsICc8aW5maWxlLm1hZT4nLCAnLW9tYWUnLCAnPG91dGZpbGUubWFlPic=

> <r_lp_tautomer_probability>
1

> <r_epik_Ionization_Penalty>
3.13138

> <r_epik_Ionization_Penalty_Charging>
3.10426

> <r_epik_Ionization_Penalty_Neutral>
0.027117

> <r_epik_State_Penalty>
3.10111

> <r_epik_Charging_Adjusted_Penalty>
6.20538

> <i_epik_Tot_Q>
-1

> <i_epik_Tot_abs_Q>
1

> <r_epik_Metal_State_Penalty>
0.464106

> <b_epik_Metal_Only>
1

> <s_lp_Force_Field>
OPLS_2005

> <r_lp_Energy>
12.7892

> <b_lp_Chiralities_Consistent>
1

> <s_lp_Variant>
AV-unprocessed.smi:1654-2

> <Gold.Version>
5.8.1

> <Gold.Id.Protein>
6NUR|6NUR_protein|mol2

> <Gold.PLP.Fitness>
46.7565

> <Gold.PLP.PLP>
-38.6513

> <Gold.PLP.part.hbond>
-2.1311

> <Gold.PLP.part.metal>
0.0000

> <Gold.PLP.part.buried>
-6.3910

> <Gold.PLP.part.nonpolar>
-29.0866

> <Gold.PLP.part.repulsive>
0.0987

> <Gold.PLP.ligand.clash>
0.0000

> <Gold.PLP.ligand.torsion>
1.9807

> <Gold.PLP.Chemscore.Hbond>
2.9920

> <Gold.PLP.Chemscore.CHOScore>
0.0000

> <Gold.PLP.Chemscore.Metal>
0.0000

> <Gold.Chemscore.Hbonds>
donor molecule, donor type, donor heavy atom, donor atom, acceptor molecule, acceptor atom, score
      P1  H  7989  7998       L1     1  0.99
      P1  H  7997  8008       L1     4  2.00

> <Gold.PLP.Chemscore.Internal.Correction>
3.0905

> <Gold.Rescore>
     Score         DG    S(hbond)    S(metal)    S(lipo)     H(rot)  DE(clash)    DE(int)     intcor
     17.29     -19.43       1.72        0.00      98.01       1.27       0.18       1.96       ----

> <Gold.Chemscore.Fitness>
17.2933

> <Gold.Chemscore.DG>
-19.4307

> <Gold.Chemscore.ZeroCoef>
-5.4800

> <Gold.Chemscore.Hbond>
1.7198

> <Gold.Chemscore.Metal>
0.0000

> <Gold.Chemscore.Lipo>
98.0134

> <Gold.Chemscore.Internal_Hbond>
0.0000

> <Gold.Chemscore.DEClash>
0.1819

> <Gold.Chemscore.DEInternal>
1.9555

> <Gold.Chemscore.Rot>
1.2738

> <Gold.Chemscore.Internal.Correction>
   9.000000E+99

> <Gold.Chemscore.Hbonds>
donor molecule, donor type, donor heavy atom, donor atom, acceptor molecule, acceptor atom, score
      P1  H  7989  7998       L1     1  0.42
      P1  H  7997  8008       L1     4  0.25

> <Gold.Chemscore.Hbond.Weighted>
-5.7442

> <Gold.Chemscore.Metal.Weighted>
-0.0000

> <Gold.Chemscore.Lipo.Weighted>
-11.4676

> <Gold.Chemscore.Internal_Hbond.Weighted>
0.0000

> <Gold.Chemscore.DEClash.Weighted>
0.1819

> <Gold.Chemscore.DEInternal.Weighted>
1.9555

> <Gold.Chemscore.Rot.Weighted>
3.2610

> <Gold.Chemscore.Internal.Correction.Weighted>
   9.000000E+99

> <Gold.Protein.RotatedTorsions>
[ 6907 6896 6895 6894 ] final  127.93 input  -60.11 | X-H torsion
[ 7974 7965 7964 7962 ] final  -14.59 input  175.53 | X-H torsion
[ 8008 7997 7996 7995 ] final  -51.49 input   59.86 | X-H torsion
[ 10167 10162 10161 10158 ] final -120.87 input  -65.29 | X-H torsion
[ 10718 10713 10712 10709 ] final  111.92 input   66.30 | X-H torsion
[ 10763 10752 10751 10750 ] final  162.65 input  -60.55 | X-H torsion
[ 11005 11000 10999 10996 ] final   22.94 input  -57.11 | X-H torsion

> <Gold.Protein.ActiveResidues>
 VAL166  LYS551  ARG553  GLY616  TRP617  ASP618  TYR619  PRO620  LYS621  CYS622 
 ASP623  PHE694  ASN695  SER759  ASP760  ASP761  ALA762  ILE779  LEU786  VAL792 
 PHE793  MET794  SER795  GLU796  ALA797  LYS798  CYS799  TRP800  GLU811  SER814 

> <Gold.Protein.RotatedAtoms>
  152.3767  133.6491  159.6128 H   0  0  0  0  0  0  0  0  0  0  0  0  # atno 6907 bound_to 6896
  150.7709  133.9181  159.3398 H   0  0  0  0  0  0  0  0  0  0  0  0  # atno 6908 bound_to 6896
  151.6995  135.0934  160.0299 H   0  0  0  0  0  0  0  0  0  0  0  0  # atno 6909 bound_to 6896
  146.2068  140.3371  142.8404 H   0  0  0  0  0  0  0  0  0  0  0  0  # atno 7974 bound_to 7965
  154.4084  140.1247  156.4837 H   0  0  0  0  0  0  0  0  0  0  0  0  # atno 8008 bound_to 7997
  155.7060  140.3494  155.4933 H   0  0  0  0  0  0  0  0  0  0  0  0  # atno 8009 bound_to 7997
  155.9343  140.1075  157.1097 H   0  0  0  0  0  0  0  0  0  0  0  0  # atno 8010 bound_to 7997
  140.0312  143.5246  152.2175 H   0  0  0  0  0  0  0  0  0  0  0  0  # atno 10167 bound_to 10162
  157.6420  131.0959  150.6819 H   0  0  0  0  0  0  0  0  0  0  0  0  # atno 10718 bound_to 10713
  154.2817  135.2763  155.2694 H   0  0  0  0  0  0  0  0  0  0  0  0  # atno 10763 bound_to 10752
  154.5212  135.5755  153.6686 H   0  0  0  0  0  0  0  0  0  0  0  0  # atno 10764 bound_to 10752
  152.9928  135.6205  154.2976 H   0  0  0  0  0  0  0  0  0  0  0  0  # atno 10765 bound_to 10752
  140.3751  134.1981  155.7665 H   0  0  0  0  0  0  0  0  0  0  0  0  # atno 11005 bound_to 11000
  144.8812  140.7402  143.5986 LP  0  0  0  0  0  0  0  0  0  0  0  0  # atno 17320 bound_to 7965
  145.3291  139.1765  143.4546 LP  0  0  0  0  0  0  0  0  0  0  0  0  # atno 17321 bound_to 7965
  139.6075  144.7600  151.3029 LP  0  0  0  0  0  0  0  0  0  0  0  0  # atno 17342 bound_to 10162
  140.7301  143.6889  150.7938 LP  0  0  0  0  0  0  0  0  0  0  0  0  # atno 17343 bound_to 10162
  156.7141  130.4661  149.5539 LP  0  0  0  0  0  0  0  0  0  0  0  0  # atno 17370 bound_to 10713
  156.1710  130.6437  151.0837 LP  0  0  0  0  0  0  0  0  0  0  0  0  # atno 17371 bound_to 10713
  141.1942  133.8134  157.0767 LP  0  0  0  0  0  0  0  0  0  0  0  0  # atno 17394 bound_to 11000
  140.0522  134.9799  157.1156 LP  0  0  0  0  0  0  0  0  0  0  0  0  # atno 17395 bound_to 11000

$$$$
