AV-unprocessed.smi:2140|AV-procd|sdf|8717|dock7
  -GOLD-   2272011483D 1   1.00000     0.00000
 Structure written by MMmdl.
 40 41  0  0  0  0  0  0  0  0  2 V2000
  145.5501  137.7699  154.6302 C   0  0  0  0  0  0  0  0  0  0  0  0
  146.4148  138.8671  153.9628 C   0  0  1  0  0  0  0  0  0  0  0  0
  146.3958  138.6946  152.4197 C   0  0  0  0  0  0  0  0  0  0  0  0
  146.6689  137.3252  151.9918 N   0  0  0  0  0  0  0  0  0  0  0  0
  145.7374  136.3739  151.8344 C   0  0  0  0  0  0  0  0  0  0  0  0
  144.5398  136.5601  152.0491 O   0  0  0  0  0  0  0  0  0  0  0  0
  146.2863  135.2148  151.4335 N   0  0  0  0  0  0  0  0  0  0  0  0
  145.6369  133.9901  151.1194 C   0  0  0  0  0  0  0  0  0  0  0  0
  146.2876  132.8607  150.5649 C   0  0  0  0  0  0  0  0  0  0  0  0
  145.5354  131.6961  150.3187 C   0  0  0  0  0  0  0  0  0  0  0  0
  144.1645  131.6995  150.6408 C   0  0  0  0  0  0  0  0  0  0  0  0
  143.5345  132.7635  151.1815 N   0  0  0  0  0  0  0  0  0  0  0  0
  144.2620  133.8764  151.4157 C   0  0  0  0  0  0  0  0  0  0  0  0
  146.0057  140.2609  154.3372 N   0  3  0  0  0  0  0  0  0  0  0  0
  145.7898  140.4983  155.7918 C   0  0  0  0  0  0  0  0  0  0  0  0
  145.3507  141.9485  156.0601 C   0  0  0  0  0  0  0  0  0  0  0  0
  146.3128  142.8510  155.5358 O   0  0  0  0  0  0  0  0  0  0  0  0
  146.4456  142.7100  154.1293 C   0  0  0  0  0  0  0  0  0  0  0  0
  146.9376  141.2910  153.8013 C   0  0  0  0  0  0  0  0  0  0  0  0
  145.8525  136.7705  154.3175 H   0  0  0  0  0  0  0  0  0  0  0  0
  144.4956  137.8848  154.3775 H   0  0  0  0  0  0  0  0  0  0  0  0
  145.6459  137.7773  155.7159 H   0  0  0  0  0  0  0  0  0  0  0  0
  147.4347  138.7213  154.3225 H   0  0  0  0  0  0  0  0  0  0  0  0
  145.4167  138.9764  152.0307 H   0  0  0  0  0  0  0  0  0  0  0  0
  147.1134  139.3472  151.9247 H   0  0  0  0  0  0  0  0  0  0  0  0
  147.6318  137.0877  151.8015 H   0  0  0  0  0  0  0  0  0  0  0  0
  147.2946  135.1916  151.3876 H   0  0  0  0  0  0  0  0  0  0  0  0
  147.3424  132.8571  150.3388 H   0  0  0  0  0  0  0  0  0  0  0  0
  146.0006  130.8176  149.8963 H   0  0  0  0  0  0  0  0  0  0  0  0
  143.5598  130.8223  150.4653 H   0  0  0  0  0  0  0  0  0  0  0  0
  143.7256  134.7067  151.8516 H   0  0  0  0  0  0  0  0  0  0  0  0
  145.0095  139.8455  156.1813 H   0  0  0  0  0  0  0  0  0  0  0  0
  146.7074  140.2780  156.3398 H   0  0  0  0  0  0  0  0  0  0  0  0
  144.3713  142.1463  155.6210 H   0  0  0  0  0  0  0  0  0  0  0  0
  145.2568  142.1190  157.1328 H   0  0  0  0  0  0  0  0  0  0  0  0
  145.4957  142.9198  153.6347 H   0  0  0  0  0  0  0  0  0  0  0  0
  147.1623  143.4477  153.7680 H   0  0  0  0  0  0  0  0  0  0  0  0
  147.9310  141.1397  154.2269 H   0  0  0  0  0  0  0  0  0  0  0  0
  147.0434  141.2059  152.7215 H   0  0  0  0  0  0  0  0  0  0  0  0
  145.1094  140.4190  153.8989 H   0  0  0  0  0  0  0  0  0  0  0  0
  1  2  1  0  0  0  0
  1 20  1  0  0  0  0
  1 21  1  0  0  0  0
  1 22  1  0  0  0  0
  2  3  1  0  0  0  0
  2 14  1  0  0  0  0
  2 23  1  0  0  0  0
  3  4  1  0  0  0  0
  3 24  1  0  0  0  0
  3 25  1  0  0  0  0
  4  5  1  0  0  0  0
  4 26  1  0  0  0  0
  5  6  2  0  0  0  0
  5  7  1  0  0  0  0
  7  8  1  0  0  0  0
  7 27  1  0  0  0  0
  8 13  1  0  0  0  0
  8  9  2  0  0  0  0
  9 10  1  0  0  0  0
  9 28  1  0  0  0  0
 10 11  2  0  0  0  0
 10 29  1  0  0  0  0
 11 12  1  0  0  0  0
 11 30  1  0  0  0  0
 12 13  2  0  0  0  0
 13 31  1  0  0  0  0
 14 19  1  0  0  0  0
 14 15  1  0  0  0  0
 14 40  1  0  0  0  0
 15 16  1  0  0  0  0
 15 32  1  0  0  0  0
 15 33  1  0  0  0  0
 16 17  1  0  0  0  0
 16 34  1  0  0  0  0
 16 35  1  0  0  0  0
 17 18  1  0  0  0  0
 18 19  1  0  0  0  0
 18 36  1  0  0  0  0
 18 37  1  0  0  0  0
 19 38  1  0  0  0  0
 19 39  1  0  0  0  0
M  CHG  1  14   1
M  END
> <s_m_source_file>
AV-unprocessed.smi

> <i_m_source_file_index>
2140

> <i_lp_mmshare_version>
43012

> <i_f3d_flags>
0

> <s_epik_input>
W0NIMl0xW0NIMl1PW0NIMl1bQ0gyXU4xW0NASF0oW0NIM10pW0NIMl1bTkhdQyg9TylbTkhdYzJbY0hdW2NIXVtjSF1uW2NIXTI=

> <s_epik_cmdline>
J2VwaWtfcHl0aG9uJywgJy1waCcsICc3LjAnLCAnLXRuJywgJzgnLCAnLW1hJywgJzIwMCcsICctbWV0YWxfYmluZGluZycsICctaW1hZScsICc8aW5maWxlLm1hZT4nLCAnLW9tYWUnLCAnPG91dGZpbGUubWFlPic=

> <r_epik_Ionization_Penalty>
0.60672

> <r_epik_Ionization_Penalty_Charging>
0.602531

> <r_epik_Ionization_Penalty_Neutral>
0.00418997

> <r_epik_State_Penalty>
0.607459

> <r_epik_Charging_Adjusted_Penalty>
1.20999

> <i_epik_Tot_Q>
1

> <i_epik_Tot_abs_Q>
1

> <r_epik_Metal_State_Penalty>
0.604586

> <b_epik_Metal_Only>
0

> <s_lp_Force_Field>
OPLS_2005

> <r_lp_Energy>
23.4588

> <b_lp_Chiralities_Consistent>
1

> <s_lp_Variant>
AV-unprocessed.smi:2140-4

> <Gold.Version>
5.8.1

> <Gold.Id.Protein>
6NUR|6NUR_protein|mol2

> <Gold.PLP.Fitness>
44.0485

> <Gold.PLP.PLP>
-31.2523

> <Gold.PLP.part.hbond>
-3.0000

> <Gold.PLP.part.metal>
0.0000

> <Gold.PLP.part.buried>
-7.1326

> <Gold.PLP.part.nonpolar>
-24.7574

> <Gold.PLP.part.repulsive>
2.3247

> <Gold.PLP.ligand.clash>
0.0000

> <Gold.PLP.ligand.torsion>
0.3098

> <Gold.PLP.Chemscore.Hbond>
3.8736

> <Gold.PLP.Chemscore.CHOScore>
0.5817

> <Gold.PLP.Chemscore.Metal>
0.0000

> <Gold.Chemscore.Hbonds>
donor molecule, donor type, donor heavy atom, donor atom, acceptor molecule, acceptor atom, score
      L1  H     4    26       P1  7948  1.00
      L1  H     7    27       P1  7948  0.90
      L1  H    14    40       P1 10175  2.00
      L1  C    11    30       P1 10952  0.03

> <Gold.PLP.Chemscore.Internal.Correction>
0.0498

> <Gold.Rescore>
     Score         DG    S(hbond)    S(metal)    S(lipo)     H(rot)  DE(clash)    DE(int)     intcor
     17.21     -19.00       2.82        0.00      68.09       1.52       0.10       1.68       ----

> <Gold.Chemscore.Fitness>
17.2118

> <Gold.Chemscore.DG>
-18.9954

> <Gold.Chemscore.ZeroCoef>
-5.4800

> <Gold.Chemscore.Hbond>
2.8248

> <Gold.Chemscore.Metal>
0.0000

> <Gold.Chemscore.Lipo>
68.0896

> <Gold.Chemscore.Internal_Hbond>
0.0000

> <Gold.Chemscore.DEClash>
0.1009

> <Gold.Chemscore.DEInternal>
1.6827

> <Gold.Chemscore.Rot>
1.5179

> <Gold.Chemscore.Internal.Correction>
   9.000000E+99

> <Gold.Chemscore.Hbonds>
donor molecule, donor type, donor heavy atom, donor atom, acceptor molecule, acceptor atom, score
      L1  H     4    26       P1  7948  0.94
      L1  H     7    27       P1  7948  0.68
      L1  H    14    40       P1 10175  0.95

> <Gold.Chemscore.Hbond.Weighted>
-9.4348

> <Gold.Chemscore.Metal.Weighted>
-0.0000

> <Gold.Chemscore.Lipo.Weighted>
-7.9665

> <Gold.Chemscore.Internal_Hbond.Weighted>
0.0000

> <Gold.Chemscore.DEClash.Weighted>
0.1009

> <Gold.Chemscore.DEInternal.Weighted>
1.6827

> <Gold.Chemscore.Rot.Weighted>
3.8859

> <Gold.Chemscore.Internal.Correction.Weighted>
   9.000000E+99

> <Gold.Protein.RotatedTorsions>
[ 6907 6896 6895 6894 ] final  -95.63 input  -60.11 | X-H torsion
[ 7974 7965 7964 7962 ] final    0.81 input  175.53 | X-H torsion
[ 8008 7997 7996 7995 ] final    3.16 input   59.86 | X-H torsion
[ 10167 10162 10161 10158 ] final   29.69 input  -65.29 | X-H torsion
[ 10718 10713 10712 10709 ] final -129.33 input   66.30 | X-H torsion
[ 10763 10752 10751 10750 ] final  -39.40 input  -60.55 | X-H torsion
[ 11005 11000 10999 10996 ] final  133.53 input  -57.11 | X-H torsion

> <Gold.Protein.ActiveResidues>
 VAL166  LYS551  ARG553  GLY616  TRP617  ASP618  TYR619  PRO620  LYS621  CYS622 
 ASP623  PHE694  ASN695  SER759  ASP760  ASP761  ALA762  ILE779  LEU786  VAL792 
 PHE793  MET794  SER795  GLU796  ALA797  LYS798  CYS799  TRP800  GLU811  SER814 

> <Gold.Protein.RotatedAtoms>
  150.6968  134.1628  159.4182 H   0  0  0  0  0  0  0  0  0  0  0  0  # atno 6907 bound_to 6896
  151.9608  135.0122  160.0557 H   0  0  0  0  0  0  0  0  0  0  0  0  # atno 6908 bound_to 6896
  152.1928  133.4750  159.5054 H   0  0  0  0  0  0  0  0  0  0  0  0  # atno 6909 bound_to 6896
  146.2437  140.1082  142.8345 H   0  0  0  0  0  0  0  0  0  0  0  0  # atno 7974 bound_to 7965
  154.7003  140.2671  155.6726 H   0  0  0  0  0  0  0  0  0  0  0  0  # atno 8008 bound_to 7997
  156.2762  140.2773  156.1534 H   0  0  0  0  0  0  0  0  0  0  0  0  # atno 8009 bound_to 7997
  155.0774  140.0372  157.2618 H   0  0  0  0  0  0  0  0  0  0  0  0  # atno 8010 bound_to 7997
  140.4744  144.0713  150.6246 H   0  0  0  0  0  0  0  0  0  0  0  0  # atno 10167 bound_to 10162
  156.2037  130.6873  151.0569 H   0  0  0  0  0  0  0  0  0  0  0  0  # atno 10718 bound_to 10713
  153.9288  135.6774  153.4746 H   0  0  0  0  0  0  0  0  0  0  0  0  # atno 10763 bound_to 10752
  153.0990  135.4837  154.8829 H   0  0  0  0  0  0  0  0  0  0  0  0  # atno 10764 bound_to 10752
  154.7439  135.3167  154.8637 H   0  0  0  0  0  0  0  0  0  0  0  0  # atno 10765 bound_to 10752
  139.9857  134.9533  156.9738 H   0  0  0  0  0  0  0  0  0  0  0  0  # atno 11005 bound_to 11000
  145.0510  140.9017  143.4995 LP  0  0  0  0  0  0  0  0  0  0  0  0  # atno 17320 bound_to 7965
  145.1180  139.2713  143.5603 LP  0  0  0  0  0  0  0  0  0  0  0  0  # atno 17321 bound_to 7965
  140.3937  143.2739  152.0030 LP  0  0  0  0  0  0  0  0  0  0  0  0  # atno 17342 bound_to 10162
  139.4823  144.6056  151.7527 LP  0  0  0  0  0  0  0  0  0  0  0  0  # atno 17343 bound_to 10162
  157.7000  131.0779  150.6850 LP  0  0  0  0  0  0  0  0  0  0  0  0  # atno 17370 bound_to 10713
  156.6908  130.4594  149.5600 LP  0  0  0  0  0  0  0  0  0  0  0  0  # atno 17371 bound_to 10713
  140.5006  134.1101  155.7250 LP  0  0  0  0  0  0  0  0  0  0  0  0  # atno 17394 bound_to 11000
  141.1523  133.8947  157.2067 LP  0  0  0  0  0  0  0  0  0  0  0  0  # atno 17395 bound_to 11000

$$$$
