AV-unprocessed.smi:1743|AV-procd|sdf|7022|dock2
  -GOLD-   22720 8243D 1   1.00000     0.00000
 Structure written by MMmdl.
 38 39  0  0  0  0  0  0  0  0  1 V2000
  153.6887  132.0603  157.4785 C   0  0  0  0  0  0  0  0  0  0  0  0
  152.9404  133.2711  157.4850 O   0  0  0  0  0  0  0  0  0  0  0  0
  151.9540  133.4371  156.5347 C   0  0  0  0  0  0  0  0  0  0  0  0
  151.2828  132.2952  156.0541 C   0  0  0  0  0  0  0  0  0  0  0  0
  150.2756  132.4548  155.0832 C   0  0  0  0  0  0  0  0  0  0  0  0
  149.9757  133.7568  154.6173 C   0  0  0  0  0  0  0  0  0  0  0  0
  148.9668  134.0476  153.6601 N   0  0  0  0  0  0  0  0  0  0  0  0
  147.8069  133.4018  153.4505 C   0  0  0  0  0  0  0  0  0  0  0  0
  147.4409  132.3902  154.0485 O   0  0  0  0  0  0  0  0  0  0  0  0
  147.0960  133.9912  152.4782 N   0  0  0  0  0  0  0  0  0  0  0  0
  145.7979  133.5470  151.9770 C   0  0  2  0  0  0  0  0  0  0  0  0
  145.8984  132.0916  151.4803 C   0  0  0  0  0  0  0  0  0  0  0  0
  144.5746  131.6152  150.8600 C   0  0  0  0  0  0  0  0  0  0  0  0
  144.1192  132.5566  149.7316 C   0  0  1  0  0  0  0  0  0  0  0  0
  142.8685  132.1278  149.2366 O   0  0  0  0  0  0  0  0  0  0  0  0
  144.0040  134.0059  150.2345 C   0  0  0  0  0  0  0  0  0  0  0  0
  145.3298  134.4843  150.8478 C   0  0  0  0  0  0  0  0  0  0  0  0
  150.6948  134.8352  155.1731 C   0  0  0  0  0  0  0  0  0  0  0  0
  151.6626  134.6889  156.1024 N   0  0  0  0  0  0  0  0  0  0  0  0
  154.4229  132.0862  158.2838 H   0  0  0  0  0  0  0  0  0  0  0  0
  154.2309  131.9298  156.5409 H   0  0  0  0  0  0  0  0  0  0  0  0
  153.0461  131.1944  157.6448 H   0  0  0  0  0  0  0  0  0  0  0  0
  151.5328  131.3130  156.4271 H   0  0  0  0  0  0  0  0  0  0  0  0
  149.7467  131.5831  154.7299 H   0  0  0  0  0  0  0  0  0  0  0  0
  149.1757  134.8051  153.0263 H   0  0  0  0  0  0  0  0  0  0  0  0
  147.4856  134.8158  152.0454 H   0  0  0  0  0  0  0  0  0  0  0  0
  145.0517  133.5844  152.7730 H   0  0  0  0  0  0  0  0  0  0  0  0
  146.6940  132.0076  150.7385 H   0  0  0  0  0  0  0  0  0  0  0  0
  146.1742  131.4336  152.3053 H   0  0  0  0  0  0  0  0  0  0  0  0
  144.6906  130.6003  150.4781 H   0  0  0  0  0  0  0  0  0  0  0  0
  143.8089  131.5683  151.6360 H   0  0  0  0  0  0  0  0  0  0  0  0
  144.8379  132.5134  148.9120 H   0  0  0  0  0  0  0  0  0  0  0  0
  142.2452  132.8296  149.3458 H   0  0  0  0  0  0  0  0  0  0  0  0
  143.7165  134.6667  149.4161 H   0  0  0  0  0  0  0  0  0  0  0  0
  143.2133  134.0776  150.9830 H   0  0  0  0  0  0  0  0  0  0  0  0
  145.2121  135.4991  151.2298 H   0  0  0  0  0  0  0  0  0  0  0  0
  146.0906  134.5337  150.0673 H   0  0  0  0  0  0  0  0  0  0  0  0
  150.4924  135.8490  154.8598 H   0  0  0  0  0  0  0  0  0  0  0  0
  1  2  1  0  0  0  0
  1 20  1  0  0  0  0
  1 21  1  0  0  0  0
  1 22  1  0  0  0  0
  2  3  1  0  0  0  0
  3 19  1  0  0  0  0
  3  4  2  0  0  0  0
  4  5  1  0  0  0  0
  4 23  1  0  0  0  0
  5  6  2  0  0  0  0
  5 24  1  0  0  0  0
  6  7  1  0  0  0  0
  6 18  1  0  0  0  0
  7  8  1  0  0  0  0
  7 25  1  0  0  0  0
  8  9  2  0  0  0  0
  8 10  1  0  0  0  0
 10 11  1  0  0  0  0
 10 26  1  0  0  0  0
 11 17  1  0  0  0  0
 11 12  1  0  0  0  0
 11 27  1  0  0  0  0
 12 13  1  0  0  0  0
 12 28  1  0  0  0  0
 12 29  1  0  0  0  0
 13 14  1  0  0  0  0
 13 30  1  0  0  0  0
 13 31  1  0  0  0  0
 14 15  1  0  0  0  0
 14 16  1  0  0  0  0
 14 32  1  0  0  0  0
 15 33  1  0  0  0  0
 16 17  1  0  0  0  0
 16 34  1  0  0  0  0
 16 35  1  0  0  0  0
 17 36  1  0  0  0  0
 17 37  1  0  0  0  0
 18 19  2  0  0  0  0
 18 38  1  0  0  0  0
M  END
> <s_m_source_file>
AV-unprocessed.smi

> <i_m_source_file_index>
1743

> <i_lp_mmshare_version>
43012

> <i_f3d_flags>
0

> <s_epik_input>
W0NIM11PYzFbY0hdW2NIXWMoW2NIXW4xKVtOSF1DKD1PKVtOSF1bQ0BASF0yW0NIMl1bQ0gyXVtDQEBIXShbT0hdKVtDSDJdW0NIMl0y

> <s_epik_cmdline>
J2VwaWtfcHl0aG9uJywgJy1waCcsICc3LjAnLCAnLXRuJywgJzgnLCAnLW1hJywgJzIwMCcsICctbWV0YWxfYmluZGluZycsICctaW1hZScsICc8aW5maWxlLm1hZT4nLCAnLW9tYWUnLCAnPG91dGZpbGUubWFlPic=

> <r_lp_tautomer_probability>
1

> <r_epik_Ionization_Penalty>
9.95686e-05

> <r_epik_Ionization_Penalty_Charging>
0

> <r_epik_Ionization_Penalty_Neutral>
9.95686e-05

> <r_epik_State_Penalty>
-0

> <r_epik_Charging_Adjusted_Penalty>
0

> <i_epik_Tot_Q>
0

> <i_epik_Tot_abs_Q>
0

> <r_epik_Metal_State_Penalty>
-0

> <b_epik_Metal_Only>
0

> <s_lp_Force_Field>
OPLS_2005

> <r_lp_Energy>
11.6996

> <b_lp_Chiralities_Consistent>
1

> <s_lp_Variant>
AV-unprocessed.smi:1743-1

> <Gold.Version>
5.8.1

> <Gold.Id.Protein>
6NUR|6NUR_protein|mol2

> <Gold.PLP.Fitness>
47.7209

> <Gold.PLP.PLP>
-33.8470

> <Gold.PLP.part.hbond>
-7.0000

> <Gold.PLP.part.metal>
0.0000

> <Gold.PLP.part.buried>
-3.5464

> <Gold.PLP.part.nonpolar>
-22.9437

> <Gold.PLP.part.repulsive>
0.0665

> <Gold.PLP.ligand.clash>
0.0000

> <Gold.PLP.ligand.torsion>
0.5957

> <Gold.PLP.Chemscore.Hbond>
5.0198

> <Gold.PLP.Chemscore.CHOScore>
0.0000

> <Gold.PLP.Chemscore.Metal>
0.0000

> <Gold.Chemscore.Hbonds>
donor molecule, donor type, donor heavy atom, donor atom, acceptor molecule, acceptor atom, score
      L1  H     7    25       P1  7948  0.45
      L1  H    10    26       P1  7948  1.00
      L1  H    15    33       P1 10186  1.00
      P1  H  6896  6908       L1     2  0.62
      P1  H 10752 10763       L1    19  0.80
      P1  H 10785 10796       L1    15  0.89

> <Gold.PLP.Chemscore.Internal.Correction>
0.0060

> <Gold.Rescore>
     Score         DG    S(hbond)    S(metal)    S(lipo)     H(rot)  DE(clash)    DE(int)     intcor
     17.77     -19.17       2.98        0.00      70.66       1.77       0.08       1.33       ----

> <Gold.Chemscore.Fitness>
17.7655

> <Gold.Chemscore.DG>
-19.1726

> <Gold.Chemscore.ZeroCoef>
-5.4800

> <Gold.Chemscore.Hbond>
2.9821

> <Gold.Chemscore.Metal>
0.0000

> <Gold.Chemscore.Lipo>
70.6593

> <Gold.Chemscore.Internal_Hbond>
0.0000

> <Gold.Chemscore.DEClash>
0.0791

> <Gold.Chemscore.DEInternal>
1.3280

> <Gold.Chemscore.Rot>
1.7714

> <Gold.Chemscore.Internal.Correction>
   9.000000E+99

> <Gold.Chemscore.Hbonds>
donor molecule, donor type, donor heavy atom, donor atom, acceptor molecule, acceptor atom, score
      L1  H     7    25       P1  7948  0.02
      L1  H    10    26       P1  7948  0.76
      L1  H    15    33       P1 10186  0.94
      P1  H  6896  6908       L1     2  0.26
      P1  H 10752 10763       L1    19  0.14
      P1  H 10785 10796       L1    15  0.39

> <Gold.Chemscore.Hbond.Weighted>
-9.9602

> <Gold.Chemscore.Metal.Weighted>
-0.0000

> <Gold.Chemscore.Lipo.Weighted>
-8.2671

> <Gold.Chemscore.Internal_Hbond.Weighted>
0.0000

> <Gold.Chemscore.DEClash.Weighted>
0.0791

> <Gold.Chemscore.DEInternal.Weighted>
1.3280

> <Gold.Chemscore.Rot.Weighted>
4.5347

> <Gold.Chemscore.Internal.Correction.Weighted>
   9.000000E+99

> <Gold.Protein.RotatedTorsions>
[ 6907 6896 6895 6894 ] final   27.86 input  -60.11 | X-H torsion
[ 7974 7965 7964 7962 ] final   26.73 input  175.53 | X-H torsion
[ 8008 7997 7996 7995 ] final  132.37 input   59.86 | X-H torsion
[ 10167 10162 10161 10158 ] final   47.12 input  -65.29 | X-H torsion
[ 10718 10713 10712 10709 ] final  137.62 input   66.30 | X-H torsion
[ 10763 10752 10751 10750 ] final   95.93 input  -60.55 | X-H torsion
[ 11005 11000 10999 10996 ] final -176.44 input  -57.11 | X-H torsion

> <Gold.Protein.ActiveResidues>
 VAL166  LYS551  ARG553  GLY616  TRP617  ASP618  TYR619  PRO620  LYS621  CYS622 
 ASP623  PHE694  ASN695  SER759  ASP760  ASP761  ALA762  ILE779  LEU786  VAL792 
 PHE793  MET794  SER795  GLU796  ALA797  LYS798  CYS799  TRP800  GLU811  SER814 

> <Gold.Protein.RotatedAtoms>
  152.0084  134.9890  160.0567 H   0  0  0  0  0  0  0  0  0  0  0  0  # atno 6907 bound_to 6896
  152.1452  133.4483  159.4794 H   0  0  0  0  0  0  0  0  0  0  0  0  # atno 6908 bound_to 6896
  150.6869  134.2174  159.4426 H   0  0  0  0  0  0  0  0  0  0  0  0  # atno 6909 bound_to 6896
  146.1822  139.7288  142.8892 H   0  0  0  0  0  0  0  0  0  0  0  0  # atno 7974 bound_to 7965
  156.2982  140.2548  156.3078 H   0  0  0  0  0  0  0  0  0  0  0  0  # atno 8008 bound_to 7997
  154.9355  140.0397  157.2089 H   0  0  0  0  0  0  0  0  0  0  0  0  # atno 8009 bound_to 7997
  154.8177  140.2855  155.5813 H   0  0  0  0  0  0  0  0  0  0  0  0  # atno 8010 bound_to 7997
  140.3069  144.2867  150.6207 H   0  0  0  0  0  0  0  0  0  0  0  0  # atno 10167 bound_to 10162
  157.4341  131.1051  151.0217 H   0  0  0  0  0  0  0  0  0  0  0  0  # atno 10718 bound_to 10713
  153.2589  135.4236  155.0874 H   0  0  0  0  0  0  0  0  0  0  0  0  # atno 10763 bound_to 10752
  154.8412  135.3444  154.6406 H   0  0  0  0  0  0  0  0  0  0  0  0  # atno 10764 bound_to 10752
  153.6826  135.7038  153.5170 H   0  0  0  0  0  0  0  0  0  0  0  0  # atno 10765 bound_to 10752
  140.4520  134.6334  157.4805 H   0  0  0  0  0  0  0  0  0  0  0  0  # atno 11005 bound_to 11000
  145.4043  141.0389  143.3053 LP  0  0  0  0  0  0  0  0  0  0  0  0  # atno 17320 bound_to 7965
  144.8335  139.5589  143.6933 LP  0  0  0  0  0  0  0  0  0  0  0  0  # atno 17321 bound_to 7965
  140.5602  143.2193  151.7778 LP  0  0  0  0  0  0  0  0  0  0  0  0  # atno 17342 bound_to 10162
  139.4902  144.4359  151.9820 LP  0  0  0  0  0  0  0  0  0  0  0  0  # atno 17343 bound_to 10162
  157.1103  130.6019  149.5480 LP  0  0  0  0  0  0  0  0  0  0  0  0  # atno 17370 bound_to 10713
  155.9924  130.4982  150.7338 LP  0  0  0  0  0  0  0  0  0  0  0  0  # atno 17371 bound_to 10713
  140.0000  134.6851  155.9545 LP  0  0  0  0  0  0  0  0  0  0  0  0  # atno 17394 bound_to 11000
  141.1660  133.6537  156.4480 LP  0  0  0  0  0  0  0  0  0  0  0  0  # atno 17395 bound_to 11000

$$$$
