AV-unprocessed.smi:525|AV-procd|sdf|2809|dock9
  -GOLD-   2262023283D 1   1.00000     0.00000
 Structure written by MMmdl.
 44 46  0  0  0  0  0  0  0  0  2 V2000
  140.7360  136.6274  154.0341 C   0  0  0  0  0  0  0  0  0  0  0  0
  141.3530  135.4870  154.6054 O   0  0  0  0  0  0  0  0  0  0  0  0
  142.7001  135.3355  154.1935 C   0  0  0  0  0  0  0  0  0  0  0  0
  142.7408  135.2500  152.6630 C   0  0  0  0  0  0  0  0  0  0  0  0
  144.1055  135.0383  152.1642 N   0  0  0  0  0  0  0  0  0  0  0  0
  145.2237  135.8051  152.2957 C   0  0  0  0  0  0  0  0  0  0  0  0
  145.3310  137.3488  153.1467 S   0  0  0  0  0  0  0  0  0  0  0  0
  147.0582  137.5165  153.7073 C   0  0  2  0  0  0  0  0  0  0  0  0
  147.3936  136.6511  154.9292 C   0  0  0  0  0  0  0  0  0  0  0  0
  148.3402  135.7166  154.7978 N   0  0  0  0  0  0  0  0  0  0  0  0
  146.7916  136.8212  155.9872 O   0  0  0  0  0  0  0  0  0  0  0  0
  147.4057  138.9782  153.9784 C   0  0  0  0  0  0  0  0  0  0  0  0
  146.4463  140.0041  153.8127 C   0  0  0  0  0  0  0  0  0  0  0  0
  146.7914  141.3475  154.0552 C   0  0  0  0  0  0  0  0  0  0  0  0
  148.0966  141.6768  154.4667 C   0  0  0  0  0  0  0  0  0  0  0  0
  149.0562  140.6612  154.6381 C   0  0  0  0  0  0  0  0  0  0  0  0
  148.7117  139.3176  154.3953 C   0  0  0  0  0  0  0  0  0  0  0  0
  146.2371  135.1691  151.6446 N   0  3  0  0  0  0  0  0  0  0  0  0
  145.7600  133.9859  151.0798 C   0  0  0  0  0  0  0  0  0  0  0  0
  146.4050  133.0128  150.3230 C   0  0  0  0  0  0  0  0  0  0  0  0
  145.6201  131.9227  149.8931 C   0  0  0  0  0  0  0  0  0  0  0  0
  144.2508  131.8302  150.2171 C   0  0  0  0  0  0  0  0  0  0  0  0
  143.6074  132.8227  150.9859 C   0  0  0  0  0  0  0  0  0  0  0  0
  144.3908  133.8963  151.4080 C   0  0  0  0  0  0  0  0  0  0  0  0
  139.7066  136.7015  154.3845 H   0  0  0  0  0  0  0  0  0  0  0  0
  140.7168  136.5610  152.9455 H   0  0  0  0  0  0  0  0  0  0  0  0
  141.2555  137.5429  154.3203 H   0  0  0  0  0  0  0  0  0  0  0  0
  143.2942  136.1822  154.5410 H   0  0  0  0  0  0  0  0  0  0  0  0
  143.1254  134.4306  154.6312 H   0  0  0  0  0  0  0  0  0  0  0  0
  142.1241  134.4207  152.3153 H   0  0  0  0  0  0  0  0  0  0  0  0
  142.3318  136.1518  152.2066 H   0  0  0  0  0  0  0  0  0  0  0  0
  147.6782  137.1596  152.8835 H   0  0  0  0  0  0  0  0  0  0  0  0
  148.5829  135.1296  155.5827 H   0  0  0  0  0  0  0  0  0  0  0  0
  148.8090  135.5998  153.9110 H   0  0  0  0  0  0  0  0  0  0  0  0
  145.4405  139.7669  153.4984 H   0  0  0  0  0  0  0  0  0  0  0  0
  146.0538  142.1259  153.9260 H   0  0  0  0  0  0  0  0  0  0  0  0
  148.3611  142.7073  154.6533 H   0  0  0  0  0  0  0  0  0  0  0  0
  150.0568  140.9131  154.9574 H   0  0  0  0  0  0  0  0  0  0  0  0
  149.4565  138.5473  154.5318 H   0  0  0  0  0  0  0  0  0  0  0  0
  147.4534  133.0827  150.0721 H   0  0  0  0  0  0  0  0  0  0  0  0
  146.0770  131.1422  149.3019 H   0  0  0  0  0  0  0  0  0  0  0  0
  143.6816  130.9807  149.8683 H   0  0  0  0  0  0  0  0  0  0  0  0
  142.5574  132.7440  151.2267 H   0  0  0  0  0  0  0  0  0  0  0  0
  147.1816  135.5266  151.5826 H   0  0  0  0  0  0  0  0  0  0  0  0
  1  2  1  0  0  0  0
  1 25  1  0  0  0  0
  1 26  1  0  0  0  0
  1 27  1  0  0  0  0
  2  3  1  0  0  0  0
  3  4  1  0  0  0  0
  3 28  1  0  0  0  0
  3 29  1  0  0  0  0
  4  5  1  0  0  0  0
  4 30  1  0  0  0  0
  4 31  1  0  0  0  0
  5 24  1  0  0  0  0
  5  6  1  0  0  0  0
  6  7  1  0  0  0  0
  6 18  2  0  0  0  0
  7  8  1  0  0  0  0
  8  9  1  0  0  0  0
  8 12  1  0  0  0  0
  8 32  1  0  0  0  0
  9 10  1  0  0  0  0
  9 11  2  0  0  0  0
 10 33  1  0  0  0  0
 10 34  1  0  0  0  0
 12 17  1  0  0  0  0
 12 13  2  0  0  0  0
 13 14  1  0  0  0  0
 13 35  1  0  0  0  0
 14 15  2  0  0  0  0
 14 36  1  0  0  0  0
 15 16  1  0  0  0  0
 15 37  1  0  0  0  0
 16 17  2  0  0  0  0
 16 38  1  0  0  0  0
 17 39  1  0  0  0  0
 18 19  1  0  0  0  0
 18 44  1  0  0  0  0
 19 24  2  0  0  0  0
 19 20  1  0  0  0  0
 20 21  2  0  0  0  0
 20 40  1  0  0  0  0
 21 22  1  0  0  0  0
 21 41  1  0  0  0  0
 22 23  2  0  0  0  0
 22 42  1  0  0  0  0
 23 24  1  0  0  0  0
 23 43  1  0  0  0  0
M  CHG  1  18   1
M  END
> <s_m_source_file>
AV-unprocessed.smi

> <i_m_source_file_index>
525

> <i_lp_mmshare_version>
43012

> <i_f3d_flags>
0

> <s_epik_input>
W2NIXTFbY0hdW2NIXVtjSF1jKGMxMiluKFtDSDJdW0NIMl1PW0NIM10pYyhuMilTW0NASF0oQyg9TylbTkgyXSljM1tjSF1bY0hdW2NIXVtjSF1bY0hdMw==

> <s_epik_cmdline>
J2VwaWtfcHl0aG9uJywgJy1waCcsICc3LjAnLCAnLXRuJywgJzgnLCAnLW1hJywgJzIwMCcsICctbWV0YWxfYmluZGluZycsICctaW1hZScsICc8aW5maWxlLm1hZT4nLCAnLW9tYWUnLCAnPG91dGZpbGUubWFlPic=

> <r_epik_Ionization_Penalty>
1.29485

> <r_epik_Ionization_Penalty_Charging>
1.29485

> <r_epik_Ionization_Penalty_Neutral>
1.02965e-06

> <r_epik_State_Penalty>
1.36828

> <r_epik_Charging_Adjusted_Penalty>
2.66313

> <i_epik_Tot_Q>
1

> <i_epik_Tot_abs_Q>
1

> <r_epik_Metal_State_Penalty>
1.43316

> <b_epik_Metal_Only>
0

> <s_lp_Force_Field>
OPLS_2005

> <r_lp_Energy>
14.4741

> <b_lp_Chiralities_Consistent>
1

> <s_lp_Variant>
AV-unprocessed.smi:525-3

> <Gold.Version>
5.8.1

> <Gold.Id.Protein>
6NUR|6NUR_protein|mol2

> <Gold.PLP.Fitness>
51.2182

> <Gold.PLP.PLP>
-41.3091

> <Gold.PLP.part.hbond>
-3.0000

> <Gold.PLP.part.metal>
0.0000

> <Gold.PLP.part.buried>
-2.5694

> <Gold.PLP.part.nonpolar>
-37.4028

> <Gold.PLP.part.repulsive>
0.1646

> <Gold.PLP.ligand.clash>
0.0000

> <Gold.PLP.ligand.torsion>
0.5931

> <Gold.PLP.Chemscore.Hbond>
3.6320

> <Gold.PLP.Chemscore.CHOScore>
0.0000

> <Gold.PLP.Chemscore.Metal>
0.0000

> <Gold.Chemscore.Hbonds>
donor molecule, donor type, donor heavy atom, donor atom, acceptor molecule, acceptor atom, score
      L1  H    10    34       P1  7948  0.72
      L1  H    18    44       P1  7948  2.00
      P1  H 11000 11005       L1     2  0.66

> <Gold.PLP.Chemscore.Internal.Correction>
0.1993

> <Gold.Rescore>
     Score         DG    S(hbond)    S(metal)    S(lipo)     H(rot)  DE(clash)    DE(int)     intcor
     18.60     -20.55       2.59        0.00     109.73       2.51       1.38       0.56       ----

> <Gold.Chemscore.Fitness>
18.5981

> <Gold.Chemscore.DG>
-20.5470

> <Gold.Chemscore.ZeroCoef>
-5.4800

> <Gold.Chemscore.Hbond>
2.5944

> <Gold.Chemscore.Metal>
0.0000

> <Gold.Chemscore.Lipo>
109.7347

> <Gold.Chemscore.Internal_Hbond>
0.0000

> <Gold.Chemscore.DEClash>
1.3846

> <Gold.Chemscore.DEInternal>
0.5643

> <Gold.Chemscore.Rot>
2.5145

> <Gold.Chemscore.Internal.Correction>
   9.000000E+99

> <Gold.Chemscore.Hbonds>
donor molecule, donor type, donor heavy atom, donor atom, acceptor molecule, acceptor atom, score
      L1  H    10    34       P1  7948  0.65
      L1  H    18    44       P1  7948  0.99
      P1  H 11000 11005       L1     2  0.64

> <Gold.Chemscore.Hbond.Weighted>
-8.6652

> <Gold.Chemscore.Metal.Weighted>
-0.0000

> <Gold.Chemscore.Lipo.Weighted>
-12.8390

> <Gold.Chemscore.Internal_Hbond.Weighted>
0.0000

> <Gold.Chemscore.DEClash.Weighted>
1.3846

> <Gold.Chemscore.DEInternal.Weighted>
0.5643

> <Gold.Chemscore.Rot.Weighted>
6.4372

> <Gold.Chemscore.Internal.Correction.Weighted>
   9.000000E+99

> <Gold.Protein.RotatedTorsions>
[ 6907 6896 6895 6894 ] final  -54.17 input  -60.11 | X-H torsion
[ 7974 7965 7964 7962 ] final  -38.53 input  175.53 | X-H torsion
[ 8008 7997 7996 7995 ] final   46.30 input   59.86 | X-H torsion
[ 10167 10162 10161 10158 ] final   76.86 input  -65.29 | X-H torsion
[ 10718 10713 10712 10709 ] final  139.73 input   66.30 | X-H torsion
[ 10763 10752 10751 10750 ] final   -4.63 input  -60.55 | X-H torsion
[ 11005 11000 10999 10996 ] final   32.55 input  -57.11 | X-H torsion

> <Gold.Protein.ActiveResidues>
 VAL166  LYS551  ARG553  GLY616  TRP617  ASP618  TYR619  PRO620  LYS621  CYS622 
 ASP623  PHE694  ASN695  SER759  ASP760  ASP761  ALA762  ILE779  LEU786  VAL792 
 PHE793  MET794  SER795  GLU796  ALA797  LYS798  CYS799  TRP800  GLU811  SER814 

> <Gold.Protein.RotatedAtoms>
  150.8361  134.7635  159.6893 H   0  0  0  0  0  0  0  0  0  0  0  0  # atno 6907 bound_to 6896
  152.4457  134.5495  159.9872 H   0  0  0  0  0  0  0  0  0  0  0  0  # atno 6908 bound_to 6896
  151.5645  133.3361  159.3013 H   0  0  0  0  0  0  0  0  0  0  0  0  # atno 6909 bound_to 6896
  146.0478  140.6522  142.9056 H   0  0  0  0  0  0  0  0  0  0  0  0  # atno 7974 bound_to 7965
  155.3502  140.3413  155.4239 H   0  0  0  0  0  0  0  0  0  0  0  0  # atno 8008 bound_to 7997
  156.1768  140.1650  156.8384 H   0  0  0  0  0  0  0  0  0  0  0  0  # atno 8009 bound_to 7997
  154.5290  140.0749  156.8294 H   0  0  0  0  0  0  0  0  0  0  0  0  # atno 8010 bound_to 7997
  139.9877  144.5780  150.7845 H   0  0  0  0  0  0  0  0  0  0  0  0  # atno 10167 bound_to 10162
  157.4112  131.1028  151.0452 H   0  0  0  0  0  0  0  0  0  0  0  0  # atno 10718 bound_to 10713
  153.3875  135.7000  153.6519 H   0  0  0  0  0  0  0  0  0  0  0  0  # atno 10763 bound_to 10752
  153.5105  135.3633  155.2585 H   0  0  0  0  0  0  0  0  0  0  0  0  # atno 10764 bound_to 10752
  154.8699  135.4133  154.3186 H   0  0  0  0  0  0  0  0  0  0  0  0  # atno 10765 bound_to 10752
  140.2723  134.3068  155.7824 H   0  0  0  0  0  0  0  0  0  0  0  0  # atno 11005 bound_to 11000
  144.7107  140.4027  143.7083 LP  0  0  0  0  0  0  0  0  0  0  0  0  # atno 17320 bound_to 7965
  145.6775  139.1611  143.2719 LP  0  0  0  0  0  0  0  0  0  0  0  0  # atno 17321 bound_to 7965
  140.7466  143.2893  151.3374 LP  0  0  0  0  0  0  0  0  0  0  0  0  # atno 17342 bound_to 10162
  139.6363  144.0624  152.2518 LP  0  0  0  0  0  0  0  0  0  0  0  0  # atno 17343 bound_to 10162
  157.1416  130.6145  149.5557 LP  0  0  0  0  0  0  0  0  0  0  0  0  # atno 17370 bound_to 10713
  155.9851  130.4879  150.7016 LP  0  0  0  0  0  0  0  0  0  0  0  0  # atno 17371 bound_to 10713
  141.2175  133.7474  156.9353 LP  0  0  0  0  0  0  0  0  0  0  0  0  # atno 17394 bound_to 11000
  140.1362  134.9324  157.2404 LP  0  0  0  0  0  0  0  0  0  0  0  0  # atno 17395 bound_to 11000

$$$$
