AV-unprocessed.smi:3078|AV-procd|sdf|11736|dock1
  -GOLD-   2272017133D 1   1.00000     0.00000
 Structure written by MMmdl.
 24 24  0  0  0  0  0  0  0  0  3 V2000
  151.6849  138.3097  154.9978 C   0  0  0  0  0  0  0  0  0  0  0  0
  150.4142  138.9013  154.6368 N   0  0  0  0  0  0  0  0  0  0  0  0
  149.2680  138.2773  154.1946 C   0  0  0  0  0  0  0  0  0  0  0  0
  148.3256  139.2470  153.9833 C   0  0  0  0  0  0  0  0  0  0  0  0
  146.9033  139.1123  153.5002 C   0  0  1  0  0  0  0  0  0  0  0  0
  146.2203  140.4137  153.6142 N   0  3  0  0  0  0  0  0  0  0  0  0
  146.8152  138.5716  152.0592 C   0  0  0  0  0  0  0  0  0  0  0  0
  145.4263  138.2639  151.6692 N   0  3  0  0  0  0  0  0  0  0  0  0
  149.0104  140.4481  154.3279 C   0  0  0  0  0  0  0  0  0  0  0  0
  150.2547  140.2373  154.7211 N   0  0  0  0  0  0  0  0  0  0  0  0
  151.6975  137.2535  154.7265 H   0  0  0  0  0  0  0  0  0  0  0  0
  151.8418  138.4022  156.0728 H   0  0  0  0  0  0  0  0  0  0  0  0
  152.4939  138.8188  154.4726 H   0  0  0  0  0  0  0  0  0  0  0  0
  149.2203  137.2055  154.0686 H   0  0  0  0  0  0  0  0  0  0  0  0
  146.3559  138.4285  154.1508 H   0  0  0  0  0  0  0  0  0  0  0  0
  146.1364  140.6648  154.5894 H   0  0  0  0  0  0  0  0  0  0  0  0
  145.2986  140.3531  153.2055 H   0  0  0  0  0  0  0  0  0  0  0  0
  147.2049  139.3096  151.3572 H   0  0  0  0  0  0  0  0  0  0  0  0
  147.4225  137.6731  151.9430 H   0  0  0  0  0  0  0  0  0  0  0  0
  145.3612  138.2107  150.6623 H   0  0  0  0  0  0  0  0  0  0  0  0
  144.8081  138.9889  152.0052 H   0  0  0  0  0  0  0  0  0  0  0  0
  148.6398  141.4625  154.3065 H   0  0  0  0  0  0  0  0  0  0  0  0
  145.1501  137.3778  152.0687 H   0  0  0  0  0  0  0  0  0  0  0  0
  146.7551  141.1235  153.1339 H   0  0  0  0  0  0  0  0  0  0  0  0
  1  2  1  0  0  0  0
  1 11  1  0  0  0  0
  1 12  1  0  0  0  0
  1 13  1  0  0  0  0
  2 10  1  0  0  0  0
  2  3  1  0  0  0  0
  3  4  2  0  0  0  0
  3 14  1  0  0  0  0
  4  5  1  0  0  0  0
  4  9  1  0  0  0  0
  5  6  1  0  0  0  0
  5  7  1  0  0  0  0
  5 15  1  0  0  0  0
  6 16  1  0  0  0  0
  6 17  1  0  0  0  0
  6 24  1  0  0  0  0
  7  8  1  0  0  0  0
  7 18  1  0  0  0  0
  7 19  1  0  0  0  0
  8 20  1  0  0  0  0
  8 21  1  0  0  0  0
  8 23  1  0  0  0  0
  9 10  2  0  0  0  0
  9 22  1  0  0  0  0
M  CHG  1   6   1
M  CHG  1   8   1
M  END
> <s_m_source_file>
AV-unprocessed.smi

> <i_m_source_file_index>
3078

> <i_lp_mmshare_version>
43012

> <i_f3d_flags>
0

> <s_epik_input>
W0NIM11uMVtjSF1jKFtjSF1uMSlbQ0BIXShbTkgyXSlbQ0gyXVtOSDJd

> <s_epik_cmdline>
J2VwaWtfcHl0aG9uJywgJy1waCcsICc3LjAnLCAnLXRuJywgJzgnLCAnLW1hJywgJzIwMCcsICctbWV0YWxfYmluZGluZycsICctaW1hZScsICc8aW5maWxlLm1hZT4nLCAnLW9tYWUnLCAnPG91dGZpbGUubWFlPic=

> <r_lp_tautomer_probability>
1

> <r_epik_Ionization_Penalty>
2.39325

> <r_epik_Ionization_Penalty_Charging>
2.39325

> <r_epik_Ionization_Penalty_Neutral>
1.68997e-07

> <r_epik_State_Penalty>
1.77229

> <r_epik_Charging_Adjusted_Penalty>
4.16555

> <i_epik_Tot_Q>
2

> <i_epik_Tot_abs_Q>
2

> <r_epik_Metal_State_Penalty>
1.77233

> <b_epik_Metal_Only>
0

> <s_lp_Force_Field>
OPLS_2005

> <r_lp_Energy>
8.51806

> <b_lp_Chiralities_Consistent>
1

> <s_lp_Variant>
AV-unprocessed.smi:3078-6

> <Gold.Version>
5.8.1

> <Gold.Id.Protein>
6NUR|6NUR_protein|mol2

> <Gold.PLP.Fitness>
41.4237

> <Gold.PLP.PLP>
-20.9947

> <Gold.PLP.part.hbond>
-4.0000

> <Gold.PLP.part.metal>
0.0000

> <Gold.PLP.part.buried>
-1.6828

> <Gold.PLP.part.nonpolar>
-17.0627

> <Gold.PLP.part.repulsive>
0.1176

> <Gold.PLP.ligand.clash>
0.0000

> <Gold.PLP.ligand.torsion>
0.1050

> <Gold.PLP.Chemscore.Hbond>
5.9120

> <Gold.PLP.Chemscore.CHOScore>
0.9620

> <Gold.PLP.Chemscore.Metal>
0.0000

> <Gold.Chemscore.Hbonds>
donor molecule, donor type, donor heavy atom, donor atom, acceptor molecule, acceptor atom, score
      L1  H     6    17       P1 10175  2.00
      L1  H     8    20       P1 10171  0.45
      L1  H     8    21       P1 10175  2.00
      P1  H  7989  7998       L1    10  1.00
      L1  C     3    14       P1  7948  0.81

> <Gold.PLP.Chemscore.Internal.Correction>
0.0171

> <Gold.Rescore>
     Score         DG    S(hbond)    S(metal)    S(lipo)     H(rot)  DE(clash)    DE(int)     intcor
     18.20     -19.09       3.72        0.00      41.51       1.43       0.63       0.26       ----

> <Gold.Chemscore.Fitness>
18.2024

> <Gold.Chemscore.DG>
-19.0937

> <Gold.Chemscore.ZeroCoef>
-5.4800

> <Gold.Chemscore.Hbond>
3.7182

> <Gold.Chemscore.Metal>
0.0000

> <Gold.Chemscore.Lipo>
41.5102

> <Gold.Chemscore.Internal_Hbond>
0.0000

> <Gold.Chemscore.DEClash>
0.6333

> <Gold.Chemscore.DEInternal>
0.2581

> <Gold.Chemscore.Rot>
1.4304

> <Gold.Chemscore.Internal.Correction>
   9.000000E+99

> <Gold.Chemscore.Hbonds>
donor molecule, donor type, donor heavy atom, donor atom, acceptor molecule, acceptor atom, score
      L1  H     6    17       P1 10175  0.98
      L1  H     8    20       P1 10171  0.44
      L1  H     8    21       P1 10175  1.00
      P1  H  7989  7998       L1    10  0.31

> <Gold.Chemscore.Hbond.Weighted>
-12.4188

> <Gold.Chemscore.Metal.Weighted>
-0.0000

> <Gold.Chemscore.Lipo.Weighted>
-4.8567

> <Gold.Chemscore.Internal_Hbond.Weighted>
0.0000

> <Gold.Chemscore.DEClash.Weighted>
0.6333

> <Gold.Chemscore.DEInternal.Weighted>
0.2581

> <Gold.Chemscore.Rot.Weighted>
3.6618

> <Gold.Chemscore.Internal.Correction.Weighted>
   9.000000E+99

> <Gold.Protein.RotatedTorsions>
[ 6907 6896 6895 6894 ] final  149.07 input  -60.11 | X-H torsion
[ 7974 7965 7964 7962 ] final   79.14 input  175.53 | X-H torsion
[ 8008 7997 7996 7995 ] final  171.58 input   59.86 | X-H torsion
[ 10167 10162 10161 10158 ] final  -36.86 input  -65.29 | X-H torsion
[ 10718 10713 10712 10709 ] final   44.13 input   66.30 | X-H torsion
[ 10763 10752 10751 10750 ] final  -21.81 input  -60.55 | X-H torsion
[ 11005 11000 10999 10996 ] final   48.54 input  -57.11 | X-H torsion

> <Gold.Protein.ActiveResidues>
 VAL166  LYS551  ARG553  GLY616  TRP617  ASP618  TYR619  PRO620  LYS621  CYS622 
 ASP623  PHE694  ASN695  SER759  ASP760  ASP761  ALA762  ILE779  LEU786  VAL792 
 PHE793  MET794  SER795  GLU796  ALA797  LYS798  CYS799  TRP800  GLU811  SER814 

> <Gold.Protein.RotatedAtoms>
  152.1330  133.4419  159.4729 H   0  0  0  0  0  0  0  0  0  0  0  0  # atno 6907 bound_to 6896
  150.6879  134.2398  159.4477 H   0  0  0  0  0  0  0  0  0  0  0  0  # atno 6908 bound_to 6896
  152.0283  134.9782  160.0622 H   0  0  0  0  0  0  0  0  0  0  0  0  # atno 6909 bound_to 6896
  145.6680  139.2489  143.1885 H   0  0  0  0  0  0  0  0  0  0  0  0  # atno 7974 bound_to 7965
  156.1258  140.1508  156.9139 H   0  0  0  0  0  0  0  0  0  0  0  0  # atno 8008 bound_to 7997
  154.4870  140.0862  156.7550 H   0  0  0  0  0  0  0  0  0  0  0  0  # atno 8009 bound_to 7997
  155.4347  140.3428  155.4286 H   0  0  0  0  0  0  0  0  0  0  0  0  # atno 8010 bound_to 7997
  140.7132  143.3380  151.2419 H   0  0  0  0  0  0  0  0  0  0  0  0  # atno 10167 bound_to 10162
  157.4235  130.7983  149.7537 H   0  0  0  0  0  0  0  0  0  0  0  0  # atno 10718 bound_to 10713
  153.6420  135.6984  153.5238 H   0  0  0  0  0  0  0  0  0  0  0  0  # atno 10763 bound_to 10752
  153.2775  135.4196  155.1046 H   0  0  0  0  0  0  0  0  0  0  0  0  # atno 10764 bound_to 10752
  154.8497  135.3593  154.5964 H   0  0  0  0  0  0  0  0  0  0  0  0  # atno 10765 bound_to 10752
  140.1182  134.4864  155.8619 H   0  0  0  0  0  0  0  0  0  0  0  0  # atno 11005 bound_to 11000
  146.1069  140.7476  142.9522 LP  0  0  0  0  0  0  0  0  0  0  0  0  # atno 17320 bound_to 7965
  144.7066  140.3877  143.7113 LP  0  0  0  0  0  0  0  0  0  0  0  0  # atno 17321 bound_to 7965
  139.6880  143.9740  152.2844 LP  0  0  0  0  0  0  0  0  0  0  0  0  # atno 17342 bound_to 10162
  139.9392  144.6692  150.8284 LP  0  0  0  0  0  0  0  0  0  0  0  0  # atno 17343 bound_to 10162
  155.9888  130.3956  150.3099 LP  0  0  0  0  0  0  0  0  0  0  0  0  # atno 17370 bound_to 10713
  157.1249  131.0256  151.2993 LP  0  0  0  0  0  0  0  0  0  0  0  0  # atno 17371 bound_to 10713
  141.2146  133.6751  156.6837 LP  0  0  0  0  0  0  0  0  0  0  0  0  # atno 17394 bound_to 11000
  140.3000  134.8171  157.4089 LP  0  0  0  0  0  0  0  0  0  0  0  0  # atno 17395 bound_to 11000

$$$$
