AV-unprocessed.smi:2902|AV-procd|sdf|11156|dock10
  -GOLD-   2272016 43D 1   1.00000     0.00000
 Structure written by MMmdl.
 47 48  0  0  0  0  0  0  0  0  1 V2000
  147.6172  131.1340  154.4042 C   0  0  0  0  0  0  0  0  0  0  0  0
  148.5561  131.5463  153.2640 C   0  0  0  0  0  0  0  0  0  0  0  0
  148.6799  133.0744  153.1165 C   0  0  1  0  0  0  0  0  0  0  0  0
  147.3685  133.6077  152.9380 O   0  0  0  0  0  0  0  0  0  0  0  0
  146.7445  133.3508  151.6828 C   0  0  0  0  0  0  0  0  0  0  0  0
  145.6377  134.3556  151.3482 C   0  0  0  0  0  0  0  0  0  0  0  0
  144.6904  133.6081  150.4020 C   0  0  0  0  0  0  0  0  0  0  0  0
  144.9591  132.1101  150.6151 C   0  0  0  0  0  0  0  0  0  0  0  0
  145.9953  132.0209  151.7393 C   0  0  0  0  0  0  0  0  0  0  0  0
  149.3522  133.6965  154.3495 C   0  0  0  0  0  0  0  0  0  0  0  0
  149.6266  132.9977  155.3251 O   0  0  0  0  0  0  0  0  0  0  0  0
  149.6123  135.0124  154.2828 N   0  0  0  0  0  0  0  0  0  0  0  0
  150.2918  135.8076  155.3068 C   0  0  2  0  0  0  0  0  0  0  0  0
  149.4861  135.6850  156.6109 C   0  0  0  0  0  0  0  0  0  0  0  0
  150.4581  137.2759  154.8260 C   0  0  1  0  0  0  0  0  0  0  0  0
  149.5587  138.2688  155.5880 C   0  0  0  0  0  0  0  0  0  0  0  0
  151.8509  137.7044  154.8970 N   0  0  0  0  0  0  0  0  0  0  0  0
  152.3907  138.7850  155.4650 C   0  0  0  0  0  0  0  0  0  0  0  0
  153.7002  138.8886  155.2881 N   0  0  0  0  0  0  0  0  0  0  0  0
  153.9196  137.7614  154.5480 C   0  0  0  0  0  0  0  0  0  0  0  0
  152.8456  137.0179  154.2831 N   0  0  0  0  0  0  0  0  0  0  0  0
  147.5471  130.0484  154.4752 H   0  0  0  0  0  0  0  0  0  0  0  0
  146.6109  131.5226  154.2461 H   0  0  0  0  0  0  0  0  0  0  0  0
  147.9742  131.5069  155.3645 H   0  0  0  0  0  0  0  0  0  0  0  0
  149.5402  131.1061  153.4323 H   0  0  0  0  0  0  0  0  0  0  0  0
  148.1832  131.1150  152.3333 H   0  0  0  0  0  0  0  0  0  0  0  0
  149.2824  133.2851  152.2307 H   0  0  0  0  0  0  0  0  0  0  0  0
  147.4706  133.3049  150.8685 H   0  0  0  0  0  0  0  0  0  0  0  0
  145.1012  134.6239  152.2595 H   0  0  0  0  0  0  0  0  0  0  0  0
  146.0176  135.2775  150.9082 H   0  0  0  0  0  0  0  0  0  0  0  0
  143.6503  133.8659  150.6049 H   0  0  0  0  0  0  0  0  0  0  0  0
  144.8972  133.8782  149.3657 H   0  0  0  0  0  0  0  0  0  0  0  0
  144.0504  131.5602  150.8622 H   0  0  0  0  0  0  0  0  0  0  0  0
  145.3653  131.6761  149.7005 H   0  0  0  0  0  0  0  0  0  0  0  0
  146.6580  131.1612  151.6353 H   0  0  0  0  0  0  0  0  0  0  0  0
  145.4821  131.9283  152.6977 H   0  0  0  0  0  0  0  0  0  0  0  0
  149.3381  135.4998  153.4423 H   0  0  0  0  0  0  0  0  0  0  0  0
  151.2823  135.3921  155.5008 H   0  0  0  0  0  0  0  0  0  0  0  0
  149.9982  136.1599  157.4472 H   0  0  0  0  0  0  0  0  0  0  0  0
  149.3395  134.6389  156.8823 H   0  0  0  0  0  0  0  0  0  0  0  0
  148.5014  136.1435  156.5151 H   0  0  0  0  0  0  0  0  0  0  0  0
  150.1705  137.3220  153.7745 H   0  0  0  0  0  0  0  0  0  0  0  0
  148.5023  138.0799  155.3995 H   0  0  0  0  0  0  0  0  0  0  0  0
  149.7583  139.2944  155.2760 H   0  0  0  0  0  0  0  0  0  0  0  0
  149.7208  138.2117  156.6648 H   0  0  0  0  0  0  0  0  0  0  0  0
  151.8117  139.5177  156.0077 H   0  0  0  0  0  0  0  0  0  0  0  0
  154.9002  137.4816  154.1920 H   0  0  0  0  0  0  0  0  0  0  0  0
  1  2  1  0  0  0  0
  1 22  1  0  0  0  0
  1 23  1  0  0  0  0
  1 24  1  0  0  0  0
  2  3  1  0  0  0  0
  2 25  1  0  0  0  0
  2 26  1  0  0  0  0
  3  4  1  0  0  0  0
  3 10  1  0  0  0  0
  3 27  1  0  0  0  0
  4  5  1  0  0  0  0
  5  9  1  0  0  0  0
  5  6  1  0  0  0  0
  5 28  1  0  0  0  0
  6  7  1  0  0  0  0
  6 29  1  0  0  0  0
  6 30  1  0  0  0  0
  7  8  1  0  0  0  0
  7 31  1  0  0  0  0
  7 32  1  0  0  0  0
  8  9  1  0  0  0  0
  8 33  1  0  0  0  0
  8 34  1  0  0  0  0
  9 35  1  0  0  0  0
  9 36  1  0  0  0  0
 10 11  2  0  0  0  0
 10 12  1  0  0  0  0
 12 13  1  0  0  0  0
 12 37  1  0  0  0  0
 13 14  1  0  0  0  0
 13 15  1  0  0  0  0
 13 38  1  0  0  0  0
 14 39  1  0  0  0  0
 14 40  1  0  0  0  0
 14 41  1  0  0  0  0
 15 16  1  0  0  0  0
 15 17  1  0  0  0  0
 15 42  1  0  0  0  0
 16 43  1  0  0  0  0
 16 44  1  0  0  0  0
 16 45  1  0  0  0  0
 17 21  1  0  0  0  0
 17 18  1  0  0  0  0
 18 19  2  0  0  0  0
 18 46  1  0  0  0  0
 19 20  1  0  0  0  0
 20 21  2  0  0  0  0
 20 47  1  0  0  0  0
M  END
> <s_m_source_file>
AV-unprocessed.smi

> <i_m_source_file_index>
2902

> <i_lp_mmshare_version>
43012

> <i_f3d_flags>
0

> <s_epik_input>
W0NIMl0xW0NIMl1bQ0gyXVtDSDJdW0NIXTFPW0NAQEhdKFtDSDJdW0NIM10pQyg9TylbTkhdW0NASF0oW0NIM10pW0NASF0oW0NIM10pbjJbY0hdbltjSF1uMg==

> <s_epik_cmdline>
J2VwaWtfcHl0aG9uJywgJy1waCcsICc3LjAnLCAnLXRuJywgJzgnLCAnLW1hJywgJzIwMCcsICctbWV0YWxfYmluZGluZycsICctaW1hZScsICc8aW5maWxlLm1hZT4nLCAnLW9tYWUnLCAnPG91dGZpbGUubWFlPic=

> <r_lp_tautomer_probability>
1

> <r_epik_Ionization_Penalty>
6.95617e-05

> <r_epik_Ionization_Penalty_Charging>
0

> <r_epik_Ionization_Penalty_Neutral>
6.95617e-05

> <r_epik_State_Penalty>
-0

> <r_epik_Charging_Adjusted_Penalty>
0

> <i_epik_Tot_Q>
0

> <i_epik_Tot_abs_Q>
0

> <r_epik_Metal_State_Penalty>
-0

> <b_epik_Metal_Only>
0

> <s_lp_Force_Field>
OPLS_2005

> <r_lp_Energy>
29.6491

> <b_lp_Chiralities_Consistent>
1

> <s_lp_Variant>
AV-unprocessed.smi:2902-6

> <Gold.Version>
5.8.1

> <Gold.Id.Protein>
6NUR|6NUR_protein|mol2

> <Gold.PLP.Fitness>
42.5753

> <Gold.PLP.PLP>
-37.8909

> <Gold.PLP.part.hbond>
-3.9338

> <Gold.PLP.part.metal>
0.0000

> <Gold.PLP.part.buried>
-5.6984

> <Gold.PLP.part.nonpolar>
-29.1514

> <Gold.PLP.part.repulsive>
0.3245

> <Gold.PLP.ligand.clash>
0.0000

> <Gold.PLP.ligand.torsion>
1.8969

> <Gold.PLP.Chemscore.Hbond>
2.7520

> <Gold.PLP.Chemscore.CHOScore>
0.0000

> <Gold.PLP.Chemscore.Metal>
0.0000

> <Gold.Chemscore.Hbonds>
donor molecule, donor type, donor heavy atom, donor atom, acceptor molecule, acceptor atom, score
      L1  H    12    37       P1  7948  1.00
      P1  H  7997  8008       L1    19  0.80
      P1  H 10752 10765       L1    21  0.23

> <Gold.PLP.Chemscore.Internal.Correction>
0.2223

> <Gold.Rescore>
     Score         DG    S(hbond)    S(metal)    S(lipo)     H(rot)  DE(clash)    DE(int)     intcor
      9.18     -13.57       2.37        0.00      60.39       2.69       0.02       4.37       ----

> <Gold.Chemscore.Fitness>
9.1769

> <Gold.Chemscore.DG>
-13.5713

> <Gold.Chemscore.ZeroCoef>
-5.4800

> <Gold.Chemscore.Hbond>
2.3717

> <Gold.Chemscore.Metal>
0.0000

> <Gold.Chemscore.Lipo>
60.3857

> <Gold.Chemscore.Internal_Hbond>
0.0000

> <Gold.Chemscore.DEClash>
0.0210

> <Gold.Chemscore.DEInternal>
4.3733

> <Gold.Chemscore.Rot>
2.6935

> <Gold.Chemscore.Internal.Correction>
   9.000000E+99

> <Gold.Chemscore.Hbonds>
donor molecule, donor type, donor heavy atom, donor atom, acceptor molecule, acceptor atom, score
      L1  H    12    37       P1  7948  0.26
      P1  H  7997  8008       L1    19  0.70
      P1  H 10752 10765       L1    21  0.22

> <Gold.Chemscore.Hbond.Weighted>
-7.9215

> <Gold.Chemscore.Metal.Weighted>
-0.0000

> <Gold.Chemscore.Lipo.Weighted>
-7.0651

> <Gold.Chemscore.Internal_Hbond.Weighted>
0.0000

> <Gold.Chemscore.DEClash.Weighted>
0.0210

> <Gold.Chemscore.DEInternal.Weighted>
4.3733

> <Gold.Chemscore.Rot.Weighted>
6.8954

> <Gold.Chemscore.Internal.Correction.Weighted>
   9.000000E+99

> <Gold.Protein.RotatedTorsions>
[ 6907 6896 6895 6894 ] final -141.49 input  -60.11 | X-H torsion
[ 7974 7965 7964 7962 ] final   17.76 input  175.53 | X-H torsion
[ 8008 7997 7996 7995 ] final  -32.15 input   59.86 | X-H torsion
[ 10167 10162 10161 10158 ] final  105.29 input  -65.29 | X-H torsion
[ 10718 10713 10712 10709 ] final   99.98 input   66.30 | X-H torsion
[ 10763 10752 10751 10750 ] final  153.25 input  -60.55 | X-H torsion
[ 11005 11000 10999 10996 ] final -166.98 input  -57.11 | X-H torsion

> <Gold.Protein.ActiveResidues>
 VAL166  LYS551  ARG553  GLY616  TRP617  ASP618  TYR619  PRO620  LYS621  CYS622 
 ASP623  PHE694  ASN695  SER759  ASP760  ASP761  ALA762  ILE779  LEU786  VAL792 
 PHE793  MET794  SER795  GLU796  ALA797  LYS798  CYS799  TRP800  GLU811  SER814 

> <Gold.Protein.RotatedAtoms>
  151.0745  133.5439  159.2624 H   0  0  0  0  0  0  0  0  0  0  0  0  # atno 6907 bound_to 6896
  151.2366  135.0573  159.9018 H   0  0  0  0  0  0  0  0  0  0  0  0  # atno 6908 bound_to 6896
  152.5416  134.0526  159.8170 H   0  0  0  0  0  0  0  0  0  0  0  0  # atno 6909 bound_to 6896
  146.2208  139.8556  142.8614 H   0  0  0  0  0  0  0  0  0  0  0  0  # atno 7974 bound_to 7965
  154.4189  140.1745  156.1680 H   0  0  0  0  0  0  0  0  0  0  0  0  # atno 8008 bound_to 7997
  155.9783  140.3379  155.6615 H   0  0  0  0  0  0  0  0  0  0  0  0  # atno 8009 bound_to 7997
  155.6534  140.0693  157.2570 H   0  0  0  0  0  0  0  0  0  0  0  0  # atno 8010 bound_to 7997
  139.7105  144.7078  151.1035 H   0  0  0  0  0  0  0  0  0  0  0  0  # atno 10167 bound_to 10162
  157.6864  131.0685  150.5031 H   0  0  0  0  0  0  0  0  0  0  0  0  # atno 10718 bound_to 10713
  154.1332  135.2825  155.3180 H   0  0  0  0  0  0  0  0  0  0  0  0  # atno 10763 bound_to 10752
  154.6340  135.5425  153.7716 H   0  0  0  0  0  0  0  0  0  0  0  0  # atno 10764 bound_to 10752
  153.0274  135.6470  154.1482 H   0  0  0  0  0  0  0  0  0  0  0  0  # atno 10765 bound_to 10752
  140.5583  134.5359  157.5138 H   0  0  0  0  0  0  0  0  0  0  0  0  # atno 11005 bound_to 11000
  145.2757  141.0123  143.3746 LP  0  0  0  0  0  0  0  0  0  0  0  0  # atno 17320 bound_to 7965
  144.9189  139.4436  143.6551 LP  0  0  0  0  0  0  0  0  0  0  0  0  # atno 17321 bound_to 7965
  140.7732  143.5300  150.9435 LP  0  0  0  0  0  0  0  0  0  0  0  0  # atno 17342 bound_to 10162
  139.8984  143.6866  152.3135 LP  0  0  0  0  0  0  0  0  0  0  0  0  # atno 17343 bound_to 10162
  156.5351  130.4194  149.6182 LP  0  0  0  0  0  0  0  0  0  0  0  0  # atno 17370 bound_to 10713
  156.3034  130.7189  151.2066 LP  0  0  0  0  0  0  0  0  0  0  0  0  # atno 17371 bound_to 10713
  139.9420  134.7769  156.0654 LP  0  0  0  0  0  0  0  0  0  0  0  0  # atno 17394 bound_to 11000
  141.1130  133.6637  156.3024 LP  0  0  0  0  0  0  0  0  0  0  0  0  # atno 17395 bound_to 11000

$$$$
