#       Name:                AV-unprocessed.smi:2505
#       Creating user name   scv26
#       Creation time:       Fri Mar 27 13:48:58 2020


#       File generated by GOLD software.
#

@<TRIPOS>MOLECULE
AV-unprocessed.smi:2505
    54    58     1
SMALL
NO_CHARGES


@<TRIPOS>ATOM
      1 ****         0.4993   2.7202   0.5226 O.2            1 S1                 0.0000
      2 ****         0.1529   1.5421   0.4782 C.2            1 S1                 0.0000
      3 ****         0.9958   0.4941   0.4015 N.am           1 S1                 0.0000
      4 ****         2.4153   0.5008   0.3578 C.ar           1 S1                 0.0000
      5 ****         3.2161   1.6129  -0.0012 C.ar           1 S1                 0.0000
      6 ****         4.5644   1.5353  -0.0305 N.ar           1 S1                 0.0000
      7 ****         5.1118   0.3575   0.2820 C.ar           1 S1                 0.0000
      8 ****         6.6077   0.2942   0.2938 C.3            1 S1                 0.0000
      9 ****         7.4053   0.6461  -0.9454 C.3            1 S1                 0.0000
     10 ****         7.3492  -0.7805  -0.4750 C.3            1 S1                 0.0000
     11 ****         4.4603  -0.7540   0.6351 N.ar           1 S1                 0.0000
     12 ****         3.1121  -0.6869   0.6635 C.ar           1 S1                 0.0000
     13 ****        -1.1451   1.1965   0.5209 N.am           1 S1                 0.0000
     14 ****        -2.3070   2.0953   0.6056 C.3            1 S1                 0.0000
     15 ****        -2.6461   2.5412   2.0318 C.3            1 S1                 0.0000
     16 ****        -1.9145   2.6118   3.3238 C.3            1 S1                 0.0000
     17 ****        -3.0585   2.0794   4.2270 C.3            1 S1                 0.0000
     18 ****        -4.0835   1.5899   3.3252 O.3            1 S1                 0.0000
     19 ****        -3.3715   1.2180   2.1606 C.3            1 S1                 0.0000
     20 ****        -3.7011   1.3589   0.6554 C.3            1 S1                 0.0000
     21 ****        -4.9600   2.1716   0.2894 C.3            1 S1                 0.0000
     22 ****        -5.7194   1.4157  -0.8012 C.3            1 S1                 0.0000
     23 ****        -5.3029  -0.0353  -0.6128 C.3            1 S1                 0.0000
     24 ****        -3.8517   0.0619  -0.1510 C.3            1 S1                 0.0000
     25 ****         0.5671  -0.4195   0.4359 H              1 S1                 0.0000
     26 ****         2.8000   2.5671  -0.2837 H              1 S1                 0.0000
     27 ****         7.0089   0.5978   1.2589 H              1 S1                 0.0000
     28 ****         6.8551   0.8953  -1.8508 H              1 S1                 0.0000
     29 ****         8.3387   1.1865  -0.8036 H              1 S1                 0.0000
     30 ****         8.2453  -1.1949  -0.0178 H              1 S1                 0.0000
     31 ****         6.7613  -1.4801  -1.0663 H              1 S1                 0.0000
     32 ****         2.5864  -1.5891   0.9402 H              1 S1                 0.0000
     33 ****        -1.3520   0.2083   0.5011 H              1 S1                 0.0000
     34 ****        -2.2878   2.9121  -0.1176 H              1 S1                 0.0000
     35 ****        -3.3377   3.3874   1.9679 H              1 S1                 0.0000
     36 ****        -1.0428   1.9564   3.3423 H              1 S1                 0.0000
     37 ****        -1.6077   3.6252   3.5836 H              1 S1                 0.0000
     38 ****        -2.7015   1.2747   4.8708 H              1 S1                 0.0000
     39 ****        -3.4744   2.8622   4.8621 H              1 S1                 0.0000
     40 ****        -2.7194   0.3641   2.3702 H              1 S1                 0.0000
     41 ****        -5.6050   2.2775   1.1627 H              1 S1                 0.0000
     42 ****        -4.7199   3.1819  -0.0438 H              1 S1                 0.0000
     43 ****        -6.7990   1.5565  -0.7393 H              1 S1                 0.0000
     44 ****        -5.3932   1.7635  -1.7823 H              1 S1                 0.0000
     45 ****        -5.9089  -0.4925   0.1705 H              1 S1                 0.0000
     46 ****        -5.4196  -0.6302  -1.5191 H              1 S1                 0.0000
     47 ****        -3.2049   0.0920  -1.0288 H              1 S1                 0.0000
     48 ****        -3.5634  -0.8209   0.4211 H              1 S1                 0.0000
     49 ****         1.4707   2.9568   0.5024 LP             1 S1                 0.0000
     50 ****        -0.1902   3.4423   0.5790 LP             1 S1                 0.0000
     51 ****         5.1277   2.3244  -0.2752 LP             1 S1                 0.0000
     52 ****         4.9479  -1.5957   0.8673 LP             1 S1                 0.0000
     53 ****        -4.7483   2.3082   3.1203 LP             1 S1                 0.0000
     54 ****        -4.5556   0.8013   3.7193 LP             1 S1                 0.0000
@<TRIPOS>BOND
    1    1    2 2     
    2    2    3 am    
    3    2   13 am    
    4    3    4 1     
    5    3   25 1     
    6    4   12 ar    
    7    4    5 ar    
    8    5    6 ar    
    9    5   26 1     
   10    6    7 ar    
   11    7    8 1     
   12    7   11 ar    
   13    8   10 1     
   14    8    9 1     
   15    8   27 1     
   16    9   10 1     
   17    9   28 1     
   18    9   29 1     
   19   10   30 1     
   20   10   31 1     
   21   11   12 ar    
   22   12   32 1     
   23   13   14 1     
   24   13   33 1     
   25   14   20 1     
   26   14   15 1     
   27   14   34 1     
   28   15   19 1     
   29   15   16 1     
   30   15   35 1     
   31   16   17 1     
   32   16   36 1     
   33   16   37 1     
   34   17   18 1     
   35   17   38 1     
   36   17   39 1     
   37   18   19 1     
   38   19   20 1     
   39   19   40 1     
   40   20   24 1     
   41   20   21 1     
   42   21   22 1     
   43   21   41 1     
   44   21   42 1     
   45   22   23 1     
   46   22   43 1     
   47   22   44 1     
   48   23   24 1     
   49   23   45 1     
   50   23   46 1     
   51   24   47 1     
   52   24   48 1     
   53    1   49 1     
   54    1   50 1     
   55    6   51 1     
   56   11   52 1     
   57   18   53 1     
   58   18   54 1     
@<TRIPOS>SUBSTRUCTURE
      1 S1             1
@<TRIPOS>SET
LONE_PAIRS      STATIC     ATOMS    <user>   **** ""
6 49 50 51 52 53 54
DONOR_HYDROGENS      STATIC     ATOMS    <user>   **** ""
2 25 33
ATOM$BLUE        STATIC     ATOMS    COLORGROUP SYSTEM
6 49 50 51 52 53 54
ATOM$RED        STATIC     ATOMS    COLORGROUP SYSTEM
2 25 33
