AV-unprocessed.smi:1824|AV-procd|sdf|7393|dock7
  -GOLD-   22720 9 63D 1   1.00000     0.00000
 Structure written by MMmdl.
 44 46  0  0  0  0  0  0  0  0  1 V2000
  145.1474  138.6987  155.4975 C   0  0  0  0  0  0  0  0  0  0  0  0
  146.4054  137.9496  155.0258 C   0  0  2  0  0  0  0  0  0  0  0  0
  147.7072  138.7494  155.2323 C   0  0  0  0  0  0  0  0  0  0  0  0
  147.8535  139.8476  154.2829 N   0  0  0  0  0  0  0  0  0  0  0  0
  149.1003  140.5767  154.5139 C   0  0  0  0  0  0  0  0  0  0  0  0
  149.2155  141.2618  155.8923 C   0  0  2  0  0  0  0  0  0  0  0  0
  148.1835  142.2220  156.0210 O   0  0  0  0  0  0  0  0  0  0  0  0
  150.5724  141.9712  156.0706 C   0  0  0  0  0  0  0  0  0  0  0  0
  151.4517  141.2684  156.9882 N   0  0  0  0  0  0  0  0  0  0  0  0
  152.0219  140.0616  156.8073 C   0  0  0  0  0  0  0  0  0  0  0  0
  152.7972  139.6014  157.7854 N   0  0  0  0  0  0  0  0  0  0  0  0
  152.7210  140.6292  158.7099 C   0  0  0  0  0  0  0  0  0  0  0  0
  153.3226  140.7664  159.9812 C   0  0  0  0  0  0  0  0  0  0  0  0
  153.0968  141.9220  160.7580 C   0  0  0  0  0  0  0  0  0  0  0  0
  153.6813  142.0375  161.9741 F   0  0  0  0  0  0  0  0  0  0  0  0
  152.2672  142.9562  160.2757 C   0  0  0  0  0  0  0  0  0  0  0  0
  152.0564  144.0626  161.0275 F   0  0  0  0  0  0  0  0  0  0  0  0
  151.6565  142.8415  159.0122 C   0  0  0  0  0  0  0  0  0  0  0  0
  151.8851  141.6872  158.2412 C   0  0  0  0  0  0  0  0  0  0  0  0
  147.7546  139.3186  152.9265 C   0  0  0  0  0  0  0  0  0  0  0  0
  146.4300  138.5687  152.6961 C   0  0  1  0  0  0  0  0  0  0  0  0
  146.3639  137.9328  151.3037 C   0  0  0  0  0  0  0  0  0  0  0  0
  146.2950  137.5303  153.6647 O   0  0  0  0  0  0  0  0  0  0  0  0
  145.2018  138.9132  156.5650 H   0  0  0  0  0  0  0  0  0  0  0  0
  144.2521  138.1009  155.3259 H   0  0  0  0  0  0  0  0  0  0  0  0
  145.0182  139.6497  154.9810 H   0  0  0  0  0  0  0  0  0  0  0  0
  146.4742  137.0390  155.6216 H   0  0  0  0  0  0  0  0  0  0  0  0
  147.7414  139.1308  156.2537 H   0  0  0  0  0  0  0  0  0  0  0  0
  148.5551  138.0698  155.1310 H   0  0  0  0  0  0  0  0  0  0  0  0
  149.9162  139.8563  154.4400 H   0  0  0  0  0  0  0  0  0  0  0  0
  149.2787  141.2950  153.7120 H   0  0  0  0  0  0  0  0  0  0  0  0
  149.1024  140.5195  156.6840 H   0  0  0  0  0  0  0  0  0  0  0  0
  148.5766  143.0673  156.1752 H   0  0  0  0  0  0  0  0  0  0  0  0
  151.0847  142.0515  155.1110 H   0  0  0  0  0  0  0  0  0  0  0  0
  150.4275  142.9901  156.4332 H   0  0  0  0  0  0  0  0  0  0  0  0
  151.8604  139.4892  155.9054 H   0  0  0  0  0  0  0  0  0  0  0  0
  153.9595  139.9811  160.3605 H   0  0  0  0  0  0  0  0  0  0  0  0
  151.0217  143.6318  158.6396 H   0  0  0  0  0  0  0  0  0  0  0  0
  147.8234  140.1295  152.2016 H   0  0  0  0  0  0  0  0  0  0  0  0
  148.5943  138.6501  152.7294 H   0  0  0  0  0  0  0  0  0  0  0  0
  145.5964  139.2649  152.7939 H   0  0  0  0  0  0  0  0  0  0  0  0
  146.4505  138.6886  150.5229 H   0  0  0  0  0  0  0  0  0  0  0  0
  145.4172  137.4118  151.1583 H   0  0  0  0  0  0  0  0  0  0  0  0
  147.1673  137.2097  151.1608 H   0  0  0  0  0  0  0  0  0  0  0  0
  1  2  1  0  0  0  0
  1 24  1  0  0  0  0
  1 25  1  0  0  0  0
  1 26  1  0  0  0  0
  2 23  1  0  0  0  0
  2  3  1  0  0  0  0
  2 27  1  0  0  0  0
  3  4  1  0  0  0  0
  3 28  1  0  0  0  0
  3 29  1  0  0  0  0
  4  5  1  0  0  0  0
  4 20  1  0  0  0  0
  5  6  1  0  0  0  0
  5 30  1  0  0  0  0
  5 31  1  0  0  0  0
  6  7  1  0  0  0  0
  6  8  1  0  0  0  0
  6 32  1  0  0  0  0
  7 33  1  0  0  0  0
  8  9  1  0  0  0  0
  8 34  1  0  0  0  0
  8 35  1  0  0  0  0
  9 19  1  0  0  0  0
  9 10  1  0  0  0  0
 10 11  2  0  0  0  0
 10 36  1  0  0  0  0
 11 12  1  0  0  0  0
 12 19  2  0  0  0  0
 12 13  1  0  0  0  0
 13 14  2  0  0  0  0
 13 37  1  0  0  0  0
 14 15  1  0  0  0  0
 14 16  1  0  0  0  0
 16 17  1  0  0  0  0
 16 18  2  0  0  0  0
 18 19  1  0  0  0  0
 18 38  1  0  0  0  0
 20 21  1  0  0  0  0
 20 39  1  0  0  0  0
 20 40  1  0  0  0  0
 21 22  1  0  0  0  0
 21 23  1  0  0  0  0
 21 41  1  0  0  0  0
 22 42  1  0  0  0  0
 22 43  1  0  0  0  0
 22 44  1  0  0  0  0
M  END
> <s_m_source_file>
AV-unprocessed.smi

> <i_m_source_file_index>
1824

> <i_lp_mmshare_version>
43012

> <i_f3d_flags>
0

> <s_epik_input>
W0NIM11bQ0BASF0xW0NIMl1OKFtDSDJdW0NASF0oTzEpW0NIM10pW0NIMl1bQ0BIXShbT0hdKVtDSDJdbihbY0hdbjIpYyhjMjMpW2NIXWMoRiljKEYpW2NIXTM=

> <s_epik_cmdline>
J2VwaWtfcHl0aG9uJywgJy1waCcsICc3LjAnLCAnLXRuJywgJzgnLCAnLW1hJywgJzIwMCcsICctbWV0YWxfYmluZGluZycsICctaW1hZScsICc8aW5maWxlLm1hZT4nLCAnLW9tYWUnLCAnPG91dGZpbGUubWFlPic=

> <r_epik_Ionization_Penalty>
0.273778

> <r_epik_Ionization_Penalty_Charging>
0

> <r_epik_Ionization_Penalty_Neutral>
0.273778

> <r_epik_State_Penalty>
0.246794

> <r_epik_Charging_Adjusted_Penalty>
0.246794

> <i_epik_Tot_Q>
0

> <i_epik_Tot_abs_Q>
0

> <r_epik_Metal_State_Penalty>
0.238234

> <b_epik_Metal_Only>
0

> <s_lp_Force_Field>
OPLS_2005

> <r_lp_Energy>
29.8683

> <b_lp_Chiralities_Consistent>
1

> <s_lp_Variant>
AV-unprocessed.smi:1824-1

> <Gold.Version>
5.8.1

> <Gold.Id.Protein>
6NUR|6NUR_protein|mol2

> <Gold.PLP.Fitness>
44.9550

> <Gold.PLP.PLP>
-40.3900

> <Gold.PLP.part.hbond>
-2.0000

> <Gold.PLP.part.metal>
0.0000

> <Gold.PLP.part.buried>
2.7588

> <Gold.PLP.part.nonpolar>
-40.5874

> <Gold.PLP.part.repulsive>
0.2798

> <Gold.PLP.ligand.clash>
0.0000

> <Gold.PLP.ligand.torsion>
0.7287

> <Gold.PLP.Chemscore.Hbond>
2.0000

> <Gold.PLP.Chemscore.CHOScore>
0.0000

> <Gold.PLP.Chemscore.Metal>
0.0000

> <Gold.Chemscore.Hbonds>
donor molecule, donor type, donor heavy atom, donor atom, acceptor molecule, acceptor atom, score
      L1  H     7    33       P1  8028  0.99
      P1  H  7997  8010       L1    11  0.80

> <Gold.PLP.Chemscore.Internal.Correction>
0.0224

> <Gold.Rescore>
     Score         DG    S(hbond)    S(metal)    S(lipo)     H(rot)  DE(clash)    DE(int)     intcor
     12.53     -15.70       1.04        0.00     107.04       2.26       2.43       0.74       ----

> <Gold.Chemscore.Fitness>
12.5274

> <Gold.Chemscore.DG>
-15.6990

> <Gold.Chemscore.ZeroCoef>
-5.4800

> <Gold.Chemscore.Hbond>
1.0437

> <Gold.Chemscore.Metal>
0.0000

> <Gold.Chemscore.Lipo>
107.0376

> <Gold.Chemscore.Internal_Hbond>
0.0000

> <Gold.Chemscore.DEClash>
2.4332

> <Gold.Chemscore.DEInternal>
0.7384

> <Gold.Chemscore.Rot>
2.2619

> <Gold.Chemscore.Internal.Correction>
   9.000000E+99

> <Gold.Chemscore.Hbonds>
donor molecule, donor type, donor heavy atom, donor atom, acceptor molecule, acceptor atom, score
      L1  H     7    33       P1  8028  0.89
      P1  H  7997  8010       L1    11  0.03

> <Gold.Chemscore.Hbond.Weighted>
-3.4860

> <Gold.Chemscore.Metal.Weighted>
-0.0000

> <Gold.Chemscore.Lipo.Weighted>
-12.5234

> <Gold.Chemscore.Internal_Hbond.Weighted>
0.0000

> <Gold.Chemscore.DEClash.Weighted>
2.4332

> <Gold.Chemscore.DEInternal.Weighted>
0.7384

> <Gold.Chemscore.Rot.Weighted>
5.7904

> <Gold.Chemscore.Internal.Correction.Weighted>
   9.000000E+99

> <Gold.Protein.RotatedTorsions>
[ 6907 6896 6895 6894 ] final -135.47 input  -60.11 | X-H torsion
[ 7974 7965 7964 7962 ] final  -28.94 input  175.53 | X-H torsion
[ 8008 7997 7996 7995 ] final   42.76 input   59.86 | X-H torsion
[ 10167 10162 10161 10158 ] final  -11.41 input  -65.29 | X-H torsion
[ 10718 10713 10712 10709 ] final   95.61 input   66.30 | X-H torsion
[ 10763 10752 10751 10750 ] final   62.98 input  -60.55 | X-H torsion
[ 11005 11000 10999 10996 ] final  175.68 input  -57.11 | X-H torsion

> <Gold.Protein.ActiveResidues>
 VAL166  LYS551  ARG553  GLY616  TRP617  ASP618  TYR619  PRO620  LYS621  CYS622 
 ASP623  PHE694  ASN695  SER759  ASP760  ASP761  ALA762  ILE779  LEU786  VAL792 
 PHE793  MET794  SER795  GLU796  ALA797  LYS798  CYS799  TRP800  GLU811  SER814 

> <Gold.Protein.RotatedAtoms>
  150.9983  133.6081  159.2698 H   0  0  0  0  0  0  0  0  0  0  0  0  # atno 6907 bound_to 6896
  151.3277  135.0833  159.9337 H   0  0  0  0  0  0  0  0  0  0  0  0  # atno 6908 bound_to 6896
  152.5266  133.9618  159.7775 H   0  0  0  0  0  0  0  0  0  0  0  0  # atno 6909 bound_to 6896
  146.1252  140.5347  142.8717 H   0  0  0  0  0  0  0  0  0  0  0  0  # atno 7974 bound_to 7965
  155.2916  140.3379  155.4252 H   0  0  0  0  0  0  0  0  0  0  0  0  # atno 8008 bound_to 7997
  156.2043  140.1745  156.7872 H   0  0  0  0  0  0  0  0  0  0  0  0  # atno 8009 bound_to 7997
  154.5600  140.0689  156.8788 H   0  0  0  0  0  0  0  0  0  0  0  0  # atno 8010 bound_to 7997
  140.7137  143.5643  150.9161 H   0  0  0  0  0  0  0  0  0  0  0  0  # atno 10167 bound_to 10162
  157.6937  131.0551  150.4365 H   0  0  0  0  0  0  0  0  0  0  0  0  # atno 10718 bound_to 10713
  153.0001  135.5445  154.6280 H   0  0  0  0  0  0  0  0  0  0  0  0  # atno 10763 bound_to 10752
  154.5564  135.2830  155.0963 H   0  0  0  0  0  0  0  0  0  0  0  0  # atno 10764 bound_to 10752
  154.2183  135.6455  153.5189 H   0  0  0  0  0  0  0  0  0  0  0  0  # atno 10765 bound_to 10752
  140.3649  134.7081  157.4355 H   0  0  0  0  0  0  0  0  0  0  0  0  # atno 11005 bound_to 11000
  144.7636  140.5478  143.6718 LP  0  0  0  0  0  0  0  0  0  0  0  0  # atno 17320 bound_to 7965
  145.5380  139.1475  143.3463 LP  0  0  0  0  0  0  0  0  0  0  0  0  # atno 17321 bound_to 7965
  139.9369  143.6428  152.3063 LP  0  0  0  0  0  0  0  0  0  0  0  0  # atno 17342 bound_to 10162
  139.6898  144.7648  151.1458 LP  0  0  0  0  0  0  0  0  0  0  0  0  # atno 17343 bound_to 10162
  156.4727  130.4056  149.6508 LP  0  0  0  0  0  0  0  0  0  0  0  0  # atno 17370 bound_to 10713
  156.3583  130.7468  151.2437 LP  0  0  0  0  0  0  0  0  0  0  0  0  # atno 17371 bound_to 10713
  140.0597  134.6013  155.8763 LP  0  0  0  0  0  0  0  0  0  0  0  0  # atno 17394 bound_to 11000
  141.1973  133.6595  156.5733 LP  0  0  0  0  0  0  0  0  0  0  0  0  # atno 17395 bound_to 11000

$$$$
