AV-unprocessed.smi:623|AV-procd|sdf|3097|dock1
  -GOLD-   22720 0 13D 1   1.00000     0.00000
 Structure written by MMmdl.
 44 46  0  0  0  0  0  0  0  0  2 V2000
  147.4923  140.8037  156.7575 C   0  0  0  0  0  0  0  0  0  0  0  0
  147.0503  140.4614  155.3066 C   0  0  0  0  0  0  0  0  0  0  0  0
  145.4972  140.4099  155.3577 C   0  0  0  0  0  0  0  0  0  0  0  0
  147.6188  141.4081  154.2305 C   0  0  2  0  0  0  0  0  0  0  0  0
  147.1237  140.7866  152.9049 C   0  0  0  0  0  0  0  0  0  0  0  0
  147.1869  139.2732  153.2002 C   0  0  0  0  0  0  0  0  0  0  0  0
  147.7354  139.2298  154.6499 C   0  0  2  0  0  0  0  0  0  0  0  0
  147.4850  137.8720  155.3371 C   0  0  0  0  0  0  0  0  0  0  0  0
  149.2347  139.6393  154.5220 C   0  0  2  0  0  0  0  0  0  0  0  0
  150.0192  139.2740  155.6953 N   0  0  0  0  0  0  0  0  0  0  0  0
  151.3035  139.5813  155.9320 C   0  0  0  0  0  0  0  0  0  0  0  0
  151.9974  140.2157  155.1381 O   0  0  0  0  0  0  0  0  0  0  0  0
  151.9052  139.1277  157.2741 C   0  0  0  0  0  0  0  0  0  0  0  0
  152.1925  140.2312  158.2109 N   0  0  0  0  0  0  0  0  0  0  0  0
  151.2171  141.2352  158.3457 C   0  0  0  0  0  0  0  0  0  0  0  0
  151.3624  142.2565  159.2110 C   0  0  0  0  0  0  0  0  0  0  0  0
  152.5725  142.3066  160.0216 C   0  0  0  0  0  0  0  0  0  0  0  0
  152.7213  143.2298  160.8195 O   0  0  0  0  0  0  0  0  0  0  0  0
  153.4909  141.3110  159.8530 N   0  5  0  0  0  0  0  0  0  0  0  0
  153.3279  140.2760  158.9719 C   0  0  0  0  0  0  0  0  0  0  0  0
  154.1599  139.3769  158.8506 O   0  0  0  0  0  0  0  0  0  0  0  0
  149.1443  141.1658  154.2930 C   0  0  0  0  0  0  0  0  0  0  0  0
  147.0032  141.7150  157.1027 H   0  0  0  0  0  0  0  0  0  0  0  0
  148.5569  140.9712  156.8923 H   0  0  0  0  0  0  0  0  0  0  0  0
  147.2097  140.0087  157.4485 H   0  0  0  0  0  0  0  0  0  0  0  0
  145.0098  140.1710  154.4152 H   0  0  0  0  0  0  0  0  0  0  0  0
  145.0921  141.3707  155.6771 H   0  0  0  0  0  0  0  0  0  0  0  0
  145.1591  139.6649  156.0786 H   0  0  0  0  0  0  0  0  0  0  0  0
  147.3431  142.4565  154.3473 H   0  0  0  0  0  0  0  0  0  0  0  0
  146.1072  141.1019  152.6689 H   0  0  0  0  0  0  0  0  0  0  0  0
  147.7503  141.0664  152.0572 H   0  0  0  0  0  0  0  0  0  0  0  0
  146.1994  138.8174  153.1245 H   0  0  0  0  0  0  0  0  0  0  0  0
  147.8253  138.7437  152.4921 H   0  0  0  0  0  0  0  0  0  0  0  0
  148.0215  137.0726  154.8253 H   0  0  0  0  0  0  0  0  0  0  0  0
  146.4260  137.6140  155.3312 H   0  0  0  0  0  0  0  0  0  0  0  0
  147.8122  137.8749  156.3770 H   0  0  0  0  0  0  0  0  0  0  0  0
  149.6930  139.1494  153.6606 H   0  0  0  0  0  0  0  0  0  0  0  0
  149.5375  138.7407  156.4052 H   0  0  0  0  0  0  0  0  0  0  0  0
  151.2296  138.4025  157.7302 H   0  0  0  0  0  0  0  0  0  0  0  0
  152.8200  138.5707  157.0672 H   0  0  0  0  0  0  0  0  0  0  0  0
  150.3470  141.1170  157.7164 H   0  0  0  0  0  0  0  0  0  0  0  0
  150.6003  143.0156  159.3072 H   0  0  0  0  0  0  0  0  0  0  0  0
  149.6484  141.4675  153.3743 H   0  0  0  0  0  0  0  0  0  0  0  0
  149.6043  141.7345  155.1015 H   0  0  0  0  0  0  0  0  0  0  0  0
  1  2  1  0  0  0  0
  1 23  1  0  0  0  0
  1 24  1  0  0  0  0
  1 25  1  0  0  0  0
  2  7  1  0  0  0  0
  2  3  1  0  0  0  0
  2  4  1  0  0  0  0
  3 26  1  0  0  0  0
  3 27  1  0  0  0  0
  3 28  1  0  0  0  0
  4 22  1  0  0  0  0
  4  5  1  0  0  0  0
  4 29  1  0  0  0  0
  5  6  1  0  0  0  0
  5 30  1  0  0  0  0
  5 31  1  0  0  0  0
  6  7  1  0  0  0  0
  6 32  1  0  0  0  0
  6 33  1  0  0  0  0
  7  8  1  0  0  0  0
  7  9  1  0  0  0  0
  8 34  1  0  0  0  0
  8 35  1  0  0  0  0
  8 36  1  0  0  0  0
  9 10  1  0  0  0  0
  9 22  1  0  0  0  0
  9 37  1  0  0  0  0
 10 11  1  0  0  0  0
 10 38  1  0  0  0  0
 11 12  2  0  0  0  0
 11 13  1  0  0  0  0
 13 14  1  0  0  0  0
 13 39  1  0  0  0  0
 13 40  1  0  0  0  0
 14 20  1  0  0  0  0
 14 15  1  0  0  0  0
 15 16  2  0  0  0  0
 15 41  1  0  0  0  0
 16 17  1  0  0  0  0
 16 42  1  0  0  0  0
 17 18  2  0  0  0  0
 17 19  1  0  0  0  0
 19 20  1  0  0  0  0
 20 21  2  0  0  0  0
 22 43  1  0  0  0  0
 22 44  1  0  0  0  0
M  CHG  1  19  -1
M  END
> <s_m_source_file>
AV-unprocessed.smi

> <i_m_source_file_index>
623

> <i_lp_mmshare_version>
43012

> <i_f3d_flags>
0

> <s_epik_input>
W0NIM11bQ0BdMTJDKFtDSDNdKShbQ0gzXSlbQ0BIXShbQ0gyXVtDSDJdMSlbQ0gyXVtDQEBIXTJbTkhdQyg9TylbQ0gyXW4zW2NIXVtjSF1jKD1PKVtuSF1jMz1P

> <s_epik_cmdline>
J2VwaWtfcHl0aG9uJywgJy1waCcsICc3LjAnLCAnLXRuJywgJzgnLCAnLW1hJywgJzIwMCcsICctbWV0YWxfYmluZGluZycsICctaW1hZScsICc8aW5maWxlLm1hZT4nLCAnLW9tYWUnLCAnPG91dGZpbGUubWFlPic=

> <r_lp_tautomer_probability>
0.999537

> <r_epik_Ionization_Penalty>
3.12624

> <r_epik_Ionization_Penalty_Charging>
3.01273e-08

> <r_epik_Ionization_Penalty_Neutral>
3.12624

> <r_epik_State_Penalty>
3.12534

> <r_epik_Charging_Adjusted_Penalty>
3.12534

> <i_epik_Tot_Q>
-1

> <i_epik_Tot_abs_Q>
1

> <r_epik_Metal_State_Penalty>
0.46406

> <b_epik_Metal_Only>
1

> <s_lp_Force_Field>
OPLS_2005

> <r_lp_Energy>
63.0451

> <b_lp_Chiralities_Consistent>
1

> <s_lp_Variant>
AV-unprocessed.smi:623-7

> <Gold.Version>
5.8.1

> <Gold.Id.Protein>
6NUR|6NUR_protein|mol2

> <Gold.PLP.Fitness>
36.5626

> <Gold.PLP.PLP>
-31.8675

> <Gold.PLP.part.hbond>
-2.0000

> <Gold.PLP.part.metal>
0.0000

> <Gold.PLP.part.buried>
-2.7664

> <Gold.PLP.part.nonpolar>
-25.8964

> <Gold.PLP.part.repulsive>
0.1154

> <Gold.PLP.ligand.clash>
0.0000

> <Gold.PLP.ligand.torsion>
0.3352

> <Gold.PLP.Chemscore.Hbond>
1.7840

> <Gold.PLP.Chemscore.CHOScore>
0.0000

> <Gold.PLP.Chemscore.Metal>
0.0000

> <Gold.Chemscore.Hbonds>
donor molecule, donor type, donor heavy atom, donor atom, acceptor molecule, acceptor atom, score
      P1  H  7989  7998       L1    12  0.77
      P1  H  7997  8009       L1    21  1.00

> <Gold.PLP.Chemscore.Internal.Correction>
0.0135

> <Gold.Rescore>
     Score         DG    S(hbond)    S(metal)    S(lipo)     H(rot)  DE(clash)    DE(int)     intcor
     13.67     -14.06       1.74        0.00      59.36       1.63       0.03       0.35       ----

> <Gold.Chemscore.Fitness>
13.6714

> <Gold.Chemscore.DG>
-14.0559

> <Gold.Chemscore.ZeroCoef>
-5.4800

> <Gold.Chemscore.Hbond>
1.7393

> <Gold.Chemscore.Metal>
0.0000

> <Gold.Chemscore.Lipo>
59.3578

> <Gold.Chemscore.Internal_Hbond>
0.0000

> <Gold.Chemscore.DEClash>
0.0345

> <Gold.Chemscore.DEInternal>
0.3501

> <Gold.Chemscore.Rot>
1.6322

> <Gold.Chemscore.Internal.Correction>
   9.000000E+99

> <Gold.Chemscore.Hbonds>
donor molecule, donor type, donor heavy atom, donor atom, acceptor molecule, acceptor atom, score
      P1  H  7989  7998       L1    12  0.76
      P1  H  7997  8009       L1    21  0.25

> <Gold.Chemscore.Hbond.Weighted>
-5.8094

> <Gold.Chemscore.Metal.Weighted>
-0.0000

> <Gold.Chemscore.Lipo.Weighted>
-6.9449

> <Gold.Chemscore.Internal_Hbond.Weighted>
0.0000

> <Gold.Chemscore.DEClash.Weighted>
0.0345

> <Gold.Chemscore.DEInternal.Weighted>
0.3501

> <Gold.Chemscore.Rot.Weighted>
4.1783

> <Gold.Chemscore.Internal.Correction.Weighted>
   9.000000E+99

> <Gold.Protein.RotatedTorsions>
[ 6907 6896 6895 6894 ] final  -50.70 input  -60.11 | X-H torsion
[ 7974 7965 7964 7962 ] final  -92.45 input  175.53 | X-H torsion
[ 8008 7997 7996 7995 ] final  117.16 input   59.86 | X-H torsion
[ 10167 10162 10161 10158 ] final   31.48 input  -65.29 | X-H torsion
[ 10718 10713 10712 10709 ] final  -79.03 input   66.30 | X-H torsion
[ 10763 10752 10751 10750 ] final -153.49 input  -60.55 | X-H torsion
[ 11005 11000 10999 10996 ] final  -67.61 input  -57.11 | X-H torsion

> <Gold.Protein.ActiveResidues>
 VAL166  LYS551  ARG553  GLY616  TRP617  ASP618  TYR619  PRO620  LYS621  CYS622 
 ASP623  PHE694  ASN695  SER759  ASP760  ASP761  ALA762  ILE779  LEU786  VAL792 
 PHE793  MET794  SER795  GLU796  ALA797  LYS798  CYS799  TRP800  GLU811  SER814 

> <Gold.Protein.RotatedAtoms>
  150.8682  134.8050  159.7134 H   0  0  0  0  0  0  0  0  0  0  0  0  # atno 6907 bound_to 6896
  152.4696  134.4989  159.9728 H   0  0  0  0  0  0  0  0  0  0  0  0  # atno 6908 bound_to 6896
  151.5082  133.3452  159.2916 H   0  0  0  0  0  0  0  0  0  0  0  0  # atno 6909 bound_to 6896
  145.3997  140.9536  143.2294 H   0  0  0  0  0  0  0  0  0  0  0  0  # atno 7974 bound_to 7965
  156.2479  140.2902  156.0636 H   0  0  0  0  0  0  0  0  0  0  0  0  # atno 8008 bound_to 7997
  155.1748  140.0402  157.2887 H   0  0  0  0  0  0  0  0  0  0  0  0  # atno 8009 bound_to 7997
  154.6300  140.2497  155.7452 H   0  0  0  0  0  0  0  0  0  0  0  0  # atno 8010 bound_to 7997
  140.4585  144.0943  150.6207 H   0  0  0  0  0  0  0  0  0  0  0  0  # atno 10167 bound_to 10162
  156.0102  130.4534  150.3586 H   0  0  0  0  0  0  0  0  0  0  0  0  # atno 10718 bound_to 10713
  154.7924  135.3211  154.7747 H   0  0  0  0  0  0  0  0  0  0  0  0  # atno 10763 bound_to 10752
  153.8433  135.6869  153.4805 H   0  0  0  0  0  0  0  0  0  0  0  0  # atno 10764 bound_to 10752
  153.1600  135.4665  154.9699 H   0  0  0  0  0  0  0  0  0  0  0  0  # atno 10765 bound_to 10752
  141.1512  133.6723  156.6320 H   0  0  0  0  0  0  0  0  0  0  0  0  # atno 11005 bound_to 11000
  144.8382  139.5514  143.6912 LP  0  0  0  0  0  0  0  0  0  0  0  0  # atno 17320 bound_to 7965
  146.2758  139.6749  142.9264 LP  0  0  0  0  0  0  0  0  0  0  0  0  # atno 17321 bound_to 7965
  140.4122  143.2651  151.9818 LP  0  0  0  0  0  0  0  0  0  0  0  0  # atno 17342 bound_to 10162
  139.4803  144.5905  151.7780 LP  0  0  0  0  0  0  0  0  0  0  0  0  # atno 17343 bound_to 10162
  157.1675  131.0360  151.2811 LP  0  0  0  0  0  0  0  0  0  0  0  0  # atno 17370 bound_to 10713
  157.4257  130.7462  149.6949 LP  0  0  0  0  0  0  0  0  0  0  0  0  # atno 17371 bound_to 10713
  140.3460  134.7809  157.4432 LP  0  0  0  0  0  0  0  0  0  0  0  0  # atno 17394 bound_to 11000
  140.0899  134.5615  155.8454 LP  0  0  0  0  0  0  0  0  0  0  0  0  # atno 17395 bound_to 11000

$$$$
