AV-unprocessed.smi:3231|AV-procd|sdf|12331|dock1
  -GOLD-   2272018183D 1   1.00000     0.00000
 Structure written by MMmdl.
 41 42  0  0  0  0  0  0  0  0  2 V2000
  146.6262  140.1319  151.9437 O   0  0  0  0  0  0  0  0  0  0  0  0
  146.9102  138.9944  152.7361 C   0  0  2  0  0  0  0  0  0  0  0  0
  145.9110  137.8926  152.3419 C   0  0  0  0  0  0  0  0  0  0  0  0
  146.4441  137.0567  151.2479 N   0  3  0  0  0  0  0  0  0  0  0  0
  145.5867  135.9091  150.8895 C   0  0  0  0  0  0  0  0  0  0  0  0
  145.8746  134.6910  151.7827 C   0  0  0  0  0  0  0  0  0  0  0  0
  145.1514  133.5056  151.3574 N   0  0  0  0  0  0  0  0  0  0  0  0
  145.6480  132.2468  151.0903 C   0  0  0  0  0  0  0  0  0  0  0  0
  144.5927  131.4647  150.7173 C   0  0  0  0  0  0  0  0  0  0  0  0
  143.4788  132.3478  150.7778 C   0  0  0  0  0  0  0  0  0  0  0  0
  143.8169  133.5686  151.1613 N   0  0  0  0  0  0  0  0  0  0  0  0
  146.7904  139.3816  154.2263 C   0  0  0  0  0  0  0  0  0  0  0  0
  148.0526  139.7127  154.8877 N   0  0  0  0  0  0  0  0  0  0  0  0
  148.4684  141.0754  154.5699 C   0  0  0  0  0  0  0  0  0  0  0  0
  149.7943  141.4491  155.2548 C   0  0  0  0  0  0  0  0  0  0  0  0
  150.8017  140.5162  154.8784 O   0  0  0  0  0  0  0  0  0  0  0  0
  150.4600  139.1756  155.2143 C   0  0  0  0  0  0  0  0  0  0  0  0
  149.1330  138.7934  154.5352 C   0  0  0  0  0  0  0  0  0  0  0  0
  145.7746  140.4644  152.1846 H   0  0  0  0  0  0  0  0  0  0  0  0
  147.9231  138.6481  152.5241 H   0  0  0  0  0  0  0  0  0  0  0  0
  145.7190  137.2435  153.1974 H   0  0  0  0  0  0  0  0  0  0  0  0
  144.9540  138.3269  152.0487 H   0  0  0  0  0  0  0  0  0  0  0  0
  146.5632  137.6393  150.4315 H   0  0  0  0  0  0  0  0  0  0  0  0
  144.5374  136.1972  150.9676 H   0  0  0  0  0  0  0  0  0  0  0  0
  145.7658  135.6468  149.8462 H   0  0  0  0  0  0  0  0  0  0  0  0
  146.9411  134.4616  151.7687 H   0  0  0  0  0  0  0  0  0  0  0  0
  145.6152  134.9092  152.8194 H   0  0  0  0  0  0  0  0  0  0  0  0
  146.6981  132.0131  151.1880 H   0  0  0  0  0  0  0  0  0  0  0  0
  144.6134  130.4214  150.4384 H   0  0  0  0  0  0  0  0  0  0  0  0
  142.4423  132.1397  150.5563 H   0  0  0  0  0  0  0  0  0  0  0  0
  146.0659  140.1872  154.3578 H   0  0  0  0  0  0  0  0  0  0  0  0
  146.3649  138.5256  154.7519 H   0  0  0  0  0  0  0  0  0  0  0  0
  148.5790  141.1864  153.4901 H   0  0  0  0  0  0  0  0  0  0  0  0
  147.6953  141.7802  154.8780 H   0  0  0  0  0  0  0  0  0  0  0  0
  150.1062  142.4503  154.9573 H   0  0  0  0  0  0  0  0  0  0  0  0
  149.6814  141.4565  156.3401 H   0  0  0  0  0  0  0  0  0  0  0  0
  151.2593  138.5105  154.8866 H   0  0  0  0  0  0  0  0  0  0  0  0
  150.3825  139.0738  156.2979 H   0  0  0  0  0  0  0  0  0  0  0  0
  148.8740  137.7762  154.8280 H   0  0  0  0  0  0  0  0  0  0  0  0
  149.2718  138.7831  153.4530 H   0  0  0  0  0  0  0  0  0  0  0  0
  147.3488  136.7052  151.5275 H   0  0  0  0  0  0  0  0  0  0  0  0
  1  2  1  0  0  0  0
  1 19  1  0  0  0  0
  2  3  1  0  0  0  0
  2 12  1  0  0  0  0
  2 20  1  0  0  0  0
  3  4  1  0  0  0  0
  3 21  1  0  0  0  0
  3 22  1  0  0  0  0
  4  5  1  0  0  0  0
  4 23  1  0  0  0  0
  4 41  1  0  0  0  0
  5  6  1  0  0  0  0
  5 24  1  0  0  0  0
  5 25  1  0  0  0  0
  6  7  1  0  0  0  0
  6 26  1  0  0  0  0
  6 27  1  0  0  0  0
  7 11  1  0  0  0  0
  7  8  1  0  0  0  0
  8  9  2  0  0  0  0
  8 28  1  0  0  0  0
  9 10  1  0  0  0  0
  9 29  1  0  0  0  0
 10 11  2  0  0  0  0
 10 30  1  0  0  0  0
 12 13  1  0  0  0  0
 12 31  1  0  0  0  0
 12 32  1  0  0  0  0
 13 18  1  0  0  0  0
 13 14  1  0  0  0  0
 14 15  1  0  0  0  0
 14 33  1  0  0  0  0
 14 34  1  0  0  0  0
 15 16  1  0  0  0  0
 15 35  1  0  0  0  0
 15 36  1  0  0  0  0
 16 17  1  0  0  0  0
 17 18  1  0  0  0  0
 17 37  1  0  0  0  0
 17 38  1  0  0  0  0
 18 39  1  0  0  0  0
 18 40  1  0  0  0  0
M  CHG  1   4   1
M  END
> <s_m_source_file>
AV-unprocessed.smi

> <i_m_source_file_index>
3231

> <i_lp_mmshare_version>
43012

> <i_f3d_flags>
0

> <s_epik_input>
W0NIMl0xW0NIMl1PW0NIMl1bQ0gyXU4xW0NIMl1bQ0BIXShbT0hdKVtDSDJdW05IXVtDSDJdW0NIMl1uMltjSF1bY0hdW2NIXW4y

> <s_epik_cmdline>
J2VwaWtfcHl0aG9uJywgJy1waCcsICc3LjAnLCAnLXRuJywgJzgnLCAnLW1hJywgJzIwMCcsICctbWV0YWxfYmluZGluZycsICctaW1hZScsICc8aW5maWxlLm1hZT4nLCAnLW9tYWUnLCAnPG91dGZpbGUubWFlPic=

> <r_lp_tautomer_probability>
1

> <r_epik_Ionization_Penalty>
0.1292

> <r_epik_Ionization_Penalty_Charging>
0.0387518

> <r_epik_Ionization_Penalty_Neutral>
0.0904484

> <r_epik_State_Penalty>
0.234133

> <r_epik_Charging_Adjusted_Penalty>
0.272885

> <i_epik_Tot_Q>
1

> <i_epik_Tot_abs_Q>
1

> <r_epik_Metal_State_Penalty>
0.234414

> <b_epik_Metal_Only>
0

> <s_lp_Force_Field>
OPLS_2005

> <r_lp_Energy>
29.315

> <b_lp_Chiralities_Consistent>
1

> <s_lp_Variant>
AV-unprocessed.smi:3231-1

> <Gold.Version>
5.8.1

> <Gold.Id.Protein>
6NUR|6NUR_protein|mol2

> <Gold.PLP.Fitness>
52.6077

> <Gold.PLP.PLP>
-36.8651

> <Gold.PLP.part.hbond>
-4.0861

> <Gold.PLP.part.metal>
0.0000

> <Gold.PLP.part.buried>
-6.1701

> <Gold.PLP.part.nonpolar>
-28.7718

> <Gold.PLP.part.repulsive>
0.4464

> <Gold.PLP.ligand.clash>
0.0000

> <Gold.PLP.ligand.torsion>
1.2587

> <Gold.PLP.Chemscore.Hbond>
3.9750

> <Gold.PLP.Chemscore.CHOScore>
1.8858

> <Gold.PLP.Chemscore.Metal>
0.0000

> <Gold.Chemscore.Hbonds>
donor molecule, donor type, donor heavy atom, donor atom, acceptor molecule, acceptor atom, score
      L1  H     1    19       P1 10175  0.83
      L1  H     4    41       P1  7948  2.00
      P1  H  7989  7998       L1    16  1.00
      L1  C     8    28       P1 10747  0.54
      L1  C    10    30       P1 10186  0.11
      L1  C    10    30       P1 10952  0.82

> <Gold.PLP.Chemscore.Internal.Correction>
0.6776

> <Gold.Rescore>
     Score         DG    S(hbond)    S(metal)    S(lipo)     H(rot)  DE(clash)    DE(int)     intcor
     15.65     -16.96       2.63        0.00      84.96       2.83       0.01       1.30       ----

> <Gold.Chemscore.Fitness>
15.6455

> <Gold.Chemscore.DG>
-16.9570

> <Gold.Chemscore.ZeroCoef>
-5.4800

> <Gold.Chemscore.Hbond>
2.6253

> <Gold.Chemscore.Metal>
0.0000

> <Gold.Chemscore.Lipo>
84.9644

> <Gold.Chemscore.Internal_Hbond>
0.0000

> <Gold.Chemscore.DEClash>
0.0069

> <Gold.Chemscore.DEInternal>
1.3046

> <Gold.Chemscore.Rot>
2.8251

> <Gold.Chemscore.Internal.Correction>
   9.000000E+99

> <Gold.Chemscore.Hbonds>
donor molecule, donor type, donor heavy atom, donor atom, acceptor molecule, acceptor atom, score
      L1  H     1    19       P1 10175  0.25
      L1  H     4    41       P1  7948  1.00
      P1  H  7989  7998       L1    16  0.86

> <Gold.Chemscore.Hbond.Weighted>
-8.7684

> <Gold.Chemscore.Metal.Weighted>
-0.0000

> <Gold.Chemscore.Lipo.Weighted>
-9.9408

> <Gold.Chemscore.Internal_Hbond.Weighted>
0.0000

> <Gold.Chemscore.DEClash.Weighted>
0.0069

> <Gold.Chemscore.DEInternal.Weighted>
1.3046

> <Gold.Chemscore.Rot.Weighted>
7.2322

> <Gold.Chemscore.Internal.Correction.Weighted>
   9.000000E+99

> <Gold.Protein.RotatedTorsions>
[ 6907 6896 6895 6894 ] final  173.85 input  -60.11 | X-H torsion
[ 7974 7965 7964 7962 ] final -145.96 input  175.53 | X-H torsion
[ 8008 7997 7996 7995 ] final  145.98 input   59.86 | X-H torsion
[ 10167 10162 10161 10158 ] final  -34.84 input  -65.29 | X-H torsion
[ 10718 10713 10712 10709 ] final   73.12 input   66.30 | X-H torsion
[ 10763 10752 10751 10750 ] final  128.82 input  -60.55 | X-H torsion
[ 11005 11000 10999 10996 ] final   60.20 input  -57.11 | X-H torsion

> <Gold.Protein.ActiveResidues>
 VAL166  LYS551  ARG553  GLY616  TRP617  ASP618  TYR619  PRO620  LYS621  CYS622 
 ASP623  PHE694  ASN695  SER759  ASP760  ASP761  ALA762  ILE779  LEU786  VAL792 
 PHE793  MET794  SER795  GLU796  ALA797  LYS798  CYS799  TRP800  GLU811  SER814 

> <Gold.Protein.RotatedAtoms>
  151.7617  133.3334  159.3419 H   0  0  0  0  0  0  0  0  0  0  0  0  # atno 6907 bound_to 6896
  150.7495  134.6099  159.6090 H   0  0  0  0  0  0  0  0  0  0  0  0  # atno 6908 bound_to 6896
  152.3401  134.7148  160.0317 H   0  0  0  0  0  0  0  0  0  0  0  0  # atno 6909 bound_to 6896
  144.8192  140.5518  143.5590 H   0  0  0  0  0  0  0  0  0  0  0  0  # atno 7974 bound_to 7965
  156.2868  140.2194  156.5303 H   0  0  0  0  0  0  0  0  0  0  0  0  # atno 8008 bound_to 7997
  154.7454  140.0484  157.0870 H   0  0  0  0  0  0  0  0  0  0  0  0  # atno 8009 bound_to 7997
  155.0177  140.3120  155.4808 H   0  0  0  0  0  0  0  0  0  0  0  0  # atno 8010 bound_to 7997
  140.7177  143.3519  151.2138 H   0  0  0  0  0  0  0  0  0  0  0  0  # atno 10167 bound_to 10162
  157.6533  130.9613  150.1025 H   0  0  0  0  0  0  0  0  0  0  0  0  # atno 10718 bound_to 10713
  153.7318  135.3237  155.3287 H   0  0  0  0  0  0  0  0  0  0  0  0  # atno 10763 bound_to 10752
  154.8323  135.4524  154.1114 H   0  0  0  0  0  0  0  0  0  0  0  0  # atno 10764 bound_to 10752
  153.2264  135.6954  153.8021 H   0  0  0  0  0  0  0  0  0  0  0  0  # atno 10765 bound_to 10752
  140.0248  134.6099  155.9588 H   0  0  0  0  0  0  0  0  0  0  0  0  # atno 11005 bound_to 11000
  145.5144  139.1478  143.3587 LP  0  0  0  0  0  0  0  0  0  0  0  0  # atno 17320 bound_to 7965
  146.2497  140.5285  142.8899 LP  0  0  0  0  0  0  0  0  0  0  0  0  # atno 17321 bound_to 7965
  139.7052  143.9467  152.2923 LP  0  0  0  0  0  0  0  0  0  0  0  0  # atno 17342 bound_to 10162
  139.9174  144.6820  150.8498 LP  0  0  0  0  0  0  0  0  0  0  0  0  # atno 17343 bound_to 10162
  156.1944  130.3656  149.8868 LP  0  0  0  0  0  0  0  0  0  0  0  0  # atno 17370 bound_to 10713
  156.6788  130.8850  151.3573 LP  0  0  0  0  0  0  0  0  0  0  0  0  # atno 17371 bound_to 10713
  141.1796  133.6544  156.4967 LP  0  0  0  0  0  0  0  0  0  0  0  0  # atno 17394 bound_to 11000
  140.4325  134.7089  157.4949 LP  0  0  0  0  0  0  0  0  0  0  0  0  # atno 17395 bound_to 11000

$$$$
