#       Name:                AV-unprocessed.smi:876
#       Creating user name   scv26
#       Creation time:       Fri Mar 27 01:50:44 2020


#       File generated by GOLD software.
#

@<TRIPOS>MOLECULE
AV-unprocessed.smi:876
    45    46     1
SMALL
NO_CHARGES


@<TRIPOS>ATOM
      1 ****        -6.4846  -0.2229  -0.0176 C.3            1 S1                 0.0000
      2 ****        -5.5542   0.8747   0.2115 N.pl3          1 S1                 0.0000
      3 ****        -6.0370   2.2502   0.2669 C.3            1 S1                 0.0000
      4 ****        -4.1747   0.6090   0.3512 C.ar           1 S1                 0.0000
      5 ****        -3.6278  -0.6969   0.3071 C.ar           1 S1                 0.0000
      6 ****        -2.2378  -0.8845   0.4537 C.ar           1 S1                 0.0000
      7 ****        -1.3957   0.2397   0.6357 C.ar           1 S1                 0.0000
      8 ****         0.0128   0.1629   0.8094 N.am           1 S1                 0.0000
      9 ****         0.8475  -0.8311   0.4594 C.2            1 S1                 0.0000
     10 ****         0.5175  -1.8685  -0.1148 O.2            1 S1                 0.0000
     11 ****         2.1124  -0.5452   0.7982 N.am           1 S1                 0.0000
     12 ****         3.2580  -1.4122   0.5450 C.3            1 S1                 0.0000
     13 ****         4.4681  -0.9202   1.2906 C.2            1 S1                 0.0000
     14 ****         5.5160  -0.7207   0.4944 C.2            1 S1                 0.0000
     15 ****         5.2202  -1.0313  -0.9508 C.3            1 S1                 0.0000
     16 ****         5.5569   0.1342  -1.8969 C.3            1 S1                 0.0000
     17 ****         6.9483   0.3762  -1.9127 O.3            1 S1                 0.0000
     18 ****         3.7128  -1.3923  -0.9384 C.3            1 S1                 0.0000
     19 ****        -1.9917   1.5157   0.6868 C.ar           1 S1                 0.0000
     20 ****        -3.3274   1.6498   0.5417 N.pl3          1 S1                 1.0000
     21 ****         3.0440  -2.4304   0.8743 H              1 S1                 0.0000
     22 ****         5.8019  -1.9111  -1.2297 H              1 S1                 0.0000
     23 ****        -6.4600  -0.9268   0.8148 H              1 S1                 0.0000
     24 ****        -6.2303  -0.7565  -0.9338 H              1 S1                 0.0000
     25 ****        -7.5079   0.1389  -0.1168 H              1 S1                 0.0000
     26 ****        -5.5834   2.8479  -0.5247 H              1 S1                 0.0000
     27 ****        -5.7933   2.7039   1.2283 H              1 S1                 0.0000
     28 ****        -7.1189   2.2964   0.1416 H              1 S1                 0.0000
     29 ****        -4.2538  -1.5654   0.1677 H              1 S1                 0.0000
     30 ****        -1.8502  -1.8912   0.4362 H              1 S1                 0.0000
     31 ****         0.4466   0.9863   1.2005 H              1 S1                 0.0000
     32 ****         2.2995   0.3317   1.2621 H              1 S1                 0.0000
     33 ****         4.4647  -0.7709   2.3604 H              1 S1                 0.0000
     34 ****         6.4884  -0.3842   0.8228 H              1 S1                 0.0000
     35 ****         5.2361  -0.0993  -2.9126 H              1 S1                 0.0000
     36 ****         5.0369   1.0441  -1.5942 H              1 S1                 0.0000
     37 ****         7.1224   1.0913  -2.5058 H              1 S1                 0.0000
     38 ****         3.5383  -2.3589  -1.4122 H              1 S1                 0.0000
     39 ****         3.1412  -0.6591  -1.5100 H              1 S1                 0.0000
     40 ****        -1.4425   2.4346   0.8330 H              1 S1                 0.0000
     41 ****        -3.7211   2.5901   0.5781 H              1 S1                 0.0000
     42 ****        -0.4401  -2.0224  -0.3581 LP             1 S1                 0.0000
     43 ****         1.2071  -2.5574  -0.3381 LP             1 S1                 0.0000
     44 ****         7.4296  -0.4437  -2.2227 LP             1 S1                 0.0000
     45 ****         7.2590   0.6175  -0.9933 LP             1 S1                 0.0000
@<TRIPOS>BOND
    1    1    2 1     
    2    1   23 1     
    3    1   24 1     
    4    1   25 1     
    5    2    3 1     
    6    2    4 1     
    7    3   26 1     
    8    3   27 1     
    9    3   28 1     
   10    4   20 ar    
   11    4    5 ar    
   12    5    6 ar    
   13    5   29 1     
   14    6    7 ar    
   15    6   30 1     
   16    7    8 1     
   17    7   19 ar    
   18    8    9 am    
   19    8   31 1     
   20    9   10 2     
   21    9   11 am    
   22   11   12 1     
   23   11   32 1     
   24   12   21 1     
   25   12   18 1     
   26   12   13 1     
   27   13   14 2     
   28   13   33 1     
   29   14   15 1     
   30   14   34 1     
   31   15   22 1     
   32   15   16 1     
   33   15   18 1     
   34   16   17 1     
   35   16   35 1     
   36   16   36 1     
   37   17   37 1     
   38   18   38 1     
   39   18   39 1     
   40   19   20 ar    
   41   19   40 1     
   42   20   41 1     
   43   10   42 1     
   44   10   43 1     
   45   17   44 1     
   46   17   45 1     
@<TRIPOS>SUBSTRUCTURE
      1 S1             1
@<TRIPOS>SET
LONE_PAIRS      STATIC     ATOMS    <user>   **** ""
4 42 43 44 45
DONOR_HYDROGENS      STATIC     ATOMS    <user>   **** ""
4 31 32 37 41
ATOM$BLUE        STATIC     ATOMS    COLORGROUP SYSTEM
4 42 43 44 45
ATOM$RED        STATIC     ATOMS    COLORGROUP SYSTEM
4 31 32 37 41
