#       Name:                AV-unprocessed.smi:1496
#       Creating user name   scv26
#       Creation time:       Fri Mar 27 06:17:18 2020


#       File generated by GOLD software.
#

@<TRIPOS>MOLECULE
AV-unprocessed.smi:1496
    48    49     1
SMALL
NO_CHARGES


@<TRIPOS>ATOM
      1 ****        -2.8356   1.3204   0.7884 C.3            1 S1                 0.0000
      2 ****        -2.2961   2.6207   0.1570 C.3            1 S1                 0.0000
      3 ****        -2.8690   3.8300   0.9124 C.3            1 S1                 0.0000
      4 ****        -0.7499   2.6703   0.1804 C.3            1 S1                 0.0000
      5 ****        -0.1338   1.7230  -0.7459 N.3            1 S1                 0.0000
      6 ****         1.3281   1.7788  -0.7203 C.3            1 S1                 0.0000
      7 ****         1.9837   1.3105   0.5942 C.3            1 S1                 0.0000
      8 ****         1.5547  -0.0329   0.9698 N.am           1 S1                 0.0000
      9 ****         2.0111  -1.1684   0.4240 C.2            1 S1                 0.0000
     10 ****         2.8821  -1.1996  -0.4447 O.2            1 S1                 0.0000
     11 ****         1.4012  -2.2402   0.9590 N.am           1 S1                 0.0000
     12 ****         1.5816  -3.6177   0.6560 C.ar           1 S1                 0.0000
     13 ****         2.2179  -4.1090  -0.5102 C.ar           1 S1                 0.0000
     14 ****         2.3175  -5.5015  -0.6947 C.ar           1 S1                 0.0000
     15 ****         1.7729  -6.3516   0.2870 C.ar           1 S1                 0.0000
     16 ****         1.1541  -5.8983   1.3971 N.ar           1 S1                 0.0000
     17 ****         1.0627  -4.5621   1.5672 C.ar           1 S1                 0.0000
     18 ****        -0.6453   1.9710  -2.0864 C.3            1 S1                 0.0000
     19 ****        -2.1759   1.8650  -2.1384 C.3            1 S1                 0.0000
     20 ****        -2.7586   2.7568  -1.1906 O.3            1 S1                 0.0000
     21 ****        -2.5616   1.2545   1.8418 H              1 S1                 0.0000
     22 ****        -2.4402   0.4297   0.3007 H              1 S1                 0.0000
     23 ****        -3.9232   1.2752   0.7268 H              1 S1                 0.0000
     24 ****        -2.5607   3.8268   1.9584 H              1 S1                 0.0000
     25 ****        -3.9593   3.8308   0.8881 H              1 S1                 0.0000
     26 ****        -2.5310   4.7681   0.4707 H              1 S1                 0.0000
     27 ****        -0.4188   3.6796  -0.0702 H              1 S1                 0.0000
     28 ****        -0.4095   2.4816   1.1982 H              1 S1                 0.0000
     29 ****         1.7183   1.1553  -1.5259 H              1 S1                 0.0000
     30 ****         1.6610   2.7929  -0.9462 H              1 S1                 0.0000
     31 ****         3.0702   1.3371   0.4955 H              1 S1                 0.0000
     32 ****         1.7440   1.9909   1.4108 H              1 S1                 0.0000
     33 ****         0.8391  -0.0990   1.6786 H              1 S1                 0.0000
     34 ****         0.7508  -2.0475   1.7066 H              1 S1                 0.0000
     35 ****         2.6189  -3.4568  -1.2696 H              1 S1                 0.0000
     36 ****         2.7975  -5.9085  -1.5723 H              1 S1                 0.0000
     37 ****         1.8313  -7.4241   0.1749 H              1 S1                 0.0000
     38 ****         0.5590  -4.2362   2.4658 H              1 S1                 0.0000
     39 ****        -0.3384   2.9625  -2.4230 H              1 S1                 0.0000
     40 ****        -0.2134   1.2556  -2.7872 H              1 S1                 0.0000
     41 ****        -2.5367   2.1261  -3.1333 H              1 S1                 0.0000
     42 ****        -2.4997   0.8415  -1.9486 H              1 S1                 0.0000
     43 ****        -0.3780   0.7978  -0.4553 LP             1 S1                 0.0000
     44 ****         3.2866  -0.3480  -0.7780 LP             1 S1                 0.0000
     45 ****         3.1854  -2.0766  -0.8174 LP             1 S1                 0.0000
     46 ****         0.7754  -6.5317   2.0720 LP             1 S1                 0.0000
     47 ****        -2.5648   3.6914  -1.4889 LP             1 S1                 0.0000
     48 ****        -3.7469   2.6044  -1.1929 LP             1 S1                 0.0000
@<TRIPOS>BOND
    1    1    2 1     
    2    1   21 1     
    3    1   22 1     
    4    1   23 1     
    5    2   20 1     
    6    2    3 1     
    7    2    4 1     
    8    3   24 1     
    9    3   25 1     
   10    3   26 1     
   11    4    5 1     
   12    4   27 1     
   13    4   28 1     
   14    5    6 1     
   15    5   18 1     
   16    6    7 1     
   17    6   29 1     
   18    6   30 1     
   19    7    8 1     
   20    7   31 1     
   21    7   32 1     
   22    8    9 am    
   23    8   33 1     
   24    9   10 2     
   25    9   11 am    
   26   11   12 1     
   27   11   34 1     
   28   12   17 ar    
   29   12   13 ar    
   30   13   14 ar    
   31   13   35 1     
   32   14   15 ar    
   33   14   36 1     
   34   15   16 ar    
   35   15   37 1     
   36   16   17 ar    
   37   17   38 1     
   38   18   19 1     
   39   18   39 1     
   40   18   40 1     
   41   19   20 1     
   42   19   41 1     
   43   19   42 1     
   44    5   43 1     
   45   10   44 1     
   46   10   45 1     
   47   16   46 1     
   48   20   47 1     
   49   20   48 1     
@<TRIPOS>SUBSTRUCTURE
      1 S1             1
@<TRIPOS>SET
LONE_PAIRS      STATIC     ATOMS    <user>   **** ""
6 43 44 45 46 47 48
DONOR_HYDROGENS      STATIC     ATOMS    <user>   **** ""
2 33 34
ATOM$BLUE        STATIC     ATOMS    COLORGROUP SYSTEM
6 43 44 45 46 47 48
ATOM$RED        STATIC     ATOMS    COLORGROUP SYSTEM
2 33 34
