#       Name:                AV-unprocessed.smi:2557
#       Creating user name   scv26
#       Creation time:       Fri Mar 27 14:07:24 2020


#       File generated by GOLD software.
#

@<TRIPOS>MOLECULE
AV-unprocessed.smi:2557
    42    44     1
SMALL
NO_CHARGES


@<TRIPOS>ATOM
      1 ****        -0.6661  -4.4597  -0.2051 O.co2          1 S1                -1.0000
      2 ****         0.0055  -3.4166  -0.0257 C.2            1 S1                 0.0000
      3 ****        -0.3505  -2.0672   0.0286 C.2            1 S1                 0.0000
      4 ****        -1.7518  -1.6390  -0.1109 C.2            1 S1                 0.0000
      5 ****        -2.7143  -2.3828  -0.2934 O.2            1 S1                 0.0000
      6 ****        -1.9361  -0.3076  -0.0225 N.am           1 S1                 0.0000
      7 ****        -0.9005   0.6058   0.1860 C.2            1 S1                 0.0000
      8 ****        -1.4208   2.0437   0.2285 C.3            1 S1                 0.0000
      9 ****        -1.8524   2.5368  -1.1713 C.3            1 S1                 0.0000
     10 ****        -2.4179   3.9661  -1.1205 C.3            1 S1                 0.0000
     11 ****        -1.4189   4.9420  -0.4805 C.3            1 S1                 0.0000
     12 ****        -0.9945   4.4623   0.9157 C.3            1 S1                 0.0000
     13 ****        -0.4183   3.0383   0.8610 C.3            1 S1                 0.0000
     14 ****         0.3526   0.2882   0.3106 N.2            1 S1                 0.0000
     15 ****         0.6182  -1.0590   0.2353 N.pl3          1 S1                 0.0000
     16 ****         1.4290  -3.7848   0.0832 C.ar           1 S1                 0.0000
     17 ****         2.3337  -3.4832  -0.9608 C.ar           1 S1                 0.0000
     18 ****         3.6870  -3.8558  -0.8354 C.ar           1 S1                 0.0000
     19 ****         4.1066  -4.5003   0.2751 N.pl3          1 S1                 1.0000
     20 ****         3.2780  -4.8158   1.2941 C.ar           1 S1                 0.0000
     21 ****         1.9144  -4.4672   1.2227 C.ar           1 S1                 0.0000
     22 ****        -2.3095   2.0419   0.8621 H              1 S1                 0.0000
     23 ****        -0.9993   2.5094  -1.8510 H              1 S1                 0.0000
     24 ****        -2.6054   1.8723  -1.5973 H              1 S1                 0.0000
     25 ****        -2.6712   4.3012  -2.1267 H              1 S1                 0.0000
     26 ****        -3.3481   3.9699  -0.5509 H              1 S1                 0.0000
     27 ****        -0.5387   5.0355  -1.1180 H              1 S1                 0.0000
     28 ****        -1.8606   5.9368  -0.4142 H              1 S1                 0.0000
     29 ****        -0.2554   5.1457   1.3347 H              1 S1                 0.0000
     30 ****        -1.8529   4.4850   1.5883 H              1 S1                 0.0000
     31 ****        -0.1546   2.7174   1.8699 H              1 S1                 0.0000
     32 ****         0.5098   3.0536   0.2872 H              1 S1                 0.0000
     33 ****         1.5949  -1.3099   0.3392 H              1 S1                 0.0000
     34 ****         1.9882  -2.9706  -1.8469 H              1 S1                 0.0000
     35 ****         4.4396  -3.6609  -1.5852 H              1 S1                 0.0000
     36 ****         3.7265  -5.3342   2.1287 H              1 S1                 0.0000
     37 ****         1.2442  -4.7175   2.0323 H              1 S1                 0.0000
     38 ****        -2.8787   0.0414  -0.1126 H              1 S1                 0.0000
     39 ****         5.0899  -4.7622   0.3459 H              1 S1                 0.0000
     40 ****        -2.5771  -3.3712  -0.3588 LP             1 S1                 0.0000
     41 ****        -3.6341  -1.9991  -0.3764 LP             1 S1                 0.0000
     42 ****         1.0695   0.9711   0.4506 LP             1 S1                 0.0000
@<TRIPOS>BOND
    1    1    2 ar    
    2    2    3 2     
    3    2   16 1     
    4    3   15 1     
    5    3    4 1     
    6    4    5 2     
    7    4    6 am    
    8    6    7 1     
    9    6   38 1     
   10    7    8 1     
   11    7   14 2     
   12    8   13 1     
   13    8    9 1     
   14    8   22 1     
   15    9   10 1     
   16    9   23 1     
   17    9   24 1     
   18   10   11 1     
   19   10   25 1     
   20   10   26 1     
   21   11   12 1     
   22   11   27 1     
   23   11   28 1     
   24   12   13 1     
   25   12   29 1     
   26   12   30 1     
   27   13   31 1     
   28   13   32 1     
   29   14   15 1     
   30   15   33 1     
   31   16   21 ar    
   32   16   17 ar    
   33   17   18 ar    
   34   17   34 1     
   35   18   19 ar    
   36   18   35 1     
   37   19   20 ar    
   38   19   39 1     
   39   20   21 ar    
   40   20   36 1     
   41   21   37 1     
   42    5   40 1     
   43    5   41 1     
   44   14   42 1     
@<TRIPOS>SUBSTRUCTURE
      1 S1             1
@<TRIPOS>SET
LONE_PAIRS      STATIC     ATOMS    <user>   **** ""
4 1 40 41 42
DONOR_HYDROGENS      STATIC     ATOMS    <user>   **** ""
3 38 33 39
ATOM$BLUE        STATIC     ATOMS    COLORGROUP SYSTEM
4 1 40 41 42
ATOM$RED        STATIC     ATOMS    COLORGROUP SYSTEM
3 38 33 39
