AV-unprocessed.smi:1768|AV-procd|sdf|7144|dock2
  -GOLD-   22720 8383D 1   1.00000     0.00000
 Structure written by MMmdl.
 33 34  0  0  0  0  0  0  0  0  1 V2000
  147.1026  139.1783  152.6699 C   0  0  0  0  0  0  0  0  0  0  0  0
  147.9899  139.8461  153.6640 C   0  0  0  0  0  0  0  0  0  0  0  0
  148.9386  139.1923  154.3456 N   0  0  0  0  0  0  0  0  0  0  0  0
  149.6362  140.0265  155.2075 N   0  0  0  0  0  0  0  0  0  0  0  0
  149.1914  141.2892  155.1502 C   0  0  0  0  0  0  0  0  0  0  0  0
  149.7304  142.3518  155.9220 N   0  0  0  0  0  0  0  0  0  0  0  0
  150.7859  142.3251  156.7542 C   0  0  0  0  0  0  0  0  0  0  0  0
  151.4672  141.3309  157.0063 O   0  0  0  0  0  0  0  0  0  0  0  0
  151.0093  143.5355  157.2860 N   0  0  0  0  0  0  0  0  0  0  0  0
  152.0617  143.8684  158.2438 C   0  0  1  0  0  0  0  0  0  0  0  0
  151.8294  145.2991  158.7539 C   0  0  0  0  0  0  0  0  0  0  0  0
  152.0655  142.8267  159.3796 C   0  0  2  0  0  0  0  0  0  0  0  0
  152.6424  143.3300  160.7043 C   0  0  0  0  0  0  0  0  0  0  0  0
  153.0925  142.0418  161.3534 C   0  0  0  0  0  0  0  0  0  0  0  0
  153.6389  141.2700  160.1574 C   0  0  0  0  0  0  0  0  0  0  0  0
  152.8861  141.7119  159.0312 O   0  0  0  0  0  0  0  0  0  0  0  0
  147.8684  141.5627  154.0295 S   0  0  0  0  0  0  0  0  0  0  0  0
  147.3298  138.1137  152.6042 H   0  0  0  0  0  0  0  0  0  0  0  0
  147.2427  139.6271  151.6866 H   0  0  0  0  0  0  0  0  0  0  0  0
  146.0597  139.2961  152.9637 H   0  0  0  0  0  0  0  0  0  0  0  0
  149.2627  143.2404  155.8211 H   0  0  0  0  0  0  0  0  0  0  0  0
  150.3921  144.2881  157.0188 H   0  0  0  0  0  0  0  0  0  0  0  0
  153.0381  143.8432  157.7568 H   0  0  0  0  0  0  0  0  0  0  0  0
  152.6174  145.6098  159.4398 H   0  0  0  0  0  0  0  0  0  0  0  0
  150.8771  145.3850  159.2784 H   0  0  0  0  0  0  0  0  0  0  0  0
  151.8202  146.0111  157.9279 H   0  0  0  0  0  0  0  0  0  0  0  0
  151.0554  142.4503  159.5513 H   0  0  0  0  0  0  0  0  0  0  0  0
  153.5028  143.9779  160.5297 H   0  0  0  0  0  0  0  0  0  0  0  0
  151.9162  143.8783  161.3050 H   0  0  0  0  0  0  0  0  0  0  0  0
  153.8326  142.1904  162.1402 H   0  0  0  0  0  0  0  0  0  0  0  0
  152.2362  141.5184  161.7809 H   0  0  0  0  0  0  0  0  0  0  0  0
  154.6877  141.5183  159.9905 H   0  0  0  0  0  0  0  0  0  0  0  0
  153.5633  140.1903  160.2891 H   0  0  0  0  0  0  0  0  0  0  0  0
  1  2  1  0  0  0  0
  1 18  1  0  0  0  0
  1 19  1  0  0  0  0
  1 20  1  0  0  0  0
  2 17  1  0  0  0  0
  2  3  2  0  0  0  0
  3  4  1  0  0  0  0
  4  5  2  0  0  0  0
  5  6  1  0  0  0  0
  5 17  1  0  0  0  0
  6  7  1  0  0  0  0
  6 21  1  0  0  0  0
  7  8  2  0  0  0  0
  7  9  1  0  0  0  0
  9 10  1  0  0  0  0
  9 22  1  0  0  0  0
 10 11  1  0  0  0  0
 10 12  1  0  0  0  0
 10 23  1  0  0  0  0
 11 24  1  0  0  0  0
 11 25  1  0  0  0  0
 11 26  1  0  0  0  0
 12 16  1  0  0  0  0
 12 13  1  0  0  0  0
 12 27  1  0  0  0  0
 13 14  1  0  0  0  0
 13 28  1  0  0  0  0
 13 29  1  0  0  0  0
 14 15  1  0  0  0  0
 14 30  1  0  0  0  0
 14 31  1  0  0  0  0
 15 16  1  0  0  0  0
 15 32  1  0  0  0  0
 15 33  1  0  0  0  0
M  END
> <s_m_source_file>
AV-unprocessed.smi

> <i_m_source_file_index>
1768

> <i_lp_mmshare_version>
43012

> <i_f3d_flags>
0

> <s_epik_input>
W0NIM11jMW5uYyhzMSlbTkhdQyg9TylbTkhdW0NASF0oW0NIM10pW0NAQEhdMltDSDJdW0NIMl1bQ0gyXU8y

> <s_epik_cmdline>
J2VwaWtfcHl0aG9uJywgJy1waCcsICc3LjAnLCAnLXRuJywgJzgnLCAnLW1hJywgJzIwMCcsICctbWV0YWxfYmluZGluZycsICctaW1hZScsICc8aW5maWxlLm1hZT4nLCAnLW9tYWUnLCAnPG91dGZpbGUubWFlPic=

> <r_lp_tautomer_probability>
1

> <r_epik_Ionization_Penalty>
0.000523083

> <r_epik_Ionization_Penalty_Charging>
0

> <r_epik_Ionization_Penalty_Neutral>
0.000523083

> <r_epik_State_Penalty>
-0

> <r_epik_Charging_Adjusted_Penalty>
0

> <i_epik_Tot_Q>
0

> <i_epik_Tot_abs_Q>
0

> <r_epik_Metal_State_Penalty>
0.223408

> <b_epik_Metal_Only>
0

> <s_lp_Force_Field>
OPLS_2005

> <r_lp_Energy>
16.97

> <b_lp_Chiralities_Consistent>
1

> <s_lp_Variant>
AV-unprocessed.smi:1768-2

> <Gold.Version>
5.8.1

> <Gold.Id.Protein>
6NUR|6NUR_protein|mol2

> <Gold.PLP.Fitness>
42.7227

> <Gold.PLP.PLP>
-38.6864

> <Gold.PLP.part.hbond>
-2.0000

> <Gold.PLP.part.metal>
0.0000

> <Gold.PLP.part.buried>
-4.3475

> <Gold.PLP.part.nonpolar>
-33.1174

> <Gold.PLP.part.repulsive>
0.3446

> <Gold.PLP.ligand.clash>
0.0000

> <Gold.PLP.ligand.torsion>
0.7283

> <Gold.PLP.Chemscore.Hbond>
1.8268

> <Gold.PLP.Chemscore.CHOScore>
0.0000

> <Gold.PLP.Chemscore.Metal>
0.0000

> <Gold.Chemscore.Hbonds>
donor molecule, donor type, donor heavy atom, donor atom, acceptor molecule, acceptor atom, score
      L1  H     6    21       P1  8028  1.00
      L1  H     9    22       P1  8028  0.81

> <Gold.PLP.Chemscore.Internal.Correction>
0.0124

> <Gold.Rescore>
     Score         DG    S(hbond)    S(metal)    S(lipo)     H(rot)  DE(clash)    DE(int)     intcor
     14.10     -19.20       1.96        0.00      89.55       1.29       0.14       4.97       ----

> <Gold.Chemscore.Fitness>
14.1015

> <Gold.Chemscore.DG>
-19.2041

> <Gold.Chemscore.ZeroCoef>
-5.4800

> <Gold.Chemscore.Hbond>
1.9623

> <Gold.Chemscore.Metal>
0.0000

> <Gold.Chemscore.Lipo>
89.5492

> <Gold.Chemscore.Internal_Hbond>
0.0000

> <Gold.Chemscore.DEClash>
0.1351

> <Gold.Chemscore.DEInternal>
4.9675

> <Gold.Chemscore.Rot>
1.2919

> <Gold.Chemscore.Internal.Correction>
   9.000000E+99

> <Gold.Chemscore.Hbonds>
donor molecule, donor type, donor heavy atom, donor atom, acceptor molecule, acceptor atom, score
      L1  H     6    21       P1  8028  0.93
      L1  H     9    22       P1  8028  0.69

> <Gold.Chemscore.Hbond.Weighted>
-6.5540

> <Gold.Chemscore.Metal.Weighted>
-0.0000

> <Gold.Chemscore.Lipo.Weighted>
-10.4773

> <Gold.Chemscore.Internal_Hbond.Weighted>
0.0000

> <Gold.Chemscore.DEClash.Weighted>
0.1351

> <Gold.Chemscore.DEInternal.Weighted>
4.9675

> <Gold.Chemscore.Rot.Weighted>
3.3072

> <Gold.Chemscore.Internal.Correction.Weighted>
   9.000000E+99

> <Gold.Protein.RotatedTorsions>
[ 6907 6896 6895 6894 ] final  -56.45 input  -60.11 | X-H torsion
[ 7974 7965 7964 7962 ] final  -32.92 input  175.53 | X-H torsion
[ 8008 7997 7996 7995 ] final   10.74 input   59.86 | X-H torsion
[ 10167 10162 10161 10158 ] final  125.09 input  -65.29 | X-H torsion
[ 10718 10713 10712 10709 ] final  -60.14 input   66.30 | X-H torsion
[ 10763 10752 10751 10750 ] final  160.63 input  -60.55 | X-H torsion
[ 11005 11000 10999 10996 ] final  145.79 input  -57.11 | X-H torsion

> <Gold.Protein.ActiveResidues>
 VAL166  LYS551  ARG553  GLY616  TRP617  ASP618  TYR619  PRO620  LYS621  CYS622 
 ASP623  PHE694  ASN695  SER759  ASP760  ASP761  ALA762  ILE779  LEU786  VAL792 
 PHE793  MET794  SER795  GLU796  ALA797  LYS798  CYS799  TRP800  GLU811  SER814 

> <Gold.Protein.RotatedAtoms>
  150.8166  134.7352  159.6735 H   0  0  0  0  0  0  0  0  0  0  0  0  # atno 6907 bound_to 6896
  152.4285  134.5820  159.9960 H   0  0  0  0  0  0  0  0  0  0  0  0  # atno 6908 bound_to 6896
  151.6015  133.3318  159.3084 H   0  0  0  0  0  0  0  0  0  0  0  0  # atno 6909 bound_to 6896
  146.0952  140.5852  142.8846 H   0  0  0  0  0  0  0  0  0  0  0  0  # atno 7974 bound_to 7965
  154.7974  140.2846  155.5946 H   0  0  0  0  0  0  0  0  0  0  0  0  # atno 8008 bound_to 7997
  156.2973  140.2593  156.2764 H   0  0  0  0  0  0  0  0  0  0  0  0  # atno 8009 bound_to 7997
  154.9598  140.0378  157.2174 H   0  0  0  0  0  0  0  0  0  0  0  0  # atno 8010 bound_to 7997
  139.5705  144.6936  151.3793 H   0  0  0  0  0  0  0  0  0  0  0  0  # atno 10167 bound_to 10162
  156.1011  130.4186  150.0813 H   0  0  0  0  0  0  0  0  0  0  0  0  # atno 10718 bound_to 10713
  154.2504  135.2771  155.2819 H   0  0  0  0  0  0  0  0  0  0  0  0  # atno 10763 bound_to 10752
  154.5470  135.5686  153.6892 H   0  0  0  0  0  0  0  0  0  0  0  0  # atno 10764 bound_to 10752
  152.9982  135.6265  154.2651 H   0  0  0  0  0  0  0  0  0  0  0  0  # atno 10765 bound_to 10752
  140.0741  134.9135  157.1393 H   0  0  0  0  0  0  0  0  0  0  0  0  # atno 11005 bound_to 11000
  144.7390  140.4889  143.6883 LP  0  0  0  0  0  0  0  0  0  0  0  0  # atno 17320 bound_to 7965
  145.5962  139.1500  143.3154 LP  0  0  0  0  0  0  0  0  0  0  0  0  # atno 17321 bound_to 7965
  140.6989  143.7681  150.7371 LP  0  0  0  0  0  0  0  0  0  0  0  0  # atno 17342 bound_to 10162
  140.1185  143.4633  152.2327 LP  0  0  0  0  0  0  0  0  0  0  0  0  # atno 17343 bound_to 10162
  156.8800  130.9553  151.3600 LP  0  0  0  0  0  0  0  0  0  0  0  0  # atno 17370 bound_to 10713
  157.6181  130.8634  149.9063 LP  0  0  0  0  0  0  0  0  0  0  0  0  # atno 17371 bound_to 10713
  140.3584  134.2521  155.7190 LP  0  0  0  0  0  0  0  0  0  0  0  0  # atno 17394 bound_to 11000
  141.2023  133.7941  157.0399 LP  0  0  0  0  0  0  0  0  0  0  0  0  # atno 17395 bound_to 11000

$$$$
