AV-unprocessed.smi:2826|AV-procd|sdf|10895|dock1
  -GOLD-   2272015343D 1   1.00000     0.00000
 Structure written by MMmdl.
 50 51  0  0  0  0  0  0  0  0  1 V2000
  146.4485  129.2061  152.3739 C   0  0  0  0  0  0  0  0  0  0  0  0
  147.6310  129.4160  153.1377 O   0  0  0  0  0  0  0  0  0  0  0  0
  148.0264  130.7139  153.3888 C   0  0  0  0  0  0  0  0  0  0  0  0
  149.2115  130.9288  154.1178 C   0  0  0  0  0  0  0  0  0  0  0  0
  149.6175  132.2502  154.3811 C   0  0  0  0  0  0  0  0  0  0  0  0
  148.8197  133.3226  153.9146 C   0  0  0  0  0  0  0  0  0  0  0  0
  149.1587  134.6898  154.1160 N   0  0  0  0  0  0  0  0  0  0  0  0
  149.7241  135.2566  155.1954 C   0  0  0  0  0  0  0  0  0  0  0  0
  150.0512  134.6622  156.2224 O   0  0  0  0  0  0  0  0  0  0  0  0
  149.8704  136.5784  155.0271 N   0  0  0  0  0  0  0  0  0  0  0  0
  150.4257  137.5011  156.0164 C   0  0  1  0  0  0  0  0  0  0  0  0
  151.9241  137.7256  155.7602 C   0  0  0  0  0  0  0  0  0  0  0  0
  152.1557  138.6143  154.5261 C   0  0  0  0  0  0  0  0  0  0  0  0
  151.4499  139.8418  154.6708 O   0  0  0  0  0  0  0  0  0  0  0  0
  150.0358  139.6762  154.7430 C   0  0  2  0  0  0  0  0  0  0  0  0
  149.3781  141.0685  154.7722 C   0  0  0  0  0  0  0  0  0  0  0  0
  147.8339  141.0561  154.7961 C   0  0  0  0  0  0  0  0  0  0  0  0
  147.2847  140.1383  153.6931 C   0  0  0  0  0  0  0  0  0  0  0  0
  147.2275  142.4641  154.6700 C   0  0  0  0  0  0  0  0  0  0  0  0
  149.6936  138.8563  156.0040 C   0  0  0  0  0  0  0  0  0  0  0  0
  147.6554  133.0024  153.1753 C   0  0  0  0  0  0  0  0  0  0  0  0
  146.7497  134.0855  152.6159 C   0  0  0  0  0  0  0  0  0  0  0  0
  147.2648  131.7337  152.9226 N   0  0  0  0  0  0  0  0  0  0  0  0
  146.2702  128.1356  152.2727 H   0  0  0  0  0  0  0  0  0  0  0  0
  146.5437  129.6218  151.3699 H   0  0  0  0  0  0  0  0  0  0  0  0
  145.5754  129.6420  152.8615 H   0  0  0  0  0  0  0  0  0  0  0  0
  149.8019  130.0942  154.4661 H   0  0  0  0  0  0  0  0  0  0  0  0
  150.5370  132.4147  154.9212 H   0  0  0  0  0  0  0  0  0  0  0  0
  148.8641  135.3213  153.3856 H   0  0  0  0  0  0  0  0  0  0  0  0
  149.5690  136.9809  154.1518 H   0  0  0  0  0  0  0  0  0  0  0  0
  150.3143  137.0463  157.0025 H   0  0  0  0  0  0  0  0  0  0  0  0
  152.3654  138.2126  156.6308 H   0  0  0  0  0  0  0  0  0  0  0  0
  152.4429  136.7730  155.6469 H   0  0  0  0  0  0  0  0  0  0  0  0
  153.2182  138.8321  154.4181 H   0  0  0  0  0  0  0  0  0  0  0  0
  151.8426  138.1078  153.6118 H   0  0  0  0  0  0  0  0  0  0  0  0
  149.6891  139.1329  153.8635 H   0  0  0  0  0  0  0  0  0  0  0  0
  149.7442  141.6223  155.6379 H   0  0  0  0  0  0  0  0  0  0  0  0
  149.7155  141.6258  153.8971 H   0  0  0  0  0  0  0  0  0  0  0  0
  147.5097  140.6375  155.7496 H   0  0  0  0  0  0  0  0  0  0  0  0
  147.5677  140.4958  152.7025 H   0  0  0  0  0  0  0  0  0  0  0  0
  146.1961  140.0859  153.7295 H   0  0  0  0  0  0  0  0  0  0  0  0
  147.6637  139.1215  153.8009 H   0  0  0  0  0  0  0  0  0  0  0  0
  147.5618  142.9598  153.7581 H   0  0  0  0  0  0  0  0  0  0  0  0
  147.4974  143.0975  155.5144 H   0  0  0  0  0  0  0  0  0  0  0  0
  146.1384  142.4191  154.6424 H   0  0  0  0  0  0  0  0  0  0  0  0
  148.6153  138.7117  156.0826 H   0  0  0  0  0  0  0  0  0  0  0  0
  149.9872  139.4230  156.8885 H   0  0  0  0  0  0  0  0  0  0  0  0
  146.3658  134.7129  153.4208 H   0  0  0  0  0  0  0  0  0  0  0  0
  145.8972  133.6614  152.0838 H   0  0  0  0  0  0  0  0  0  0  0  0
  147.3004  134.7168  151.9183 H   0  0  0  0  0  0  0  0  0  0  0  0
  1  2  1  0  0  0  0
  1 24  1  0  0  0  0
  1 25  1  0  0  0  0
  1 26  1  0  0  0  0
  2  3  1  0  0  0  0
  3 23  1  0  0  0  0
  3  4  2  0  0  0  0
  4  5  1  0  0  0  0
  4 27  1  0  0  0  0
  5  6  2  0  0  0  0
  5 28  1  0  0  0  0
  6  7  1  0  0  0  0
  6 21  1  0  0  0  0
  7  8  1  0  0  0  0
  7 29  1  0  0  0  0
  8  9  2  0  0  0  0
  8 10  1  0  0  0  0
 10 11  1  0  0  0  0
 10 30  1  0  0  0  0
 11 20  1  0  0  0  0
 11 12  1  0  0  0  0
 11 31  1  0  0  0  0
 12 13  1  0  0  0  0
 12 32  1  0  0  0  0
 12 33  1  0  0  0  0
 13 14  1  0  0  0  0
 13 34  1  0  0  0  0
 13 35  1  0  0  0  0
 14 15  1  0  0  0  0
 15 16  1  0  0  0  0
 15 20  1  0  0  0  0
 15 36  1  0  0  0  0
 16 17  1  0  0  0  0
 16 37  1  0  0  0  0
 16 38  1  0  0  0  0
 17 18  1  0  0  0  0
 17 19  1  0  0  0  0
 17 39  1  0  0  0  0
 18 40  1  0  0  0  0
 18 41  1  0  0  0  0
 18 42  1  0  0  0  0
 19 43  1  0  0  0  0
 19 44  1  0  0  0  0
 19 45  1  0  0  0  0
 20 46  1  0  0  0  0
 20 47  1  0  0  0  0
 21 22  1  0  0  0  0
 21 23  2  0  0  0  0
 22 48  1  0  0  0  0
 22 49  1  0  0  0  0
 22 50  1  0  0  0  0
M  END
> <s_m_source_file>
AV-unprocessed.smi

> <i_m_source_file_index>
2826

> <i_lp_mmshare_version>
43012

> <i_f3d_flags>
0

> <s_epik_input>
W0NIM11PYzFbY0hdW2NIXWMoYyhuMSlbQ0gzXSlbTkhdQyg9TylbTkhdW0NAQEhdMltDSDJdW0NIMl1PW0NASF0oW0NIMl0yKVtDSDJdW0NIXShbQ0gzXSlbQ0gzXQ==

> <s_epik_cmdline>
J2VwaWtfcHl0aG9uJywgJy1waCcsICc3LjAnLCAnLXRuJywgJzgnLCAnLW1hJywgJzIwMCcsICctbWV0YWxfYmluZGluZycsICctaW1hZScsICc8aW5maWxlLm1hZT4nLCAnLW9tYWUnLCAnPG91dGZpbGUubWFlPic=

> <r_lp_tautomer_probability>
1

> <r_epik_Ionization_Penalty>
0.000249977

> <r_epik_Ionization_Penalty_Charging>
0

> <r_epik_Ionization_Penalty_Neutral>
0.000249977

> <r_epik_State_Penalty>
-0

> <r_epik_Charging_Adjusted_Penalty>
0

> <i_epik_Tot_Q>
0

> <i_epik_Tot_abs_Q>
0

> <r_epik_Metal_State_Penalty>
-0

> <b_epik_Metal_Only>
0

> <s_lp_Force_Field>
OPLS_2005

> <r_lp_Energy>
13.0858

> <b_lp_Chiralities_Consistent>
1

> <s_lp_Variant>
AV-unprocessed.smi:2826-4

> <Gold.Version>
5.8.1

> <Gold.Id.Protein>
6NUR|6NUR_protein|mol2

> <Gold.PLP.Fitness>
48.9449

> <Gold.PLP.PLP>
-41.1793

> <Gold.PLP.part.hbond>
-3.0000

> <Gold.PLP.part.metal>
0.0000

> <Gold.PLP.part.buried>
-4.3358

> <Gold.PLP.part.nonpolar>
-34.0008

> <Gold.PLP.part.repulsive>
0.8011

> <Gold.PLP.ligand.clash>
0.0000

> <Gold.PLP.ligand.torsion>
0.6398

> <Gold.PLP.Chemscore.Hbond>
2.9920

> <Gold.PLP.Chemscore.CHOScore>
0.0000

> <Gold.PLP.Chemscore.Metal>
0.0000

> <Gold.Chemscore.Hbonds>
donor molecule, donor type, donor heavy atom, donor atom, acceptor molecule, acceptor atom, score
      L1  H     7    29       P1  7948  1.00
      P1  H  7989  7998       L1    14  1.00

> <Gold.PLP.Chemscore.Internal.Correction>
0.0692

> <Gold.Rescore>
     Score         DG    S(hbond)    S(metal)    S(lipo)     H(rot)  DE(clash)    DE(int)     intcor
     19.08     -20.88       2.59        0.00      90.58       1.51       0.22       1.57       ----

> <Gold.Chemscore.Fitness>
19.0812

> <Gold.Chemscore.DG>
-20.8778

> <Gold.Chemscore.ZeroCoef>
-5.4800

> <Gold.Chemscore.Hbond>
2.5914

> <Gold.Chemscore.Metal>
0.0000

> <Gold.Chemscore.Lipo>
90.5750

> <Gold.Chemscore.Internal_Hbond>
0.0000

> <Gold.Chemscore.DEClash>
0.2239

> <Gold.Chemscore.DEInternal>
1.5727

> <Gold.Chemscore.Rot>
1.5057

> <Gold.Chemscore.Internal.Correction>
   9.000000E+99

> <Gold.Chemscore.Hbonds>
donor molecule, donor type, donor heavy atom, donor atom, acceptor molecule, acceptor atom, score
      L1  H     7    29       P1  7948  0.69
      L1  H    10    30       P1  7948  0.03
      P1  H  7989  7998       L1    14  0.39

> <Gold.Chemscore.Hbond.Weighted>
-8.6552

> <Gold.Chemscore.Metal.Weighted>
-0.0000

> <Gold.Chemscore.Lipo.Weighted>
-10.5973

> <Gold.Chemscore.Internal_Hbond.Weighted>
0.0000

> <Gold.Chemscore.DEClash.Weighted>
0.2239

> <Gold.Chemscore.DEInternal.Weighted>
1.5727

> <Gold.Chemscore.Rot.Weighted>
3.8547

> <Gold.Chemscore.Internal.Correction.Weighted>
   9.000000E+99

> <Gold.Protein.RotatedTorsions>
[ 6907 6896 6895 6894 ] final  -31.78 input  -60.11 | X-H torsion
[ 7974 7965 7964 7962 ] final  -72.71 input  175.53 | X-H torsion
[ 8008 7997 7996 7995 ] final  -13.16 input   59.86 | X-H torsion
[ 10167 10162 10161 10158 ] final -144.29 input  -65.29 | X-H torsion
[ 10718 10713 10712 10709 ] final   -7.88 input   66.30 | X-H torsion
[ 10763 10752 10751 10750 ] final   34.76 input  -60.55 | X-H torsion
[ 11005 11000 10999 10996 ] final -128.76 input  -57.11 | X-H torsion

> <Gold.Protein.ActiveResidues>
 VAL166  LYS551  ARG553  GLY616  TRP617  ASP618  TYR619  PRO620  LYS621  CYS622 
 ASP623  PHE694  ASN695  SER759  ASP760  ASP761  ALA762  ILE779  LEU786  VAL792 
 PHE793  MET794  SER795  GLU796  ALA797  LYS798  CYS799  TRP800  GLU811  SER814 

> <Gold.Protein.RotatedAtoms>
  151.0874  134.9895  159.8385 H   0  0  0  0  0  0  0  0  0  0  0  0  # atno 6907 bound_to 6896
  152.5426  134.2107  159.8759 H   0  0  0  0  0  0  0  0  0  0  0  0  # atno 6908 bound_to 6896
  151.2141  133.4495  159.2632 H   0  0  0  0  0  0  0  0  0  0  0  0  # atno 6909 bound_to 6896
  145.6616  140.9251  143.0931 H   0  0  0  0  0  0  0  0  0  0  0  0  # atno 7974 bound_to 7965
  154.5316  140.2257  155.8795 H   0  0  0  0  0  0  0  0  0  0  0  0  # atno 8008 bound_to 7997
  156.1769  140.3109  155.9040 H   0  0  0  0  0  0  0  0  0  0  0  0  # atno 8009 bound_to 7997
  155.3440  140.0452  157.3036 H   0  0  0  0  0  0  0  0  0  0  0  0  # atno 8010 bound_to 7997
  139.7913  143.7963  152.2650 H   0  0  0  0  0  0  0  0  0  0  0  0  # atno 10167 bound_to 10162
  156.7107  130.5121  149.5893 H   0  0  0  0  0  0  0  0  0  0  0  0  # atno 10718 bound_to 10713
  153.0149  135.6352  154.1719 H   0  0  0  0  0  0  0  0  0  0  0  0  # atno 10763 bound_to 10752
  154.1459  135.2832  155.3150 H   0  0  0  0  0  0  0  0  0  0  0  0  # atno 10764 bound_to 10752
  154.6090  135.5562  153.7514 H   0  0  0  0  0  0  0  0  0  0  0  0  # atno 10765 bound_to 10752
  140.9489  134.1092  157.4081 H   0  0  0  0  0  0  0  0  0  0  0  0  # atno 11005 bound_to 11000
  144.7087  139.8456  143.7421 LP  0  0  0  0  0  0  0  0  0  0  0  0  # atno 17320 bound_to 7965
  146.1121  139.4127  143.0281 LP  0  0  0  0  0  0  0  0  0  0  0  0  # atno 17321 bound_to 7965
  139.8055  144.7357  150.9768 LP  0  0  0  0  0  0  0  0  0  0  0  0  # atno 17342 bound_to 10162
  140.7820  143.4303  151.0705 LP  0  0  0  0  0  0  0  0  0  0  0  0  # atno 17343 bound_to 10162
  156.1663  130.6407  151.0782 LP  0  0  0  0  0  0  0  0  0  0  0  0  # atno 17370 bound_to 10713
  157.6937  131.0801  150.7032 LP  0  0  0  0  0  0  0  0  0  0  0  0  # atno 17371 bound_to 10713
  139.8841  135.0060  156.6349 LP  0  0  0  0  0  0  0  0  0  0  0  0  # atno 17394 bound_to 11000
  140.7630  133.8801  155.8433 LP  0  0  0  0  0  0  0  0  0  0  0  0  # atno 17395 bound_to 11000

$$$$
