#       Name:                AV-unprocessed.smi:767
#       Creating user name   scv26
#       Creation time:       Fri Mar 27 01:06:51 2020


#       File generated by GOLD software.
#

@<TRIPOS>MOLECULE
AV-unprocessed.smi:767
    52    54     1
SMALL
NO_CHARGES


@<TRIPOS>ATOM
      1 ****        -8.1477   1.4024   0.9457 C.3            1 S1                 0.0000
      2 ****        -6.6384   1.3891   0.8230 C.ar           1 S1                 0.0000
      3 ****        -6.0149   1.3592  -0.4424 C.ar           1 S1                 0.0000
      4 ****        -4.6080   1.3447  -0.4968 C.ar           1 S1                 0.0000
      5 ****        -3.8813   1.3607   0.7112 C.ar           1 S1                 0.0000
      6 ****        -2.3659   1.3335   0.7065 C.3            1 S1                 0.0000
      7 ****        -1.8187  -0.0999   0.7957 C.3            1 S1                 0.0000
      8 ****        -0.3612  -0.1194   0.8089 N.am           1 S1                 0.0000
      9 ****         0.4146  -0.0311  -0.2801 C.2            1 S1                 0.0000
     10 ****        -0.0162   0.0913  -1.4269 O.2            1 S1                 0.0000
     11 ****         1.7162  -0.1024   0.0277 N.am           1 S1                 0.0000
     12 ****         2.8028  -0.0546  -0.9561 C.3            1 S1                 0.0000
     13 ****         4.1788   0.1292  -0.3107 C.3            1 S1                 0.0000
     14 ****         4.6840   0.5857   1.0100 C.3            1 S1                 0.0000
     15 ****         5.7985  -0.4838   1.1708 C.3            1 S1                 0.0000
     16 ****         5.5781  -1.4526   0.1132 O.3            1 S1                 0.0000
     17 ****         4.1885  -1.3750  -0.1350 C.3            1 S1                 0.0000
     18 ****         3.3524  -1.4583  -1.4318 C.3            1 S1                 0.0000
     19 ****         2.3520  -2.6181  -1.4944 C.3            1 S1                 0.0000
     20 ****         4.1209  -1.4966  -2.7649 C.3            1 S1                 0.0000
     21 ****        -4.6012   1.3916   1.9240 C.ar           1 S1                 0.0000
     22 ****        -5.9501   1.4056   1.9858 N.ar           1 S1                 0.0000
     23 ****        -8.6243   1.4087  -0.0350 H              1 S1                 0.0000
     24 ****        -8.4764   2.2888   1.4891 H              1 S1                 0.0000
     25 ****        -8.4917   0.5198   1.4855 H              1 S1                 0.0000
     26 ****        -6.5977   1.3459  -1.3516 H              1 S1                 0.0000
     27 ****        -4.0984   1.3186  -1.4489 H              1 S1                 0.0000
     28 ****        -2.0068   1.8214  -0.2009 H              1 S1                 0.0000
     29 ****        -1.9974   1.9291   1.5428 H              1 S1                 0.0000
     30 ****        -2.1709  -0.5767   1.7109 H              1 S1                 0.0000
     31 ****        -2.1931  -0.7043  -0.0325 H              1 S1                 0.0000
     32 ****         0.0860  -0.2177   1.7085 H              1 S1                 0.0000
     33 ****         1.9774  -0.2025   0.9975 H              1 S1                 0.0000
     34 ****         2.6262   0.6423  -1.7773 H              1 S1                 0.0000
     35 ****         4.8740   0.4689  -1.0824 H              1 S1                 0.0000
     36 ****         5.0773   1.6022   0.9865 H              1 S1                 0.0000
     37 ****         3.9272   0.5100   1.7918 H              1 S1                 0.0000
     38 ****         6.7947  -0.0528   1.0684 H              1 S1                 0.0000
     39 ****         5.7367  -0.9656   2.1475 H              1 S1                 0.0000
     40 ****         3.6274  -1.7259   0.7372 H              1 S1                 0.0000
     41 ****         2.8435  -3.5601  -1.7397 H              1 S1                 0.0000
     42 ****         1.5838  -2.4405  -2.2475 H              1 S1                 0.0000
     43 ****         1.8419  -2.7706  -0.5433 H              1 S1                 0.0000
     44 ****         4.6977  -2.4168  -2.8618 H              1 S1                 0.0000
     45 ****         4.8227  -0.6735  -2.8868 H              1 S1                 0.0000
     46 ****         3.4385  -1.4498  -3.6143 H              1 S1                 0.0000
     47 ****        -4.0817   1.4009   2.8708 H              1 S1                 0.0000
     48 ****        -1.0022   0.1304  -1.5891 LP             1 S1                 0.0000
     49 ****         0.6199   0.1516  -2.1961 LP             1 S1                 0.0000
     50 ****         5.8352  -2.3713   0.4131 LP             1 S1                 0.0000
     51 ****         6.0997  -1.2109  -0.7050 LP             1 S1                 0.0000
     52 ****        -6.4253   1.4275   2.8655 LP             1 S1                 0.0000
@<TRIPOS>BOND
    1    1    2 1     
    2    1   23 1     
    3    1   24 1     
    4    1   25 1     
    5    2   22 ar    
    6    2    3 ar    
    7    3    4 ar    
    8    3   26 1     
    9    4    5 ar    
   10    4   27 1     
   11    5    6 1     
   12    5   21 ar    
   13    6    7 1     
   14    6   28 1     
   15    6   29 1     
   16    7    8 1     
   17    7   30 1     
   18    7   31 1     
   19    8    9 am    
   20    8   32 1     
   21    9   10 2     
   22    9   11 am    
   23   11   12 1     
   24   11   33 1     
   25   12   18 1     
   26   12   13 1     
   27   12   34 1     
   28   13   17 1     
   29   13   14 1     
   30   13   35 1     
   31   14   15 1     
   32   14   36 1     
   33   14   37 1     
   34   15   16 1     
   35   15   38 1     
   36   15   39 1     
   37   16   17 1     
   38   17   18 1     
   39   17   40 1     
   40   18   19 1     
   41   18   20 1     
   42   19   41 1     
   43   19   42 1     
   44   19   43 1     
   45   20   44 1     
   46   20   45 1     
   47   20   46 1     
   48   21   22 ar    
   49   21   47 1     
   50   10   48 1     
   51   10   49 1     
   52   16   50 1     
   53   16   51 1     
   54   22   52 1     
@<TRIPOS>SUBSTRUCTURE
      1 S1             1
@<TRIPOS>SET
LONE_PAIRS      STATIC     ATOMS    <user>   **** ""
5 48 49 50 51 52
DONOR_HYDROGENS      STATIC     ATOMS    <user>   **** ""
2 32 33
ATOM$BLUE        STATIC     ATOMS    COLORGROUP SYSTEM
5 48 49 50 51 52
ATOM$RED        STATIC     ATOMS    COLORGROUP SYSTEM
2 32 33
