AV-unprocessed.smi:276|AV-procd|sdf|2085|dock2
  -GOLD-   2262021363D 1   1.00000     0.00000
 Structure written by MMmdl.
 57 61  0  0  0  0  0  0  0  0  1 V2000
  153.1947  140.8143  158.9268 C   0  0  0  0  0  0  0  0  0  0  0  0
  152.8731  140.4721  157.5905 O   0  0  0  0  0  0  0  0  0  0  0  0
  151.4745  140.3688  157.3747 C   0  0  1  0  0  0  0  0  0  0  0  0
  150.7660  141.7084  157.1403 C   0  0  0  0  0  0  0  0  0  0  0  0
  149.9422  141.0310  156.0274 C   0  0  2  0  0  0  0  0  0  0  0  0
  148.6628  140.5185  156.5381 N   0  0  0  0  0  0  0  0  0  0  0  0
  147.8952  141.4295  157.3818 C   0  0  0  0  0  0  0  0  0  0  0  0
  147.8496  139.9353  155.6290 C   0  0  0  0  0  0  0  0  0  0  0  0
  148.3713  139.7041  154.3984 N   0  0  0  0  0  0  0  0  0  0  0  0
  147.6200  139.1388  153.4487 C   0  0  0  0  0  0  0  0  0  0  0  0
  146.3511  138.7311  153.5197 N   0  0  0  0  0  0  0  0  0  0  0  0
  145.8298  138.9486  154.7609 C   0  0  0  0  0  0  0  0  0  0  0  0
  146.5032  139.5353  155.8691 C   0  0  0  0  0  0  0  0  0  0  0  0
  145.6511  139.5826  156.9666 N   0  0  0  0  0  0  0  0  0  0  0  0
  144.5366  139.0628  156.5295 C   0  0  0  0  0  0  0  0  0  0  0  0
  144.5570  138.6560  155.2153 N   0  0  0  0  0  0  0  0  0  0  0  0
  143.4689  138.0472  154.4719 C   0  0  0  0  0  0  0  0  0  0  0  0
  142.1078  138.6948  154.7904 C   0  0  1  0  0  0  0  0  0  0  0  0
  142.1955  140.1048  154.7068 O   0  0  0  0  0  0  0  0  0  0  0  0
  140.9724  138.1677  153.8902 C   0  0  1  0  0  0  0  0  0  0  0  0
  140.4414  136.7678  154.2086 C   0  0  0  0  0  0  0  0  0  0  0  0
  139.0690  136.8251  153.5762 C   0  0  0  0  0  0  0  0  0  0  0  0
  138.6416  138.2588  153.8829 C   0  0  0  0  0  0  0  0  0  0  0  0
  139.8389  139.0322  153.8987 O   0  0  0  0  0  0  0  0  0  0  0  0
  151.0921  139.9918  155.9320 C   0  0  0  0  0  0  0  0  0  0  0  0
  152.1328  140.1189  154.8043 C   0  0  0  0  0  0  0  0  0  0  0  0
  152.3457  138.6061  154.9053 C   0  0  0  0  0  0  0  0  0  0  0  0
  150.9428  138.5171  155.5111 C   0  0  0  0  0  0  0  0  0  0  0  0
  154.2773  140.8749  159.0382 H   0  0  0  0  0  0  0  0  0  0  0  0
  152.8257  140.0620  159.6248 H   0  0  0  0  0  0  0  0  0  0  0  0
  152.7745  141.7827  159.2011 H   0  0  0  0  0  0  0  0  0  0  0  0
  150.9640  139.7400  158.1074 H   0  0  0  0  0  0  0  0  0  0  0  0
  150.2128  142.0783  158.0030 H   0  0  0  0  0  0  0  0  0  0  0  0
  151.4382  142.4740  156.7493 H   0  0  0  0  0  0  0  0  0  0  0  0
  149.8494  141.6648  155.1456 H   0  0  0  0  0  0  0  0  0  0  0  0
  146.8374  141.1639  157.4284 H   0  0  0  0  0  0  0  0  0  0  0  0
  147.9689  142.4520  157.0096 H   0  0  0  0  0  0  0  0  0  0  0  0
  148.2772  141.4100  158.4020 H   0  0  0  0  0  0  0  0  0  0  0  0
  148.1047  138.9937  152.4946 H   0  0  0  0  0  0  0  0  0  0  0  0
  143.6646  138.9575  157.1585 H   0  0  0  0  0  0  0  0  0  0  0  0
  143.6913  138.1196  153.4063 H   0  0  0  0  0  0  0  0  0  0  0  0
  143.4460  136.9839  154.7140 H   0  0  0  0  0  0  0  0  0  0  0  0
  141.8476  138.4616  155.8237 H   0  0  0  0  0  0  0  0  0  0  0  0
  142.3387  140.3407  153.8029 H   0  0  0  0  0  0  0  0  0  0  0  0
  141.3312  138.1579  152.8594 H   0  0  0  0  0  0  0  0  0  0  0  0
  141.0675  135.9730  153.8022 H   0  0  0  0  0  0  0  0  0  0  0  0
  140.3417  136.6081  155.2826 H   0  0  0  0  0  0  0  0  0  0  0  0
  139.1471  136.6782  152.4979 H   0  0  0  0  0  0  0  0  0  0  0  0
  138.3803  136.0796  153.9745 H   0  0  0  0  0  0  0  0  0  0  0  0
  137.9269  138.6450  153.1560 H   0  0  0  0  0  0  0  0  0  0  0  0
  138.1830  138.3147  154.8709 H   0  0  0  0  0  0  0  0  0  0  0  0
  151.6864  140.4147  153.8533 H   0  0  0  0  0  0  0  0  0  0  0  0
  153.0098  140.7236  155.0361 H   0  0  0  0  0  0  0  0  0  0  0  0
  152.4661  138.0955  153.9495 H   0  0  0  0  0  0  0  0  0  0  0  0
  153.1305  138.3353  155.6137 H   0  0  0  0  0  0  0  0  0  0  0  0
  150.8433  137.8104  156.3355 H   0  0  0  0  0  0  0  0  0  0  0  0
  150.1923  138.3455  154.7400 H   0  0  0  0  0  0  0  0  0  0  0  0
  1  2  1  0  0  0  0
  1 29  1  0  0  0  0
  1 30  1  0  0  0  0
  1 31  1  0  0  0  0
  2  3  1  0  0  0  0
  3 25  1  0  0  0  0
  3  4  1  0  0  0  0
  3 32  1  0  0  0  0
  4  5  1  0  0  0  0
  4 33  1  0  0  0  0
  4 34  1  0  0  0  0
  5  6  1  0  0  0  0
  5 25  1  0  0  0  0
  5 35  1  0  0  0  0
  6  7  1  0  0  0  0
  6  8  1  0  0  0  0
  7 36  1  0  0  0  0
  7 37  1  0  0  0  0
  7 38  1  0  0  0  0
  8 13  1  0  0  0  0
  8  9  2  0  0  0  0
  9 10  1  0  0  0  0
 10 11  2  0  0  0  0
 10 39  1  0  0  0  0
 11 12  1  0  0  0  0
 12 16  1  0  0  0  0
 12 13  2  0  0  0  0
 13 14  1  0  0  0  0
 14 15  2  0  0  0  0
 15 16  1  0  0  0  0
 15 40  1  0  0  0  0
 16 17  1  0  0  0  0
 17 18  1  0  0  0  0
 17 41  1  0  0  0  0
 17 42  1  0  0  0  0
 18 19  1  0  0  0  0
 18 20  1  0  0  0  0
 18 43  1  0  0  0  0
 19 44  1  0  0  0  0
 20 24  1  0  0  0  0
 20 21  1  0  0  0  0
 20 45  1  0  0  0  0
 21 22  1  0  0  0  0
 21 46  1  0  0  0  0
 21 47  1  0  0  0  0
 22 23  1  0  0  0  0
 22 48  1  0  0  0  0
 22 49  1  0  0  0  0
 23 24  1  0  0  0  0
 23 50  1  0  0  0  0
 23 51  1  0  0  0  0
 25 28  1  0  0  0  0
 25 26  1  0  0  0  0
 26 27  1  0  0  0  0
 26 52  1  0  0  0  0
 26 53  1  0  0  0  0
 27 28  1  0  0  0  0
 27 54  1  0  0  0  0
 27 55  1  0  0  0  0
 28 56  1  0  0  0  0
 28 57  1  0  0  0  0
M  END
> <s_m_source_file>
AV-unprocessed.smi

> <i_m_source_file_index>
276

> <i_lp_mmshare_version>
43012

> <i_f3d_flags>
0

> <s_epik_input>
W0NIMl0xW0NIMl1bQ0gyXUMxMltDQEhdKE9bQ0gzXSlbQ0gyXVtDQEhdMk4oW0NIM10pYyhuW2NIXW4zKWMoYzM0KW5bY0hdbjRbQ0gyXVtDQEhdKFtPSF0pW0NAQEhdNVtDSDJdW0NIMl1bQ0gyXU81

> <s_epik_cmdline>
J2VwaWtfcHl0aG9uJywgJy1waCcsICc3LjAnLCAnLXRuJywgJzgnLCAnLW1hJywgJzIwMCcsICctbWV0YWxfYmluZGluZycsICctaW1hZScsICc8aW5maWxlLm1hZT4nLCAnLW9tYWUnLCAnPG91dGZpbGUubWFlPic=

> <r_lp_tautomer_probability>
1

> <r_epik_Ionization_Penalty>
0.00204117

> <r_epik_Ionization_Penalty_Charging>
0

> <r_epik_Ionization_Penalty_Neutral>
0.00204117

> <r_epik_State_Penalty>
0.00127401

> <r_epik_Charging_Adjusted_Penalty>
0.00127401

> <i_epik_Tot_Q>
0

> <i_epik_Tot_abs_Q>
0

> <r_epik_Metal_State_Penalty>
-0

> <b_epik_Metal_Only>
0

> <s_lp_Force_Field>
OPLS_2005

> <r_lp_Energy>
58.9981

> <b_lp_Chiralities_Consistent>
1

> <s_lp_Variant>
AV-unprocessed.smi:276-16

> <Gold.Version>
5.8.1

> <Gold.Id.Protein>
6NUR|6NUR_protein|mol2

> <Gold.PLP.Fitness>
39.3294

> <Gold.PLP.PLP>
-30.0098

> <Gold.PLP.part.hbond>
-1.8119

> <Gold.PLP.part.metal>
0.0000

> <Gold.PLP.part.buried>
-0.5652

> <Gold.PLP.part.nonpolar>
-27.5062

> <Gold.PLP.part.repulsive>
0.4988

> <Gold.PLP.ligand.clash>
0.0000

> <Gold.PLP.ligand.torsion>
1.6113

> <Gold.PLP.Chemscore.Hbond>
1.9040

> <Gold.PLP.Chemscore.CHOScore>
1.9422

> <Gold.PLP.Chemscore.Metal>
0.0000

> <Gold.Chemscore.Hbonds>
donor molecule, donor type, donor heavy atom, donor atom, acceptor molecule, acceptor atom, score
      L1  H    19    44       P1 10175  0.90
      P1  H  7997  8009       L1     2  0.82
      L1  C    10    39       P1  7948  0.01
      L1  C    10    39       P1  7957  1.00

> <Gold.PLP.Chemscore.Internal.Correction>
1.0037

> <Gold.Rescore>
     Score         DG    S(hbond)    S(metal)    S(lipo)     H(rot)  DE(clash)    DE(int)     intcor
     10.69     -14.03       1.80        0.00      81.07       2.72       0.12       3.22       ----

> <Gold.Chemscore.Fitness>
10.6860

> <Gold.Chemscore.DG>
-14.0283

> <Gold.Chemscore.ZeroCoef>
-5.4800

> <Gold.Chemscore.Hbond>
1.8020

> <Gold.Chemscore.Metal>
0.0000

> <Gold.Chemscore.Lipo>
81.0726

> <Gold.Chemscore.Internal_Hbond>
0.0000

> <Gold.Chemscore.DEClash>
0.1190

> <Gold.Chemscore.DEInternal>
3.2233

> <Gold.Chemscore.Rot>
2.7172

> <Gold.Chemscore.Internal.Correction>
   9.000000E+99

> <Gold.Chemscore.Hbonds>
donor molecule, donor type, donor heavy atom, donor atom, acceptor molecule, acceptor atom, score
      L1  H    19    44       P1 10175  0.62
      P1  H  7997  8009       L1     2  0.57

> <Gold.Chemscore.Hbond.Weighted>
-6.0188

> <Gold.Chemscore.Metal.Weighted>
-0.0000

> <Gold.Chemscore.Lipo.Weighted>
-9.4855

> <Gold.Chemscore.Internal_Hbond.Weighted>
0.0000

> <Gold.Chemscore.DEClash.Weighted>
0.1190

> <Gold.Chemscore.DEInternal.Weighted>
3.2233

> <Gold.Chemscore.Rot.Weighted>
6.9560

> <Gold.Chemscore.Internal.Correction.Weighted>
   9.000000E+99

> <Gold.Protein.RotatedTorsions>
[ 6907 6896 6895 6894 ] final   49.20 input  -60.11 | X-H torsion
[ 7974 7965 7964 7962 ] final -146.48 input  175.53 | X-H torsion
[ 8008 7997 7996 7995 ] final  176.84 input   59.86 | X-H torsion
[ 10167 10162 10161 10158 ] final -172.66 input  -65.29 | X-H torsion
[ 10718 10713 10712 10709 ] final  -63.78 input   66.30 | X-H torsion
[ 10763 10752 10751 10750 ] final -124.41 input  -60.55 | X-H torsion
[ 11005 11000 10999 10996 ] final  -49.88 input  -57.11 | X-H torsion

> <Gold.Protein.ActiveResidues>
 VAL166  LYS551  ARG553  GLY616  TRP617  ASP618  TYR619  PRO620  LYS621  CYS622 
 ASP623  PHE694  ASN695  SER759  ASP760  ASP761  ALA762  ILE779  LEU786  VAL792 
 PHE793  MET794  SER795  GLU796  ALA797  LYS798  CYS799  TRP800  GLU811  SER814 

> <Gold.Protein.RotatedAtoms>
  152.2881  134.7752  160.0383 H   0  0  0  0  0  0  0  0  0  0  0  0  # atno 6907 bound_to 6896
  151.8308  133.3403  159.3621 H   0  0  0  0  0  0  0  0  0  0  0  0  # atno 6908 bound_to 6896
  150.7218  134.5413  159.5793 H   0  0  0  0  0  0  0  0  0  0  0  0  # atno 6909 bound_to 6896
  144.8157  140.5451  143.5612 H   0  0  0  0  0  0  0  0  0  0  0  0  # atno 7974 bound_to 7965
  156.0721  140.1373  156.9816 H   0  0  0  0  0  0  0  0  0  0  0  0  # atno 8008 bound_to 7997
  154.4537  140.0969  156.6747 H   0  0  0  0  0  0  0  0  0  0  0  0  # atno 8009 bound_to 7997
  155.5211  140.3456  155.4409 H   0  0  0  0  0  0  0  0  0  0  0  0  # atno 8010 bound_to 7997
  139.5732  144.1593  152.1413 H   0  0  0  0  0  0  0  0  0  0  0  0  # atno 10167 bound_to 10162
  156.0770  130.4225  150.1326 H   0  0  0  0  0  0  0  0  0  0  0  0  # atno 10718 bound_to 10713
  154.8723  135.4064  154.3102 H   0  0  0  0  0  0  0  0  0  0  0  0  # atno 10763 bound_to 10752
  153.3947  135.7016  153.6475 H   0  0  0  0  0  0  0  0  0  0  0  0  # atno 10764 bound_to 10752
  153.5243  135.3681  155.2617 H   0  0  0  0  0  0  0  0  0  0  0  0  # atno 10765 bound_to 10752
  141.0785  133.6659  156.3650 H   0  0  0  0  0  0  0  0  0  0  0  0  # atno 11005 bound_to 11000
  145.5221  139.1476  143.3546 LP  0  0  0  0  0  0  0  0  0  0  0  0  # atno 17320 bound_to 7965
  146.2459  140.5362  142.8914 LP  0  0  0  0  0  0  0  0  0  0  0  0  # atno 17321 bound_to 7965
  140.1130  144.5440  150.6912 LP  0  0  0  0  0  0  0  0  0  0  0  0  # atno 17342 bound_to 10162
  140.7016  143.2438  151.4848 LP  0  0  0  0  0  0  0  0  0  0  0  0  # atno 17343 bound_to 10162
  156.9365  130.9731  151.3524 LP  0  0  0  0  0  0  0  0  0  0  0  0  # atno 17370 bound_to 10713
  157.5869  130.8416  149.8603 LP  0  0  0  0  0  0  0  0  0  0  0  0  # atno 17371 bound_to 10713
  140.5521  134.6017  157.5410 LP  0  0  0  0  0  0  0  0  0  0  0  0  # atno 17394 bound_to 11000
  139.9597  134.7473  156.0263 LP  0  0  0  0  0  0  0  0  0  0  0  0  # atno 17395 bound_to 11000

$$$$
