AV-unprocessed.smi:1565|AV-procd|sdf|6300|dock6
  -GOLD-   22720 6503D 1   1.00000     0.00000
 Structure written by MMmdl.
 39 40  0  0  0  0  0  0  0  0  2 V2000
  153.2248  142.6337  162.2111 C   0  0  0  0  0  0  0  0  0  0  0  0
  152.2895  142.7767  161.0058 C   0  0  2  0  0  0  0  0  0  0  0  0
  152.5525  141.6934  159.9449 C   0  0  0  0  0  0  0  0  0  0  0  0
  151.7345  141.9346  158.7610 N   0  0  0  0  0  0  0  0  0  0  0  0
  151.6327  140.8526  157.8606 C   0  0  0  0  0  0  0  0  0  0  0  0
  151.5971  141.0912  156.4671 C   0  0  0  0  0  0  0  0  0  0  0  0
  151.4915  139.9988  155.5850 C   0  0  0  0  0  0  0  0  0  0  0  0
  151.4342  138.6888  156.1126 C   0  0  0  0  0  0  0  0  0  0  0  0
  151.2904  137.4762  155.2327 C   0  0  0  0  0  0  0  0  0  0  0  0
  151.9431  137.4413  154.1835 O   0  0  0  0  0  0  0  0  0  0  0  0
  150.3849  136.5824  155.7219 N   0  5  0  0  0  0  0  0  0  0  0  0
  149.9221  135.3973  154.9958 C   0  0  0  0  0  0  0  0  0  0  0  0
  150.0542  134.1262  155.8590 C   0  0  0  0  0  0  0  0  0  0  0  0
  149.7650  133.0614  155.1109 F   0  0  0  0  0  0  0  0  0  0  0  0
  151.3003  133.9931  156.3160 F   0  0  0  0  0  0  0  0  0  0  0  0
  149.2097  134.1555  156.8910 F   0  0  0  0  0  0  0  0  0  0  0  0
  151.4694  138.5528  157.5171 C   0  0  0  0  0  0  0  0  0  0  0  0
  151.5720  139.5969  158.3674 N   0  0  0  0  0  0  0  0  0  0  0  0
  151.9074  143.2752  158.2065 C   0  0  0  0  0  0  0  0  0  0  0  0
  151.6949  144.3528  159.2879 C   0  0  1  0  0  0  0  0  0  0  0  0
  150.2160  144.5704  159.6547 C   0  0  0  0  0  0  0  0  0  0  0  0
  152.4994  144.0676  160.4347 O   0  0  0  0  0  0  0  0  0  0  0  0
  153.0976  141.6645  162.6939 H   0  0  0  0  0  0  0  0  0  0  0  0
  153.0217  143.4043  162.9551 H   0  0  0  0  0  0  0  0  0  0  0  0
  154.2697  142.7255  161.9132 H   0  0  0  0  0  0  0  0  0  0  0  0
  151.2633  142.6950  161.3645 H   0  0  0  0  0  0  0  0  0  0  0  0
  153.6026  141.7030  159.6499 H   0  0  0  0  0  0  0  0  0  0  0  0
  152.3565  140.7138  160.3787 H   0  0  0  0  0  0  0  0  0  0  0  0
  151.6600  142.0916  156.0654 H   0  0  0  0  0  0  0  0  0  0  0  0
  151.4544  140.1765  154.5200 H   0  0  0  0  0  0  0  0  0  0  0  0
  148.8882  135.4964  154.6605 H   0  0  0  0  0  0  0  0  0  0  0  0
  150.5022  135.2593  154.0827 H   0  0  0  0  0  0  0  0  0  0  0  0
  151.4195  137.5784  157.9809 H   0  0  0  0  0  0  0  0  0  0  0  0
  152.9168  143.3579  157.8007 H   0  0  0  0  0  0  0  0  0  0  0  0
  151.2139  143.4419  157.3812 H   0  0  0  0  0  0  0  0  0  0  0  0
  152.0612  145.2989  158.8883 H   0  0  0  0  0  0  0  0  0  0  0  0
  149.6519  144.9186  158.7892 H   0  0  0  0  0  0  0  0  0  0  0  0
  150.1160  145.3223  160.4376 H   0  0  0  0  0  0  0  0  0  0  0  0
  149.7368  143.6561  160.0041 H   0  0  0  0  0  0  0  0  0  0  0  0
  1  2  1  0  0  0  0
  1 23  1  0  0  0  0
  1 24  1  0  0  0  0
  1 25  1  0  0  0  0
  2 22  1  0  0  0  0
  2  3  1  0  0  0  0
  2 26  1  0  0  0  0
  3  4  1  0  0  0  0
  3 27  1  0  0  0  0
  3 28  1  0  0  0  0
  4  5  1  0  0  0  0
  4 19  1  0  0  0  0
  5 18  1  0  0  0  0
  5  6  2  0  0  0  0
  6  7  1  0  0  0  0
  6 29  1  0  0  0  0
  7  8  2  0  0  0  0
  7 30  1  0  0  0  0
  8  9  1  0  0  0  0
  8 17  1  0  0  0  0
  9 10  2  0  0  0  0
  9 11  1  0  0  0  0
 11 12  1  0  0  0  0
 12 13  1  0  0  0  0
 12 31  1  0  0  0  0
 12 32  1  0  0  0  0
 13 14  1  0  0  0  0
 13 15  1  0  0  0  0
 13 16  1  0  0  0  0
 17 18  2  0  0  0  0
 17 33  1  0  0  0  0
 19 20  1  0  0  0  0
 19 34  1  0  0  0  0
 19 35  1  0  0  0  0
 20 21  1  0  0  0  0
 20 22  1  0  0  0  0
 20 36  1  0  0  0  0
 21 37  1  0  0  0  0
 21 38  1  0  0  0  0
 21 39  1  0  0  0  0
M  CHG  1  11  -1
M  END
> <s_m_source_file>
AV-unprocessed.smi

> <i_m_source_file_index>
1565

> <i_lp_mmshare_version>
43012

> <i_f3d_flags>
0

> <s_epik_input>
W0NIM11bQ0BASF0xW0NIMl1OKFtDSDJdW0NASF0oTzEpW0NIM10pYzJbY0hdW2NIXWMoW2NIXW4yKUMoPU8pW05IXVtDSDJdQyhGKShGKUY=

> <s_epik_cmdline>
J2VwaWtfcHl0aG9uJywgJy1waCcsICc3LjAnLCAnLXRuJywgJzgnLCAnLW1hJywgJzIwMCcsICctbWV0YWxfYmluZGluZycsICctaW1hZScsICc8aW5maWxlLm1hZT4nLCAnLW9tYWUnLCAnPG91dGZpbGUubWFlPic=

> <r_lp_tautomer_probability>
1

> <r_epik_Ionization_Penalty>
6.78525

> <r_epik_Ionization_Penalty_Charging>
6.78469

> <r_epik_Ionization_Penalty_Neutral>
0.000559052

> <r_epik_State_Penalty>
6.78469

> <r_epik_Charging_Adjusted_Penalty>
13.5694

> <i_epik_Tot_Q>
-1

> <i_epik_Tot_abs_Q>
1

> <r_epik_Metal_State_Penalty>
2.70441

> <b_epik_Metal_Only>
1

> <s_lp_Force_Field>
OPLS_2005

> <r_lp_Energy>
29.3636

> <b_lp_Chiralities_Consistent>
1

> <s_lp_Variant>
AV-unprocessed.smi:1565-4

> <Gold.Version>
5.8.1

> <Gold.Id.Protein>
6NUR|6NUR_protein|mol2

> <Gold.PLP.Fitness>
41.4080

> <Gold.PLP.PLP>
-40.3693

> <Gold.PLP.part.hbond>
-1.0000

> <Gold.PLP.part.metal>
0.0000

> <Gold.PLP.part.buried>
-6.6129

> <Gold.PLP.part.nonpolar>
-32.7910

> <Gold.PLP.part.repulsive>
0.3087

> <Gold.PLP.ligand.clash>
0.0000

> <Gold.PLP.ligand.torsion>
1.0894

> <Gold.PLP.Chemscore.Hbond>
0.9600

> <Gold.PLP.Chemscore.CHOScore>
0.0000

> <Gold.PLP.Chemscore.Metal>
0.0000

> <Gold.Chemscore.Hbonds>
donor molecule, donor type, donor heavy atom, donor atom, acceptor molecule, acceptor atom, score
      P1  H 10752 10765       L1    10  0.96

> <Gold.PLP.Chemscore.Internal.Correction>
0.3374

> <Gold.Rescore>
     Score         DG    S(hbond)    S(metal)    S(lipo)     H(rot)  DE(clash)    DE(int)     intcor
     15.32     -16.44       0.95        0.00      94.94       1.29       0.01       1.12       ----

> <Gold.Chemscore.Fitness>
15.3181

> <Gold.Chemscore.DG>
-16.4428

> <Gold.Chemscore.ZeroCoef>
-5.4800

> <Gold.Chemscore.Hbond>
0.9468

> <Gold.Chemscore.Metal>
0.0000

> <Gold.Chemscore.Lipo>
94.9408

> <Gold.Chemscore.Internal_Hbond>
0.0000

> <Gold.Chemscore.DEClash>
0.0069

> <Gold.Chemscore.DEInternal>
1.1178

> <Gold.Chemscore.Rot>
1.2921

> <Gold.Chemscore.Internal.Correction>
   9.000000E+99

> <Gold.Chemscore.Hbonds>
donor molecule, donor type, donor heavy atom, donor atom, acceptor molecule, acceptor atom, score
      P1  H 10752 10765       L1    10  0.43

> <Gold.Chemscore.Hbond.Weighted>
-3.1625

> <Gold.Chemscore.Metal.Weighted>
-0.0000

> <Gold.Chemscore.Lipo.Weighted>
-11.1081

> <Gold.Chemscore.Internal_Hbond.Weighted>
0.0000

> <Gold.Chemscore.DEClash.Weighted>
0.0069

> <Gold.Chemscore.DEInternal.Weighted>
1.1178

> <Gold.Chemscore.Rot.Weighted>
3.3078

> <Gold.Chemscore.Internal.Correction.Weighted>
   9.000000E+99

> <Gold.Protein.RotatedTorsions>
[ 6907 6896 6895 6894 ] final  157.72 input  -60.11 | X-H torsion
[ 7974 7965 7964 7962 ] final  169.74 input  175.53 | X-H torsion
[ 8008 7997 7996 7995 ] final  164.27 input   59.86 | X-H torsion
[ 10167 10162 10161 10158 ] final   92.07 input  -65.29 | X-H torsion
[ 10718 10713 10712 10709 ] final  -32.17 input   66.30 | X-H torsion
[ 10763 10752 10751 10750 ] final  159.72 input  -60.55 | X-H torsion
[ 11005 11000 10999 10996 ] final   99.31 input  -57.11 | X-H torsion

> <Gold.Protein.ActiveResidues>
 VAL166  LYS551  ARG553  GLY616  TRP617  ASP618  TYR619  PRO620  LYS621  CYS622 
 ASP623  PHE694  ASN695  SER759  ASP760  ASP761  ALA762  ILE779  LEU786  VAL792 
 PHE793  MET794  SER795  GLU796  ALA797  LYS798  CYS799  TRP800  GLU811  SER814 

> <Gold.Protein.RotatedAtoms>
  152.0109  133.3861  159.4219 H   0  0  0  0  0  0  0  0  0  0  0  0  # atno 6907 bound_to 6896
  150.6899  134.3731  159.5010 H   0  0  0  0  0  0  0  0  0  0  0  0  # atno 6908 bound_to 6896
  152.1492  134.9001  160.0600 H   0  0  0  0  0  0  0  0  0  0  0  0  # atno 6909 bound_to 6896
  144.7345  139.9099  143.6414 H   0  0  0  0  0  0  0  0  0  0  0  0  # atno 7974 bound_to 7965
  156.1893  140.1701  156.8124 H   0  0  0  0  0  0  0  0  0  0  0  0  # atno 8008 bound_to 7997
  154.5451  140.0728  156.8608 H   0  0  0  0  0  0  0  0  0  0  0  0  # atno 8009 bound_to 7997
  155.3137  140.3369  155.4245 H   0  0  0  0  0  0  0  0  0  0  0  0  # atno 8010 bound_to 7997
  139.8313  144.6686  150.9396 H   0  0  0  0  0  0  0  0  0  0  0  0  # atno 10167 bound_to 10162
  156.3782  130.4351  149.7490 H   0  0  0  0  0  0  0  0  0  0  0  0  # atno 10718 bound_to 10713
  154.2362  135.2776  155.2871 H   0  0  0  0  0  0  0  0  0  0  0  0  # atno 10763 bound_to 10752
  154.5583  135.5654  153.6987 H   0  0  0  0  0  0  0  0  0  0  0  0  # atno 10764 bound_to 10752
  153.0009  135.6291  154.2505 H   0  0  0  0  0  0  0  0  0  0  0  0  # atno 10765 bound_to 10752
  139.8771  134.9090  156.4587 H   0  0  0  0  0  0  0  0  0  0  0  0  # atno 11005 bound_to 11000
  146.1009  139.4004  143.0347 LP  0  0  0  0  0  0  0  0  0  0  0  0  # atno 17320 bound_to 7965
  145.7580  140.9946  143.1215 LP  0  0  0  0  0  0  0  0  0  0  0  0  # atno 17321 bound_to 7965
  140.7806  143.3998  151.1168 LP  0  0  0  0  0  0  0  0  0  0  0  0  # atno 17342 bound_to 10162
  139.7652  143.8576  152.3109 LP  0  0  0  0  0  0  0  0  0  0  0  0  # atno 17343 bound_to 10162
  156.4591  130.7943  151.2964 LP  0  0  0  0  0  0  0  0  0  0  0  0  # atno 17370 bound_to 10713
  157.7490  131.0071  150.3178 LP  0  0  0  0  0  0  0  0  0  0  0  0  # atno 17371 bound_to 10713
  140.8880  133.7869  155.9539 LP  0  0  0  0  0  0  0  0  0  0  0  0  # atno 17394 bound_to 11000
  140.8784  134.2641  157.5156 LP  0  0  0  0  0  0  0  0  0  0  0  0  # atno 17395 bound_to 11000

$$$$
