AV-unprocessed.smi:1214|AV-procd|sdf|5092|dock6
  -GOLD-   22720 4143D 1   1.00000     0.00000
 Structure written by MMmdl.
 33 34  0  0  0  0  0  0  0  0  1 V2000
  144.4080  134.4777  152.7481 C   0  0  0  0  0  0  0  0  0  0  0  0
  144.7973  133.6221  151.5530 C   0  0  0  0  0  0  0  0  0  0  0  0
  143.7827  133.0809  150.7351 C   0  0  0  0  0  0  0  0  0  0  0  0
  144.1410  132.2903  149.6301 C   0  0  0  0  0  0  0  0  0  0  0  0
  145.5077  132.0741  149.3882 C   0  0  0  0  0  0  0  0  0  0  0  0
  146.4833  132.5876  150.1651 N   0  0  0  0  0  0  0  0  0  0  0  0
  146.1569  133.3499  151.2405 C   0  0  0  0  0  0  0  0  0  0  0  0
  147.1272  133.9472  152.1035 N   0  0  0  0  0  0  0  0  0  0  0  0
  147.4923  133.6658  153.3726 C   0  0  0  0  0  0  0  0  0  0  0  0
  146.9708  132.7405  153.9927 O   0  0  0  0  0  0  0  0  0  0  0  0
  148.4571  134.4380  153.8982 N   0  0  0  0  0  0  0  0  0  0  0  0
  149.0104  134.3049  155.2410 C   0  0  2  0  0  0  0  0  0  0  0  0
  150.3196  135.1022  155.4074 C   0  0  0  0  0  0  0  0  0  0  0  0
  151.0324  134.6194  156.6768 C   0  0  0  0  0  0  0  0  0  0  0  0
  150.5741  132.8565  156.8814 S   0  0  0  0  0  0  0  0  0  0  0  0
  151.7035  132.0023  156.4838 O   0  0  0  0  0  0  0  0  0  0  0  0
  149.9177  132.6842  158.1861 O   0  0  0  0  0  0  0  0  0  0  0  0
  149.3094  132.8334  155.5566 C   0  0  0  0  0  0  0  0  0  0  0  0
  143.3250  134.5704  152.8348 H   0  0  0  0  0  0  0  0  0  0  0  0
  144.8231  135.4813  152.6516 H   0  0  0  0  0  0  0  0  0  0  0  0
  144.7812  134.0348  153.6719 H   0  0  0  0  0  0  0  0  0  0  0  0
  142.7407  133.2683  150.9487 H   0  0  0  0  0  0  0  0  0  0  0  0
  143.3882  131.8626  148.9847 H   0  0  0  0  0  0  0  0  0  0  0  0
  145.8277  131.4744  148.5490 H   0  0  0  0  0  0  0  0  0  0  0  0
  147.6510  134.6981  151.6788 H   0  0  0  0  0  0  0  0  0  0  0  0
  148.8291  135.1789  153.3206 H   0  0  0  0  0  0  0  0  0  0  0  0
  148.2880  134.6661  155.9756 H   0  0  0  0  0  0  0  0  0  0  0  0
  150.9665  134.9098  154.5501 H   0  0  0  0  0  0  0  0  0  0  0  0
  150.1411  136.1776  155.4346 H   0  0  0  0  0  0  0  0  0  0  0  0
  152.1159  134.7242  156.6218 H   0  0  0  0  0  0  0  0  0  0  0  0
  150.6735  135.1624  157.5511 H   0  0  0  0  0  0  0  0  0  0  0  0
  148.4300  132.2794  155.8851 H   0  0  0  0  0  0  0  0  0  0  0  0
  149.7418  132.3233  154.6950 H   0  0  0  0  0  0  0  0  0  0  0  0
  1  2  1  0  0  0  0
  1 19  1  0  0  0  0
  1 20  1  0  0  0  0
  1 21  1  0  0  0  0
  2  7  1  0  0  0  0
  2  3  2  0  0  0  0
  3  4  1  0  0  0  0
  3 22  1  0  0  0  0
  4  5  2  0  0  0  0
  4 23  1  0  0  0  0
  5  6  1  0  0  0  0
  5 24  1  0  0  0  0
  6  7  2  0  0  0  0
  7  8  1  0  0  0  0
  8  9  1  0  0  0  0
  8 25  1  0  0  0  0
  9 10  2  0  0  0  0
  9 11  1  0  0  0  0
 11 12  1  0  0  0  0
 11 26  1  0  0  0  0
 12 18  1  0  0  0  0
 12 13  1  0  0  0  0
 12 27  1  0  0  0  0
 13 14  1  0  0  0  0
 13 28  1  0  0  0  0
 13 29  1  0  0  0  0
 14 15  1  0  0  0  0
 14 30  1  0  0  0  0
 14 31  1  0  0  0  0
 15 16  2  0  0  0  0
 15 17  2  0  0  0  0
 15 18  1  0  0  0  0
 18 32  1  0  0  0  0
 18 33  1  0  0  0  0
M  END
> <s_m_source_file>
AV-unprocessed.smi

> <i_m_source_file_index>
1214

> <i_lp_mmshare_version>
43012

> <i_f3d_flags>
0

> <s_epik_input>
W0NIM11jMVtjSF1bY0hdW2NIXW5jMVtOSF1DKD1PKVtOSF1bQ0BASF0oW0NIMl0yKVtDSDJdW0NIMl1TMig9Tyk9Tw==

> <s_epik_cmdline>
J2VwaWtfcHl0aG9uJywgJy1waCcsICc3LjAnLCAnLXRuJywgJzgnLCAnLW1hJywgJzIwMCcsICctbWV0YWxfYmluZGluZycsICctaW1hZScsICc8aW5maWxlLm1hZT4nLCAnLW9tYWUnLCAnPG91dGZpbGUubWFlPic=

> <r_lp_tautomer_probability>
1

> <r_epik_Ionization_Penalty>
4.18367e-05

> <r_epik_Ionization_Penalty_Charging>
0

> <r_epik_Ionization_Penalty_Neutral>
4.18367e-05

> <r_epik_State_Penalty>
-0

> <r_epik_Charging_Adjusted_Penalty>
0

> <i_epik_Tot_Q>
0

> <i_epik_Tot_abs_Q>
0

> <r_epik_Metal_State_Penalty>
-0

> <b_epik_Metal_Only>
0

> <s_lp_Force_Field>
OPLS_2005

> <r_lp_Energy>
8.88601

> <b_lp_Chiralities_Consistent>
1

> <s_lp_Variant>
AV-unprocessed.smi:1214-1

> <Gold.Version>
5.8.1

> <Gold.Id.Protein>
6NUR|6NUR_protein|mol2

> <Gold.PLP.Fitness>
37.4588

> <Gold.PLP.PLP>
-30.1691

> <Gold.PLP.part.hbond>
-3.0000

> <Gold.PLP.part.metal>
0.0000

> <Gold.PLP.part.buried>
-3.9761

> <Gold.PLP.part.nonpolar>
-23.3712

> <Gold.PLP.part.repulsive>
0.8751

> <Gold.PLP.ligand.clash>
0.0000

> <Gold.PLP.ligand.torsion>
0.8553

> <Gold.PLP.Chemscore.Hbond>
3.0000

> <Gold.PLP.Chemscore.CHOScore>
0.0000

> <Gold.PLP.Chemscore.Metal>
0.0000

> <Gold.Chemscore.Hbonds>
donor molecule, donor type, donor heavy atom, donor atom, acceptor molecule, acceptor atom, score
      L1  H     8    25       P1  7948  1.00
      L1  H    11    26       P1  7948  1.00
      P1  H  6896  6908       L1    17  0.73

> <Gold.PLP.Chemscore.Internal.Correction>
0.0003

> <Gold.Rescore>
     Score         DG    S(hbond)    S(metal)    S(lipo)     H(rot)  DE(clash)    DE(int)     intcor
     15.41     -17.95       2.52        0.00      56.55       1.00       0.29       2.26       ----

> <Gold.Chemscore.Fitness>
15.4072

> <Gold.Chemscore.DG>
-17.9518

> <Gold.Chemscore.ZeroCoef>
-5.4800

> <Gold.Chemscore.Hbond>
2.5197

> <Gold.Chemscore.Metal>
0.0000

> <Gold.Chemscore.Lipo>
56.5471

> <Gold.Chemscore.Internal_Hbond>
0.0000

> <Gold.Chemscore.DEClash>
0.2853

> <Gold.Chemscore.DEInternal>
2.2593

> <Gold.Chemscore.Rot>
1.0000

> <Gold.Chemscore.Internal.Correction>
   9.000000E+99

> <Gold.Chemscore.Hbonds>
donor molecule, donor type, donor heavy atom, donor atom, acceptor molecule, acceptor atom, score
      L1  H     8    25       P1  7948  0.33
      L1  H    11    26       P1  7948  0.59
      P1  H  6896  6908       L1    17  0.12

> <Gold.Chemscore.Hbond.Weighted>
-8.4158

> <Gold.Chemscore.Metal.Weighted>
-0.0000

> <Gold.Chemscore.Lipo.Weighted>
-6.6160

> <Gold.Chemscore.Internal_Hbond.Weighted>
0.0000

> <Gold.Chemscore.DEClash.Weighted>
0.2853

> <Gold.Chemscore.DEInternal.Weighted>
2.2593

> <Gold.Chemscore.Rot.Weighted>
2.5600

> <Gold.Chemscore.Internal.Correction.Weighted>
   9.000000E+99

> <Gold.Protein.RotatedTorsions>
[ 6907 6896 6895 6894 ] final   80.33 input  -60.11 | X-H torsion
[ 7974 7965 7964 7962 ] final  154.49 input  175.53 | X-H torsion
[ 8008 7997 7996 7995 ] final   18.16 input   59.86 | X-H torsion
[ 10167 10162 10161 10158 ] final -134.52 input  -65.29 | X-H torsion
[ 10718 10713 10712 10709 ] final  116.03 input   66.30 | X-H torsion
[ 10763 10752 10751 10750 ] final   -4.61 input  -60.55 | X-H torsion
[ 11005 11000 10999 10996 ] final   24.61 input  -57.11 | X-H torsion

> <Gold.Protein.ActiveResidues>
 VAL166  LYS551  ARG553  GLY616  TRP617  ASP618  TYR619  PRO620  LYS621  CYS622 
 ASP623  PHE694  ASN695  SER759  ASP760  ASP761  ALA762  ILE779  LEU786  VAL792 
 PHE793  MET794  SER795  GLU796  ALA797  LYS798  CYS799  TRP800  GLU811  SER814 

> <Gold.Protein.RotatedAtoms>
  152.5231  134.3374  159.9204 H   0  0  0  0  0  0  0  0  0  0  0  0  # atno 6907 bound_to 6896
  151.3324  133.3989  159.2671 H   0  0  0  0  0  0  0  0  0  0  0  0  # atno 6908 bound_to 6896
  150.9870  134.9231  159.7935 H   0  0  0  0  0  0  0  0  0  0  0  0  # atno 6909 bound_to 6896
  144.8086  139.6940  143.6151 H   0  0  0  0  0  0  0  0  0  0  0  0  # atno 7974 bound_to 7965
  154.9020  140.3002  155.5313 H   0  0  0  0  0  0  0  0  0  0  0  0  # atno 8008 bound_to 7997
  156.3018  140.2405  156.3983 H   0  0  0  0  0  0  0  0  0  0  0  0  # atno 8009 bound_to 7997
  154.8512  140.0409  157.1594 H   0  0  0  0  0  0  0  0  0  0  0  0  # atno 8010 bound_to 7997
  139.8872  143.6767  152.2618 H   0  0  0  0  0  0  0  0  0  0  0  0  # atno 10167 bound_to 10162
  157.6186  131.1020  150.7415 H   0  0  0  0  0  0  0  0  0  0  0  0  # atno 10718 bound_to 10713
  153.3872  135.7000  153.6521 H   0  0  0  0  0  0  0  0  0  0  0  0  # atno 10763 bound_to 10752
  153.5109  135.3632  155.2586 H   0  0  0  0  0  0  0  0  0  0  0  0  # atno 10764 bound_to 10752
  154.8699  135.4134  154.3182 H   0  0  0  0  0  0  0  0  0  0  0  0  # atno 10765 bound_to 10752
  140.3568  134.2168  155.7675 H   0  0  0  0  0  0  0  0  0  0  0  0  # atno 11005 bound_to 11000
  146.2381  139.5945  142.9510 LP  0  0  0  0  0  0  0  0  0  0  0  0  # atno 17320 bound_to 7965
  145.5379  141.0423  143.2347 LP  0  0  0  0  0  0  0  0  0  0  0  0  # atno 17321 bound_to 7965
  139.7142  144.7615  151.1061 LP  0  0  0  0  0  0  0  0  0  0  0  0  # atno 17342 bound_to 10162
  140.7733  143.5290  150.9445 LP  0  0  0  0  0  0  0  0  0  0  0  0  # atno 17343 bound_to 10162
  156.7777  130.4849  149.5406 LP  0  0  0  0  0  0  0  0  0  0  0  0  # atno 17370 bound_to 10713
  156.1319  130.6184  151.0346 LP  0  0  0  0  0  0  0  0  0  0  0  0  # atno 17371 bound_to 10713
  141.1996  133.8008  157.0529 LP  0  0  0  0  0  0  0  0  0  0  0  0  # atno 17394 bound_to 11000
  140.0658  134.9729  157.1384 LP  0  0  0  0  0  0  0  0  0  0  0  0  # atno 17395 bound_to 11000

$$$$
