#       Name:                AV-unprocessed.smi:188
#       Creating user name   scv26
#       Creation time:       Thu Mar 26 19:29:31 2020


#       File generated by GOLD software.
#

@<TRIPOS>MOLECULE
AV-unprocessed.smi:188
    61    65     1
SMALL
NO_CHARGES


@<TRIPOS>ATOM
      1 ****        -4.1539   7.1568  -0.0829 O.2            1 S1                 0.0000
      2 ****        -3.6807   6.0688   0.2373 C.2            1 S1                 0.0000
      3 ****        -4.1287   5.3969   1.3016 N.am           1 S1                 0.0000
      4 ****        -3.4815   4.2482   1.4692 C.2            1 S1                 0.0000
      5 ****        -3.6718   3.4170   2.3563 O.2            1 S1                 0.0000
      6 ****        -2.4489   4.1454   0.3495 C.3            1 S1                 0.0000
      7 ****        -0.9932   4.1103   0.8753 C.3            1 S1                 0.0000
      8 ****        -0.6222   2.7510   1.4967 C.3            1 S1                 0.0000
      9 ****        -0.9024   1.6541   0.5682 N.3            1 S1                 0.0000
     10 ****        -0.3511   0.4444   0.8437 C.ar           1 S1                 0.0000
     11 ****         0.0127   0.1379   2.1183 N.ar           1 S1                 0.0000
     12 ****         0.5443  -1.0543   2.4019 C.ar           1 S1                 0.0000
     13 ****         0.8009  -2.0708   1.5769 N.ar           1 S1                 0.0000
     14 ****         0.4512  -1.7678   0.2946 C.ar           1 S1                 0.0000
     15 ****        -0.1287  -0.5467  -0.1544 C.ar           1 S1                 0.0000
     16 ****        -0.3428  -0.6035  -1.5266 N.2            1 S1                 0.0000
     17 ****         0.0760  -1.7912  -1.8668 C.2            1 S1                 0.0000
     18 ****         0.5795  -2.5547  -0.8374 N.pl3          1 S1                 0.0000
     19 ****         1.1137  -3.9048  -0.9420 C.3            1 S1                 0.0000
     20 ****         2.6539  -3.9864  -0.9430 C.3            1 S1                 0.0000
     21 ****         3.2127  -3.0110  -2.0003 C.3            1 S1                 0.0000
     22 ****         4.6141  -3.1201  -2.1517 O.3            1 S1                 0.0000
     23 ****         3.3384  -3.9508   0.4317 C.3            1 S1                 0.0000
     24 ****         4.0598  -5.1743   0.1684 O.3            1 S1                 0.0000
     25 ****         3.2155  -5.4156  -0.9782 C.3            1 S1                 0.0000
     26 ****        -2.2762   1.5955   0.0698 C.3            1 S1                 0.0000
     27 ****        -2.6884   2.9303  -0.5799 C.3            1 S1                 0.0000
     28 ****        -2.6867   5.3843  -0.3759 N.pl3          1 S1                -1.0000
     29 ****        -4.8693   5.7227   1.9042 H              1 S1                 0.0000
     30 ****        -0.3057   4.3159   0.0530 H              1 S1                 0.0000
     31 ****        -0.8286   4.9017   1.6083 H              1 S1                 0.0000
     32 ****         0.4373   2.7550   1.7562 H              1 S1                 0.0000
     33 ****        -1.1751   2.5931   2.4231 H              1 S1                 0.0000
     34 ****         0.8017  -1.2154   3.4382 H              1 S1                 0.0000
     35 ****         0.0376  -2.1419  -2.8879 H              1 S1                 0.0000
     36 ****         0.6978  -4.4912  -0.1218 H              1 S1                 0.0000
     37 ****         0.7163  -4.3543  -1.8530 H              1 S1                 0.0000
     38 ****         2.7526  -3.1879  -2.9730 H              1 S1                 0.0000
     39 ****         3.0015  -1.9755  -1.7324 H              1 S1                 0.0000
     40 ****         4.8980  -2.4909  -2.7971 H              1 S1                 0.0000
     41 ****         3.9983  -3.0955   0.5814 H              1 S1                 0.0000
     42 ****         2.6571  -4.0672   1.2751 H              1 S1                 0.0000
     43 ****         2.4719  -6.1879  -0.7743 H              1 S1                 0.0000
     44 ****         3.7833  -5.6569  -1.8775 H              1 S1                 0.0000
     45 ****        -2.3986   0.7960  -0.6599 H              1 S1                 0.0000
     46 ****        -2.9409   1.3549   0.8997 H              1 S1                 0.0000
     47 ****        -3.7355   2.8780  -0.8824 H              1 S1                 0.0000
     48 ****        -2.1170   3.0594  -1.5006 H              1 S1                 0.0000
     49 ****        -3.8003   7.6395  -0.8842 LP             1 S1                 0.0000
     50 ****        -4.8924   7.5594   0.4578 LP             1 S1                 0.0000
     51 ****        -4.3763   3.5762   3.0479 LP             1 S1                 0.0000
     52 ****        -3.1219   2.5822   2.3856 LP             1 S1                 0.0000
     53 ****        -0.3593   1.9431  -0.2202 LP             1 S1                 0.0000
     54 ****        -0.1187   0.8094   2.8476 LP             1 S1                 0.0000
     55 ****         1.1986  -2.9428   1.8624 LP             1 S1                 0.0000
     56 ****        -0.7294   0.1042  -2.1178 LP             1 S1                 0.0000
     57 ****         4.8492  -4.0435  -2.4554 LP             1 S1                 0.0000
     58 ****         5.0629  -2.9322  -1.2780 LP             1 S1                 0.0000
     59 ****         3.9769  -5.8618   0.8898 LP             1 S1                 0.0000
     60 ****         5.0253  -5.0404  -0.0550 LP             1 S1                 0.0000
     61 ****        -2.1955   5.6818  -1.1946 LP             1 S1                 0.0000
@<TRIPOS>BOND
    1    1    2 2     
    2    2   28 1     
    3    2    3 am    
    4    3    4 am    
    5    3   29 1     
    6    4    5 2     
    7    4    6 1     
    8    6   27 1     
    9    6    7 1     
   10    6   28 1     
   11    7    8 1     
   12    7   30 1     
   13    7   31 1     
   14    8    9 1     
   15    8   32 1     
   16    8   33 1     
   17    9   10 1     
   18    9   26 1     
   19   10   15 ar    
   20   10   11 ar    
   21   11   12 ar    
   22   12   13 ar    
   23   12   34 1     
   24   13   14 ar    
   25   14   18 1     
   26   14   15 ar    
   27   15   16 1     
   28   16   17 2     
   29   17   18 1     
   30   17   35 1     
   31   18   19 1     
   32   19   20 1     
   33   19   36 1     
   34   19   37 1     
   35   20   25 1     
   36   20   21 1     
   37   20   23 1     
   38   21   22 1     
   39   21   38 1     
   40   21   39 1     
   41   22   40 1     
   42   23   24 1     
   43   23   41 1     
   44   23   42 1     
   45   24   25 1     
   46   25   43 1     
   47   25   44 1     
   48   26   27 1     
   49   26   45 1     
   50   26   46 1     
   51   27   47 1     
   52   27   48 1     
   53    1   49 1     
   54    1   50 1     
   55    5   51 1     
   56    5   52 1     
   57    9   53 1     
   58   11   54 1     
   59   13   55 1     
   60   16   56 1     
   61   22   57 1     
   62   22   58 1     
   63   24   59 1     
   64   24   60 1     
   65   28   61 1     
@<TRIPOS>SUBSTRUCTURE
      1 S1             1
@<TRIPOS>SET
LONE_PAIRS      STATIC     ATOMS    <user>   **** ""
13 49 50 51 52 53 54 55 56 57 58 59 60 61
DONOR_HYDROGENS      STATIC     ATOMS    <user>   **** ""
2 29 40
ATOM$BLUE        STATIC     ATOMS    COLORGROUP SYSTEM
13 49 50 51 52 53 54 55 56 57 58 59 60 61
ATOM$RED        STATIC     ATOMS    COLORGROUP SYSTEM
2 29 40
