AV-unprocessed.smi:3223|AV-procd|sdf|12307|dock3
  -GOLD-   2272018153D 1   1.00000     0.00000
 Structure written by MMmdl.
 43 43  0  0  0  0  0  0  0  0  2 V2000
  151.8559  142.8322  158.5939 C   0  0  0  0  0  0  0  0  0  0  0  0
  151.2806  141.8277  157.6376 C   0  0  0  0  0  0  0  0  0  0  0  0
  151.3351  140.4076  157.7238 C   0  0  0  0  0  0  0  0  0  0  0  0
  150.7301  139.8087  156.7113 N   0  0  0  0  0  0  0  0  0  0  0  0
  150.2619  140.8200  155.9493 N   0  0  0  0  0  0  0  0  0  0  0  0
  149.5428  140.5294  154.7202 C   0  0  0  0  0  0  0  0  0  0  0  0
  149.4436  139.0187  154.4246 C   0  0  2  0  0  0  0  0  0  0  0  0
  150.8436  138.3907  154.3277 C   0  0  0  0  0  0  0  0  0  0  0  0
  148.6756  138.7912  153.1789 N   0  3  0  0  0  0  0  0  0  0  0  0
  147.2337  139.1011  153.2656 C   0  0  0  0  0  0  0  0  0  0  0  0
  146.5034  138.6816  151.9788 C   0  0  0  0  0  0  0  0  0  0  0  0
  145.8988  137.2783  152.0798 C   0  0  0  0  0  0  0  0  0  0  0  0
  146.1789  136.5503  153.0322 O   0  0  0  0  0  0  0  0  0  0  0  0
  145.0655  136.9139  151.0925 N   0  0  0  0  0  0  0  0  0  0  0  0
  144.3857  135.6254  150.9913 C   0  0  0  0  0  0  0  0  0  0  0  0
  143.5073  135.4122  152.2313 C   0  0  0  0  0  0  0  0  0  0  0  0
  145.4089  134.4926  150.8179 C   0  0  0  0  0  0  0  0  0  0  0  0
  150.5887  142.0499  156.4807 C   0  0  0  0  0  0  0  0  0  0  0  0
  152.4203  142.3533  159.3944 H   0  0  0  0  0  0  0  0  0  0  0  0
  151.0765  143.4314  159.0649 H   0  0  0  0  0  0  0  0  0  0  0  0
  152.5345  143.5226  158.0925 H   0  0  0  0  0  0  0  0  0  0  0  0
  151.7959  139.7979  158.4869 H   0  0  0  0  0  0  0  0  0  0  0  0
  148.5470  140.9704  154.7862 H   0  0  0  0  0  0  0  0  0  0  0  0
  150.0563  141.0402  153.9043 H   0  0  0  0  0  0  0  0  0  0  0  0
  148.9136  138.5433  155.2515 H   0  0  0  0  0  0  0  0  0  0  0  0
  151.4145  138.5709  155.2390 H   0  0  0  0  0  0  0  0  0  0  0  0
  151.4100  138.8094  153.4953 H   0  0  0  0  0  0  0  0  0  0  0  0
  150.7945  137.3108  154.1885 H   0  0  0  0  0  0  0  0  0  0  0  0
  149.0651  139.3944  152.4683 H   0  0  0  0  0  0  0  0  0  0  0  0
  146.7961  138.5879  154.1223 H   0  0  0  0  0  0  0  0  0  0  0  0
  147.1173  140.1727  153.4361 H   0  0  0  0  0  0  0  0  0  0  0  0
  145.6980  139.3837  151.7603 H   0  0  0  0  0  0  0  0  0  0  0  0
  147.1930  138.7233  151.1340 H   0  0  0  0  0  0  0  0  0  0  0  0
  144.8867  137.5780  150.3531 H   0  0  0  0  0  0  0  0  0  0  0  0
  143.7288  135.6349  150.1197 H   0  0  0  0  0  0  0  0  0  0  0  0
  142.9682  134.4664  152.1704 H   0  0  0  0  0  0  0  0  0  0  0  0
  142.7662  136.2064  152.3296 H   0  0  0  0  0  0  0  0  0  0  0  0
  144.1032  135.3964  153.1446 H   0  0  0  0  0  0  0  0  0  0  0  0
  144.9113  133.5264  150.7307 H   0  0  0  0  0  0  0  0  0  0  0  0
  146.0909  134.4396  151.6672 H   0  0  0  0  0  0  0  0  0  0  0  0
  146.0078  134.6341  149.9177 H   0  0  0  0  0  0  0  0  0  0  0  0
  150.3044  142.9736  155.9982 H   0  0  0  0  0  0  0  0  0  0  0  0
  148.7983  137.8317  152.8886 H   0  0  0  0  0  0  0  0  0  0  0  0
  1  2  1  0  0  0  0
  1 19  1  0  0  0  0
  1 20  1  0  0  0  0
  1 21  1  0  0  0  0
  2 18  2  0  0  0  0
  2  3  1  0  0  0  0
  3  4  2  0  0  0  0
  3 22  1  0  0  0  0
  4  5  1  0  0  0  0
  5  6  1  0  0  0  0
  5 18  1  0  0  0  0
  6  7  1  0  0  0  0
  6 23  1  0  0  0  0
  6 24  1  0  0  0  0
  7  8  1  0  0  0  0
  7  9  1  0  0  0  0
  7 25  1  0  0  0  0
  8 26  1  0  0  0  0
  8 27  1  0  0  0  0
  8 28  1  0  0  0  0
  9 10  1  0  0  0  0
  9 29  1  0  0  0  0
  9 43  1  0  0  0  0
 10 11  1  0  0  0  0
 10 30  1  0  0  0  0
 10 31  1  0  0  0  0
 11 12  1  0  0  0  0
 11 32  1  0  0  0  0
 11 33  1  0  0  0  0
 12 13  2  0  0  0  0
 12 14  1  0  0  0  0
 14 15  1  0  0  0  0
 14 34  1  0  0  0  0
 15 16  1  0  0  0  0
 15 17  1  0  0  0  0
 15 35  1  0  0  0  0
 16 36  1  0  0  0  0
 16 37  1  0  0  0  0
 16 38  1  0  0  0  0
 17 39  1  0  0  0  0
 17 40  1  0  0  0  0
 17 41  1  0  0  0  0
 18 42  1  0  0  0  0
M  CHG  1   9   1
M  END
> <s_m_source_file>
AV-unprocessed.smi

> <i_m_source_file_index>
3223

> <i_lp_mmshare_version>
43012

> <i_f3d_flags>
0

> <s_epik_input>
W0NIM11jMVtjSF1ubihbY0hdMSlbQ0gyXVtDQEhdKFtDSDNdKVtOSF1bQ0gyXVtDSDJdQyg9TylbTkhdW0NIXShbQ0gzXSlbQ0gzXQ==

> <s_epik_cmdline>
J2VwaWtfcHl0aG9uJywgJy1waCcsICc3LjAnLCAnLXRuJywgJzgnLCAnLW1hJywgJzIwMCcsICctbWV0YWxfYmluZGluZycsICctaW1hZScsICc8aW5maWxlLm1hZT4nLCAnLW9tYWUnLCAnPG91dGZpbGUubWFlPic=

> <r_lp_tautomer_probability>
1

> <r_epik_Ionization_Penalty>
0.0057861

> <r_epik_Ionization_Penalty_Charging>
0.00577767

> <r_epik_Ionization_Penalty_Neutral>
8.4224e-06

> <r_epik_State_Penalty>
0.00424195

> <r_epik_Charging_Adjusted_Penalty>
0.0100196

> <i_epik_Tot_Q>
1

> <i_epik_Tot_abs_Q>
1

> <r_epik_Metal_State_Penalty>
-0

> <b_epik_Metal_Only>
0

> <s_lp_Force_Field>
OPLS_2005

> <r_lp_Energy>
5.53081

> <b_lp_Chiralities_Consistent>
1

> <s_lp_Variant>
AV-unprocessed.smi:3223-1

> <Gold.Version>
5.8.1

> <Gold.Id.Protein>
6NUR|6NUR_protein|mol2

> <Gold.PLP.Fitness>
52.5145

> <Gold.PLP.PLP>
-38.1904

> <Gold.PLP.part.hbond>
-2.7407

> <Gold.PLP.part.metal>
0.0000

> <Gold.PLP.part.buried>
-5.0539

> <Gold.PLP.part.nonpolar>
-31.9921

> <Gold.PLP.part.repulsive>
0.8883

> <Gold.PLP.ligand.clash>
0.0000

> <Gold.PLP.ligand.torsion>
0.4101

> <Gold.PLP.Chemscore.Hbond>
3.9920

> <Gold.PLP.Chemscore.CHOScore>
1.0000

> <Gold.PLP.Chemscore.Metal>
0.0000

> <Gold.Chemscore.Hbonds>
donor molecule, donor type, donor heavy atom, donor atom, acceptor molecule, acceptor atom, score
      L1  H     9    29       P1  7957  1.00
      L1  H     9    43       P1  7948  2.00
      L1  H    14    34       P1 10171  0.89
      L1  C    18    42       P1  8028  1.00

> <Gold.PLP.Chemscore.Internal.Correction>
0.1683

> <Gold.Rescore>
     Score         DG    S(hbond)    S(metal)    S(lipo)     H(rot)  DE(clash)    DE(int)     intcor
     16.91     -19.57       2.97        0.00      83.38       2.19       0.01       2.65       ----

> <Gold.Chemscore.Fitness>
16.9070

> <Gold.Chemscore.DG>
-19.5744

> <Gold.Chemscore.ZeroCoef>
-5.4800

> <Gold.Chemscore.Hbond>
2.9738

> <Gold.Chemscore.Metal>
0.0000

> <Gold.Chemscore.Lipo>
83.3805

> <Gold.Chemscore.Internal_Hbond>
0.0000

> <Gold.Chemscore.DEClash>
0.0149

> <Gold.Chemscore.DEInternal>
2.6525

> <Gold.Chemscore.Rot>
2.1850

> <Gold.Chemscore.Internal.Correction>
   9.000000E+99

> <Gold.Chemscore.Hbonds>
donor molecule, donor type, donor heavy atom, donor atom, acceptor molecule, acceptor atom, score
      L1  H     9    29       P1  7957  0.95
      L1  H     9    43       P1  7948  1.00
      L1  H    14    34       P1 10171  0.81

> <Gold.Chemscore.Hbond.Weighted>
-9.9325

> <Gold.Chemscore.Metal.Weighted>
-0.0000

> <Gold.Chemscore.Lipo.Weighted>
-9.7555

> <Gold.Chemscore.Internal_Hbond.Weighted>
0.0000

> <Gold.Chemscore.DEClash.Weighted>
0.0149

> <Gold.Chemscore.DEInternal.Weighted>
2.6525

> <Gold.Chemscore.Rot.Weighted>
5.5936

> <Gold.Chemscore.Internal.Correction.Weighted>
   9.000000E+99

> <Gold.Protein.RotatedTorsions>
[ 6907 6896 6895 6894 ] final   47.36 input  -60.11 | X-H torsion
[ 7974 7965 7964 7962 ] final -157.83 input  175.53 | X-H torsion
[ 8008 7997 7996 7995 ] final   31.29 input   59.86 | X-H torsion
[ 10167 10162 10161 10158 ] final -121.58 input  -65.29 | X-H torsion
[ 10718 10713 10712 10709 ] final  -79.35 input   66.30 | X-H torsion
[ 10763 10752 10751 10750 ] final -119.65 input  -60.55 | X-H torsion
[ 11005 11000 10999 10996 ] final  116.53 input  -57.11 | X-H torsion

> <Gold.Protein.ActiveResidues>
 VAL166  LYS551  ARG553  GLY616  TRP617  ASP618  TYR619  PRO620  LYS621  CYS622 
 ASP623  PHE694  ASN695  SER759  ASP760  ASP761  ALA762  ILE779  LEU786  VAL792 
 PHE793  MET794  SER795  GLU796  ALA797  LYS798  CYS799  TRP800  GLU811  SER814 

> <Gold.Protein.RotatedAtoms>
  152.2672  134.7972  160.0420 H   0  0  0  0  0  0  0  0  0  0  0  0  # atno 6907 bound_to 6896
  151.8597  133.3450  159.3708 H   0  0  0  0  0  0  0  0  0  0  0  0  # atno 6908 bound_to 6896
  150.7138  134.5146  159.5668 H   0  0  0  0  0  0  0  0  0  0  0  0  # atno 6909 bound_to 6896
  144.7531  140.3913  143.6033 H   0  0  0  0  0  0  0  0  0  0  0  0  # atno 7974 bound_to 7965
  155.1040  140.3232  155.4539 H   0  0  0  0  0  0  0  0  0  0  0  0  # atno 8008 bound_to 7997
  156.2709  140.2056  156.6113 H   0  0  0  0  0  0  0  0  0  0  0  0  # atno 8009 bound_to 7997
  154.6807  140.0526  157.0250 H   0  0  0  0  0  0  0  0  0  0  0  0  # atno 8010 bound_to 7997
  140.0235  143.5320  152.2209 H   0  0  0  0  0  0  0  0  0  0  0  0  # atno 10167 bound_to 10162
  156.0095  130.4543  150.3635 H   0  0  0  0  0  0  0  0  0  0  0  0  # atno 10718 bound_to 10713
  154.8623  135.4231  154.2333 H   0  0  0  0  0  0  0  0  0  0  0  0  # atno 10763 bound_to 10752
  153.3313  135.6988  153.6951 H   0  0  0  0  0  0  0  0  0  0  0  0  # atno 10764 bound_to 10752
  153.5966  135.3544  155.2904 H   0  0  0  0  0  0  0  0  0  0  0  0  # atno 10765 bound_to 10752
  139.9044  134.9599  156.7212 H   0  0  0  0  0  0  0  0  0  0  0  0  # atno 11005 bound_to 11000
  145.6873  139.1631  143.2667 LP  0  0  0  0  0  0  0  0  0  0  0  0  # atno 17320 bound_to 7965
  146.1507  140.6928  142.9323 LP  0  0  0  0  0  0  0  0  0  0  0  0  # atno 17321 bound_to 7965
  139.6123  144.7611  151.2923 LP  0  0  0  0  0  0  0  0  0  0  0  0  # atno 17342 bound_to 10162
  140.7332  143.6801  150.8008 LP  0  0  0  0  0  0  0  0  0  0  0  0  # atno 17343 bound_to 10162
  157.1723  131.0372  151.2789 LP  0  0  0  0  0  0  0  0  0  0  0  0  # atno 17370 bound_to 10713
  157.4218  130.7442  149.6919 LP  0  0  0  0  0  0  0  0  0  0  0  0  # atno 17371 bound_to 10713
  140.6999  133.9316  155.8018 LP  0  0  0  0  0  0  0  0  0  0  0  0  # atno 17394 bound_to 11000
  141.0379  134.0663  157.3937 LP  0  0  0  0  0  0  0  0  0  0  0  0  # atno 17395 bound_to 11000

$$$$
