AV-unprocessed.smi:1440|AV-procd|sdf|5873|dock5
  -GOLD-   22720 5553D 1   1.00000     0.00000
 Structure written by MMmdl.
 41 42  0  0  0  0  0  0  0  0  1 V2000
  151.5426  145.6185  160.1248 C   0  0  0  0  0  0  0  0  0  0  0  0
  151.8460  144.1396  160.4033 C   0  0  2  0  0  0  0  0  0  0  0  0
  152.5354  143.9512  161.7675 C   0  0  0  0  0  0  0  0  0  0  0  0
  152.8345  142.4702  162.0496 C   0  0  0  0  0  0  0  0  0  0  0  0
  153.6824  141.8384  160.9258 C   0  0  1  0  0  0  0  0  0  0  0  0
  153.8809  140.4119  161.1658 N   0  0  0  0  0  0  0  0  0  0  0  0
  154.4233  139.5442  160.2982 C   0  0  0  0  0  0  0  0  0  0  0  0
  154.8273  139.8714  159.1812 O   0  0  0  0  0  0  0  0  0  0  0  0
  154.5327  138.0942  160.7877 C   0  0  0  0  0  0  0  0  0  0  0  0
  154.4591  137.9682  162.2411 N   0  0  0  0  0  0  0  0  0  0  0  0
  154.4024  136.8107  162.9191 C   0  0  0  0  0  0  0  0  0  0  0  0
  154.3885  135.7059  162.3771 O   0  0  0  0  0  0  0  0  0  0  0  0
  154.3605  136.9150  164.4441 C   0  0  0  0  0  0  0  0  0  0  0  0
  155.5212  137.6208  164.9550 N   0  0  0  0  0  0  0  0  0  0  0  0
  155.6068  138.7240  165.7008 C   0  0  0  0  0  0  0  0  0  0  0  0
  156.8514  139.0874  165.9781 N   0  0  0  0  0  0  0  0  0  0  0  0
  157.5294  138.0957  165.3266 C   0  0  0  0  0  0  0  0  0  0  0  0
  156.7795  137.1908  164.6975 N   0  0  0  0  0  0  0  0  0  0  0  0
  153.0042  142.0368  159.5575 C   0  0  0  0  0  0  0  0  0  0  0  0
  152.7021  143.5189  159.2833 C   0  0  0  0  0  0  0  0  0  0  0  0
  152.4575  146.2101  160.0839 H   0  0  0  0  0  0  0  0  0  0  0  0
  150.9063  146.0420  160.9024 H   0  0  0  0  0  0  0  0  0  0  0  0
  151.0245  145.7397  159.1731 H   0  0  0  0  0  0  0  0  0  0  0  0
  150.8927  143.6095  160.4322 H   0  0  0  0  0  0  0  0  0  0  0  0
  153.4659  144.5202  161.7929 H   0  0  0  0  0  0  0  0  0  0  0  0
  151.9068  144.3532  162.5626 H   0  0  0  0  0  0  0  0  0  0  0  0
  153.3482  142.3815  163.0075 H   0  0  0  0  0  0  0  0  0  0  0  0
  151.8945  141.9261  162.1535 H   0  0  0  0  0  0  0  0  0  0  0  0
  154.6566  142.3307  160.8980 H   0  0  0  0  0  0  0  0  0  0  0  0
  153.5795  140.0569  162.0617 H   0  0  0  0  0  0  0  0  0  0  0  0
  153.7139  137.5184  160.3555 H   0  0  0  0  0  0  0  0  0  0  0  0
  155.4577  137.6498  160.4158 H   0  0  0  0  0  0  0  0  0  0  0  0
  154.4685  138.8269  162.7725 H   0  0  0  0  0  0  0  0  0  0  0  0
  153.4616  137.4484  164.7566 H   0  0  0  0  0  0  0  0  0  0  0  0
  154.3139  135.9189  164.8874 H   0  0  0  0  0  0  0  0  0  0  0  0
  154.7420  139.2724  166.0449 H   0  0  0  0  0  0  0  0  0  0  0  0
  158.6080  138.0392  165.3154 H   0  0  0  0  0  0  0  0  0  0  0  0
  153.6396  141.6405  158.7646 H   0  0  0  0  0  0  0  0  0  0  0  0
  152.0735  141.4686  159.5203 H   0  0  0  0  0  0  0  0  0  0  0  0
  152.1889  143.6146  158.3260 H   0  0  0  0  0  0  0  0  0  0  0  0
  153.6394  144.0687  159.1872 H   0  0  0  0  0  0  0  0  0  0  0  0
  1  2  1  0  0  0  0
  1 21  1  0  0  0  0
  1 22  1  0  0  0  0
  1 23  1  0  0  0  0
  2 20  1  0  0  0  0
  2  3  1  0  0  0  0
  2 24  1  0  0  0  0
  3  4  1  0  0  0  0
  3 25  1  0  0  0  0
  3 26  1  0  0  0  0
  4  5  1  0  0  0  0
  4 27  1  0  0  0  0
  4 28  1  0  0  0  0
  5  6  1  0  0  0  0
  5 19  1  0  0  0  0
  5 29  1  0  0  0  0
  6  7  1  0  0  0  0
  6 30  1  0  0  0  0
  7  8  2  0  0  0  0
  7  9  1  0  0  0  0
  9 10  1  0  0  0  0
  9 31  1  0  0  0  0
  9 32  1  0  0  0  0
 10 11  1  0  0  0  0
 10 33  1  0  0  0  0
 11 12  2  0  0  0  0
 11 13  1  0  0  0  0
 13 14  1  0  0  0  0
 13 34  1  0  0  0  0
 13 35  1  0  0  0  0
 14 18  1  0  0  0  0
 14 15  1  0  0  0  0
 15 16  2  0  0  0  0
 15 36  1  0  0  0  0
 16 17  1  0  0  0  0
 17 18  2  0  0  0  0
 17 37  1  0  0  0  0
 19 20  1  0  0  0  0
 19 38  1  0  0  0  0
 19 39  1  0  0  0  0
 20 40  1  0  0  0  0
 20 41  1  0  0  0  0
M  END
> <s_m_source_file>
AV-unprocessed.smi

> <i_m_source_file_index>
1440

> <i_lp_mmshare_version>
43012

> <i_f3d_flags>
0

> <s_epik_input>
W0NIM11bQ0BASF0xW0NIMl1bQ0gyXVtDQEhdKFtDSDJdW0NIMl0xKVtOSF1DKD1PKVtDSDJdW05IXUMoPU8pW0NIMl1uMltjSF1uW2NIXW4y

> <s_epik_cmdline>
J2VwaWtfcHl0aG9uJywgJy1waCcsICc3LjAnLCAnLXRuJywgJzgnLCAnLW1hJywgJzIwMCcsICctbWV0YWxfYmluZGluZycsICctaW1hZScsICc8aW5maWxlLm1hZT4nLCAnLW9tYWUnLCAnPG91dGZpbGUubWFlPic=

> <r_lp_tautomer_probability>
1

> <r_epik_Ionization_Penalty>
7.34071e-06

> <r_epik_Ionization_Penalty_Charging>
0

> <r_epik_Ionization_Penalty_Neutral>
7.34071e-06

> <r_epik_State_Penalty>
-0

> <r_epik_Charging_Adjusted_Penalty>
0

> <i_epik_Tot_Q>
0

> <i_epik_Tot_abs_Q>
0

> <r_epik_Metal_State_Penalty>
-0

> <b_epik_Metal_Only>
0

> <s_lp_Force_Field>
OPLS_2005

> <r_lp_Energy>
7.17082

> <b_lp_Chiralities_Consistent>
1

> <s_lp_Variant>
AV-unprocessed.smi:1440-1

> <Gold.Version>
5.8.1

> <Gold.Id.Protein>
6NUR|6NUR_protein|mol2

> <Gold.PLP.Fitness>
47.9243

> <Gold.PLP.PLP>
-45.7206

> <Gold.PLP.part.hbond>
-1.0000

> <Gold.PLP.part.metal>
0.0000

> <Gold.PLP.part.buried>
-6.1835

> <Gold.PLP.part.nonpolar>
-38.1094

> <Gold.PLP.part.repulsive>
0.1045

> <Gold.PLP.ligand.clash>
0.0000

> <Gold.PLP.ligand.torsion>
0.4057

> <Gold.PLP.Chemscore.Hbond>
1.0000

> <Gold.PLP.Chemscore.CHOScore>
0.0000

> <Gold.PLP.Chemscore.Metal>
0.0000

> <Gold.Chemscore.Hbonds>
donor molecule, donor type, donor heavy atom, donor atom, acceptor molecule, acceptor atom, score
      P1  H  7997  8010       L1     8  1.00

> <Gold.PLP.Chemscore.Internal.Correction>
0.0150

> <Gold.Rescore>
     Score         DG    S(hbond)    S(metal)    S(lipo)     H(rot)  DE(clash)    DE(int)     intcor
     11.05     -12.79       0.98        0.00      96.99       2.86       0.00       1.73       ----

> <Gold.Chemscore.Fitness>
11.0507

> <Gold.Chemscore.DG>
-12.7856

> <Gold.Chemscore.ZeroCoef>
-5.4800

> <Gold.Chemscore.Hbond>
0.9833

> <Gold.Chemscore.Metal>
0.0000

> <Gold.Chemscore.Lipo>
96.9931

> <Gold.Chemscore.Internal_Hbond>
0.0000

> <Gold.Chemscore.DEClash>
0.0000

> <Gold.Chemscore.DEInternal>
1.7349

> <Gold.Chemscore.Rot>
2.8621

> <Gold.Chemscore.Internal.Correction>
   9.000000E+99

> <Gold.Chemscore.Hbonds>
donor molecule, donor type, donor heavy atom, donor atom, acceptor molecule, acceptor atom, score
      P1  H  7997  8010       L1     8  0.95

> <Gold.Chemscore.Hbond.Weighted>
-3.2844

> <Gold.Chemscore.Metal.Weighted>
-0.0000

> <Gold.Chemscore.Lipo.Weighted>
-11.3482

> <Gold.Chemscore.Internal_Hbond.Weighted>
0.0000

> <Gold.Chemscore.DEClash.Weighted>
0.0000

> <Gold.Chemscore.DEInternal.Weighted>
1.7349

> <Gold.Chemscore.Rot.Weighted>
7.3270

> <Gold.Chemscore.Internal.Correction.Weighted>
   9.000000E+99

> <Gold.Protein.RotatedTorsions>
[ 6907 6896 6895 6894 ] final  103.87 input  -60.11 | X-H torsion
[ 7974 7965 7964 7962 ] final  143.69 input  175.53 | X-H torsion
[ 8008 7997 7996 7995 ] final  -15.10 input   59.86 | X-H torsion
[ 10167 10162 10161 10158 ] final -130.56 input  -65.29 | X-H torsion
[ 10718 10713 10712 10709 ] final  -89.78 input   66.30 | X-H torsion
[ 10763 10752 10751 10750 ] final    7.34 input  -60.55 | X-H torsion
[ 11005 11000 10999 10996 ] final -158.20 input  -57.11 | X-H torsion

> <Gold.Protein.ActiveResidues>
 VAL166  LYS551  ARG553  GLY616  TRP617  ASP618  TYR619  PRO620  LYS621  CYS622 
 ASP623  PHE694  ASN695  SER759  ASP760  ASP761  ALA762  ILE779  LEU786  VAL792 
 PHE793  MET794  SER795  GLU796  ALA797  LYS798  CYS799  TRP800  GLU811  SER814 

> <Gold.Protein.RotatedAtoms>
  152.5282  133.9761  159.7784 H   0  0  0  0  0  0  0  0  0  0  0  0  # atno 6907 bound_to 6896
  151.0024  133.6036  159.2700 H   0  0  0  0  0  0  0  0  0  0  0  0  # atno 6908 bound_to 6896
  151.3140  135.0808  159.9335 H   0  0  0  0  0  0  0  0  0  0  0  0  # atno 6909 bound_to 6896
  144.8900  139.5573  143.5803 H   0  0  0  0  0  0  0  0  0  0  0  0  # atno 7974 bound_to 7965
  154.5157  140.2205  155.9071 H   0  0  0  0  0  0  0  0  0  0  0  0  # atno 8008 bound_to 7997
  156.1604  140.3143  155.8764 H   0  0  0  0  0  0  0  0  0  0  0  0  # atno 8009 bound_to 7997
  155.3762  140.0469  157.3035 H   0  0  0  0  0  0  0  0  0  0  0  0  # atno 8010 bound_to 7997
  139.9280  143.6305  152.2537 H   0  0  0  0  0  0  0  0  0  0  0  0  # atno 10167 bound_to 10162
  155.9985  130.4885  150.5224 H   0  0  0  0  0  0  0  0  0  0  0  0  # atno 10718 bound_to 10713
  153.2374  135.6899  153.7821 H   0  0  0  0  0  0  0  0  0  0  0  0  # atno 10763 bound_to 10752
  153.6963  135.3304  155.3215 H   0  0  0  0  0  0  0  0  0  0  0  0  # atno 10764 bound_to 10752
  154.8341  135.4557  154.1283 H   0  0  0  0  0  0  0  0  0  0  0  0  # atno 10765 bound_to 10752
  140.6562  134.4397  157.5235 H   0  0  0  0  0  0  0  0  0  0  0  0  # atno 11005 bound_to 11000
  146.3048  139.7542  142.9065 LP  0  0  0  0  0  0  0  0  0  0  0  0  # atno 17320 bound_to 7965
  145.3801  141.0357  143.3182 LP  0  0  0  0  0  0  0  0  0  0  0  0  # atno 17321 bound_to 7965
  139.6806  144.7656  151.1616 LP  0  0  0  0  0  0  0  0  0  0  0  0  # atno 17342 bound_to 10162
  140.7645  143.5731  150.8975 LP  0  0  0  0  0  0  0  0  0  0  0  0  # atno 17343 bound_to 10162
  157.3184  131.0677  151.1950 LP  0  0  0  0  0  0  0  0  0  0  0  0  # atno 17370 bound_to 10713
  157.2872  130.6778  149.6096 LP  0  0  0  0  0  0  0  0  0  0  0  0  # atno 17371 bound_to 10713
  139.9028  134.8516  156.1824 LP  0  0  0  0  0  0  0  0  0  0  0  0  # atno 17394 bound_to 11000
  141.0499  133.6894  156.1753 LP  0  0  0  0  0  0  0  0  0  0  0  0  # atno 17395 bound_to 11000

$$$$
