AV-unprocessed.smi:2124|AV-procd|sdf|8657|dock6
  -GOLD-   2272011403D 1   1.00000     0.00000
 Structure written by MMmdl.
 47 49  0  0  0  0  0  0  0  0  1 V2000
  146.1493  149.9291  160.1674 C   0  0  0  0  0  0  0  0  0  0  0  0
  145.9075  148.4686  159.8490 C   0  0  0  0  0  0  0  0  0  0  0  0
  145.1000  148.0550  158.9283 N   0  0  0  0  0  0  0  0  0  0  0  0
  144.9573  146.6750  158.7275 C   0  0  0  0  0  0  0  0  0  0  0  0
  143.9864  146.2679  157.6322 C   0  0  0  0  0  0  0  0  0  0  0  0
  145.6488  145.7671  159.4770 C   0  0  0  0  0  0  0  0  0  0  0  0
  145.5070  144.2578  159.2855 C   0  0  0  0  0  0  0  0  0  0  0  0
  146.7842  143.4427  159.5028 C   0  0  0  0  0  0  0  0  0  0  0  0
  146.7876  142.4989  160.2934 O   0  0  0  0  0  0  0  0  0  0  0  0
  147.8564  143.8164  158.7864 N   0  0  0  0  0  0  0  0  0  0  0  0
  149.1670  143.1672  158.7910 C   0  0  1  0  0  0  0  0  0  0  0  0
  149.1517  142.0293  157.7586 C   0  0  0  0  0  0  0  0  0  0  0  0
  150.2740  144.2113  158.5045 C   0  0  1  0  0  0  0  0  0  0  0  0
  150.5924  145.1672  159.6781 C   0  0  0  0  0  0  0  0  0  0  0  0
  152.1274  145.0986  159.7768 C   0  0  1  0  0  0  0  0  0  0  0  0
  152.5294  143.7479  160.3968 C   0  0  0  0  0  0  0  0  0  0  0  0
  152.2458  142.7553  159.2550 C   0  0  0  0  0  0  0  0  0  0  0  0
  151.6781  143.6633  158.1444 C   0  0  2  0  0  0  0  0  0  0  0  0
  152.5360  144.9124  158.3204 C   0  0  0  0  0  0  0  0  0  0  0  0
  146.5693  146.2506  160.5245 C   0  0  0  0  0  0  0  0  0  0  0  0
  147.2368  145.5234  161.2581 O   0  0  0  0  0  0  0  0  0  0  0  0
  146.6436  147.5948  160.6473 N   0  0  0  0  0  0  0  0  0  0  0  0
  147.2588  147.9754  161.3513 H   0  0  0  0  0  0  0  0  0  0  0  0
  145.2209  150.4017  160.4886 H   0  0  0  0  0  0  0  0  0  0  0  0
  146.5117  150.4514  159.2818 H   0  0  0  0  0  0  0  0  0  0  0  0
  146.8870  150.0517  160.9615 H   0  0  0  0  0  0  0  0  0  0  0  0
  144.5034  145.7160  156.8470 H   0  0  0  0  0  0  0  0  0  0  0  0
  143.5179  147.1398  157.1739 H   0  0  0  0  0  0  0  0  0  0  0  0
  143.1933  145.6382  158.0358 H   0  0  0  0  0  0  0  0  0  0  0  0
  144.7344  143.8972  159.9657 H   0  0  0  0  0  0  0  0  0  0  0  0
  145.1265  144.0297  158.2895 H   0  0  0  0  0  0  0  0  0  0  0  0
  147.7518  144.6094  158.1702 H   0  0  0  0  0  0  0  0  0  0  0  0
  149.3405  142.7193  159.7695 H   0  0  0  0  0  0  0  0  0  0  0  0
  150.0848  141.4660  157.7738 H   0  0  0  0  0  0  0  0  0  0  0  0
  149.0095  142.4114  156.7473 H   0  0  0  0  0  0  0  0  0  0  0  0
  148.3458  141.3240  157.9651 H   0  0  0  0  0  0  0  0  0  0  0  0
  149.9401  144.8189  157.6610 H   0  0  0  0  0  0  0  0  0  0  0  0
  150.2578  146.1792  159.4474 H   0  0  0  0  0  0  0  0  0  0  0  0
  150.1205  144.8704  160.6152 H   0  0  0  0  0  0  0  0  0  0  0  0
  152.5726  145.9588  160.2775 H   0  0  0  0  0  0  0  0  0  0  0  0
  153.5875  143.7373  160.6611 H   0  0  0  0  0  0  0  0  0  0  0  0
  151.9575  143.5202  161.2973 H   0  0  0  0  0  0  0  0  0  0  0  0
  153.1746  142.2888  158.9238 H   0  0  0  0  0  0  0  0  0  0  0  0
  151.5713  141.9526  159.5495 H   0  0  0  0  0  0  0  0  0  0  0  0
  151.7321  143.2204  157.1493 H   0  0  0  0  0  0  0  0  0  0  0  0
  152.2361  145.7420  157.6775 H   0  0  0  0  0  0  0  0  0  0  0  0
  153.6041  144.7280  158.1907 H   0  0  0  0  0  0  0  0  0  0  0  0
  1  2  1  0  0  0  0
  1 24  1  0  0  0  0
  1 25  1  0  0  0  0
  1 26  1  0  0  0  0
  2 22  1  0  0  0  0
  2  3  2  0  0  0  0
  3  4  1  0  0  0  0
  4  5  1  0  0  0  0
  4  6  2  0  0  0  0
  5 27  1  0  0  0  0
  5 28  1  0  0  0  0
  5 29  1  0  0  0  0
  6  7  1  0  0  0  0
  6 20  1  0  0  0  0
  7  8  1  0  0  0  0
  7 30  1  0  0  0  0
  7 31  1  0  0  0  0
  8  9  2  0  0  0  0
  8 10  1  0  0  0  0
 10 11  1  0  0  0  0
 10 32  1  0  0  0  0
 11 12  1  0  0  0  0
 11 13  1  0  0  0  0
 11 33  1  0  0  0  0
 12 34  1  0  0  0  0
 12 35  1  0  0  0  0
 12 36  1  0  0  0  0
 13 18  1  0  0  0  0
 13 14  1  0  0  0  0
 13 37  1  0  0  0  0
 14 15  1  0  0  0  0
 14 38  1  0  0  0  0
 14 39  1  0  0  0  0
 15 19  1  0  0  0  0
 15 16  1  0  0  0  0
 15 40  1  0  0  0  0
 16 17  1  0  0  0  0
 16 41  1  0  0  0  0
 16 42  1  0  0  0  0
 17 18  1  0  0  0  0
 17 43  1  0  0  0  0
 17 44  1  0  0  0  0
 18 19  1  0  0  0  0
 18 45  1  0  0  0  0
 19 46  1  0  0  0  0
 19 47  1  0  0  0  0
 20 21  2  0  0  0  0
 20 22  1  0  0  0  0
 22 23  1  0  0  0  0
M  END
> <s_m_source_file>
AV-unprocessed.smi

> <i_m_source_file_index>
2124

> <i_lp_mmshare_version>
43012

> <i_f3d_flags>
0

> <s_epik_input>
W0NIM11jMW5jKFtDSDNdKWMoYyg9TylbbkhdMSlbQ0gyXUMoPU8pW05IXVtDQEhdKFtDSDNdKVtDQEhdKFtDSDJdW0NASF0yMylbQ0BIXShbQ0gyXTMpW0NIMl1bQ0gyXTI=

> <s_epik_cmdline>
J2VwaWtfcHl0aG9uJywgJy1waCcsICc3LjAnLCAnLXRuJywgJzgnLCAnLW1hJywgJzIwMCcsICctbWV0YWxfYmluZGluZycsICctaW1hZScsICc8aW5maWxlLm1hZT4nLCAnLW9tYWUnLCAnPG91dGZpbGUubWFlPic=

> <r_lp_tautomer_probability>
0.839158

> <r_epik_Ionization_Penalty>
0.000383628

> <r_epik_Ionization_Penalty_Charging>
0.00035045

> <r_epik_Ionization_Penalty_Neutral>
3.31781e-05

> <r_epik_State_Penalty>
0.09125

> <r_epik_Charging_Adjusted_Penalty>
0.0916005

> <i_epik_Tot_Q>
0

> <i_epik_Tot_abs_Q>
0

> <r_epik_Metal_State_Penalty>
0.255229

> <b_epik_Metal_Only>
0

> <s_lp_Force_Field>
OPLS_2005

> <r_lp_Energy>
52.5586

> <b_lp_Chiralities_Consistent>
1

> <s_lp_Variant>
AV-unprocessed.smi:2124-8

> <Gold.Version>
5.8.1

> <Gold.Id.Protein>
6NUR|6NUR_protein|mol2

> <Gold.PLP.Fitness>
52.1079

> <Gold.PLP.PLP>
-46.4318

> <Gold.PLP.part.hbond>
-4.4043

> <Gold.PLP.part.metal>
0.0000

> <Gold.PLP.part.buried>
-5.5214

> <Gold.PLP.part.nonpolar>
-37.5075

> <Gold.PLP.part.repulsive>
0.7421

> <Gold.PLP.ligand.clash>
0.0000

> <Gold.PLP.ligand.torsion>
0.9592

> <Gold.PLP.Chemscore.Hbond>
2.5255

> <Gold.PLP.Chemscore.CHOScore>
0.0000

> <Gold.PLP.Chemscore.Metal>
0.0000

> <Gold.Chemscore.Hbonds>
donor molecule, donor type, donor heavy atom, donor atom, acceptor molecule, acceptor atom, score
      L1  H    10    32       P1  8029  1.00
      P1  H  6933  6944       L1     9  0.66
      P1  H  6934  6946       L1     9  0.99

> <Gold.PLP.Chemscore.Internal.Correction>
0.0182

> <Gold.Rescore>
     Score         DG    S(hbond)    S(metal)    S(lipo)     H(rot)  DE(clash)    DE(int)     intcor
     18.11     -20.64       2.02        0.00     108.12       1.65       0.26       2.28       ----

> <Gold.Chemscore.Fitness>
18.1067

> <Gold.Chemscore.DG>
-20.6420

> <Gold.Chemscore.ZeroCoef>
-5.4800

> <Gold.Chemscore.Hbond>
2.0193

> <Gold.Chemscore.Metal>
0.0000

> <Gold.Chemscore.Lipo>
108.1216

> <Gold.Chemscore.Internal_Hbond>
0.0000

> <Gold.Chemscore.DEClash>
0.2583

> <Gold.Chemscore.DEInternal>
2.2770

> <Gold.Chemscore.Rot>
1.6534

> <Gold.Chemscore.Internal.Correction>
   9.000000E+99

> <Gold.Chemscore.Hbonds>
donor molecule, donor type, donor heavy atom, donor atom, acceptor molecule, acceptor atom, score
      L1  H    10    32       P1  8029  0.74
      P1  H  6933  6944       L1     9  0.57
      P1  H  6934  6946       L1     9  0.94

> <Gold.Chemscore.Hbond.Weighted>
-6.7444

> <Gold.Chemscore.Metal.Weighted>
-0.0000

> <Gold.Chemscore.Lipo.Weighted>
-12.6502

> <Gold.Chemscore.Internal_Hbond.Weighted>
0.0000

> <Gold.Chemscore.DEClash.Weighted>
0.2583

> <Gold.Chemscore.DEInternal.Weighted>
2.2770

> <Gold.Chemscore.Rot.Weighted>
4.2326

> <Gold.Chemscore.Internal.Correction.Weighted>
   9.000000E+99

> <Gold.Protein.RotatedTorsions>
[ 6907 6896 6895 6894 ] final -159.25 input  -60.11 | X-H torsion
[ 7974 7965 7964 7962 ] final   85.73 input  175.53 | X-H torsion
[ 8008 7997 7996 7995 ] final  170.69 input   59.86 | X-H torsion
[ 10167 10162 10161 10158 ] final  155.56 input  -65.29 | X-H torsion
[ 10718 10713 10712 10709 ] final  -79.72 input   66.30 | X-H torsion
[ 10763 10752 10751 10750 ] final -112.29 input  -60.55 | X-H torsion
[ 11005 11000 10999 10996 ] final -171.41 input  -57.11 | X-H torsion

> <Gold.Protein.ActiveResidues>
 VAL166  LYS551  ARG553  GLY616  TRP617  ASP618  TYR619  PRO620  LYS621  CYS622 
 ASP623  PHE694  ASN695  SER759  ASP760  ASP761  ALA762  ILE779  LEU786  VAL792 
 PHE793  MET794  SER795  GLU796  ALA797  LYS798  CYS799  TRP800  GLU811  SER814 

> <Gold.Protein.RotatedAtoms>
  151.3307  133.4002  159.2662 H   0  0  0  0  0  0  0  0  0  0  0  0  # atno 6907 bound_to 6896
  150.9958  134.9283  159.7936 H   0  0  0  0  0  0  0  0  0  0  0  0  # atno 6908 bound_to 6896
  152.5261  134.3272  159.9222 H   0  0  0  0  0  0  0  0  0  0  0  0  # atno 6909 bound_to 6896
  145.5816  139.2326  143.2350 H   0  0  0  0  0  0  0  0  0  0  0  0  # atno 7974 bound_to 7965
  156.1341  140.1531  156.9021 H   0  0  0  0  0  0  0  0  0  0  0  0  # atno 8008 bound_to 7997
  154.4933  140.0845  156.7681 H   0  0  0  0  0  0  0  0  0  0  0  0  # atno 8009 bound_to 7997
  155.4201  140.3422  155.4273 H   0  0  0  0  0  0  0  0  0  0  0  0  # atno 8010 bound_to 7997
  139.4821  144.5087  151.8057 H   0  0  0  0  0  0  0  0  0  0  0  0  # atno 10167 bound_to 10162
  156.0086  130.4554  150.3691 H   0  0  0  0  0  0  0  0  0  0  0  0  # atno 10718 bound_to 10713
  154.8342  135.4496  154.1170 H   0  0  0  0  0  0  0  0  0  0  0  0  # atno 10763 bound_to 10752
  153.2417  135.6917  153.7782 H   0  0  0  0  0  0  0  0  0  0  0  0  # atno 10764 bound_to 10752
  153.7128  135.3354  155.3226 H   0  0  0  0  0  0  0  0  0  0  0  0  # atno 10765 bound_to 10752
  140.5086  134.5824  157.5011 H   0  0  0  0  0  0  0  0  0  0  0  0  # atno 11005 bound_to 11000
  146.1712  140.6642  142.9232 LP  0  0  0  0  0  0  0  0  0  0  0  0  # atno 17320 bound_to 7965
  144.7391  140.4893  143.6882 LP  0  0  0  0  0  0  0  0  0  0  0  0  # atno 17321 bound_to 7965
  140.4588  144.1751  150.5904 LP  0  0  0  0  0  0  0  0  0  0  0  0  # atno 17342 bound_to 10162
  140.4507  143.2488  151.9352 LP  0  0  0  0  0  0  0  0  0  0  0  0  # atno 17343 bound_to 10162
  157.1776  131.0384  151.2764 LP  0  0  0  0  0  0  0  0  0  0  0  0  # atno 17370 bound_to 10713
  157.4174  130.7418  149.6886 LP  0  0  0  0  0  0  0  0  0  0  0  0  # atno 17371 bound_to 10713
  139.9672  134.7353  156.0114 LP  0  0  0  0  0  0  0  0  0  0  0  0  # atno 17394 bound_to 11000
  141.1398  133.6567  156.3696 LP  0  0  0  0  0  0  0  0  0  0  0  0  # atno 17395 bound_to 11000

$$$$
