AV-unprocessed.smi:2510|AV-procd|sdf|9875|dock6
  -GOLD-   2272013503D 1   1.00000     0.00000
 Structure written by MMmdl.
 48 49  0  0  0  0  0  0  0  0  1 V2000
  146.0401  142.7612  153.8568 C   0  0  0  0  0  0  0  0  0  0  0  0
  147.5142  142.3232  153.8149 C   0  0  0  0  0  0  0  0  0  0  0  0
  147.8734  141.0006  154.5349 C   0  0  0  0  0  0  0  0  0  0  0  0
  146.8008  140.7816  155.6404 C   0  0  0  0  0  0  0  0  0  0  0  0
  146.9850  139.5433  156.5384 C   0  0  0  0  0  0  0  0  0  0  0  0
  148.1699  139.7622  153.6373 C   0  0  2  0  0  0  0  0  0  0  0  0
  147.0746  138.7998  153.5619 N   0  0  0  0  0  0  0  0  0  0  0  0
  146.5027  138.3779  152.4253 C   0  0  0  0  0  0  0  0  0  0  0  0
  146.8439  138.7823  151.3125 O   0  0  0  0  0  0  0  0  0  0  0  0
  145.3831  137.3424  152.5927 C   0  0  0  0  0  0  0  0  0  0  0  0
  145.6073  136.1138  151.7489 C   0  0  0  0  0  0  0  0  0  0  0  0
  145.8602  134.7812  152.1907 C   0  0  0  0  0  0  0  0  0  0  0  0
  145.9880  134.0610  151.0368 C   0  0  0  0  0  0  0  0  0  0  0  0
  146.2552  132.6135  150.8020 C   0  0  0  0  0  0  0  0  0  0  0  0
  145.8178  134.9547  150.0049 N   0  0  0  0  0  0  0  0  0  0  0  0
  145.5897  136.2123  150.4264 N   0  0  0  0  0  0  0  0  0  0  0  0
  149.2796  139.3356  154.6070 C   0  0  1  0  0  0  0  0  0  0  0  0
  150.5040  138.6183  154.0511 C   0  0  0  0  0  0  0  0  0  0  0  0
  149.3604  140.8297  154.9604 C   0  0  2  0  0  0  0  0  0  0  0  0
  149.5951  141.1021  156.3333 O   0  0  0  0  0  0  0  0  0  0  0  0
  150.9478  140.9356  156.7203 C   0  0  0  0  0  0  0  0  0  0  0  0
  145.8552  134.7240  149.0222 H   0  0  0  0  0  0  0  0  0  0  0  0
  145.8910  143.6432  153.2337 H   0  0  0  0  0  0  0  0  0  0  0  0
  145.7287  143.0315  154.8658 H   0  0  0  0  0  0  0  0  0  0  0  0
  145.3693  141.9873  153.4859 H   0  0  0  0  0  0  0  0  0  0  0  0
  147.7933  142.2453  152.7638 H   0  0  0  0  0  0  0  0  0  0  0  0
  148.1091  143.1441  154.2175 H   0  0  0  0  0  0  0  0  0  0  0  0
  146.7595  141.6555  156.2915 H   0  0  0  0  0  0  0  0  0  0  0  0
  145.8081  140.7156  155.1951 H   0  0  0  0  0  0  0  0  0  0  0  0
  146.1381  139.4412  157.2170 H   0  0  0  0  0  0  0  0  0  0  0  0
  147.8783  139.6192  157.1578 H   0  0  0  0  0  0  0  0  0  0  0  0
  147.0521  138.6196  155.9663 H   0  0  0  0  0  0  0  0  0  0  0  0
  148.5937  140.0132  152.6641 H   0  0  0  0  0  0  0  0  0  0  0  0
  146.7373  138.4217  154.4354 H   0  0  0  0  0  0  0  0  0  0  0  0
  145.3078  137.0743  153.6474 H   0  0  0  0  0  0  0  0  0  0  0  0
  144.4340  137.8071  152.3237 H   0  0  0  0  0  0  0  0  0  0  0  0
  145.9330  134.4122  153.2030 H   0  0  0  0  0  0  0  0  0  0  0  0
  146.4053  132.0872  151.7449 H   0  0  0  0  0  0  0  0  0  0  0  0
  147.1502  132.4783  150.1947 H   0  0  0  0  0  0  0  0  0  0  0  0
  145.4185  132.1447  150.2839 H   0  0  0  0  0  0  0  0  0  0  0  0
  148.8577  138.7800  155.4467 H   0  0  0  0  0  0  0  0  0  0  0  0
  150.9802  139.1973  153.2595 H   0  0  0  0  0  0  0  0  0  0  0  0
  150.2338  137.6494  153.6315 H   0  0  0  0  0  0  0  0  0  0  0  0
  151.2498  138.4400  154.8246 H   0  0  0  0  0  0  0  0  0  0  0  0
  150.0456  141.3740  154.3080 H   0  0  0  0  0  0  0  0  0  0  0  0
  151.0638  141.2212  157.7656 H   0  0  0  0  0  0  0  0  0  0  0  0
  151.6115  141.5640  156.1250 H   0  0  0  0  0  0  0  0  0  0  0  0
  151.2645  139.8977  156.6240 H   0  0  0  0  0  0  0  0  0  0  0  0
  1  2  1  0  0  0  0
  1 23  1  0  0  0  0
  1 24  1  0  0  0  0
  1 25  1  0  0  0  0
  2  3  1  0  0  0  0
  2 26  1  0  0  0  0
  2 27  1  0  0  0  0
  3 19  1  0  0  0  0
  3  4  1  0  0  0  0
  3  6  1  0  0  0  0
  4  5  1  0  0  0  0
  4 28  1  0  0  0  0
  4 29  1  0  0  0  0
  5 30  1  0  0  0  0
  5 31  1  0  0  0  0
  5 32  1  0  0  0  0
  6  7  1  0  0  0  0
  6 17  1  0  0  0  0
  6 33  1  0  0  0  0
  7  8  1  0  0  0  0
  7 34  1  0  0  0  0
  8  9  2  0  0  0  0
  8 10  1  0  0  0  0
 10 11  1  0  0  0  0
 10 35  1  0  0  0  0
 10 36  1  0  0  0  0
 11 16  2  0  0  0  0
 11 12  1  0  0  0  0
 12 13  2  0  0  0  0
 12 37  1  0  0  0  0
 13 14  1  0  0  0  0
 13 15  1  0  0  0  0
 14 38  1  0  0  0  0
 14 39  1  0  0  0  0
 14 40  1  0  0  0  0
 15 22  1  0  0  0  0
 15 16  1  0  0  0  0
 17 18  1  0  0  0  0
 17 19  1  0  0  0  0
 17 41  1  0  0  0  0
 18 42  1  0  0  0  0
 18 43  1  0  0  0  0
 18 44  1  0  0  0  0
 19 20  1  0  0  0  0
 19 45  1  0  0  0  0
 20 21  1  0  0  0  0
 21 46  1  0  0  0  0
 21 47  1  0  0  0  0
 21 48  1  0  0  0  0
M  END
> <s_m_source_file>
AV-unprocessed.smi

> <i_m_source_file_index>
2510

> <i_lp_mmshare_version>
43012

> <i_f3d_flags>
0

> <s_epik_input>
W0NIM11PW0NAQEhdMVtDQEhdKFtDSDNdKVtDQEBIXShDMShbQ0gyXVtDSDNdKVtDSDJdW0NIM10pW05IXUMoPU8pW0NIMl1jMltjSF1jKFtDSDNdKVtuSF1uMg==

> <s_epik_cmdline>
J2VwaWtfcHl0aG9uJywgJy1waCcsICc3LjAnLCAnLXRuJywgJzgnLCAnLW1hJywgJzIwMCcsICctbWV0YWxfYmluZGluZycsICctaW1hZScsICc8aW5maWxlLm1hZT4nLCAnLW9tYWUnLCAnPG91dGZpbGUubWFlPic=

> <r_lp_tautomer_probability>
0.5

> <r_epik_Ionization_Penalty>
9.73156e-05

> <r_epik_Ionization_Penalty_Charging>
0

> <r_epik_Ionization_Penalty_Neutral>
9.73156e-05

> <r_epik_State_Penalty>
0.41068

> <r_epik_Charging_Adjusted_Penalty>
0.41068

> <i_epik_Tot_Q>
0

> <i_epik_Tot_abs_Q>
0

> <r_epik_Metal_State_Penalty>
0.410699

> <b_epik_Metal_Only>
0

> <s_lp_Force_Field>
OPLS_2005

> <r_lp_Energy>
28.5674

> <b_lp_Chiralities_Consistent>
1

> <s_lp_Variant>
AV-unprocessed.smi:2510-6

> <Gold.Version>
5.8.1

> <Gold.Id.Protein>
6NUR|6NUR_protein|mol2

> <Gold.PLP.Fitness>
36.4017

> <Gold.PLP.PLP>
-32.9564

> <Gold.PLP.part.hbond>
-1.7211

> <Gold.PLP.part.metal>
0.0000

> <Gold.PLP.part.buried>
-4.3427

> <Gold.PLP.part.nonpolar>
-28.5848

> <Gold.PLP.part.repulsive>
1.3342

> <Gold.PLP.ligand.clash>
0.0000

> <Gold.PLP.ligand.torsion>
1.0171

> <Gold.PLP.Chemscore.Hbond>
1.6338

> <Gold.PLP.Chemscore.CHOScore>
0.0000

> <Gold.PLP.Chemscore.Metal>
0.0000

> <Gold.Chemscore.Hbonds>
donor molecule, donor type, donor heavy atom, donor atom, acceptor molecule, acceptor atom, score
      L1  H    15    22       P1  7921  0.71
      P1  H  7954  7966       L1     9  0.73

> <Gold.PLP.Chemscore.Internal.Correction>
0.5782

> <Gold.Rescore>
     Score         DG    S(hbond)    S(metal)    S(lipo)     H(rot)  DE(clash)    DE(int)     intcor
     10.06     -12.93       0.94        0.00      76.33       1.81       0.06       2.81       ----

> <Gold.Chemscore.Fitness>
10.0568

> <Gold.Chemscore.DG>
-12.9268

> <Gold.Chemscore.ZeroCoef>
-5.4800

> <Gold.Chemscore.Hbond>
0.9432

> <Gold.Chemscore.Metal>
0.0000

> <Gold.Chemscore.Lipo>
76.3294

> <Gold.Chemscore.Internal_Hbond>
0.0000

> <Gold.Chemscore.DEClash>
0.0576

> <Gold.Chemscore.DEInternal>
2.8124

> <Gold.Chemscore.Rot>
1.8102

> <Gold.Chemscore.Internal.Correction>
   9.000000E+99

> <Gold.Chemscore.Hbonds>
donor molecule, donor type, donor heavy atom, donor atom, acceptor molecule, acceptor atom, score
      L1  H    15    22       P1  7921  0.62
      P1  H  7954  7966       L1     9  0.69

> <Gold.Chemscore.Hbond.Weighted>
-3.1504

> <Gold.Chemscore.Metal.Weighted>
-0.0000

> <Gold.Chemscore.Lipo.Weighted>
-8.9305

> <Gold.Chemscore.Internal_Hbond.Weighted>
0.0000

> <Gold.Chemscore.DEClash.Weighted>
0.0576

> <Gold.Chemscore.DEInternal.Weighted>
2.8124

> <Gold.Chemscore.Rot.Weighted>
4.6341

> <Gold.Chemscore.Internal.Correction.Weighted>
   9.000000E+99

> <Gold.Protein.RotatedTorsions>
[ 6907 6896 6895 6894 ] final  110.81 input  -60.11 | X-H torsion
[ 7974 7965 7964 7962 ] final   58.22 input  175.53 | X-H torsion
[ 8008 7997 7996 7995 ] final    8.54 input   59.86 | X-H torsion
[ 10167 10162 10161 10158 ] final  149.25 input  -65.29 | X-H torsion
[ 10718 10713 10712 10709 ] final   82.53 input   66.30 | X-H torsion
[ 10763 10752 10751 10750 ] final  111.79 input  -60.55 | X-H torsion
[ 11005 11000 10999 10996 ] final   25.22 input  -57.11 | X-H torsion

> <Gold.Protein.ActiveResidues>
 VAL166  LYS551  ARG553  GLY616  TRP617  ASP618  TYR619  PRO620  LYS621  CYS622 
 ASP623  PHE694  ASN695  SER759  ASP760  ASP761  ALA762  ILE779  LEU786  VAL792 
 PHE793  MET794  SER795  GLU796  ALA797  LYS798  CYS799  TRP800  GLU811  SER814 

> <Gold.Protein.RotatedAtoms>
  152.5001  133.8747  159.7316 H   0  0  0  0  0  0  0  0  0  0  0  0  # atno 6907 bound_to 6896
  150.9225  133.6854  159.2835 H   0  0  0  0  0  0  0  0  0  0  0  0  # atno 6908 bound_to 6896
  151.4227  135.1004  159.9671 H   0  0  0  0  0  0  0  0  0  0  0  0  # atno 6909 bound_to 6896
  145.9206  139.3726  143.0481 H   0  0  0  0  0  0  0  0  0  0  0  0  # atno 7974 bound_to 7965
  154.7682  140.2797  155.6159 H   0  0  0  0  0  0  0  0  0  0  0  0  # atno 8008 bound_to 7997
  156.2929  140.2646  156.2405 H   0  0  0  0  0  0  0  0  0  0  0  0  # atno 8009 bound_to 7997
  154.9933  140.0373  157.2318 H   0  0  0  0  0  0  0  0  0  0  0  0  # atno 8010 bound_to 7997
  139.4864  144.5616  151.7220 H   0  0  0  0  0  0  0  0  0  0  0  0  # atno 10167 bound_to 10162
  157.6859  131.0051  150.2388 H   0  0  0  0  0  0  0  0  0  0  0  0  # atno 10718 bound_to 10713
  153.4685  135.3706  155.2377 H   0  0  0  0  0  0  0  0  0  0  0  0  # atno 10763 bound_to 10752
  154.8757  135.3925  154.3840 H   0  0  0  0  0  0  0  0  0  0  0  0  # atno 10764 bound_to 10752
  153.4425  135.7084  153.6224 H   0  0  0  0  0  0  0  0  0  0  0  0  # atno 10765 bound_to 10752
  140.3502  134.2237  155.7681 H   0  0  0  0  0  0  0  0  0  0  0  0  # atno 11005 bound_to 11000
  145.8555  140.9505  143.0727 LP  0  0  0  0  0  0  0  0  0  0  0  0  # atno 17320 bound_to 7965
  144.6752  140.0462  143.7480 LP  0  0  0  0  0  0  0  0  0  0  0  0  # atno 17321 bound_to 7965
  140.5187  144.0912  150.6016 LP  0  0  0  0  0  0  0  0  0  0  0  0  # atno 17342 bound_to 10162
  140.3863  143.2776  152.0112 LP  0  0  0  0  0  0  0  0  0  0  0  0  # atno 17343 bound_to 10162
  156.3006  130.3758  149.7754 LP  0  0  0  0  0  0  0  0  0  0  0  0  # atno 17370 bound_to 10713
  156.5385  130.8289  151.3261 LP  0  0  0  0  0  0  0  0  0  0  0  0  # atno 17371 bound_to 10713
  141.2014  133.7963  157.0442 LP  0  0  0  0  0  0  0  0  0  0  0  0  # atno 17394 bound_to 11000
  140.0709  134.9703  157.1466 LP  0  0  0  0  0  0  0  0  0  0  0  0  # atno 17395 bound_to 11000

$$$$
