AV-unprocessed.smi:3132|AV-procd|sdf|11931|dock4
  -GOLD-   2272017323D 1   1.00000     0.00000
 Structure written by MMmdl.
 34 35  0  0  0  0  0  0  0  0  2 V2000
  150.9563  139.8964  155.3497 C   0  0  0  0  0  0  0  0  0  0  0  0
  150.0455  140.9246  156.0338 C   0  0  2  0  0  0  0  0  0  0  0  0
  149.3276  141.8134  154.9952 C   0  0  0  0  0  0  0  0  0  0  0  0
  148.2785  141.1026  154.2569 N   0  0  0  0  0  0  0  0  0  0  0  0
  148.4053  139.9376  153.5443 C   0  0  0  0  0  0  0  0  0  0  0  0
  147.1680  139.6632  153.0215 C   0  0  0  0  0  0  0  0  0  0  0  0
  146.3378  140.6677  153.4416 N   0  3  0  0  0  0  0  0  0  0  0  0
  147.0138  141.5395  154.1966 C   0  0  0  0  0  0  0  0  0  0  0  0
  150.8498  141.7308  156.9509 N   0  0  0  0  0  0  0  0  0  0  0  0
  150.5367  142.0295  158.2228 C   0  0  0  0  0  0  0  0  0  0  0  0
  149.4888  141.6673  158.7586 O   0  0  0  0  0  0  0  0  0  0  0  0
  151.5384  142.8903  159.0061 C   0  0  1  0  0  0  0  0  0  0  0  0
  151.7222  144.3145  158.4475 C   0  0  0  0  0  0  0  0  0  0  0  0
  151.4059  145.2192  159.6270 C   0  0  0  0  0  0  0  0  0  0  0  0
  151.6076  144.2993  160.8231 C   0  0  0  0  0  0  0  0  0  0  0  0
  151.0929  143.0670  160.3500 O   0  0  0  0  0  0  0  0  0  0  0  0
  150.3865  139.2513  154.6804 H   0  0  0  0  0  0  0  0  0  0  0  0
  151.4469  139.2557  156.0835 H   0  0  0  0  0  0  0  0  0  0  0  0
  151.7339  140.3831  154.7597 H   0  0  0  0  0  0  0  0  0  0  0  0
  149.2975  140.3638  156.5972 H   0  0  0  0  0  0  0  0  0  0  0  0
  148.8765  142.6835  155.4745 H   0  0  0  0  0  0  0  0  0  0  0  0
  150.0404  142.1921  154.2611 H   0  0  0  0  0  0  0  0  0  0  0  0
  149.3434  139.4087  153.4582 H   0  0  0  0  0  0  0  0  0  0  0  0
  146.8253  138.8503  152.3978 H   0  0  0  0  0  0  0  0  0  0  0  0
  146.6185  142.4272  154.6577 H   0  0  0  0  0  0  0  0  0  0  0  0
  151.7321  142.0747  156.5987 H   0  0  0  0  0  0  0  0  0  0  0  0
  152.5007  142.3768  159.0272 H   0  0  0  0  0  0  0  0  0  0  0  0
  152.7542  144.4552  158.1246 H   0  0  0  0  0  0  0  0  0  0  0  0
  151.0786  144.5440  157.5970 H   0  0  0  0  0  0  0  0  0  0  0  0
  152.0335  146.1100  159.6635 H   0  0  0  0  0  0  0  0  0  0  0  0
  150.3641  145.5386  159.5801 H   0  0  0  0  0  0  0  0  0  0  0  0
  152.6664  144.1906  161.0635 H   0  0  0  0  0  0  0  0  0  0  0  0
  151.0811  144.6421  161.7139 H   0  0  0  0  0  0  0  0  0  0  0  0
  145.3544  140.7435  153.2133 H   0  0  0  0  0  0  0  0  0  0  0  0
  1  2  1  0  0  0  0
  1 17  1  0  0  0  0
  1 18  1  0  0  0  0
  1 19  1  0  0  0  0
  2  3  1  0  0  0  0
  2  9  1  0  0  0  0
  2 20  1  0  0  0  0
  3  4  1  0  0  0  0
  3 21  1  0  0  0  0
  3 22  1  0  0  0  0
  4  8  1  0  0  0  0
  4  5  1  0  0  0  0
  5  6  2  0  0  0  0
  5 23  1  0  0  0  0
  6  7  1  0  0  0  0
  6 24  1  0  0  0  0
  7  8  2  0  0  0  0
  7 34  1  0  0  0  0
  8 25  1  0  0  0  0
  9 10  1  0  0  0  0
  9 26  1  0  0  0  0
 10 11  2  0  0  0  0
 10 12  1  0  0  0  0
 12 16  1  0  0  0  0
 12 13  1  0  0  0  0
 12 27  1  0  0  0  0
 13 14  1  0  0  0  0
 13 28  1  0  0  0  0
 13 29  1  0  0  0  0
 14 15  1  0  0  0  0
 14 30  1  0  0  0  0
 14 31  1  0  0  0  0
 15 16  1  0  0  0  0
 15 32  1  0  0  0  0
 15 33  1  0  0  0  0
M  CHG  1   7   1
M  END
> <s_m_source_file>
AV-unprocessed.smi

> <i_m_source_file_index>
3132

> <i_lp_mmshare_version>
43012

> <i_f3d_flags>
0

> <s_epik_input>
W2NIXTFuW2NIXVtjSF1uMVtDSDJdW0NAQEhdKFtDSDNdKVtOSF1DKD1PKVtDQEBIXTJbQ0gyXVtDSDJdW0NIMl1PMg==

> <s_epik_cmdline>
J2VwaWtfcHl0aG9uJywgJy1waCcsICc3LjAnLCAnLXRuJywgJzgnLCAnLW1hJywgJzIwMCcsICctbWV0YWxfYmluZGluZycsICctaW1hZScsICc8aW5maWxlLm1hZT4nLCAnLW9tYWUnLCAnPG91dGZpbGUubWFlPic=

> <r_lp_tautomer_probability>
1

> <r_epik_Ionization_Penalty>
0.250802

> <r_epik_Ionization_Penalty_Charging>
0

> <r_epik_Ionization_Penalty_Neutral>
0.250802

> <r_epik_State_Penalty>
0.242139

> <r_epik_Charging_Adjusted_Penalty>
0.242139

> <i_epik_Tot_Q>
1

> <i_epik_Tot_abs_Q>
1

> <r_epik_Metal_State_Penalty>
0.533361

> <b_epik_Metal_Only>
0

> <s_lp_Force_Field>
OPLS_2005

> <r_lp_Energy>
20.312

> <b_lp_Chiralities_Consistent>
1

> <s_lp_Variant>
AV-unprocessed.smi:3132-3

> <Gold.Version>
5.8.1

> <Gold.Id.Protein>
6NUR|6NUR_protein|mol2

> <Gold.PLP.Fitness>
42.6240

> <Gold.PLP.PLP>
-36.8741

> <Gold.PLP.part.hbond>
-1.7508

> <Gold.PLP.part.metal>
0.0000

> <Gold.PLP.part.buried>
0.2433

> <Gold.PLP.part.nonpolar>
-35.2558

> <Gold.PLP.part.repulsive>
0.2107

> <Gold.PLP.ligand.clash>
0.0000

> <Gold.PLP.ligand.torsion>
0.3082

> <Gold.PLP.Chemscore.Hbond>
2.0000

> <Gold.PLP.Chemscore.CHOScore>
0.1169

> <Gold.PLP.Chemscore.Metal>
0.0000

> <Gold.Chemscore.Hbonds>
donor molecule, donor type, donor heavy atom, donor atom, acceptor molecule, acceptor atom, score
      L1  H     7    34       P1 10175  2.00
      L1  C     5    23       P1  7957  0.26

> <Gold.PLP.Chemscore.Internal.Correction>
0.0158

> <Gold.Rescore>
     Score         DG    S(hbond)    S(metal)    S(lipo)     H(rot)  DE(clash)    DE(int)     intcor
     12.87     -13.33       0.97        0.00      81.73       1.93       0.01       0.45       ----

> <Gold.Chemscore.Fitness>
12.8721

> <Gold.Chemscore.DG>
-13.3336

> <Gold.Chemscore.ZeroCoef>
-5.4800

> <Gold.Chemscore.Hbond>
0.9682

> <Gold.Chemscore.Metal>
0.0000

> <Gold.Chemscore.Lipo>
81.7335

> <Gold.Chemscore.Internal_Hbond>
0.0000

> <Gold.Chemscore.DEClash>
0.0149

> <Gold.Chemscore.DEInternal>
0.4466

> <Gold.Chemscore.Rot>
1.9308

> <Gold.Chemscore.Internal.Correction>
   9.000000E+99

> <Gold.Chemscore.Hbonds>
donor molecule, donor type, donor heavy atom, donor atom, acceptor molecule, acceptor atom, score
      L1  H     7    34       P1 10175  0.78

> <Gold.Chemscore.Hbond.Weighted>
-3.2337

> <Gold.Chemscore.Metal.Weighted>
-0.0000

> <Gold.Chemscore.Lipo.Weighted>
-9.5628

> <Gold.Chemscore.Internal_Hbond.Weighted>
0.0000

> <Gold.Chemscore.DEClash.Weighted>
0.0149

> <Gold.Chemscore.DEInternal.Weighted>
0.4466

> <Gold.Chemscore.Rot.Weighted>
4.9429

> <Gold.Chemscore.Internal.Correction.Weighted>
   9.000000E+99

> <Gold.Protein.RotatedTorsions>
[ 6907 6896 6895 6894 ] final   39.84 input  -60.11 | X-H torsion
[ 7974 7965 7964 7962 ] final -108.26 input  175.53 | X-H torsion
[ 8008 7997 7996 7995 ] final  -61.27 input   59.86 | X-H torsion
[ 10167 10162 10161 10158 ] final  143.63 input  -65.29 | X-H torsion
[ 10718 10713 10712 10709 ] final   94.79 input   66.30 | X-H torsion
[ 10763 10752 10751 10750 ] final   78.05 input  -60.55 | X-H torsion
[ 11005 11000 10999 10996 ] final  -61.77 input  -57.11 | X-H torsion

> <Gold.Protein.ActiveResidues>
 VAL166  LYS551  ARG553  GLY616  TRP617  ASP618  TYR619  PRO620  LYS621  CYS622 
 ASP623  PHE694  ASN695  SER759  ASP760  ASP761  ALA762  ILE779  LEU786  VAL792 
 PHE793  MET794  SER795  GLU796  ALA797  LYS798  CYS799  TRP800  GLU811  SER814 

> <Gold.Protein.RotatedAtoms>
  152.1748  134.8804  160.0531 H   0  0  0  0  0  0  0  0  0  0  0  0  # atno 6907 bound_to 6896
  151.9750  133.3733  159.4094 H   0  0  0  0  0  0  0  0  0  0  0  0  # atno 6908 bound_to 6896
  150.6907  134.4022  159.5168 H   0  0  0  0  0  0  0  0  0  0  0  0  # atno 6909 bound_to 6896
  145.1950  140.9031  143.3402 H   0  0  0  0  0  0  0  0  0  0  0  0  # atno 7974 bound_to 7965
  154.4439  140.1021  156.6404 H   0  0  0  0  0  0  0  0  0  0  0  0  # atno 8008 bound_to 7997
  155.5508  140.3485  155.4449 H   0  0  0  0  0  0  0  0  0  0  0  0  # atno 8009 bound_to 7997
  156.0530  140.1308  157.0017 H   0  0  0  0  0  0  0  0  0  0  0  0  # atno 8010 bound_to 7997
  139.4965  144.6027  151.6445 H   0  0  0  0  0  0  0  0  0  0  0  0  # atno 10167 bound_to 10162
  157.6945  131.0524  150.4240 H   0  0  0  0  0  0  0  0  0  0  0  0  # atno 10718 bound_to 10713
  153.0844  135.4891  154.8568 H   0  0  0  0  0  0  0  0  0  0  0  0  # atno 10763 bound_to 10752
  154.7192  135.3036  154.9076 H   0  0  0  0  0  0  0  0  0  0  0  0  # atno 10764 bound_to 10752
  153.9746  135.6797  153.4801 H   0  0  0  0  0  0  0  0  0  0  0  0  # atno 10765 bound_to 10752
  141.1336  133.6633  156.5425 H   0  0  0  0  0  0  0  0  0  0  0  0  # atno 11005 bound_to 11000
  145.0003  139.3604  143.6170 LP  0  0  0  0  0  0  0  0  0  0  0  0  # atno 17320 bound_to 7965
  146.3429  139.9224  142.8765 LP  0  0  0  0  0  0  0  0  0  0  0  0  # atno 17321 bound_to 7965
  140.5681  144.0155  150.6203 LP  0  0  0  0  0  0  0  0  0  0  0  0  # atno 17342 bound_to 10162
  140.3264  143.3105  152.0732 LP  0  0  0  0  0  0  0  0  0  0  0  0  # atno 17343 bound_to 10162
  156.4613  130.4032  149.6575 LP  0  0  0  0  0  0  0  0  0  0  0  0  # atno 17370 bound_to 10713
  156.3689  130.7520  151.2501 LP  0  0  0  0  0  0  0  0  0  0  0  0  # atno 17371 bound_to 10713
  140.4128  134.7257  157.4845 LP  0  0  0  0  0  0  0  0  0  0  0  0  # atno 17394 bound_to 11000
  140.0415  134.6260  155.8975 LP  0  0  0  0  0  0  0  0  0  0  0  0  # atno 17395 bound_to 11000

$$$$
