#       Name:                AV-unprocessed.smi:2067
#       Creating user name   scv26
#       Creation time:       Fri Mar 27 11:11:48 2020


#       File generated by GOLD software.
#

@<TRIPOS>MOLECULE
AV-unprocessed.smi:2067
    54    55     1
SMALL
NO_CHARGES


@<TRIPOS>ATOM
      1 ****        -3.7226   2.0382   2.6981 C.3            1 S1                 0.0000
      2 ****        -3.7078   0.5981   3.2340 C.3            1 S1                 0.0000
      3 ****        -4.6793  -0.3135   2.4576 C.3            1 S1                 0.0000
      4 ****        -4.6875  -1.7414   3.0258 C.3            1 S1                 0.0000
      5 ****        -3.2729  -2.3388   3.0482 C.3            1 S1                 0.0000
      6 ****        -2.2986  -1.4353   3.8223 C.3            1 S1                 0.0000
      7 ****        -2.2820   0.0029   3.2604 C.3            1 S1                 0.0000
      8 ****        -1.7621   0.0033   1.9353 O.3            1 S1                 0.0000
      9 ****        -0.3457   0.0614   1.8614 C.3            1 S1                 0.0000
     10 ****         0.0754  -0.0644   0.3949 C.3            1 S1                 0.0000
     11 ****        -0.1640  -1.4107  -0.1006 N.pl3          1 S1                 0.0000
     12 ****         0.7941  -2.2849  -0.6021 C.2            1 S1                 0.0000
     13 ****         0.4604  -3.5380  -1.0201 C.2            1 S1                 0.0000
     14 ****        -0.8681  -4.0605  -0.9489 C.1            1 S1                 0.0000
     15 ****        -1.9374  -4.5011  -0.8900 N.1            1 S1                 0.0000
     16 ****         1.4556  -4.4723  -1.5418 C.2            1 S1                 0.0000
     17 ****         1.1906  -5.6155  -1.9208 O.2            1 S1                 0.0000
     18 ****         2.7740  -3.9731  -1.5735 N.am           1 S1                 0.0000
     19 ****         3.8000  -4.8689  -2.0705 C.3            1 S1                 0.0000
     20 ****         3.1505  -2.6916  -1.1196 C.2            1 S1                 0.0000
     21 ****         4.3280  -2.3199  -1.1324 O.2            1 S1                 0.0000
     22 ****         2.1201  -1.8451  -0.6417 N.am           1 S1                 0.0000
     23 ****         2.5651  -0.5310  -0.2242 C.3            1 S1                 0.0000
     24 ****        -3.4029   2.0805   1.6564 H              1 S1                 0.0000
     25 ****        -3.0571   2.6790   3.2768 H              1 S1                 0.0000
     26 ****        -4.7237   2.4666   2.7545 H              1 S1                 0.0000
     27 ****        -4.0593   0.6429   4.2659 H              1 S1                 0.0000
     28 ****        -5.6883   0.0987   2.4960 H              1 S1                 0.0000
     29 ****        -4.3995  -0.3421   1.4036 H              1 S1                 0.0000
     30 ****        -5.0957  -1.7296   4.0374 H              1 S1                 0.0000
     31 ****        -5.3487  -2.3739   2.4329 H              1 S1                 0.0000
     32 ****        -3.2957  -3.3320   3.4977 H              1 S1                 0.0000
     33 ****        -2.9180  -2.4712   2.0257 H              1 S1                 0.0000
     34 ****        -2.5970  -1.4054   4.8708 H              1 S1                 0.0000
     35 ****        -1.3000  -1.8708   3.8081 H              1 S1                 0.0000
     36 ****        -1.6612   0.6338   3.8994 H              1 S1                 0.0000
     37 ****        -0.0058   1.0184   2.2594 H              1 S1                 0.0000
     38 ****         0.1233  -0.7234   2.4555 H              1 S1                 0.0000
     39 ****        -0.4606   0.6554  -0.2244 H              1 S1                 0.0000
     40 ****         1.1371   0.1698   0.3175 H              1 S1                 0.0000
     41 ****        -0.9294  -1.8607   0.3810 H              1 S1                 0.0000
     42 ****         4.7049  -4.3200  -2.3292 H              1 S1                 0.0000
     43 ****         3.4257  -5.3516  -2.9750 H              1 S1                 0.0000
     44 ****         3.9959  -5.5962  -1.2814 H              1 S1                 0.0000
     45 ****         3.2365  -0.6683   0.6253 H              1 S1                 0.0000
     46 ****         1.7188   0.0870   0.0650 H              1 S1                 0.0000
     47 ****         3.0730  -0.0683  -1.0726 H              1 S1                 0.0000
     48 ****        -2.1333   0.7972   1.4538 LP             1 S1                 0.0000
     49 ****        -2.0649  -0.8341   1.4802 LP             1 S1                 0.0000
     50 ****        -2.8608  -4.8815  -0.8391 LP             1 S1                 0.0000
     51 ****         0.2491  -5.9499  -1.8805 LP             1 S1                 0.0000
     52 ****         1.9173  -6.2080  -2.2684 LP             1 S1                 0.0000
     53 ****         5.0422  -2.9328  -1.4704 LP             1 S1                 0.0000
     54 ****         4.5674  -1.4059  -0.8047 LP             1 S1                 0.0000
@<TRIPOS>BOND
    1    1    2 1     
    2    1   24 1     
    3    1   25 1     
    4    1   26 1     
    5    2    7 1     
    6    2    3 1     
    7    2   27 1     
    8    3    4 1     
    9    3   28 1     
   10    3   29 1     
   11    4    5 1     
   12    4   30 1     
   13    4   31 1     
   14    5    6 1     
   15    5   32 1     
   16    5   33 1     
   17    6    7 1     
   18    6   34 1     
   19    6   35 1     
   20    7    8 1     
   21    7   36 1     
   22    8    9 1     
   23    9   10 1     
   24    9   37 1     
   25    9   38 1     
   26   10   11 1     
   27   10   39 1     
   28   10   40 1     
   29   11   12 1     
   30   11   41 1     
   31   12   22 1     
   32   12   13 2     
   33   13   14 1     
   34   13   16 1     
   35   14   15 3     
   36   16   17 2     
   37   16   18 am    
   38   18   19 1     
   39   18   20 am    
   40   19   42 1     
   41   19   43 1     
   42   19   44 1     
   43   20   21 2     
   44   20   22 am    
   45   22   23 1     
   46   23   45 1     
   47   23   46 1     
   48   23   47 1     
   49    8   48 1     
   50    8   49 1     
   51   15   50 1     
   52   17   51 1     
   53   17   52 1     
   54   21   53 1     
   55   21   54 1     
@<TRIPOS>SUBSTRUCTURE
      1 S1             1
@<TRIPOS>SET
LONE_PAIRS      STATIC     ATOMS    <user>   **** ""
7 48 49 50 51 52 53 54
DONOR_HYDROGENS      STATIC     ATOMS    <user>   **** ""
1 41
ATOM$BLUE        STATIC     ATOMS    COLORGROUP SYSTEM
7 48 49 50 51 52 53 54
ATOM$RED        STATIC     ATOMS    COLORGROUP SYSTEM
1 41
