AV-unprocessed.smi:196|AV-procd|sdf|1538|dock9
  -GOLD-   2262019393D 1   1.00000     0.00000
 Structure written by MMmdl.
 47 50  0  0  0  0  0  0  0  0  1 V2000
  144.9886  137.5872  160.8803 C   0  0  0  0  0  0  0  0  0  0  0  0
  145.5155  136.1752  161.1836 C   0  0  2  0  0  0  0  0  0  0  0  0
  144.7036  135.5352  162.1573 O   0  0  0  0  0  0  0  0  0  0  0  0
  145.4464  134.4386  162.6579 C   0  0  0  0  0  0  0  0  0  0  0  0
  146.8319  135.0395  162.8632 C   0  0  0  0  0  0  0  0  0  0  0  0
  146.9640  136.0617  161.7297 C   0  0  2  0  0  0  0  0  0  0  0  0
  147.4134  137.2849  162.2897 O   0  0  0  0  0  0  0  0  0  0  0  0
  147.9887  135.6137  160.6585 C   0  0  0  0  0  0  0  0  0  0  0  0
  148.1462  136.5678  159.5709 N   0  0  0  0  0  0  0  0  0  0  0  0
  147.1420  137.1257  158.8107 C   0  0  0  0  0  0  0  0  0  0  0  0
  147.5381  137.9538  157.8831 N   0  0  0  0  0  0  0  0  0  0  0  0
  148.9194  137.9767  158.0223 C   0  0  0  0  0  0  0  0  0  0  0  0
  149.9640  138.6617  157.3481 C   0  0  0  0  0  0  0  0  0  0  0  0
  149.6993  139.4956  156.3077 N   0  0  0  0  0  0  0  0  0  0  0  0
  149.7986  138.7994  155.0292 C   0  0  0  0  0  0  0  0  0  0  0  0
  151.1630  139.1780  154.4303 C   0  0  2  0  0  0  0  0  0  0  0  0
  152.0143  138.1532  154.4850 F   0  0  0  0  0  0  0  0  0  0  0  0
  151.6731  140.3416  155.2896 C   0  0  0  0  0  0  0  0  0  0  0  0
  150.4437  140.7489  156.1185 C   0  0  2  0  0  0  0  0  0  0  0  0
  150.7365  141.5978  157.3744 C   0  0  0  0  0  0  0  0  0  0  0  0
  150.2320  142.8340  157.4026 N   0  0  0  0  0  0  0  0  0  0  0  0
  151.3664  141.1387  158.3259 O   0  0  0  0  0  0  0  0  0  0  0  0
  151.2396  138.4240  157.7562 N   0  0  0  0  0  0  0  0  0  0  0  0
  151.4743  137.5891  158.7726 C   0  0  0  0  0  0  0  0  0  0  0  0
  150.5985  136.8923  159.4995 N   0  0  0  0  0  0  0  0  0  0  0  0
  149.3194  137.1157  159.0817 C   0  0  0  0  0  0  0  0  0  0  0  0
  151.0648  139.4589  153.3813 H   0  0  0  0  0  0  0  0  0  0  0  0
  149.8080  141.3764  155.4909 H   0  0  0  0  0  0  0  0  0  0  0  0
  145.6102  138.0880  160.1376 H   0  0  0  0  0  0  0  0  0  0  0  0
  144.9634  138.2081  161.7761 H   0  0  0  0  0  0  0  0  0  0  0  0
  143.9738  137.5423  160.4849 H   0  0  0  0  0  0  0  0  0  0  0  0
  145.4228  135.5723  160.2799 H   0  0  0  0  0  0  0  0  0  0  0  0
  145.0156  134.0448  163.5786 H   0  0  0  0  0  0  0  0  0  0  0  0
  145.4709  133.6383  161.9161 H   0  0  0  0  0  0  0  0  0  0  0  0
  146.8588  135.5290  163.8385 H   0  0  0  0  0  0  0  0  0  0  0  0
  147.6152  134.2807  162.8599 H   0  0  0  0  0  0  0  0  0  0  0  0
  147.1658  137.3064  163.2013 H   0  0  0  0  0  0  0  0  0  0  0  0
  148.9671  135.4499  161.1126 H   0  0  0  0  0  0  0  0  0  0  0  0
  147.6888  134.6556  160.2323 H   0  0  0  0  0  0  0  0  0  0  0  0
  146.0983  136.8917  158.9616 H   0  0  0  0  0  0  0  0  0  0  0  0
  149.6769  137.7170  155.1103 H   0  0  0  0  0  0  0  0  0  0  0  0
  148.9930  139.1579  154.3873 H   0  0  0  0  0  0  0  0  0  0  0  0
  152.4896  140.0131  155.9342 H   0  0  0  0  0  0  0  0  0  0  0  0
  152.0482  141.1631  154.6784 H   0  0  0  0  0  0  0  0  0  0  0  0
  150.3918  143.4263  158.2044 H   0  0  0  0  0  0  0  0  0  0  0  0
  149.6873  143.1696  156.6215 H   0  0  0  0  0  0  0  0  0  0  0  0
  152.5126  137.4597  159.0400 H   0  0  0  0  0  0  0  0  0  0  0  0
  1  2  1  0  0  0  0
  1 29  1  0  0  0  0
  1 30  1  0  0  0  0
  1 31  1  0  0  0  0
  2  6  1  0  0  0  0
  2  3  1  0  0  0  0
  2 32  1  0  0  0  0
  3  4  1  0  0  0  0
  4  5  1  0  0  0  0
  4 33  1  0  0  0  0
  4 34  1  0  0  0  0
  5  6  1  0  0  0  0
  5 35  1  0  0  0  0
  5 36  1  0  0  0  0
  6  7  1  0  0  0  0
  6  8  1  0  0  0  0
  7 37  1  0  0  0  0
  8  9  1  0  0  0  0
  8 38  1  0  0  0  0
  8 39  1  0  0  0  0
  9 26  1  0  0  0  0
  9 10  1  0  0  0  0
 10 11  2  0  0  0  0
 10 40  1  0  0  0  0
 11 12  1  0  0  0  0
 12 26  2  0  0  0  0
 12 13  1  0  0  0  0
 13 14  1  0  0  0  0
 13 23  2  0  0  0  0
 14 19  1  0  0  0  0
 14 15  1  0  0  0  0
 15 16  1  0  0  0  0
 15 41  1  0  0  0  0
 15 42  1  0  0  0  0
 16 27  1  0  0  0  0
 16 17  1  0  0  0  0
 16 18  1  0  0  0  0
 18 19  1  0  0  0  0
 18 43  1  0  0  0  0
 18 44  1  0  0  0  0
 19 28  1  0  0  0  0
 19 20  1  0  0  0  0
 20 21  1  0  0  0  0
 20 22  2  0  0  0  0
 21 45  1  0  0  0  0
 21 46  1  0  0  0  0
 23 24  1  0  0  0  0
 24 25  2  0  0  0  0
 24 47  1  0  0  0  0
 25 26  1  0  0  0  0
M  END
> <s_m_source_file>
AV-unprocessed.smi

> <i_m_source_file_index>
196

> <i_lp_mmshare_version>
43012

> <i_f3d_flags>
0

> <s_epik_input>
W0NIMl0xW0NIMl1PW0NAQEhdKFtDSDNdKVtDQEBdMShbT0hdKVtDSDJdbihbY0hdbjIpYyhjMjMpbltjSF1uYzNONFtDSDJdW0NASF0oRilbQ0gyXVtDQEhdNEMoPU8pW05IMl0=

> <s_epik_cmdline>
J2VwaWtfcHl0aG9uJywgJy1waCcsICc3LjAnLCAnLXRuJywgJzgnLCAnLW1hJywgJzIwMCcsICctbWV0YWxfYmluZGluZycsICctaW1hZScsICc8aW5maWxlLm1hZT4nLCAnLW9tYWUnLCAnPG91dGZpbGUubWFlPic=

> <r_lp_tautomer_probability>
1

> <r_epik_Ionization_Penalty>
0.000857933

> <r_epik_Ionization_Penalty_Charging>
0

> <r_epik_Ionization_Penalty_Neutral>
0.000857933

> <r_epik_State_Penalty>
0.000462053

> <r_epik_Charging_Adjusted_Penalty>
0.000462053

> <i_epik_Tot_Q>
0

> <i_epik_Tot_abs_Q>
0

> <r_epik_Metal_State_Penalty>
-0

> <b_epik_Metal_Only>
0

> <s_lp_Force_Field>
OPLS_2005

> <r_lp_Energy>
50.5725

> <b_lp_Chiralities_Consistent>
1

> <s_lp_Variant>
AV-unprocessed.smi:196-11

> <Gold.Version>
5.8.1

> <Gold.Id.Protein>
6NUR|6NUR_protein|mol2

> <Gold.PLP.Fitness>
46.2909

> <Gold.PLP.PLP>
-38.2640

> <Gold.PLP.part.hbond>
-4.0000

> <Gold.PLP.part.metal>
0.0000

> <Gold.PLP.part.buried>
-1.8619

> <Gold.PLP.part.nonpolar>
-31.4071

> <Gold.PLP.part.repulsive>
0.0209

> <Gold.PLP.ligand.clash>
0.0000

> <Gold.PLP.ligand.torsion>
0.7451

> <Gold.PLP.Chemscore.Hbond>
3.1490

> <Gold.PLP.Chemscore.CHOScore>
0.0000

> <Gold.PLP.Chemscore.Metal>
0.0000

> <Gold.Chemscore.Hbonds>
donor molecule, donor type, donor heavy atom, donor atom, acceptor molecule, acceptor atom, score
      L1  H    21    46       P1  8028  0.94
      P1  H  6896  6909       L1    25  1.00
      P1  H  6931  6943       L1     7  0.82
      P1  H  6934  6947       L1     7  0.33

> <Gold.PLP.Chemscore.Internal.Correction>
0.0703

> <Gold.Rescore>
     Score         DG    S(hbond)    S(metal)    S(lipo)     H(rot)  DE(clash)    DE(int)     intcor
      9.26     -15.30       2.81        0.00      70.28       3.04       2.93       3.11       ----

> <Gold.Chemscore.Fitness>
9.2560

> <Gold.Chemscore.DG>
-15.2971

> <Gold.Chemscore.ZeroCoef>
-5.4800

> <Gold.Chemscore.Hbond>
2.8084

> <Gold.Chemscore.Metal>
0.0000

> <Gold.Chemscore.Lipo>
70.2802

> <Gold.Chemscore.Internal_Hbond>
0.0000

> <Gold.Chemscore.DEClash>
2.9271

> <Gold.Chemscore.DEInternal>
3.1140

> <Gold.Chemscore.Rot>
3.0413

> <Gold.Chemscore.Internal.Correction>
   9.000000E+99

> <Gold.Chemscore.Hbonds>
donor molecule, donor type, donor heavy atom, donor atom, acceptor molecule, acceptor atom, score
      L1  H    21    46       P1  8028  0.89
      P1  H  6896  6909       L1    25  0.76
      P1  H  6931  6943       L1     7  0.68
      P1  H  6934  6947       L1     7  0.29

> <Gold.Chemscore.Hbond.Weighted>
-9.3799

> <Gold.Chemscore.Metal.Weighted>
-0.0000

> <Gold.Chemscore.Lipo.Weighted>
-8.2228

> <Gold.Chemscore.Internal_Hbond.Weighted>
0.0000

> <Gold.Chemscore.DEClash.Weighted>
2.9271

> <Gold.Chemscore.DEInternal.Weighted>
3.1140

> <Gold.Chemscore.Rot.Weighted>
7.7856

> <Gold.Chemscore.Internal.Correction.Weighted>
   9.000000E+99

> <Gold.Protein.RotatedTorsions>
[ 6907 6896 6895 6894 ] final   80.04 input  -60.11 | X-H torsion
[ 7974 7965 7964 7962 ] final  133.49 input  175.53 | X-H torsion
[ 8008 7997 7996 7995 ] final  -76.41 input   59.86 | X-H torsion
[ 10167 10162 10161 10158 ] final   46.29 input  -65.29 | X-H torsion
[ 10718 10713 10712 10709 ] final  163.14 input   66.30 | X-H torsion
[ 10763 10752 10751 10750 ] final   89.14 input  -60.55 | X-H torsion
[ 11005 11000 10999 10996 ] final  109.27 input  -57.11 | X-H torsion

> <Gold.Protein.ActiveResidues>
 VAL166  LYS551  ARG553  GLY616  TRP617  ASP618  TYR619  PRO620  LYS621  CYS622 
 ASP623  PHE694  ASN695  SER759  ASP760  ASP761  ALA762  ILE779  LEU786  VAL792 
 PHE793  MET794  SER795  GLU796  ALA797  LYS798  CYS799  TRP800  GLU811  SER814 

> <Gold.Protein.RotatedAtoms>
  152.5221  134.3418  159.9219 H   0  0  0  0  0  0  0  0  0  0  0  0  # atno 6907 bound_to 6896
  151.3368  133.3972  159.2675 H   0  0  0  0  0  0  0  0  0  0  0  0  # atno 6908 bound_to 6896
  150.9836  134.9204  159.7916 H   0  0  0  0  0  0  0  0  0  0  0  0  # atno 6909 bound_to 6896
  144.9860  139.4455  143.5363 H   0  0  0  0  0  0  0  0  0  0  0  0  # atno 7974 bound_to 7965
  154.5502  140.0727  156.8656 H   0  0  0  0  0  0  0  0  0  0  0  0  # atno 8008 bound_to 7997
  155.3007  140.3384  155.4229 H   0  0  0  0  0  0  0  0  0  0  0  0  # atno 8009 bound_to 7997
  156.1955  140.1702  156.7993 H   0  0  0  0  0  0  0  0  0  0  0  0  # atno 8010 bound_to 7997
  140.3154  144.2770  150.6192 H   0  0  0  0  0  0  0  0  0  0  0  0  # atno 10167 bound_to 10162
  157.1127  131.0472  151.2450 H   0  0  0  0  0  0  0  0  0  0  0  0  # atno 10718 bound_to 10713
  153.1840  135.4481  155.0065 H   0  0  0  0  0  0  0  0  0  0  0  0  # atno 10763 bound_to 10752
  154.8048  135.3270  154.7460 H   0  0  0  0  0  0  0  0  0  0  0  0  # atno 10764 bound_to 10752
  153.7921  135.6969  153.4925 H   0  0  0  0  0  0  0  0  0  0  0  0  # atno 10765 bound_to 10752
  139.8859  134.9454  156.6100 H   0  0  0  0  0  0  0  0  0  0  0  0  # atno 11005 bound_to 11000
  146.3420  139.9162  142.8773 LP  0  0  0  0  0  0  0  0  0  0  0  0  # atno 17320 bound_to 7965
  145.2353  140.9988  143.3967 LP  0  0  0  0  0  0  0  0  0  0  0  0  # atno 17321 bound_to 7965
  140.5531  143.2203  151.7893 LP  0  0  0  0  0  0  0  0  0  0  0  0  # atno 17342 bound_to 10162
  139.4885  144.4450  151.9721 LP  0  0  0  0  0  0  0  0  0  0  0  0  # atno 17343 bound_to 10162
  157.4545  130.7617  149.7180 LP  0  0  0  0  0  0  0  0  0  0  0  0  # atno 17370 bound_to 10713
  155.9846  130.3990  150.3301 LP  0  0  0  0  0  0  0  0  0  0  0  0  # atno 17371 bound_to 10713
  140.7818  133.8653  155.8574 LP  0  0  0  0  0  0  0  0  0  0  0  0  # atno 17394 bound_to 11000
  140.9753  134.1477  157.4541 LP  0  0  0  0  0  0  0  0  0  0  0  0  # atno 17395 bound_to 11000

$$$$
