#       Name:                AV-unprocessed.smi:2
#       Creating user name   scv26
#       Creation time:       Thu Mar 26 15:13:50 2020


#       File generated by GOLD software.
#

@<TRIPOS>MOLECULE
AV-unprocessed.smi:2
    65    67     1
SMALL
NO_CHARGES


@<TRIPOS>ATOM
      1 ****         0.2221   3.7193  -5.6873 C.3            1 S1                 0.0000
      2 ****        -0.2951   2.7269  -4.6337 C.3            1 S1                 0.0000
      3 ****        -1.3894   3.3006  -3.7197 C.2            1 S1                 0.0000
      4 ****        -1.7639   4.4646  -3.8702 O.2            1 S1                 0.0000
      5 ****        -1.9519   2.3981  -2.6737 C.ar           1 S1                 0.0000
      6 ****        -2.9577   2.8811  -1.8069 C.ar           1 S1                 0.0000
      7 ****        -3.5010   2.0530  -0.8063 C.ar           1 S1                 0.0000
      8 ****        -3.0545   0.7275  -0.6418 C.ar           1 S1                 0.0000
      9 ****        -3.6334  -0.0043   0.3752 O.3            1 S1                 0.0000
     10 ****        -3.0993  -1.2807   0.7181 C.3            1 S1                 0.0000
     11 ****        -1.7826  -1.1492   1.5141 C.3            1 S1                 0.0000
     12 ****        -2.1081  -0.9399   2.8742 O.3            1 S1                 0.0000
     13 ****        -0.8933  -2.4054   1.3624 C.3            1 S1                 0.0000
     14 ****         0.2927  -2.3845   2.2275 N.pl3          1 S1                 0.0000
     15 ****         0.4360  -2.9981   3.4417 C.2            1 S1                 0.0000
     16 ****        -0.5459  -3.8246   4.1327 N.pl3          1 S1                 1.0000
     17 ****        -1.7317  -3.7246   3.8438 O.2            1 S1                 0.0000
     18 ****        -0.1290  -4.5723   5.0123 O.2            1 S1                -1.0000
     19 ****         1.6039  -2.7565   4.0385 N.2            1 S1                 0.0000
     20 ****         2.2616  -1.9268   3.1533 C.2            1 S1                 0.0000
     21 ****         3.5746  -1.2659   3.2913 C.2            1 S1                 0.0000
     22 ****         4.2968  -1.4836   4.2652 O.2            1 S1                 0.0000
     23 ****         3.8712  -0.3970   2.2748 N.am           1 S1                 0.0000
     24 ****         5.1204   0.3828   2.3687 C.3            1 S1                 0.0000
     25 ****         3.1023  -0.2042   1.1413 C.2            1 S1                 0.0000
     26 ****         3.4436   0.6163   0.2844 O.2            1 S1                 0.0000
     27 ****         1.9656  -0.9636   0.9808 N.am           1 S1                 0.0000
     28 ****         1.3307  -1.0189  -0.3419 C.3            1 S1                 0.0000
     29 ****         1.5265  -1.7245   2.0296 C.2            1 S1                 0.0000
     30 ****        -2.0559   0.2374  -1.5186 C.ar           1 S1                 0.0000
     31 ****        -1.5094   1.0638  -2.5190 C.ar           1 S1                 0.0000
     32 ****         1.0030   3.2606  -6.2939 H              1 S1                 0.0000
     33 ****         0.6474   4.6101  -5.2233 H              1 S1                 0.0000
     34 ****        -0.5749   4.0353  -6.3616 H              1 S1                 0.0000
     35 ****        -0.6889   1.8431  -5.1364 H              1 S1                 0.0000
     36 ****         0.5380   2.3969  -4.0125 H              1 S1                 0.0000
     37 ****        -3.3230   3.8941  -1.8968 H              1 S1                 0.0000
     38 ****        -4.2658   2.4442  -0.1514 H              1 S1                 0.0000
     39 ****        -3.8420  -1.8160   1.3113 H              1 S1                 0.0000
     40 ****        -2.9739  -1.8919  -0.1754 H              1 S1                 0.0000
     41 ****        -1.2248  -0.2752   1.1822 H              1 S1                 0.0000
     42 ****        -1.3121  -0.7636   3.3519 H              1 S1                 0.0000
     43 ****        -1.4730  -3.3048   1.5534 H              1 S1                 0.0000
     44 ****        -0.6007  -2.5417   0.3277 H              1 S1                 0.0000
     45 ****         4.9197   1.4498   2.2582 H              1 S1                 0.0000
     46 ****         5.8091   0.0881   1.5753 H              1 S1                 0.0000
     47 ****         5.6587   0.2744   3.3108 H              1 S1                 0.0000
     48 ****         1.2082  -2.0541  -0.6582 H              1 S1                 0.0000
     49 ****         1.9087  -0.5518  -1.1399 H              1 S1                 0.0000
     50 ****         0.3676  -0.5179  -0.3302 H              1 S1                 0.0000
     51 ****        -1.6824  -0.7715  -1.4454 H              1 S1                 0.0000
     52 ****        -0.7459   0.6471  -3.1585 H              1 S1                 0.0000
     53 ****        -1.3561   5.0325  -4.5851 LP             1 S1                 0.0000
     54 ****        -2.4757   4.8414  -3.2774 LP             1 S1                 0.0000
     55 ****        -4.5896  -0.1488   0.1208 LP             1 S1                 0.0000
     56 ****        -3.5894   0.5596   1.1999 LP             1 S1                 0.0000
     57 ****        -2.5489  -1.7576   3.2446 LP             1 S1                 0.0000
     58 ****        -2.7292  -0.1605   2.9557 LP             1 S1                 0.0000
     59 ****        -2.0215  -3.0788   3.1375 LP             1 S1                 0.0000
     60 ****        -2.4102  -4.2888   4.3142 LP             1 S1                 0.0000
     61 ****         1.9275  -3.0971   4.9213 LP             1 S1                 0.0000
     62 ****         3.9967  -2.1169   4.9787 LP             1 S1                 0.0000
     63 ****         5.1832  -1.0271   4.3424 LP             1 S1                 0.0000
     64 ****         4.2818   1.1477   0.4069 LP             1 S1                 0.0000
     65 ****         2.8819   0.7494  -0.5321 LP             1 S1                 0.0000
@<TRIPOS>BOND
    1    1    2 1     
    2    1   32 1     
    3    1   33 1     
    4    1   34 1     
    5    2    3 1     
    6    2   35 1     
    7    2   36 1     
    8    3    4 2     
    9    3    5 1     
   10    5   31 ar    
   11    5    6 ar    
   12    6    7 ar    
   13    6   37 1     
   14    7    8 ar    
   15    7   38 1     
   16    8    9 1     
   17    8   30 ar    
   18    9   10 1     
   19   10   11 1     
   20   10   39 1     
   21   10   40 1     
   22   11   12 1     
   23   11   13 1     
   24   11   41 1     
   25   12   42 1     
   26   13   14 1     
   27   13   43 1     
   28   13   44 1     
   29   14   29 1     
   30   14   15 1     
   31   15   16 1     
   32   15   19 2     
   33   16   17 2     
   34   16   18 1     
   35   19   20 1     
   36   20   29 2     
   37   20   21 1     
   38   21   22 2     
   39   21   23 am    
   40   23   24 1     
   41   23   25 am    
   42   24   45 1     
   43   24   46 1     
   44   24   47 1     
   45   25   26 2     
   46   25   27 am    
   47   27   28 1     
   48   27   29 1     
   49   28   48 1     
   50   28   49 1     
   51   28   50 1     
   52   30   31 ar    
   53   30   51 1     
   54   31   52 1     
   55    4   53 1     
   56    4   54 1     
   57    9   55 1     
   58    9   56 1     
   59   12   57 1     
   60   12   58 1     
   61   17   59 1     
   62   17   60 1     
   63   19   61 1     
   64   22   62 1     
   65   22   63 1     
   66   26   64 1     
   67   26   65 1     
@<TRIPOS>SUBSTRUCTURE
      1 S1             1
@<TRIPOS>SET
LONE_PAIRS      STATIC     ATOMS    <user>   **** ""
14 53 54 55 56 57 58 59 60 18 61 62 63 64 65
DONOR_HYDROGENS      STATIC     ATOMS    <user>   **** ""
1 42
ATOM$BLUE        STATIC     ATOMS    COLORGROUP SYSTEM
14 53 54 55 56 57 58 59 60 18 61 62 63 64 65
ATOM$RED        STATIC     ATOMS    COLORGROUP SYSTEM
1 42
