#       Name:                AV-unprocessed.smi:2142
#       Creating user name   scv26
#       Creation time:       Fri Mar 27 11:48:47 2020


#       File generated by GOLD software.
#

@<TRIPOS>MOLECULE
AV-unprocessed.smi:2142
    50    51     1
SMALL
NO_CHARGES


@<TRIPOS>ATOM
      1 ****        -3.5737   7.3204   1.2262 C.3            1 S1                 0.0000
      2 ****        -3.1968   5.9564   1.1593 O.3            1 S1                 0.0000
      3 ****        -3.4117   5.3967  -0.1256 C.3            1 S1                 0.0000
      4 ****        -2.9772   3.9282  -0.1144 C.3            1 S1                 0.0000
      5 ****        -1.5537   3.8704  -0.1179 O.3            1 S1                 0.0000
      6 ****        -0.9447   2.6325  -0.1268 C.ar           1 S1                 0.0000
      7 ****         0.4632   2.5747  -0.1379 C.ar           1 S1                 0.0000
      8 ****         1.0936   1.3158  -0.1540 C.ar           1 S1                 0.0000
      9 ****         0.2912   0.1505  -0.1647 C.ar           1 S1                 0.0000
     10 ****         0.8047  -1.1737  -0.1602 N.am           1 S1                 0.0000
     11 ****         2.0091  -1.6133  -0.5808 C.2            1 S1                 0.0000
     12 ****         2.8742  -0.8913  -1.0766 O.2            1 S1                 0.0000
     13 ****         2.2368  -3.0777  -0.4384 C.2            1 S1                 0.0000
     14 ****         1.3039  -3.8345   0.0496 N.2            1 S1                 0.0000
     15 ****         1.4559  -5.1984   0.1861 N.am           1 S1                 0.0000
     16 ****         0.2092  -5.8972   0.4985 C.3            1 S1                 0.0000
     17 ****         2.6404  -5.8533   0.0763 C.2            1 S1                 0.0000
     18 ****         2.7671  -7.0734   0.1765 O.2            1 S1                 0.0000
     19 ****         3.8807  -4.9853  -0.1556 C.3            1 S1                 0.0000
     20 ****         3.5493  -3.6781  -0.9013 C.3            1 S1                 0.0000
     21 ****        -1.1088   0.3162  -0.1346 C.ar           1 S1                 0.0000
     22 ****        -1.7193   1.5195  -0.1221 N.ar           1 S1                 0.0000
     23 ****        -3.3943   7.7015   2.2315 H              1 S1                 0.0000
     24 ****        -4.6334   7.4490   1.0015 H              1 S1                 0.0000
     25 ****        -2.9917   7.9241   0.5286 H              1 S1                 0.0000
     26 ****        -4.4733   5.4590  -0.3697 H              1 S1                 0.0000
     27 ****        -2.8658   5.9506  -0.8910 H              1 S1                 0.0000
     28 ****        -3.3940   3.4179   0.7556 H              1 S1                 0.0000
     29 ****        -3.3622   3.4361  -1.0090 H              1 S1                 0.0000
     30 ****         1.0507   3.4809  -0.1304 H              1 S1                 0.0000
     31 ****         2.1714   1.2701  -0.1439 H              1 S1                 0.0000
     32 ****         0.1584  -1.8887   0.1421 H              1 S1                 0.0000
     33 ****         0.3266  -6.9736   0.6296 H              1 S1                 0.0000
     34 ****        -0.5164  -5.7432  -0.3010 H              1 S1                 0.0000
     35 ****        -0.2199  -5.5030   1.4206 H              1 S1                 0.0000
     36 ****         4.3037  -4.7521   0.8222 H              1 S1                 0.0000
     37 ****         4.6390  -5.5501  -0.6990 H              1 S1                 0.0000
     38 ****         3.5006  -3.8633  -1.9749 H              1 S1                 0.0000
     39 ****         4.3708  -2.9773  -0.7470 H              1 S1                 0.0000
     40 ****        -1.7624  -0.5439  -0.1270 H              1 S1                 0.0000
     41 ****        -3.7344   5.4419   1.8273 LP             1 S1                 0.0000
     42 ****        -2.2253   5.8807   1.3838 LP             1 S1                 0.0000
     43 ****        -1.2369   4.3493   0.7008 LP             1 S1                 0.0000
     44 ****        -1.2405   4.3593  -0.9321 LP             1 S1                 0.0000
     45 ****         2.7044   0.0878  -1.1885 LP             1 S1                 0.0000
     46 ****         3.7467  -1.2839  -1.3675 LP             1 S1                 0.0000
     47 ****         0.4433  -3.4141   0.3373 LP             1 S1                 0.0000
     48 ****         1.9662  -7.6467   0.3496 LP             1 S1                 0.0000
     49 ****         3.6709  -7.4914   0.0848 LP             1 S1                 0.0000
     50 ****        -2.7169   1.5887  -0.1097 LP             1 S1                 0.0000
@<TRIPOS>BOND
    1    1    2 1     
    2    1   23 1     
    3    1   24 1     
    4    1   25 1     
    5    2    3 1     
    6    3    4 1     
    7    3   26 1     
    8    3   27 1     
    9    4    5 1     
   10    4   28 1     
   11    4   29 1     
   12    5    6 1     
   13    6   22 ar    
   14    6    7 ar    
   15    7    8 ar    
   16    7   30 1     
   17    8    9 ar    
   18    8   31 1     
   19    9   10 1     
   20    9   21 ar    
   21   10   11 am    
   22   10   32 1     
   23   11   12 2     
   24   11   13 1     
   25   13   20 1     
   26   13   14 2     
   27   14   15 1     
   28   15   16 1     
   29   15   17 am    
   30   16   33 1     
   31   16   34 1     
   32   16   35 1     
   33   17   18 2     
   34   17   19 1     
   35   19   20 1     
   36   19   36 1     
   37   19   37 1     
   38   20   38 1     
   39   20   39 1     
   40   21   22 ar    
   41   21   40 1     
   42    2   41 1     
   43    2   42 1     
   44    5   43 1     
   45    5   44 1     
   46   12   45 1     
   47   12   46 1     
   48   14   47 1     
   49   18   48 1     
   50   18   49 1     
   51   22   50 1     
@<TRIPOS>SUBSTRUCTURE
      1 S1             1
@<TRIPOS>SET
LONE_PAIRS      STATIC     ATOMS    <user>   **** ""
10 41 42 43 44 45 46 47 48 49 50
DONOR_HYDROGENS      STATIC     ATOMS    <user>   **** ""
1 32
ATOM$BLUE        STATIC     ATOMS    COLORGROUP SYSTEM
10 41 42 43 44 45 46 47 48 49 50
ATOM$RED        STATIC     ATOMS    COLORGROUP SYSTEM
1 32
