AV-unprocessed.smi:769|AV-procd|sdf|3676|dock9
  -GOLD-   22720 1 93D 1   1.00000     0.00000
 Structure written by MMmdl.
 50 52  0  0  0  0  0  0  0  0  2 V2000
  144.6253  137.3107  152.0218 O   0  0  0  0  0  0  0  0  0  0  0  0
  145.7745  136.8701  152.0311 C   0  0  0  0  0  0  0  0  0  0  0  0
  146.8463  137.6114  152.3463 N   0  0  0  0  0  0  0  0  0  0  0  0
  146.8050  139.0178  152.7283 C   0  0  0  0  0  0  0  0  0  0  0  0
  147.2182  139.2105  154.2009 C   0  0  0  0  0  0  0  0  0  0  0  0
  148.5456  139.8088  154.3328 N   0  0  0  0  0  0  0  0  0  0  0  0
  149.5420  138.8124  154.7480 C   0  0  0  0  0  0  0  0  0  0  0  0
  150.9222  139.4772  154.9119 C   0  0  0  0  0  0  0  0  0  0  0  0
  150.8185  140.5322  155.9239 N   0  0  0  0  0  0  0  0  0  0  0  0
  151.4194  140.5406  157.1382 C   0  0  0  0  0  0  0  0  0  0  0  0
  152.1519  139.6228  157.5104 O   0  0  0  0  0  0  0  0  0  0  0  0
  151.2192  141.7611  158.0590 C   0  0  0  0  0  0  0  0  0  0  0  0
  151.6403  143.1278  157.4803 C   0  0  0  0  0  0  0  0  0  0  0  0
  152.2802  143.4504  158.8333 C   0  0  0  0  0  0  0  0  0  0  0  0
  152.3292  141.9448  159.1085 C   0  0  0  0  0  0  0  0  0  0  0  0
  149.8622  141.5542  155.4903 C   0  0  0  0  0  0  0  0  0  0  0  0
  148.4803  140.8930  155.3194 C   0  0  0  0  0  0  0  0  0  0  0  0
  146.1283  135.6116  151.7164 N   0  0  0  0  0  0  0  0  0  0  0  0
  145.2979  134.5225  151.3337 C   0  0  0  0  0  0  0  0  0  0  0  0
  145.9359  133.3338  150.9142 C   0  0  0  0  0  0  0  0  0  0  0  0
  145.1572  132.2206  150.5376 C   0  0  0  0  0  0  0  0  0  0  0  0
  143.8101  132.2945  150.5881 N   0  3  0  0  0  0  0  0  0  0  0  0
  143.1549  133.4028  150.9947 C   0  0  0  0  0  0  0  0  0  0  0  0
  143.8803  134.5475  151.3840 C   0  0  0  0  0  0  0  0  0  0  0  0
  147.7559  137.1736  152.3250 H   0  0  0  0  0  0  0  0  0  0  0  0
  147.4424  139.5864  152.0508 H   0  0  0  0  0  0  0  0  0  0  0  0
  145.7875  139.3790  152.5770 H   0  0  0  0  0  0  0  0  0  0  0  0
  146.4882  139.8712  154.6711 H   0  0  0  0  0  0  0  0  0  0  0  0
  147.1788  138.2653  154.7450 H   0  0  0  0  0  0  0  0  0  0  0  0
  149.2368  138.3409  155.6837 H   0  0  0  0  0  0  0  0  0  0  0  0
  149.6228  138.0233  154.0020 H   0  0  0  0  0  0  0  0  0  0  0  0
  151.6698  138.7210  155.1426 H   0  0  0  0  0  0  0  0  0  0  0  0
  151.2411  139.9179  153.9661 H   0  0  0  0  0  0  0  0  0  0  0  0
  150.2161  141.8200  158.4850 H   0  0  0  0  0  0  0  0  0  0  0  0
  152.3794  143.0853  156.6788 H   0  0  0  0  0  0  0  0  0  0  0  0
  150.8082  143.7813  157.2178 H   0  0  0  0  0  0  0  0  0  0  0  0
  153.2548  143.9357  158.7736 H   0  0  0  0  0  0  0  0  0  0  0  0
  151.6029  143.9804  159.5048 H   0  0  0  0  0  0  0  0  0  0  0  0
  152.0436  141.6704  160.1245 H   0  0  0  0  0  0  0  0  0  0  0  0
  153.2815  141.4924  158.8252 H   0  0  0  0  0  0  0  0  0  0  0  0
  149.7829  142.3842  156.1934 H   0  0  0  0  0  0  0  0  0  0  0  0
  150.1953  141.9911  154.5476 H   0  0  0  0  0  0  0  0  0  0  0  0
  147.7584  141.6423  154.9926 H   0  0  0  0  0  0  0  0  0  0  0  0
  148.1298  140.5059  156.2777 H   0  0  0  0  0  0  0  0  0  0  0  0
  147.1203  135.4254  151.6992 H   0  0  0  0  0  0  0  0  0  0  0  0
  147.0141  133.2731  150.8743 H   0  0  0  0  0  0  0  0  0  0  0  0
  145.5684  131.2799  150.2011 H   0  0  0  0  0  0  0  0  0  0  0  0
  142.0763  133.3399  151.0029 H   0  0  0  0  0  0  0  0  0  0  0  0
  143.3339  135.4138  151.7234 H   0  0  0  0  0  0  0  0  0  0  0  0
  143.2642  131.4776  150.3123 H   0  0  0  0  0  0  0  0  0  0  0  0
  1  2  2  0  0  0  0
  2  3  1  0  0  0  0
  2 18  1  0  0  0  0
  3  4  1  0  0  0  0
  3 25  1  0  0  0  0
  4  5  1  0  0  0  0
  4 26  1  0  0  0  0
  4 27  1  0  0  0  0
  5  6  1  0  0  0  0
  5 28  1  0  0  0  0
  5 29  1  0  0  0  0
  6 17  1  0  0  0  0
  6  7  1  0  0  0  0
  7  8  1  0  0  0  0
  7 30  1  0  0  0  0
  7 31  1  0  0  0  0
  8  9  1  0  0  0  0
  8 32  1  0  0  0  0
  8 33  1  0  0  0  0
  9 10  1  0  0  0  0
  9 16  1  0  0  0  0
 10 11  2  0  0  0  0
 10 12  1  0  0  0  0
 12 15  1  0  0  0  0
 12 13  1  0  0  0  0
 12 34  1  0  0  0  0
 13 14  1  0  0  0  0
 13 35  1  0  0  0  0
 13 36  1  0  0  0  0
 14 15  1  0  0  0  0
 14 37  1  0  0  0  0
 14 38  1  0  0  0  0
 15 39  1  0  0  0  0
 15 40  1  0  0  0  0
 16 17  1  0  0  0  0
 16 41  1  0  0  0  0
 16 42  1  0  0  0  0
 17 43  1  0  0  0  0
 17 44  1  0  0  0  0
 18 19  1  0  0  0  0
 18 45  1  0  0  0  0
 19 24  1  0  0  0  0
 19 20  2  0  0  0  0
 20 21  1  0  0  0  0
 20 46  1  0  0  0  0
 21 22  2  0  0  0  0
 21 47  1  0  0  0  0
 22 23  1  0  0  0  0
 22 50  1  0  0  0  0
 23 24  2  0  0  0  0
 23 48  1  0  0  0  0
 24 49  1  0  0  0  0
M  CHG  1  22   1
M  END
> <s_m_source_file>
AV-unprocessed.smi

> <i_m_source_file_index>
769

> <i_lp_mmshare_version>
43012

> <i_f3d_flags>
0

> <s_epik_input>
W2NIXTFbY0hdbltjSF1bY0hdYzFbTkhdQyg9TylbTkhdW0NIMl1bQ0gyXU4yW0NIMl1bQ0gyXU4oW0NIMl1bQ0gyXTIpQyg9TylbQ0hdM1tDSDJdW0NIMl1bQ0gyXTM=

> <s_epik_cmdline>
J2VwaWtfcHl0aG9uJywgJy1waCcsICc3LjAnLCAnLXRuJywgJzgnLCAnLW1hJywgJzIwMCcsICctbWV0YWxfYmluZGluZycsICctaW1hZScsICc8aW5maWxlLm1hZT4nLCAnLW9tYWUnLCAnPG91dGZpbGUubWFlPic=

> <r_epik_Ionization_Penalty>
1.23972

> <r_epik_Ionization_Penalty_Charging>
0.991409

> <r_epik_Ionization_Penalty_Neutral>
0.248308

> <r_epik_State_Penalty>
1.32283

> <r_epik_Charging_Adjusted_Penalty>
2.31424

> <i_epik_Tot_Q>
1

> <i_epik_Tot_abs_Q>
1

> <r_epik_Metal_State_Penalty>
1.42026

> <b_epik_Metal_Only>
0

> <s_lp_Force_Field>
OPLS_2005

> <r_lp_Energy>
53.8523

> <b_lp_Chiralities_Consistent>
1

> <s_lp_Variant>
AV-unprocessed.smi:769-3

> <Gold.Version>
5.8.1

> <Gold.Id.Protein>
6NUR|6NUR_protein|mol2

> <Gold.PLP.Fitness>
50.3719

> <Gold.PLP.PLP>
-43.6305

> <Gold.PLP.part.hbond>
-2.9092

> <Gold.PLP.part.metal>
0.0000

> <Gold.PLP.part.buried>
-3.3443

> <Gold.PLP.part.nonpolar>
-38.6675

> <Gold.PLP.part.repulsive>
0.8656

> <Gold.PLP.ligand.clash>
0.0000

> <Gold.PLP.ligand.torsion>
1.3483

> <Gold.PLP.Chemscore.Hbond>
2.9920

> <Gold.PLP.Chemscore.CHOScore>
0.0000

> <Gold.PLP.Chemscore.Metal>
0.0000

> <Gold.Chemscore.Hbonds>
donor molecule, donor type, donor heavy atom, donor atom, acceptor molecule, acceptor atom, score
      L1  H     3    25       P1  7948  1.00
      L1  H    18    45       P1  7948  0.93

> <Gold.PLP.Chemscore.Internal.Correction>
0.4620

> <Gold.Rescore>
     Score         DG    S(hbond)    S(metal)    S(lipo)     H(rot)  DE(clash)    DE(int)     intcor
     19.88     -23.62       2.87        0.00     110.69       1.72       1.39       2.35       ----

> <Gold.Chemscore.Fitness>
19.8816

> <Gold.Chemscore.DG>
-23.6202

> <Gold.Chemscore.ZeroCoef>
-5.4800

> <Gold.Chemscore.Hbond>
2.8746

> <Gold.Chemscore.Metal>
0.0000

> <Gold.Chemscore.Lipo>
110.6883

> <Gold.Chemscore.Internal_Hbond>
0.0000

> <Gold.Chemscore.DEClash>
1.3913

> <Gold.Chemscore.DEInternal>
2.3473

> <Gold.Chemscore.Rot>
1.7233

> <Gold.Chemscore.Internal.Correction>
   9.000000E+99

> <Gold.Chemscore.Hbonds>
donor molecule, donor type, donor heavy atom, donor atom, acceptor molecule, acceptor atom, score
      L1  H     3    25       P1  7948  0.97
      L1  H    18    45       P1  7948  0.87

> <Gold.Chemscore.Hbond.Weighted>
-9.6013

> <Gold.Chemscore.Metal.Weighted>
-0.0000

> <Gold.Chemscore.Lipo.Weighted>
-12.9505

> <Gold.Chemscore.Internal_Hbond.Weighted>
0.0000

> <Gold.Chemscore.DEClash.Weighted>
1.3913

> <Gold.Chemscore.DEInternal.Weighted>
2.3473

> <Gold.Chemscore.Rot.Weighted>
4.4116

> <Gold.Chemscore.Internal.Correction.Weighted>
   9.000000E+99

> <Gold.Protein.RotatedTorsions>
[ 6907 6896 6895 6894 ] final -120.42 input  -60.11 | X-H torsion
[ 7974 7965 7964 7962 ] final  -66.78 input  175.53 | X-H torsion
[ 8008 7997 7996 7995 ] final -163.02 input   59.86 | X-H torsion
[ 10167 10162 10161 10158 ] final  -96.35 input  -65.29 | X-H torsion
[ 10718 10713 10712 10709 ] final    7.43 input   66.30 | X-H torsion
[ 10763 10752 10751 10750 ] final   25.28 input  -60.55 | X-H torsion
[ 11005 11000 10999 10996 ] final -160.14 input  -57.11 | X-H torsion

> <Gold.Protein.ActiveResidues>
 VAL166  LYS551  ARG553  GLY616  TRP617  ASP618  TYR619  PRO620  LYS621  CYS622 
 ASP623  PHE694  ASN695  SER759  ASP760  ASP761  ALA762  ILE779  LEU786  VAL792 
 PHE793  MET794  SER795  GLU796  ALA797  LYS798  CYS799  TRP800  GLU811  SER814 

> <Gold.Protein.RotatedAtoms>
  150.8392  133.7964  159.3067 H   0  0  0  0  0  0  0  0  0  0  0  0  # atno 6907 bound_to 6896
  151.5671  135.1062  159.9996 H   0  0  0  0  0  0  0  0  0  0  0  0  # atno 6908 bound_to 6896
  152.4459  133.7492  159.6741 H   0  0  0  0  0  0  0  0  0  0  0  0  # atno 6909 bound_to 6896
  145.7375  140.8969  143.0547 H   0  0  0  0  0  0  0  0  0  0  0  0  # atno 7974 bound_to 7965
  155.8152  140.0911  157.1881 H   0  0  0  0  0  0  0  0  0  0  0  0  # atno 8008 bound_to 7997
  154.3979  140.1447  156.3494 H   0  0  0  0  0  0  0  0  0  0  0  0  # atno 8009 bound_to 7997
  155.8323  140.3442  155.5583 H   0  0  0  0  0  0  0  0  0  0  0  0  # atno 8010 bound_to 7997
  140.2948  143.3199  152.0309 H   0  0  0  0  0  0  0  0  0  0  0  0  # atno 10167 bound_to 10162
  156.9368  130.5846  149.5651 H   0  0  0  0  0  0  0  0  0  0  0  0  # atno 10718 bound_to 10713
  153.0703  135.6586  154.0262 H   0  0  0  0  0  0  0  0  0  0  0  0  # atno 10763 bound_to 10752
  153.9909  135.2946  155.3413 H   0  0  0  0  0  0  0  0  0  0  0  0  # atno 10764 bound_to 10752
  154.7075  135.5219  153.8687 H   0  0  0  0  0  0  0  0  0  0  0  0  # atno 10765 bound_to 10752
  140.6348  134.4613  157.5231 H   0  0  0  0  0  0  0  0  0  0  0  0  # atno 11005 bound_to 11000
  144.6878  139.9415  143.7475 LP  0  0  0  0  0  0  0  0  0  0  0  0  # atno 17320 bound_to 7965
  146.0479  139.3483  143.0657 LP  0  0  0  0  0  0  0  0  0  0  0  0  # atno 17321 bound_to 7965
  139.4929  144.6499  151.6698 LP  0  0  0  0  0  0  0  0  0  0  0  0  # atno 17342 bound_to 10162
  140.5702  144.0122  150.6213 LP  0  0  0  0  0  0  0  0  0  0  0  0  # atno 17343 bound_to 10162
  156.0422  130.5503  150.8798 LP  0  0  0  0  0  0  0  0  0  0  0  0  # atno 17370 bound_to 10713
  157.5811  131.0946  150.9270 LP  0  0  0  0  0  0  0  0  0  0  0  0  # atno 17371 bound_to 10713
  139.9102  134.8361  156.1556 LP  0  0  0  0  0  0  0  0  0  0  0  0  # atno 17394 bound_to 11000
  141.0649  133.6824  156.2025 LP  0  0  0  0  0  0  0  0  0  0  0  0  # atno 17395 bound_to 11000

$$$$
