AV-unprocessed.smi:244|AV-procd|sdf|1868|dock1
  -GOLD-   2262020503D 1   1.00000     0.00000
 Structure written by MMmdl.
 57 61  0  0  0  0  0  0  0  0  2 V2000
  147.3805  140.8309  157.1643 C   0  0  0  0  0  0  0  0  0  0  0  0
  148.7250  140.4573  156.6761 N   0  3  1  0  0  0  0  0  0  0  0  0
  149.6670  141.6036  156.6745 C   0  0  0  0  0  0  0  0  0  0  0  0
  150.9961  141.2142  156.0098 C   0  0  0  0  0  0  0  0  0  0  0  0
  151.6145  139.9726  156.6890 C   0  0  2  0  0  0  0  0  0  0  0  0
  152.8357  139.5583  156.0728 O   0  0  0  0  0  0  0  0  0  0  0  0
  152.6863  138.9907  154.7728 C   0  0  0  0  0  0  0  0  0  0  0  0
  151.7089  137.8077  154.8226 C   0  0  0  0  0  0  0  0  0  0  0  0
  150.4422  138.2232  155.4136 N   0  0  0  0  0  0  0  0  0  0  0  0
  149.4847  137.2779  155.2982 C   0  0  0  0  0  0  0  0  0  0  0  0
  148.1980  137.6993  155.3566 N   0  0  0  0  0  0  0  0  0  0  0  0
  147.2024  136.8120  155.2669 C   0  0  0  0  0  0  0  0  0  0  0  0
  147.2758  135.4869  155.1243 N   0  0  0  0  0  0  0  0  0  0  0  0
  148.5709  135.0619  155.0724 C   0  0  0  0  0  0  0  0  0  0  0  0
  149.7293  135.8838  155.1502 C   0  0  0  0  0  0  0  0  0  0  0  0
  150.8744  135.1015  155.0655 N   0  0  0  0  0  0  0  0  0  0  0  0
  150.4184  133.8857  154.9334 C   0  0  0  0  0  0  0  0  0  0  0  0
  149.0463  133.7692  154.9406 N   0  0  0  0  0  0  0  0  0  0  0  0
  148.2738  132.5420  154.8212 C   0  0  0  0  0  0  0  0  0  0  0  0
  147.5448  132.3845  153.4633 C   0  0  0  0  0  0  0  0  0  0  0  0
  148.4938  132.5958  152.4321 O   0  0  0  0  0  0  0  0  0  0  0  0
  146.9818  130.9559  153.3218 C   0  0  0  0  0  0  0  0  0  0  0  0
  146.0988  130.7992  152.0712 C   0  0  0  0  0  0  0  0  0  0  0  0
  145.0561  131.7663  152.0892 O   0  0  0  0  0  0  0  0  0  0  0  0
  145.5442  133.1011  152.0383 C   0  0  0  0  0  0  0  0  0  0  0  0
  146.3970  133.4023  153.2837 C   0  0  0  0  0  0  0  0  0  0  0  0
  150.6075  138.8004  156.7511 C   0  0  2  0  0  0  0  0  0  0  0  0
  149.2850  139.2868  157.3969 C   0  0  0  0  0  0  0  0  0  0  0  0
  147.4166  141.1474  158.2075 H   0  0  0  0  0  0  0  0  0  0  0  0
  146.6945  139.9869  157.0844 H   0  0  0  0  0  0  0  0  0  0  0  0
  146.9693  141.6486  156.5716 H   0  0  0  0  0  0  0  0  0  0  0  0
  149.2240  142.4421  156.1356 H   0  0  0  0  0  0  0  0  0  0  0  0
  149.8391  141.9399  157.6983 H   0  0  0  0  0  0  0  0  0  0  0  0
  150.8052  141.0287  154.9534 H   0  0  0  0  0  0  0  0  0  0  0  0
  151.6948  142.0499  156.0549 H   0  0  0  0  0  0  0  0  0  0  0  0
  151.8705  140.2526  157.7116 H   0  0  0  0  0  0  0  0  0  0  0  0
  152.3539  139.7413  154.0563 H   0  0  0  0  0  0  0  0  0  0  0  0
  153.6625  138.6502  154.4273 H   0  0  0  0  0  0  0  0  0  0  0  0
  151.5443  137.4188  153.8168 H   0  0  0  0  0  0  0  0  0  0  0  0
  152.1463  137.0006  155.4113 H   0  0  0  0  0  0  0  0  0  0  0  0
  146.2039  137.2206  155.3194 H   0  0  0  0  0  0  0  0  0  0  0  0
  151.0746  133.0327  154.8367 H   0  0  0  0  0  0  0  0  0  0  0  0
  148.9437  131.6978  154.9915 H   0  0  0  0  0  0  0  0  0  0  0  0
  147.5503  132.5218  155.6374 H   0  0  0  0  0  0  0  0  0  0  0  0
  148.5907  131.7927  151.9433 H   0  0  0  0  0  0  0  0  0  0  0  0
  147.7913  130.2248  153.3029 H   0  0  0  0  0  0  0  0  0  0  0  0
  146.3781  130.7190  154.1989 H   0  0  0  0  0  0  0  0  0  0  0  0
  146.6869  130.8969  151.1575 H   0  0  0  0  0  0  0  0  0  0  0  0
  145.6529  129.8047  152.0532 H   0  0  0  0  0  0  0  0  0  0  0  0
  146.1168  133.2561  151.1226 H   0  0  0  0  0  0  0  0  0  0  0  0
  144.6948  133.7828  151.9963 H   0  0  0  0  0  0  0  0  0  0  0  0
  145.7510  133.3732  154.1621 H   0  0  0  0  0  0  0  0  0  0  0  0
  146.7842  134.4199  153.2215 H   0  0  0  0  0  0  0  0  0  0  0  0
  151.0305  138.0238  157.3902 H   0  0  0  0  0  0  0  0  0  0  0  0
  149.4699  139.5690  158.4347 H   0  0  0  0  0  0  0  0  0  0  0  0
  148.5487  138.4830  157.4361 H   0  0  0  0  0  0  0  0  0  0  0  0
  148.6093  140.1734  155.7132 H   0  0  0  0  0  0  0  0  0  0  0  0
  1  2  1  0  0  0  0
  1 29  1  0  0  0  0
  1 30  1  0  0  0  0
  1 31  1  0  0  0  0
  2 28  1  0  0  0  0
  2  3  1  0  0  0  0
  2 57  1  0  0  0  0
  3  4  1  0  0  0  0
  3 32  1  0  0  0  0
  3 33  1  0  0  0  0
  4  5  1  0  0  0  0
  4 34  1  0  0  0  0
  4 35  1  0  0  0  0
  5 27  1  0  0  0  0
  5  6  1  0  0  0  0
  5 36  1  0  0  0  0
  6  7  1  0  0  0  0
  7  8  1  0  0  0  0
  7 37  1  0  0  0  0
  7 38  1  0  0  0  0
  8  9  1  0  0  0  0
  8 39  1  0  0  0  0
  8 40  1  0  0  0  0
  9 10  1  0  0  0  0
  9 27  1  0  0  0  0
 10 15  1  0  0  0  0
 10 11  2  0  0  0  0
 11 12  1  0  0  0  0
 12 13  2  0  0  0  0
 12 41  1  0  0  0  0
 13 14  1  0  0  0  0
 14 18  1  0  0  0  0
 14 15  2  0  0  0  0
 15 16  1  0  0  0  0
 16 17  2  0  0  0  0
 17 18  1  0  0  0  0
 17 42  1  0  0  0  0
 18 19  1  0  0  0  0
 19 20  1  0  0  0  0
 19 43  1  0  0  0  0
 19 44  1  0  0  0  0
 20 26  1  0  0  0  0
 20 21  1  0  0  0  0
 20 22  1  0  0  0  0
 21 45  1  0  0  0  0
 22 23  1  0  0  0  0
 22 46  1  0  0  0  0
 22 47  1  0  0  0  0
 23 24  1  0  0  0  0
 23 48  1  0  0  0  0
 23 49  1  0  0  0  0
 24 25  1  0  0  0  0
 25 26  1  0  0  0  0
 25 50  1  0  0  0  0
 25 51  1  0  0  0  0
 26 52  1  0  0  0  0
 26 53  1  0  0  0  0
 27 28  1  0  0  0  0
 27 54  1  0  0  0  0
 28 55  1  0  0  0  0
 28 56  1  0  0  0  0
M  CHG  1   2   1
M  END
> <s_m_source_file>
AV-unprocessed.smi

> <i_m_source_file_index>
244

> <i_lp_mmshare_version>
43012

> <i_f3d_flags>
0

> <s_epik_input>
W0NIMl0xW0NIMl1OKFtDSDNdKVtDSDJdW0NAQEhdKFtDQEhdMTIpTihbQ0gyXVtDSDJdTzIpYyhuW2NIXW4zKWMoYzM0KW5bY0hdbjRbQ0gyXUM1KFtPSF0pW0NIMl1bQ0gyXU9bQ0gyXVtDSDJdNQ==

> <s_epik_cmdline>
J2VwaWtfcHl0aG9uJywgJy1waCcsICc3LjAnLCAnLXRuJywgJzgnLCAnLW1hJywgJzIwMCcsICctbWV0YWxfYmluZGluZycsICctaW1hZScsICc8aW5maWxlLm1hZT4nLCAnLW9tYWUnLCAnPG91dGZpbGUubWFlPic=

> <r_lp_tautomer_probability>
1

> <r_epik_Ionization_Penalty>
0.0136215

> <r_epik_Ionization_Penalty_Charging>
0.0131385

> <r_epik_Ionization_Penalty_Neutral>
0.000483022

> <r_epik_State_Penalty>
0.0104001

> <r_epik_Charging_Adjusted_Penalty>
0.0235387

> <i_epik_Tot_Q>
1

> <i_epik_Tot_abs_Q>
1

> <r_epik_Metal_State_Penalty>
0.0104469

> <b_epik_Metal_Only>
0

> <s_lp_Force_Field>
OPLS_2005

> <r_lp_Energy>
48.7962

> <b_lp_Chiralities_Consistent>
1

> <s_lp_Variant>
AV-unprocessed.smi:244-5

> <Gold.Version>
5.8.1

> <Gold.Id.Protein>
6NUR|6NUR_protein|mol2

> <Gold.PLP.Fitness>
39.9919

> <Gold.PLP.PLP>
-33.0967

> <Gold.PLP.part.hbond>
-3.0000

> <Gold.PLP.part.metal>
0.0000

> <Gold.PLP.part.buried>
-3.7380

> <Gold.PLP.part.nonpolar>
-25.3596

> <Gold.PLP.part.repulsive>
0.5141

> <Gold.PLP.ligand.clash>
0.0000

> <Gold.PLP.ligand.torsion>
0.6664

> <Gold.PLP.Chemscore.Hbond>
2.6937

> <Gold.PLP.Chemscore.CHOScore>
0.0000

> <Gold.PLP.Chemscore.Metal>
0.0000

> <Gold.Chemscore.Hbonds>
donor molecule, donor type, donor heavy atom, donor atom, acceptor molecule, acceptor atom, score
      L1  H    21    45       P1 10747  1.00
      P1  H  7997  8010       L1     6  1.00
      P1  H 10752 10765       L1    16  0.63

> <Gold.PLP.Chemscore.Internal.Correction>
0.1470

> <Gold.Rescore>
     Score         DG    S(hbond)    S(metal)    S(lipo)     H(rot)  DE(clash)    DE(int)     intcor
     13.23     -18.11       2.64        0.00      78.28       2.09       0.41       4.47       ----

> <Gold.Chemscore.Fitness>
13.2291

> <Gold.Chemscore.DG>
-18.1060

> <Gold.Chemscore.ZeroCoef>
-5.4800

> <Gold.Chemscore.Hbond>
2.6407

> <Gold.Chemscore.Metal>
0.0000

> <Gold.Chemscore.Lipo>
78.2825

> <Gold.Chemscore.Internal_Hbond>
0.0000

> <Gold.Chemscore.DEClash>
0.4078

> <Gold.Chemscore.DEInternal>
4.4690

> <Gold.Chemscore.Rot>
2.0911

> <Gold.Chemscore.Internal.Correction>
   9.000000E+99

> <Gold.Chemscore.Hbonds>
donor molecule, donor type, donor heavy atom, donor atom, acceptor molecule, acceptor atom, score
      L1  H    21    45       P1 10747  0.93
      P1  H  7997  8010       L1     6  0.81
      P1  H 10752 10765       L1    16  0.59

> <Gold.Chemscore.Hbond.Weighted>
-8.8200

> <Gold.Chemscore.Metal.Weighted>
-0.0000

> <Gold.Chemscore.Lipo.Weighted>
-9.1591

> <Gold.Chemscore.Internal_Hbond.Weighted>
0.0000

> <Gold.Chemscore.DEClash.Weighted>
0.4078

> <Gold.Chemscore.DEInternal.Weighted>
4.4690

> <Gold.Chemscore.Rot.Weighted>
5.3531

> <Gold.Chemscore.Internal.Correction.Weighted>
   9.000000E+99

> <Gold.Protein.RotatedTorsions>
[ 6907 6896 6895 6894 ] final   29.49 input  -60.11 | X-H torsion
[ 7974 7965 7964 7962 ] final -151.06 input  175.53 | X-H torsion
[ 8008 7997 7996 7995 ] final   78.68 input   59.86 | X-H torsion
[ 10167 10162 10161 10158 ] final  -99.26 input  -65.29 | X-H torsion
[ 10718 10713 10712 10709 ] final   41.05 input   66.30 | X-H torsion
[ 10763 10752 10751 10750 ] final -176.03 input  -60.55 | X-H torsion
[ 11005 11000 10999 10996 ] final  138.20 input  -57.11 | X-H torsion

> <Gold.Protein.ActiveResidues>
 VAL166  LYS551  ARG553  GLY616  TRP617  ASP618  TYR619  PRO620  LYS621  CYS622 
 ASP623  PHE694  ASN695  SER759  ASP760  ASP761  ALA762  ILE779  LEU786  VAL792 
 PHE793  MET794  SER795  GLU796  ALA797  LYS798  CYS799  TRP800  GLU811  SER814 

> <Gold.Protein.RotatedAtoms>
  152.0322  134.9761  160.0572 H   0  0  0  0  0  0  0  0  0  0  0  0  # atno 6907 bound_to 6896
  152.1233  133.4361  159.4694 H   0  0  0  0  0  0  0  0  0  0  0  0  # atno 6908 bound_to 6896
  150.6850  134.2428  159.4522 H   0  0  0  0  0  0  0  0  0  0  0  0  # atno 6909 bound_to 6896
  144.7871  140.4848  143.5798 H   0  0  0  0  0  0  0  0  0  0  0  0  # atno 7974 bound_to 7965
  155.8591  140.3454  155.5744 H   0  0  0  0  0  0  0  0  0  0  0  0  # atno 8008 bound_to 7997
  155.7953  140.0877  157.2006 H   0  0  0  0  0  0  0  0  0  0  0  0  # atno 8009 bound_to 7997
  154.4011  140.1475  156.3198 H   0  0  0  0  0  0  0  0  0  0  0  0  # atno 8010 bound_to 7997
  140.2643  143.3386  152.0596 H   0  0  0  0  0  0  0  0  0  0  0  0  # atno 10167 bound_to 10162
  157.3891  130.7796  149.7255 H   0  0  0  0  0  0  0  0  0  0  0  0  # atno 10718 bound_to 10713
  154.5773  135.2833  155.0768 H   0  0  0  0  0  0  0  0  0  0  0  0  # atno 10763 bound_to 10752
  154.2118  135.6406  153.5121 H   0  0  0  0  0  0  0  0  0  0  0  0  # atno 10764 bound_to 10752
  153.0076  135.5493  154.6415 H   0  0  0  0  0  0  0  0  0  0  0  0  # atno 10765 bound_to 10752
  140.0167  134.9415  157.0391 H   0  0  0  0  0  0  0  0  0  0  0  0  # atno 11005 bound_to 11000
  145.5892  139.1494  143.3192 LP  0  0  0  0  0  0  0  0  0  0  0  0  # atno 17320 bound_to 7965
  146.2108  140.6019  142.9060 LP  0  0  0  0  0  0  0  0  0  0  0  0  # atno 17321 bound_to 7965
  139.5007  144.6698  151.6269 LP  0  0  0  0  0  0  0  0  0  0  0  0  # atno 17342 bound_to 10162
  140.5941  143.9727  150.6343 LP  0  0  0  0  0  0  0  0  0  0  0  0  # atno 17343 bound_to 10162
  155.9794  130.4040  150.3590 LP  0  0  0  0  0  0  0  0  0  0  0  0  # atno 17370 bound_to 10713
  157.1704  131.0367  151.2798 LP  0  0  0  0  0  0  0  0  0  0  0  0  # atno 17371 bound_to 10713
  140.4458  134.1633  155.7177 LP  0  0  0  0  0  0  0  0  0  0  0  0  # atno 17394 bound_to 11000
  141.1747  133.8537  157.1458 LP  0  0  0  0  0  0  0  0  0  0  0  0  # atno 17395 bound_to 11000

$$$$
