AV-unprocessed.smi:3322|AV-procd|sdf|12776|dock1
  -GOLD-   2272019123D 1   1.00000     0.00000
 Structure written by MMmdl.
 38 39  0  0  0  0  0  0  0  0  1 V2000
  150.7527  141.9838  156.6711 C   0  0  0  0  0  0  0  0  0  0  0  0
  150.6141  142.2976  158.1699 C   0  0  1  0  0  0  0  0  0  0  0  0
  149.2509  141.9457  158.6101 N   0  0  0  0  0  0  0  0  0  0  0  0
  148.2479  142.9539  158.2791 C   0  0  0  0  0  0  0  0  0  0  0  0
  146.8343  142.3858  158.4895 C   0  0  0  0  0  0  0  0  0  0  0  0
  146.1483  143.0085  159.6085 N   0  0  0  0  0  0  0  0  0  0  0  0
  145.0416  143.8308  159.5825 C   0  0  0  0  0  0  0  0  0  0  0  0
  144.7518  144.1637  160.8747 C   0  0  0  0  0  0  0  0  0  0  0  0
  145.7507  143.4877  161.6298 C   0  0  0  0  0  0  0  0  0  0  0  0
  146.5848  142.7971  160.8695 N   0  0  0  0  0  0  0  0  0  0  0  0
  151.7315  141.5825  158.9674 C   0  0  0  0  0  0  0  0  0  0  0  0
  151.8567  140.3643  158.8272 O   0  0  0  0  0  0  0  0  0  0  0  0
  152.5477  142.2909  159.7889 N   0  0  0  0  0  0  0  0  0  0  0  0
  152.4413  143.7459  159.9477 C   0  0  0  0  0  0  0  0  0  0  0  0
  152.0283  144.0544  161.3971 C   0  0  0  0  0  0  0  0  0  0  0  0
  152.9926  143.5065  162.2912 O   0  0  0  0  0  0  0  0  0  0  0  0
  153.1420  142.0967  162.1499 C   0  0  0  0  0  0  0  0  0  0  0  0
  153.5593  141.7543  160.7076 C   0  0  0  0  0  0  0  0  0  0  0  0
  151.7258  142.2848  156.2825 H   0  0  0  0  0  0  0  0  0  0  0  0
  149.9957  142.5115  156.0898 H   0  0  0  0  0  0  0  0  0  0  0  0
  150.6350  140.9171  156.4749 H   0  0  0  0  0  0  0  0  0  0  0  0
  150.7023  143.3745  158.3041 H   0  0  0  0  0  0  0  0  0  0  0  0
  148.9593  141.0571  158.2276 H   0  0  0  0  0  0  0  0  0  0  0  0
  148.3749  143.8354  158.9075 H   0  0  0  0  0  0  0  0  0  0  0  0
  148.3656  143.2773  157.2440 H   0  0  0  0  0  0  0  0  0  0  0  0
  146.2312  142.4970  157.5865 H   0  0  0  0  0  0  0  0  0  0  0  0
  146.8966  141.3157  158.6894 H   0  0  0  0  0  0  0  0  0  0  0  0
  144.5574  144.1059  158.6571 H   0  0  0  0  0  0  0  0  0  0  0  0
  143.9487  144.7936  161.2272 H   0  0  0  0  0  0  0  0  0  0  0  0
  145.8934  143.4777  162.7005 H   0  0  0  0  0  0  0  0  0  0  0  0
  153.4061  144.2044  159.7268 H   0  0  0  0  0  0  0  0  0  0  0  0
  151.7293  144.2026  159.2591 H   0  0  0  0  0  0  0  0  0  0  0  0
  151.9738  145.1317  161.5535 H   0  0  0  0  0  0  0  0  0  0  0  0
  151.0396  143.6478  161.6158 H   0  0  0  0  0  0  0  0  0  0  0  0
  153.8995  141.7513  162.8534 H   0  0  0  0  0  0  0  0  0  0  0  0
  152.2090  141.5961  162.4137 H   0  0  0  0  0  0  0  0  0  0  0  0
  153.7072  140.6799  160.6379 H   0  0  0  0  0  0  0  0  0  0  0  0
  154.5263  142.2050  160.4797 H   0  0  0  0  0  0  0  0  0  0  0  0
  1  2  1  0  0  0  0
  1 19  1  0  0  0  0
  1 20  1  0  0  0  0
  1 21  1  0  0  0  0
  2  3  1  0  0  0  0
  2 11  1  0  0  0  0
  2 22  1  0  0  0  0
  3  4  1  0  0  0  0
  3 23  1  0  0  0  0
  4  5  1  0  0  0  0
  4 24  1  0  0  0  0
  4 25  1  0  0  0  0
  5  6  1  0  0  0  0
  5 26  1  0  0  0  0
  5 27  1  0  0  0  0
  6 10  1  0  0  0  0
  6  7  1  0  0  0  0
  7  8  2  0  0  0  0
  7 28  1  0  0  0  0
  8  9  1  0  0  0  0
  8 29  1  0  0  0  0
  9 10  2  0  0  0  0
  9 30  1  0  0  0  0
 11 12  2  0  0  0  0
 11 13  1  0  0  0  0
 13 18  1  0  0  0  0
 13 14  1  0  0  0  0
 14 15  1  0  0  0  0
 14 31  1  0  0  0  0
 14 32  1  0  0  0  0
 15 16  1  0  0  0  0
 15 33  1  0  0  0  0
 15 34  1  0  0  0  0
 16 17  1  0  0  0  0
 17 18  1  0  0  0  0
 17 35  1  0  0  0  0
 17 36  1  0  0  0  0
 18 37  1  0  0  0  0
 18 38  1  0  0  0  0
M  END
> <s_m_source_file>
AV-unprocessed.smi

> <i_m_source_file_index>
3322

> <i_lp_mmshare_version>
43012

> <i_f3d_flags>
0

> <s_epik_input>
W0NIMl0xW0NIMl1PW0NIMl1bQ0gyXU4xQyg9TylbQ0BIXShbQ0gzXSlbTkhdW0NIMl1bQ0gyXW4yW2NIXVtjSF1bY0hdbjI=

> <s_epik_cmdline>
J2VwaWtfcHl0aG9uJywgJy1waCcsICc3LjAnLCAnLXRuJywgJzgnLCAnLW1hJywgJzIwMCcsICctbWV0YWxfYmluZGluZycsICctaW1hZScsICc8aW5maWxlLm1hZT4nLCAnLW9tYWUnLCAnPG91dGZpbGUubWFlPic=

> <r_lp_tautomer_probability>
1

> <r_epik_Ionization_Penalty>
0.511228

> <r_epik_Ionization_Penalty_Charging>
0

> <r_epik_Ionization_Penalty_Neutral>
0.511228

> <r_epik_State_Penalty>
0.51753

> <r_epik_Charging_Adjusted_Penalty>
0.51753

> <i_epik_Tot_Q>
0

> <i_epik_Tot_abs_Q>
0

> <r_epik_Metal_State_Penalty>
0.517012

> <b_epik_Metal_Only>
0

> <s_lp_Force_Field>
OPLS_2005

> <r_lp_Energy>
27.6931

> <b_lp_Chiralities_Consistent>
1

> <s_lp_Variant>
AV-unprocessed.smi:3322-4

> <Gold.Version>
5.8.1

> <Gold.Id.Protein>
6NUR|6NUR_protein|mol2

> <Gold.PLP.Fitness>
40.0321

> <Gold.PLP.PLP>
-36.2719

> <Gold.PLP.part.hbond>
-2.6286

> <Gold.PLP.part.metal>
0.0000

> <Gold.PLP.part.buried>
-2.6390

> <Gold.PLP.part.nonpolar>
-30.8712

> <Gold.PLP.part.repulsive>
0.1303

> <Gold.PLP.ligand.clash>
0.0000

> <Gold.PLP.ligand.torsion>
0.7739

> <Gold.PLP.Chemscore.Hbond>
1.7304

> <Gold.PLP.Chemscore.CHOScore>
0.0000

> <Gold.PLP.Chemscore.Metal>
0.0000

> <Gold.Chemscore.Hbonds>
donor molecule, donor type, donor heavy atom, donor atom, acceptor molecule, acceptor atom, score
      P1  H  6933  6944       L1    10  0.84
      P1  H  6934  6946       L1    10  0.87

> <Gold.PLP.Chemscore.Internal.Correction>
0.1168

> <Gold.Rescore>
     Score         DG    S(hbond)    S(metal)    S(lipo)     H(rot)  DE(clash)    DE(int)     intcor
     13.41     -14.18       1.33        0.00      76.89       1.84       0.08       0.70       ----

> <Gold.Chemscore.Fitness>
13.4076

> <Gold.Chemscore.DG>
-14.1839

> <Gold.Chemscore.ZeroCoef>
-5.4800

> <Gold.Chemscore.Hbond>
1.3261

> <Gold.Chemscore.Metal>
0.0000

> <Gold.Chemscore.Lipo>
76.8897

> <Gold.Chemscore.Internal_Hbond>
0.0000

> <Gold.Chemscore.DEClash>
0.0785

> <Gold.Chemscore.DEInternal>
0.6978

> <Gold.Chemscore.Rot>
1.8442

> <Gold.Chemscore.Internal.Correction>
   9.000000E+99

> <Gold.Chemscore.Hbonds>
donor molecule, donor type, donor heavy atom, donor atom, acceptor molecule, acceptor atom, score
      P1  H  6933  6944       L1    10  0.76
      P1  H  6934  6946       L1    10  0.19

> <Gold.Chemscore.Hbond.Weighted>
-4.4290

> <Gold.Chemscore.Metal.Weighted>
-0.0000

> <Gold.Chemscore.Lipo.Weighted>
-8.9961

> <Gold.Chemscore.Internal_Hbond.Weighted>
0.0000

> <Gold.Chemscore.DEClash.Weighted>
0.0785

> <Gold.Chemscore.DEInternal.Weighted>
0.6978

> <Gold.Chemscore.Rot.Weighted>
4.7212

> <Gold.Chemscore.Internal.Correction.Weighted>
   9.000000E+99

> <Gold.Protein.RotatedTorsions>
[ 6907 6896 6895 6894 ] final   46.07 input  -60.11 | X-H torsion
[ 7974 7965 7964 7962 ] final  -59.11 input  175.53 | X-H torsion
[ 8008 7997 7996 7995 ] final   67.48 input   59.86 | X-H torsion
[ 10167 10162 10161 10158 ] final   95.27 input  -65.29 | X-H torsion
[ 10718 10713 10712 10709 ] final  118.58 input   66.30 | X-H torsion
[ 10763 10752 10751 10750 ] final  134.84 input  -60.55 | X-H torsion
[ 11005 11000 10999 10996 ] final  141.90 input  -57.11 | X-H torsion

> <Gold.Protein.ActiveResidues>
 VAL166  LYS551  ARG553  GLY616  TRP617  ASP618  TYR619  PRO620  LYS621  CYS622 
 ASP623  PHE694  ASN695  SER759  ASP760  ASP761  ALA762  ILE779  LEU786  VAL792 
 PHE793  MET794  SER795  GLU796  ALA797  LYS798  CYS799  TRP800  GLU811  SER814 

> <Gold.Protein.RotatedAtoms>
  152.2521  134.8122  160.0444 H   0  0  0  0  0  0  0  0  0  0  0  0  # atno 6907 bound_to 6896
  151.8798  133.3488  159.3771 H   0  0  0  0  0  0  0  0  0  0  0  0  # atno 6908 bound_to 6896
  150.7087  134.4956  159.5581 H   0  0  0  0  0  0  0  0  0  0  0  0  # atno 6909 bound_to 6896
  145.8313  140.8477  143.0082 H   0  0  0  0  0  0  0  0  0  0  0  0  # atno 7974 bound_to 7965
  155.6935  140.3496  155.4903 H   0  0  0  0  0  0  0  0  0  0  0  0  # atno 8008 bound_to 7997
  155.9503  140.1118  157.1004 H   0  0  0  0  0  0  0  0  0  0  0  0  # atno 8009 bound_to 7997
  154.4120  140.1195  156.5030 H   0  0  0  0  0  0  0  0  0  0  0  0  # atno 8010 bound_to 7997
  139.8004  144.6816  150.9772 H   0  0  0  0  0  0  0  0  0  0  0  0  # atno 10167 bound_to 10162
  157.6020  131.1049  150.7777 H   0  0  0  0  0  0  0  0  0  0  0  0  # atno 10718 bound_to 10713
  153.8303  135.3104  155.3418 H   0  0  0  0  0  0  0  0  0  0  0  0  # atno 10763 bound_to 10752
  154.7976  135.4746  154.0201 H   0  0  0  0  0  0  0  0  0  0  0  0  # atno 10764 bound_to 10752
  153.1638  135.6866  153.8794 H   0  0  0  0  0  0  0  0  0  0  0  0  # atno 10765 bound_to 10752
  140.0436  134.9292  157.0889 H   0  0  0  0  0  0  0  0  0  0  0  0  # atno 11005 bound_to 11000
  144.6739  140.0677  143.7474 LP  0  0  0  0  0  0  0  0  0  0  0  0  # atno 17320 bound_to 7965
  145.9567  139.2772  143.1180 LP  0  0  0  0  0  0  0  0  0  0  0  0  # atno 17321 bound_to 7965
  140.7820  143.4287  151.0727 LP  0  0  0  0  0  0  0  0  0  0  0  0  # atno 17342 bound_to 10162
  139.7960  143.8152  152.3157 LP  0  0  0  0  0  0  0  0  0  0  0  0  # atno 17343 bound_to 10162
  156.8173  130.4972  149.5347 LP  0  0  0  0  0  0  0  0  0  0  0  0  # atno 17370 bound_to 10713
  156.1096  130.6030  151.0026 LP  0  0  0  0  0  0  0  0  0  0  0  0  # atno 17371 bound_to 10713
  140.4029  134.2063  155.7163 LP  0  0  0  0  0  0  0  0  0  0  0  0  # atno 17394 bound_to 11000
  141.1896  133.8236  157.0952 LP  0  0  0  0  0  0  0  0  0  0  0  0  # atno 17395 bound_to 11000

$$$$
