AV-unprocessed.smi:3173|AV-procd|sdf|12120|dock4
  -GOLD-   2272017563D 1   1.00000     0.00000
 Structure written by MMmdl.
 36 37  0  0  0  0  0  0  0  0  2 V2000
  153.2625  138.5954  155.5743 O   0  0  0  0  0  0  0  0  0  0  0  0
  152.0319  138.5514  155.5656 C   0  0  0  0  0  0  0  0  0  0  0  0
  151.2966  137.4934  154.7352 C   0  0  0  0  0  0  0  0  0  0  0  0
  150.4175  136.5478  155.5800 C   0  0  1  0  0  0  0  0  0  0  0  0
  149.6682  135.5549  154.7293 C   0  0  0  0  0  0  0  0  0  0  0  0
  149.8254  134.2992  155.1428 C   0  0  0  0  0  0  0  0  0  0  0  0
  150.7125  134.1985  156.3522 C   0  0  0  0  0  0  0  0  0  0  0  0
  151.2055  135.6465  156.5688 C   0  0  0  0  0  0  0  0  0  0  0  0
  151.2627  139.3985  156.2667 N   0  0  0  0  0  0  0  0  0  0  0  0
  151.7631  140.4798  157.1077 C   0  0  0  0  0  0  0  0  0  0  0  0
  150.8903  141.7411  156.9915 C   0  0  0  0  0  0  0  0  0  0  0  0
  151.3306  142.8329  157.9470 C   0  0  0  0  0  0  0  0  0  0  0  0
  152.2411  142.5865  158.9974 C   0  0  0  0  0  0  0  0  0  0  0  0
  152.6166  143.6479  159.8472 C   0  0  0  0  0  0  0  0  0  0  0  0
  152.0748  144.9314  159.6290 C   0  0  0  0  0  0  0  0  0  0  0  0
  151.1709  145.1217  158.5638 C   0  0  0  0  0  0  0  0  0  0  0  0
  150.8365  144.0799  157.7709 N   0  3  0  0  0  0  0  0  0  0  0  0
  150.6777  138.0145  154.0042 H   0  0  0  0  0  0  0  0  0  0  0  0
  152.0207  136.9088  154.1653 H   0  0  0  0  0  0  0  0  0  0  0  0
  149.6682  137.1250  156.1243 H   0  0  0  0  0  0  0  0  0  0  0  0
  149.0616  135.8594  153.8888 H   0  0  0  0  0  0  0  0  0  0  0  0
  149.3680  133.4321  154.6896 H   0  0  0  0  0  0  0  0  0  0  0  0
  150.1366  133.8360  157.2044 H   0  0  0  0  0  0  0  0  0  0  0  0
  151.5389  133.5109  156.1696 H   0  0  0  0  0  0  0  0  0  0  0  0
  152.2765  135.6941  156.3671 H   0  0  0  0  0  0  0  0  0  0  0  0
  151.0614  135.9681  157.6008 H   0  0  0  0  0  0  0  0  0  0  0  0
  150.2603  139.2915  156.2038 H   0  0  0  0  0  0  0  0  0  0  0  0
  151.8168  140.1471  158.1460 H   0  0  0  0  0  0  0  0  0  0  0  0
  152.7851  140.7026  156.8000 H   0  0  0  0  0  0  0  0  0  0  0  0
  150.9238  142.1270  155.9717 H   0  0  0  0  0  0  0  0  0  0  0  0
  149.8460  141.4992  157.1937 H   0  0  0  0  0  0  0  0  0  0  0  0
  152.6493  141.5977  159.1501 H   0  0  0  0  0  0  0  0  0  0  0  0
  153.3122  143.4794  160.6564 H   0  0  0  0  0  0  0  0  0  0  0  0
  152.3496  145.7576  160.2687 H   0  0  0  0  0  0  0  0  0  0  0  0
  150.7096  146.0685  158.3237 H   0  0  0  0  0  0  0  0  0  0  0  0
  150.1811  144.2415  157.0058 H   0  0  0  0  0  0  0  0  0  0  0  0
  1  2  2  0  0  0  0
  2  3  1  0  0  0  0
  2  9  1  0  0  0  0
  3  4  1  0  0  0  0
  3 18  1  0  0  0  0
  3 19  1  0  0  0  0
  4  8  1  0  0  0  0
  4  5  1  0  0  0  0
  4 20  1  0  0  0  0
  5  6  2  0  0  0  0
  5 21  1  0  0  0  0
  6  7  1  0  0  0  0
  6 22  1  0  0  0  0
  7  8  1  0  0  0  0
  7 23  1  0  0  0  0
  7 24  1  0  0  0  0
  8 25  1  0  0  0  0
  8 26  1  0  0  0  0
  9 10  1  0  0  0  0
  9 27  1  0  0  0  0
 10 11  1  0  0  0  0
 10 28  1  0  0  0  0
 10 29  1  0  0  0  0
 11 12  1  0  0  0  0
 11 30  1  0  0  0  0
 11 31  1  0  0  0  0
 12 17  1  0  0  0  0
 12 13  2  0  0  0  0
 13 14  1  0  0  0  0
 13 32  1  0  0  0  0
 14 15  2  0  0  0  0
 14 33  1  0  0  0  0
 15 16  1  0  0  0  0
 15 34  1  0  0  0  0
 16 17  2  0  0  0  0
 16 35  1  0  0  0  0
 17 36  1  0  0  0  0
M  CHG  1  17   1
M  END
> <s_m_source_file>
AV-unprocessed.smi

> <i_m_source_file_index>
3173

> <i_lp_mmshare_version>
43012

> <i_f3d_flags>
0

> <s_epik_input>
W0NIMl0xW0NIMl1bQ0hdPVtDSF1bQ0BIXTFbQ0gyXUMoPU8pW05IXVtDSDJdW0NIMl1jMltjSF1bY0hdW2NIXVtjSF1uMg==

> <s_epik_cmdline>
J2VwaWtfcHl0aG9uJywgJy1waCcsICc3LjAnLCAnLXRuJywgJzgnLCAnLW1hJywgJzIwMCcsICctbWV0YWxfYmluZGluZycsICctaW1hZScsICc8aW5maWxlLm1hZT4nLCAnLW9tYWUnLCAnPG91dGZpbGUubWFlPic=

> <r_epik_Ionization_Penalty>
1.86798

> <r_epik_Ionization_Penalty_Charging>
1.86798

> <r_epik_Ionization_Penalty_Neutral>
1.53848e-08

> <r_epik_State_Penalty>
1.98677

> <r_epik_Charging_Adjusted_Penalty>
3.85475

> <i_epik_Tot_Q>
1

> <i_epik_Tot_abs_Q>
1

> <r_epik_Metal_State_Penalty>
2.01174

> <b_epik_Metal_Only>
0

> <s_lp_Force_Field>
OPLS_2005

> <r_lp_Energy>
20.3145

> <b_lp_Chiralities_Consistent>
1

> <s_lp_Variant>
AV-unprocessed.smi:3173-4

> <Gold.Version>
5.8.1

> <Gold.Id.Protein>
6NUR|6NUR_protein|mol2

> <Gold.PLP.Fitness>
45.6473

> <Gold.PLP.PLP>
-37.1842

> <Gold.PLP.part.hbond>
-2.0000

> <Gold.PLP.part.metal>
0.0000

> <Gold.PLP.part.buried>
-4.7005

> <Gold.PLP.part.nonpolar>
-30.6291

> <Gold.PLP.part.repulsive>
0.1216

> <Gold.PLP.ligand.clash>
0.0000

> <Gold.PLP.ligand.torsion>
0.3083

> <Gold.PLP.Chemscore.Hbond>
3.0000

> <Gold.PLP.Chemscore.CHOScore>
0.0000

> <Gold.PLP.Chemscore.Metal>
0.0000

> <Gold.Chemscore.Hbonds>
donor molecule, donor type, donor heavy atom, donor atom, acceptor molecule, acceptor atom, score
      L1  H    17    36       P1  8028  2.00
      P1  H  7997  8010       L1     1  0.98

> <Gold.PLP.Chemscore.Internal.Correction>
0.0796

> <Gold.Rescore>
     Score         DG    S(hbond)    S(metal)    S(lipo)     H(rot)  DE(clash)    DE(int)     intcor
     19.09     -19.53       1.88        0.00     101.69       1.61       0.03       0.42       ----

> <Gold.Chemscore.Fitness>
19.0877

> <Gold.Chemscore.DG>
-19.5310

> <Gold.Chemscore.ZeroCoef>
-5.4800

> <Gold.Chemscore.Hbond>
1.8805

> <Gold.Chemscore.Metal>
0.0000

> <Gold.Chemscore.Lipo>
101.6858

> <Gold.Chemscore.Internal_Hbond>
0.0000

> <Gold.Chemscore.DEClash>
0.0263

> <Gold.Chemscore.DEInternal>
0.4171

> <Gold.Chemscore.Rot>
1.6122

> <Gold.Chemscore.Internal.Correction>
   9.000000E+99

> <Gold.Chemscore.Hbonds>
donor molecule, donor type, donor heavy atom, donor atom, acceptor molecule, acceptor atom, score
      L1  H    17    36       P1  8028  0.88
      P1  H  7997  8010       L1     1  0.91

> <Gold.Chemscore.Hbond.Weighted>
-6.2809

> <Gold.Chemscore.Metal.Weighted>
-0.0000

> <Gold.Chemscore.Lipo.Weighted>
-11.8972

> <Gold.Chemscore.Internal_Hbond.Weighted>
0.0000

> <Gold.Chemscore.DEClash.Weighted>
0.0263

> <Gold.Chemscore.DEInternal.Weighted>
0.4171

> <Gold.Chemscore.Rot.Weighted>
4.1271

> <Gold.Chemscore.Internal.Correction.Weighted>
   9.000000E+99

> <Gold.Protein.RotatedTorsions>
[ 6907 6896 6895 6894 ] final   -0.23 input  -60.11 | X-H torsion
[ 7974 7965 7964 7962 ] final   94.12 input  175.53 | X-H torsion
[ 8008 7997 7996 7995 ] final   90.99 input   59.86 | X-H torsion
[ 10167 10162 10161 10158 ] final  132.35 input  -65.29 | X-H torsion
[ 10718 10713 10712 10709 ] final -117.03 input   66.30 | X-H torsion
[ 10763 10752 10751 10750 ] final  -40.34 input  -60.55 | X-H torsion
[ 11005 11000 10999 10996 ] final  166.66 input  -57.11 | X-H torsion

> <Gold.Protein.ActiveResidues>
 VAL166  LYS551  ARG553  GLY616  TRP617  ASP618  TYR619  PRO620  LYS621  CYS622 
 ASP623  PHE694  ASN695  SER759  ASP760  ASP761  ALA762  ILE779  LEU786  VAL792 
 PHE793  MET794  SER795  GLU796  ALA797  LYS798  CYS799  TRP800  GLU811  SER814 

> <Gold.Protein.RotatedAtoms>
  151.5655  135.1064  159.9982 H   0  0  0  0  0  0  0  0  0  0  0  0  # atno 6907 bound_to 6896
  152.4426  133.7472  159.6684 H   0  0  0  0  0  0  0  0  0  0  0  0  # atno 6908 bound_to 6896
  150.8334  133.7984  159.3113 H   0  0  0  0  0  0  0  0  0  0  0  0  # atno 6909 bound_to 6896
  145.4699  139.2282  143.2941 H   0  0  0  0  0  0  0  0  0  0  0  0  # atno 7974 bound_to 7965
  156.0185  140.3343  155.7014 H   0  0  0  0  0  0  0  0  0  0  0  0  # atno 8008 bound_to 7997
  155.6056  140.0660  157.2738 H   0  0  0  0  0  0  0  0  0  0  0  0  # atno 8009 bound_to 7997
  154.4307  140.1802  156.1207 H   0  0  0  0  0  0  0  0  0  0  0  0  # atno 8010 bound_to 7997
  139.5344  144.6666  151.4838 H   0  0  0  0  0  0  0  0  0  0  0  0  # atno 10167 bound_to 10162
  156.1005  130.6168  150.9112 H   0  0  0  0  0  0  0  0  0  0  0  0  # atno 10718 bound_to 10713
  153.9444  135.6758  153.4744 H   0  0  0  0  0  0  0  0  0  0  0  0  # atno 10763 bound_to 10752
  153.0915  135.4872  154.8696 H   0  0  0  0  0  0  0  0  0  0  0  0  # atno 10764 bound_to 10752
  154.7360  135.3149  154.8770 H   0  0  0  0  0  0  0  0  0  0  0  0  # atno 10765 bound_to 10752
  140.2687  134.7844  157.3656 H   0  0  0  0  0  0  0  0  0  0  0  0  # atno 11005 bound_to 11000
  146.2403  140.5476  142.8937 LP  0  0  0  0  0  0  0  0  0  0  0  0  # atno 17320 bound_to 7965
  144.7952  140.6108  143.6515 LP  0  0  0  0  0  0  0  0  0  0  0  0  # atno 17321 bound_to 7965
  140.6541  143.8635  150.6817 LP  0  0  0  0  0  0  0  0  0  0  0  0  # atno 17342 bound_to 10162
  140.2009  143.3960  152.1792 LP  0  0  0  0  0  0  0  0  0  0  0  0  # atno 17343 bound_to 10162
  157.6174  131.0932  150.8684 LP  0  0  0  0  0  0  0  0  0  0  0  0  # atno 17370 bound_to 10713
  156.8813  130.5180  149.5291 LP  0  0  0  0  0  0  0  0  0  0  0  0  # atno 17371 bound_to 10713
  140.1394  134.4992  155.8043 LP  0  0  0  0  0  0  0  0  0  0  0  0  # atno 17394 bound_to 11000
  141.2180  133.6819  156.7182 LP  0  0  0  0  0  0  0  0  0  0  0  0  # atno 17395 bound_to 11000

$$$$
