AV-unprocessed.smi:1430|AV-procd|sdf|5823|dock9
  -GOLD-   22720 5483D 1   1.00000     0.00000
 Structure written by MMmdl.
 46 47  0  0  0  0  0  0  0  0  1 V2000
  151.0195  145.2347  158.9403 C   0  0  0  0  0  0  0  0  0  0  0  0
  151.2727  144.8576  160.2892 O   0  0  0  0  0  0  0  0  0  0  0  0
  152.1165  143.7914  160.5242 C   0  0  0  0  0  0  0  0  0  0  0  0
  152.6833  143.1242  159.4203 C   0  0  0  0  0  0  0  0  0  0  0  0
  153.5471  142.0362  159.6509 C   0  0  0  0  0  0  0  0  0  0  0  0
  153.8234  141.6529  160.9852 C   0  0  0  0  0  0  0  0  0  0  0  0
  154.6614  140.5651  161.3523 N   0  0  0  0  0  0  0  0  0  0  0  0
  155.3531  139.7308  160.5571 C   0  0  0  0  0  0  0  0  0  0  0  0
  155.3961  139.7871  159.3283 O   0  0  0  0  0  0  0  0  0  0  0  0
  156.0232  138.8207  161.2781 N   0  0  0  0  0  0  0  0  0  0  0  0
  156.8857  137.7848  160.7228 C   0  0  0  0  0  0  0  0  0  0  0  0
  157.5923  136.9910  161.8374 C   0  0  0  0  0  0  0  0  0  0  0  0
  156.7264  136.5638  162.9345 N   0  0  0  0  0  0  0  0  0  0  0  0
  157.3796  135.5423  163.7433 C   0  0  0  0  0  0  0  0  0  0  0  0
  156.5060  135.0988  164.9304 C   0  0  2  0  0  0  0  0  0  0  0  0
  157.1553  133.9650  165.7307 C   0  0  0  0  0  0  0  0  0  0  0  0
  155.2484  134.6335  164.4444 O   0  0  0  0  0  0  0  0  0  0  0  0
  154.5394  135.5535  163.6129 C   0  0  1  0  0  0  0  0  0  0  0  0
  153.9165  136.6972  164.4314 C   0  0  0  0  0  0  0  0  0  0  0  0
  155.4429  136.0459  162.4641 C   0  0  0  0  0  0  0  0  0  0  0  0
  153.1943  142.3776  162.0185 C   0  0  0  0  0  0  0  0  0  0  0  0
  152.3662  143.4216  161.8047 N   0  0  0  0  0  0  0  0  0  0  0  0
  150.3400  146.0869  158.9256 H   0  0  0  0  0  0  0  0  0  0  0  0
  150.5471  144.4253  158.3818 H   0  0  0  0  0  0  0  0  0  0  0  0
  151.9363  145.5343  158.4305 H   0  0  0  0  0  0  0  0  0  0  0  0
  152.4564  143.4393  158.4126 H   0  0  0  0  0  0  0  0  0  0  0  0
  153.9644  141.5155  158.8036 H   0  0  0  0  0  0  0  0  0  0  0  0
  154.7901  140.4372  162.3454 H   0  0  0  0  0  0  0  0  0  0  0  0
  155.9357  138.8494  162.2834 H   0  0  0  0  0  0  0  0  0  0  0  0
  156.2677  137.1143  160.1253 H   0  0  0  0  0  0  0  0  0  0  0  0
  157.6023  138.2413  160.0391 H   0  0  0  0  0  0  0  0  0  0  0  0
  158.0962  136.1226  161.4101 H   0  0  0  0  0  0  0  0  0  0  0  0
  158.3824  137.6257  162.2420 H   0  0  0  0  0  0  0  0  0  0  0  0
  157.6181  134.6769  163.1224 H   0  0  0  0  0  0  0  0  0  0  0  0
  158.3287  135.9240  164.1220 H   0  0  0  0  0  0  0  0  0  0  0  0
  156.3458  135.9435  165.6008 H   0  0  0  0  0  0  0  0  0  0  0  0
  158.1201  134.2721  166.1352 H   0  0  0  0  0  0  0  0  0  0  0  0
  157.3173  133.0851  165.1075 H   0  0  0  0  0  0  0  0  0  0  0  0
  156.5229  133.6682  166.5677 H   0  0  0  0  0  0  0  0  0  0  0  0
  153.7139  134.9938  163.1724 H   0  0  0  0  0  0  0  0  0  0  0  0
  153.2883  137.3273  163.8013 H   0  0  0  0  0  0  0  0  0  0  0  0
  154.6737  137.3393  164.8805 H   0  0  0  0  0  0  0  0  0  0  0  0
  153.2915  136.3048  165.2338 H   0  0  0  0  0  0  0  0  0  0  0  0
  154.9065  136.8060  161.8969 H   0  0  0  0  0  0  0  0  0  0  0  0
  155.6189  135.2169  161.7766 H   0  0  0  0  0  0  0  0  0  0  0  0
  153.3635  142.1154  163.0528 H   0  0  0  0  0  0  0  0  0  0  0  0
  1  2  1  0  0  0  0
  1 23  1  0  0  0  0
  1 24  1  0  0  0  0
  1 25  1  0  0  0  0
  2  3  1  0  0  0  0
  3 22  1  0  0  0  0
  3  4  2  0  0  0  0
  4  5  1  0  0  0  0
  4 26  1  0  0  0  0
  5  6  2  0  0  0  0
  5 27  1  0  0  0  0
  6  7  1  0  0  0  0
  6 21  1  0  0  0  0
  7  8  1  0  0  0  0
  7 28  1  0  0  0  0
  8  9  2  0  0  0  0
  8 10  1  0  0  0  0
 10 11  1  0  0  0  0
 10 29  1  0  0  0  0
 11 12  1  0  0  0  0
 11 30  1  0  0  0  0
 11 31  1  0  0  0  0
 12 13  1  0  0  0  0
 12 32  1  0  0  0  0
 12 33  1  0  0  0  0
 13 20  1  0  0  0  0
 13 14  1  0  0  0  0
 14 15  1  0  0  0  0
 14 34  1  0  0  0  0
 14 35  1  0  0  0  0
 15 16  1  0  0  0  0
 15 17  1  0  0  0  0
 15 36  1  0  0  0  0
 16 37  1  0  0  0  0
 16 38  1  0  0  0  0
 16 39  1  0  0  0  0
 17 18  1  0  0  0  0
 18 19  1  0  0  0  0
 18 20  1  0  0  0  0
 18 40  1  0  0  0  0
 19 41  1  0  0  0  0
 19 42  1  0  0  0  0
 19 43  1  0  0  0  0
 20 44  1  0  0  0  0
 20 45  1  0  0  0  0
 21 22  2  0  0  0  0
 21 46  1  0  0  0  0
M  END
> <s_m_source_file>
AV-unprocessed.smi

> <i_m_source_file_index>
1430

> <i_lp_mmshare_version>
43012

> <i_f3d_flags>
0

> <s_epik_input>
W0NIM11PYzFbY0hdW2NIXWMoW2NIXW4xKVtOSF1DKD1PKVtOSF1bQ0gyXVtDSDJdTjJbQ0gyXVtDQEBIXShbQ0gzXSlPW0NAQEhdKFtDSDNdKVtDSDJdMg==

> <s_epik_cmdline>
J2VwaWtfcHl0aG9uJywgJy1waCcsICc3LjAnLCAnLXRuJywgJzgnLCAnLW1hJywgJzIwMCcsICctbWV0YWxfYmluZGluZycsICctaW1hZScsICc8aW5maWxlLm1hZT4nLCAnLW9tYWUnLCAnPG91dGZpbGUubWFlPic=

> <r_lp_tautomer_probability>
1

> <r_epik_Ionization_Penalty>
0.266083

> <r_epik_Ionization_Penalty_Charging>
0

> <r_epik_Ionization_Penalty_Neutral>
0.266083

> <r_epik_State_Penalty>
0.257924

> <r_epik_Charging_Adjusted_Penalty>
0.257924

> <i_epik_Tot_Q>
0

> <i_epik_Tot_abs_Q>
0

> <r_epik_Metal_State_Penalty>
0.257922

> <b_epik_Metal_Only>
0

> <s_lp_Force_Field>
OPLS_2005

> <r_lp_Energy>
25.3264

> <b_lp_Chiralities_Consistent>
1

> <s_lp_Variant>
AV-unprocessed.smi:1430-2

> <Gold.Version>
5.8.1

> <Gold.Id.Protein>
6NUR|6NUR_protein|mol2

> <Gold.PLP.Fitness>
39.4761

> <Gold.PLP.PLP>
-37.5555

> <Gold.PLP.part.hbond>
-1.0000

> <Gold.PLP.part.metal>
0.0000

> <Gold.PLP.part.buried>
-6.1340

> <Gold.PLP.part.nonpolar>
-30.3794

> <Gold.PLP.part.repulsive>
0.3690

> <Gold.PLP.ligand.clash>
0.7242

> <Gold.PLP.ligand.torsion>
0.1834

> <Gold.PLP.Chemscore.Hbond>
1.0000

> <Gold.PLP.Chemscore.CHOScore>
0.0000

> <Gold.PLP.Chemscore.Metal>
0.0000

> <Gold.Chemscore.Hbonds>
donor molecule, donor type, donor heavy atom, donor atom, acceptor molecule, acceptor atom, score
      P1  H  7997  8009       L1     9  1.00

> <Gold.PLP.Chemscore.Internal.Correction>
0.0116

> <Gold.Rescore>
     Score         DG    S(hbond)    S(metal)    S(lipo)     H(rot)  DE(clash)    DE(int)     intcor
     13.41     -14.83       0.93        0.00      90.80       1.71       0.09       1.33       ----

> <Gold.Chemscore.Fitness>
13.4059

> <Gold.Chemscore.DG>
-14.8311

> <Gold.Chemscore.ZeroCoef>
-5.4800

> <Gold.Chemscore.Hbond>
0.9303

> <Gold.Chemscore.Metal>
0.0000

> <Gold.Chemscore.Lipo>
90.7991

> <Gold.Chemscore.Internal_Hbond>
0.0000

> <Gold.Chemscore.DEClash>
0.0912

> <Gold.Chemscore.DEInternal>
1.3339

> <Gold.Chemscore.Rot>
1.7107

> <Gold.Chemscore.Internal.Correction>
   9.000000E+99

> <Gold.Chemscore.Hbonds>
donor molecule, donor type, donor heavy atom, donor atom, acceptor molecule, acceptor atom, score
      P1  H  7997  8009       L1     9  0.89

> <Gold.Chemscore.Hbond.Weighted>
-3.1070

> <Gold.Chemscore.Metal.Weighted>
-0.0000

> <Gold.Chemscore.Lipo.Weighted>
-10.6235

> <Gold.Chemscore.Internal_Hbond.Weighted>
0.0000

> <Gold.Chemscore.DEClash.Weighted>
0.0912

> <Gold.Chemscore.DEInternal.Weighted>
1.3339

> <Gold.Chemscore.Rot.Weighted>
4.3794

> <Gold.Chemscore.Internal.Correction.Weighted>
   9.000000E+99

> <Gold.Protein.RotatedTorsions>
[ 6907 6896 6895 6894 ] final  -57.92 input  -60.11 | X-H torsion
[ 7974 7965 7964 7962 ] final   21.73 input  175.53 | X-H torsion
[ 8008 7997 7996 7995 ] final   90.86 input   59.86 | X-H torsion
[ 10167 10162 10161 10158 ] final  154.08 input  -65.29 | X-H torsion
[ 10718 10713 10712 10709 ] final -173.78 input   66.30 | X-H torsion
[ 10763 10752 10751 10750 ] final -147.80 input  -60.55 | X-H torsion
[ 11005 11000 10999 10996 ] final -151.34 input  -57.11 | X-H torsion

> <Gold.Protein.ActiveResidues>
 VAL166  LYS551  ARG553  GLY616  TRP617  ASP618  TYR619  PRO620  LYS621  CYS622 
 ASP623  PHE694  ASN695  SER759  ASP760  ASP761  ALA762  ILE779  LEU786  VAL792 
 PHE793  MET794  SER795  GLU796  ALA797  LYS798  CYS799  TRP800  GLU811  SER814 

> <Gold.Protein.RotatedAtoms>
  150.8047  134.7165  159.6632 H   0  0  0  0  0  0  0  0  0  0  0  0  # atno 6907 bound_to 6896
  152.4166  134.6027  160.0014 H   0  0  0  0  0  0  0  0  0  0  0  0  # atno 6908 bound_to 6896
  151.6254  133.3299  159.3133 H   0  0  0  0  0  0  0  0  0  0  0  0  # atno 6909 bound_to 6896
  146.2059  139.7986  142.8726 H   0  0  0  0  0  0  0  0  0  0  0  0  # atno 7974 bound_to 7965
  156.0169  140.3344  155.6998 H   0  0  0  0  0  0  0  0  0  0  0  0  # atno 8008 bound_to 7997
  155.6078  140.0662  157.2732 H   0  0  0  0  0  0  0  0  0  0  0  0  # atno 8009 bound_to 7997
  154.4301  140.1799  156.1228 H   0  0  0  0  0  0  0  0  0  0  0  0  # atno 8010 bound_to 7997
  139.4824  144.5217  151.7865 H   0  0  0  0  0  0  0  0  0  0  0  0  # atno 10167 bound_to 10162
  156.7753  130.9463  151.3120 H   0  0  0  0  0  0  0  0  0  0  0  0  # atno 10718 bound_to 10713
  154.8267  135.3351  154.6875 H   0  0  0  0  0  0  0  0  0  0  0  0  # atno 10763 bound_to 10752
  153.7500  135.6940  153.4952 H   0  0  0  0  0  0  0  0  0  0  0  0  # atno 10764 bound_to 10752
  153.2183  135.4458  155.0410 H   0  0  0  0  0  0  0  0  0  0  0  0  # atno 10765 bound_to 10752
  140.7306  134.3625  157.5167 H   0  0  0  0  0  0  0  0  0  0  0  0  # atno 11005 bound_to 11000
  145.3321  141.0269  143.3440 LP  0  0  0  0  0  0  0  0  0  0  0  0  # atno 17320 bound_to 7965
  144.8792  139.4928  143.6731 LP  0  0  0  0  0  0  0  0  0  0  0  0  # atno 17321 bound_to 7965
  140.4732  144.1557  150.5921 LP  0  0  0  0  0  0  0  0  0  0  0  0  # atno 17342 bound_to 10162
  140.4359  143.2547  151.9535 LP  0  0  0  0  0  0  0  0  0  0  0  0  # atno 17343 bound_to 10162
  157.6672  130.9018  149.9958 LP  0  0  0  0  0  0  0  0  0  0  0  0  # atno 17370 bound_to 10713
  156.1252  130.3644  149.9821 LP  0  0  0  0  0  0  0  0  0  0  0  0  # atno 17371 bound_to 10713
  139.8827  134.9016  156.2813 LP  0  0  0  0  0  0  0  0  0  0  0  0  # atno 17394 bound_to 11000
  140.9924  133.7200  156.0834 LP  0  0  0  0  0  0  0  0  0  0  0  0  # atno 17395 bound_to 11000

$$$$
