AV-unprocessed.smi:3168|AV-procd|sdf|12100|dock3
  -GOLD-   2272017533D 1   1.00000     0.00000
 Structure written by MMmdl.
 33 34  0  0  0  0  0  0  0  0  1 V2000
  148.6540  140.8020  156.4265 C   0  0  0  0  0  0  0  0  0  0  0  0
  150.0513  141.0738  155.8322 C   0  0  1  0  0  0  0  0  0  0  0  0
  150.9896  141.7682  156.8298 C   0  0  0  0  0  0  0  0  0  0  0  0
  151.8415  141.1236  157.4425 O   0  0  0  0  0  0  0  0  0  0  0  0
  150.8344  143.0951  156.9609 N   0  0  0  0  0  0  0  0  0  0  0  0
  151.6767  143.9714  157.7670 C   0  0  0  0  0  0  0  0  0  0  0  0
  151.6036  143.5979  159.2568 C   0  0  2  0  0  0  0  0  0  0  0  0
  151.7809  144.7631  160.2293 C   0  0  0  0  0  0  0  0  0  0  0  0
  152.2530  144.0821  161.5025 C   0  0  0  0  0  0  0  0  0  0  0  0
  152.7635  142.7166  161.0290 C   0  0  0  0  0  0  0  0  0  0  0  0
  152.6803  142.7458  159.6097 O   0  0  0  0  0  0  0  0  0  0  0  0
  150.6876  139.8672  155.3141 N   0  0  0  0  0  0  0  0  0  0  0  0
  150.1378  138.6068  155.1922 C   0  0  0  0  0  0  0  0  0  0  0  0
  151.0745  137.8030  154.6087 C   0  0  0  0  0  0  0  0  0  0  0  0
  152.1775  138.6738  154.3907 C   0  0  0  0  0  0  0  0  0  0  0  0
  151.9402  139.9082  154.8017 N   0  0  0  0  0  0  0  0  0  0  0  0
  148.1853  141.7273  156.7634 H   0  0  0  0  0  0  0  0  0  0  0  0
  148.6923  140.1239  157.2802 H   0  0  0  0  0  0  0  0  0  0  0  0
  147.9958  140.3565  155.6803 H   0  0  0  0  0  0  0  0  0  0  0  0
  149.9114  141.7481  154.9855 H   0  0  0  0  0  0  0  0  0  0  0  0
  150.1039  143.5391  156.4239 H   0  0  0  0  0  0  0  0  0  0  0  0
  152.7031  143.8641  157.4158 H   0  0  0  0  0  0  0  0  0  0  0  0
  151.4127  145.0202  157.6210 H   0  0  0  0  0  0  0  0  0  0  0  0
  150.6668  143.0783  159.4678 H   0  0  0  0  0  0  0  0  0  0  0  0
  152.5564  145.4397  159.8677 H   0  0  0  0  0  0  0  0  0  0  0  0
  150.8675  145.3425  160.3691 H   0  0  0  0  0  0  0  0  0  0  0  0
  153.0330  144.6630  161.9956 H   0  0  0  0  0  0  0  0  0  0  0  0
  151.4306  143.9560  162.2077 H   0  0  0  0  0  0  0  0  0  0  0  0
  153.7864  142.5196  161.3508 H   0  0  0  0  0  0  0  0  0  0  0  0
  152.1276  141.9168  161.4109 H   0  0  0  0  0  0  0  0  0  0  0  0
  149.1341  138.3894  155.5265 H   0  0  0  0  0  0  0  0  0  0  0  0
  150.9835  136.7543  154.3681 H   0  0  0  0  0  0  0  0  0  0  0  0
  153.1346  138.4489  153.9437 H   0  0  0  0  0  0  0  0  0  0  0  0
  1  2  1  0  0  0  0
  1 17  1  0  0  0  0
  1 18  1  0  0  0  0
  1 19  1  0  0  0  0
  2  3  1  0  0  0  0
  2 12  1  0  0  0  0
  2 20  1  0  0  0  0
  3  4  2  0  0  0  0
  3  5  1  0  0  0  0
  5  6  1  0  0  0  0
  5 21  1  0  0  0  0
  6  7  1  0  0  0  0
  6 22  1  0  0  0  0
  6 23  1  0  0  0  0
  7 11  1  0  0  0  0
  7  8  1  0  0  0  0
  7 24  1  0  0  0  0
  8  9  1  0  0  0  0
  8 25  1  0  0  0  0
  8 26  1  0  0  0  0
  9 10  1  0  0  0  0
  9 27  1  0  0  0  0
  9 28  1  0  0  0  0
 10 11  1  0  0  0  0
 10 29  1  0  0  0  0
 10 30  1  0  0  0  0
 12 16  1  0  0  0  0
 12 13  1  0  0  0  0
 13 14  2  0  0  0  0
 13 31  1  0  0  0  0
 14 15  1  0  0  0  0
 14 32  1  0  0  0  0
 15 16  2  0  0  0  0
 15 33  1  0  0  0  0
M  END
> <s_m_source_file>
AV-unprocessed.smi

> <i_m_source_file_index>
3168

> <i_lp_mmshare_version>
43012

> <i_f3d_flags>
0

> <s_epik_input>
bjFbY0hdW2NIXVtjSF1uMVtDQEhdKFtDSDNdKUMoPU8pW05IXVtDSDJdW0NAQEhdMltDSDJdW0NIMl1bQ0gyXU8y

> <s_epik_cmdline>
J2VwaWtfcHl0aG9uJywgJy1waCcsICc3LjAnLCAnLXRuJywgJzgnLCAnLW1hJywgJzIwMCcsICctbWV0YWxfYmluZGluZycsICctaW1hZScsICc8aW5maWxlLm1hZT4nLCAnLW9tYWUnLCAnPG91dGZpbGUubWFlPic=

> <r_lp_tautomer_probability>
1

> <r_epik_Ionization_Penalty>
4.14877e-05

> <r_epik_Ionization_Penalty_Charging>
0

> <r_epik_Ionization_Penalty_Neutral>
4.14877e-05

> <r_epik_State_Penalty>
-0

> <r_epik_Charging_Adjusted_Penalty>
0

> <i_epik_Tot_Q>
0

> <i_epik_Tot_abs_Q>
0

> <r_epik_Metal_State_Penalty>
-0

> <b_epik_Metal_Only>
0

> <s_lp_Force_Field>
OPLS_2005

> <r_lp_Energy>
21.2446

> <b_lp_Chiralities_Consistent>
1

> <s_lp_Variant>
AV-unprocessed.smi:3168-2

> <Gold.Version>
5.8.1

> <Gold.Id.Protein>
6NUR|6NUR_protein|mol2

> <Gold.PLP.Fitness>
42.6151

> <Gold.PLP.PLP>
-39.1953

> <Gold.PLP.part.hbond>
-2.0000

> <Gold.PLP.part.metal>
0.0000

> <Gold.PLP.part.buried>
-6.1212

> <Gold.PLP.part.nonpolar>
-31.1546

> <Gold.PLP.part.repulsive>
0.0801

> <Gold.PLP.ligand.clash>
0.0000

> <Gold.PLP.ligand.torsion>
1.2154

> <Gold.PLP.Chemscore.Hbond>
1.9120

> <Gold.PLP.Chemscore.CHOScore>
0.0000

> <Gold.PLP.Chemscore.Metal>
0.0000

> <Gold.Chemscore.Hbonds>
donor molecule, donor type, donor heavy atom, donor atom, acceptor molecule, acceptor atom, score
      L1  H     5    21       P1  8028  1.00
      P1  H  7989  7998       L1    16  0.91

> <Gold.PLP.Chemscore.Internal.Correction>
0.1147

> <Gold.Rescore>
     Score         DG    S(hbond)    S(metal)    S(lipo)     H(rot)  DE(clash)    DE(int)     intcor
     16.86     -18.27       1.95        0.00      89.04       1.61       0.07       1.35       ----

> <Gold.Chemscore.Fitness>
16.8558

> <Gold.Chemscore.DG>
-18.2740

> <Gold.Chemscore.ZeroCoef>
-5.4800

> <Gold.Chemscore.Hbond>
1.9451

> <Gold.Chemscore.Metal>
0.0000

> <Gold.Chemscore.Lipo>
89.0378

> <Gold.Chemscore.Internal_Hbond>
0.0000

> <Gold.Chemscore.DEClash>
0.0727

> <Gold.Chemscore.DEInternal>
1.3454

> <Gold.Chemscore.Rot>
1.6094

> <Gold.Chemscore.Internal.Correction>
   9.000000E+99

> <Gold.Chemscore.Hbonds>
donor molecule, donor type, donor heavy atom, donor atom, acceptor molecule, acceptor atom, score
      L1  H     5    21       P1  8028  1.00
      P1  H  7989  7998       L1    16  0.16

> <Gold.Chemscore.Hbond.Weighted>
-6.4966

> <Gold.Chemscore.Metal.Weighted>
-0.0000

> <Gold.Chemscore.Lipo.Weighted>
-10.4174

> <Gold.Chemscore.Internal_Hbond.Weighted>
0.0000

> <Gold.Chemscore.DEClash.Weighted>
0.0727

> <Gold.Chemscore.DEInternal.Weighted>
1.3454

> <Gold.Chemscore.Rot.Weighted>
4.1201

> <Gold.Chemscore.Internal.Correction.Weighted>
   9.000000E+99

> <Gold.Protein.RotatedTorsions>
[ 6907 6896 6895 6894 ] final  120.97 input  -60.11 | X-H torsion
[ 7974 7965 7964 7962 ] final  -69.43 input  175.53 | X-H torsion
[ 8008 7997 7996 7995 ] final    6.02 input   59.86 | X-H torsion
[ 10167 10162 10161 10158 ] final  -84.34 input  -65.29 | X-H torsion
[ 10718 10713 10712 10709 ] final   48.99 input   66.30 | X-H torsion
[ 10763 10752 10751 10750 ] final  -37.34 input  -60.55 | X-H torsion
[ 11005 11000 10999 10996 ] final   93.72 input  -57.11 | X-H torsion

> <Gold.Protein.ActiveResidues>
 VAL166  LYS551  ARG553  GLY616  TRP617  ASP618  TYR619  PRO620  LYS621  CYS622 
 ASP623  PHE694  ASN695  SER759  ASP760  ASP761  ALA762  ILE779  LEU786  VAL792 
 PHE793  MET794  SER795  GLU796  ALA797  LYS798  CYS799  TRP800  GLU811  SER814 

> <Gold.Protein.RotatedAtoms>
  152.4357  133.7357  159.6612 H   0  0  0  0  0  0  0  0  0  0  0  0  # atno 6907 bound_to 6896
  150.8241  133.8191  159.3132 H   0  0  0  0  0  0  0  0  0  0  0  0  # atno 6908 bound_to 6896
  151.5865  135.1058  160.0081 H   0  0  0  0  0  0  0  0  0  0  0  0  # atno 6909 bound_to 6896
  145.7038  140.9106  143.0717 H   0  0  0  0  0  0  0  0  0  0  0  0  # atno 7974 bound_to 7965
  154.7357  140.2739  155.6417 H   0  0  0  0  0  0  0  0  0  0  0  0  # atno 8008 bound_to 7997
  156.2861  140.2707  156.1996 H   0  0  0  0  0  0  0  0  0  0  0  0  # atno 8009 bound_to 7997
  155.0323  140.0371  157.2468 H   0  0  0  0  0  0  0  0  0  0  0  0  # atno 8010 bound_to 7997
  140.4142  143.2610  151.8977 H   0  0  0  0  0  0  0  0  0  0  0  0  # atno 10167 bound_to 10162
  157.4742  130.8274  149.8021 H   0  0  0  0  0  0  0  0  0  0  0  0  # atno 10718 bound_to 10713
  153.8946  135.6808  153.4758 H   0  0  0  0  0  0  0  0  0  0  0  0  # atno 10763 bound_to 10752
  153.1162  135.4760  154.9117 H   0  0  0  0  0  0  0  0  0  0  0  0  # atno 10764 bound_to 10752
  154.7605  135.3209  154.8341 H   0  0  0  0  0  0  0  0  0  0  0  0  # atno 10765 bound_to 10752
  139.8806  134.8806  156.3759 H   0  0  0  0  0  0  0  0  0  0  0  0  # atno 11005 bound_to 11000
  144.6961  139.8984  143.7457 LP  0  0  0  0  0  0  0  0  0  0  0  0  # atno 17320 bound_to 7965
  146.0774  139.3761  143.0486 LP  0  0  0  0  0  0  0  0  0  0  0  0  # atno 17321 bound_to 7965
  139.4782  144.5505  151.8392 LP  0  0  0  0  0  0  0  0  0  0  0  0  # atno 17342 bound_to 10162
  140.4605  144.1729  150.5906 LP  0  0  0  0  0  0  0  0  0  0  0  0  # atno 17343 bound_to 10162
  156.0088  130.3842  150.2335 LP  0  0  0  0  0  0  0  0  0  0  0  0  # atno 17370 bound_to 10713
  157.0519  131.0065  151.3251 LP  0  0  0  0  0  0  0  0  0  0  0  0  # atno 17371 bound_to 10713
  140.9432  133.7500  156.0174 LP  0  0  0  0  0  0  0  0  0  0  0  0  # atno 17394 bound_to 11000
  140.8194  134.3306  157.5386 LP  0  0  0  0  0  0  0  0  0  0  0  0  # atno 17395 bound_to 11000

$$$$
