AV-unprocessed.smi:1863|AV-procd|sdf|7550|dock10
  -GOLD-   22720 9263D 1   1.00000     0.00000
 Structure written by MMmdl.
 37 38  0  0  0  0  0  0  0  0  1 V2000
  146.8248  142.3354  154.1593 C   0  0  0  0  0  0  0  0  0  0  0  0
  147.0770  140.8746  154.5581 C   0  0  2  0  0  0  0  0  0  0  0  0
  148.5416  140.4681  154.2844 C   0  0  0  0  0  0  0  0  0  0  0  0
  149.4285  140.8093  155.3958 N   0  0  0  0  0  0  0  0  0  0  0  0
  148.9626  141.6540  156.4827 C   0  0  0  0  0  0  0  0  0  0  0  0
  150.0823  141.6029  157.5310 C   0  0  0  0  0  0  0  0  0  0  0  0
  151.3064  141.0399  156.8016 C   0  0  0  0  0  0  0  0  0  0  0  0
  150.7212  140.4823  155.5154 C   0  0  0  0  0  0  0  0  0  0  0  0
  151.3807  139.8206  154.7148 O   0  0  0  0  0  0  0  0  0  0  0  0
  146.1562  140.0289  153.8004 N   0  0  0  0  0  0  0  0  0  0  0  0
  146.1724  138.6880  153.7705 C   0  0  0  0  0  0  0  0  0  0  0  0
  146.9757  138.0019  154.4022 O   0  0  0  0  0  0  0  0  0  0  0  0
  145.2287  138.2114  152.9412 N   0  0  0  0  0  0  0  0  0  0  0  0
  144.9389  136.8573  152.6246 C   0  0  0  0  0  0  0  0  0  0  0  0
  143.5892  136.4948  152.4365 C   0  0  0  0  0  0  0  0  0  0  0  0
  143.2739  135.1556  152.1382 C   0  0  0  0  0  0  0  0  0  0  0  0
  144.3261  134.2238  152.0497 C   0  0  0  0  0  0  0  0  0  0  0  0
  145.6215  134.5497  152.2427 N   0  0  0  0  0  0  0  0  0  0  0  0
  145.9172  135.8370  152.5257 C   0  0  0  0  0  0  0  0  0  0  0  0
  147.4678  143.0124  154.7225 H   0  0  0  0  0  0  0  0  0  0  0  0
  145.7923  142.6247  154.3582 H   0  0  0  0  0  0  0  0  0  0  0  0
  147.0186  142.4979  153.0983 H   0  0  0  0  0  0  0  0  0  0  0  0
  146.8799  140.7959  155.6288 H   0  0  0  0  0  0  0  0  0  0  0  0
  148.6116  139.4045  154.0487 H   0  0  0  0  0  0  0  0  0  0  0  0
  148.9067  140.9921  153.3999 H   0  0  0  0  0  0  0  0  0  0  0  0
  148.8193  142.6701  156.1127 H   0  0  0  0  0  0  0  0  0  0  0  0
  148.0137  141.2993  156.8871 H   0  0  0  0  0  0  0  0  0  0  0  0
  150.2773  142.5848  157.9634 H   0  0  0  0  0  0  0  0  0  0  0  0
  149.8003  140.9347  158.3460 H   0  0  0  0  0  0  0  0  0  0  0  0
  152.0241  141.8252  156.5629 H   0  0  0  0  0  0  0  0  0  0  0  0
  151.8110  140.2650  157.3794 H   0  0  0  0  0  0  0  0  0  0  0  0
  145.4656  140.5046  153.2385 H   0  0  0  0  0  0  0  0  0  0  0  0
  144.7045  138.9005  152.4221 H   0  0  0  0  0  0  0  0  0  0  0  0
  142.8037  137.2325  152.5134 H   0  0  0  0  0  0  0  0  0  0  0  0
  142.2502  134.8501  151.9810 H   0  0  0  0  0  0  0  0  0  0  0  0
  144.1215  133.1879  151.8233 H   0  0  0  0  0  0  0  0  0  0  0  0
  146.9646  136.0319  152.6951 H   0  0  0  0  0  0  0  0  0  0  0  0
  1  2  1  0  0  0  0
  1 20  1  0  0  0  0
  1 21  1  0  0  0  0
  1 22  1  0  0  0  0
  2  3  1  0  0  0  0
  2 10  1  0  0  0  0
  2 23  1  0  0  0  0
  3  4  1  0  0  0  0
  3 24  1  0  0  0  0
  3 25  1  0  0  0  0
  4  8  1  0  0  0  0
  4  5  1  0  0  0  0
  5  6  1  0  0  0  0
  5 26  1  0  0  0  0
  5 27  1  0  0  0  0
  6  7  1  0  0  0  0
  6 28  1  0  0  0  0
  6 29  1  0  0  0  0
  7  8  1  0  0  0  0
  7 30  1  0  0  0  0
  7 31  1  0  0  0  0
  8  9  2  0  0  0  0
 10 11  1  0  0  0  0
 10 32  1  0  0  0  0
 11 12  2  0  0  0  0
 11 13  1  0  0  0  0
 13 14  1  0  0  0  0
 13 33  1  0  0  0  0
 14 19  1  0  0  0  0
 14 15  2  0  0  0  0
 15 16  1  0  0  0  0
 15 34  1  0  0  0  0
 16 17  2  0  0  0  0
 16 35  1  0  0  0  0
 17 18  1  0  0  0  0
 17 36  1  0  0  0  0
 18 19  2  0  0  0  0
 19 37  1  0  0  0  0
M  END
> <s_m_source_file>
AV-unprocessed.smi

> <i_m_source_file_index>
1863

> <i_lp_mmshare_version>
43012

> <i_f3d_flags>
0

> <s_epik_input>
Tz1DMVtDSDJdW0NIMl1bQ0gyXU4xW0NIMl1bQ0BASF0oW0NIM10pW05IXUMoPU8pW05IXWMyW2NIXVtjSF1bY0hdbltjSF0y

> <s_epik_cmdline>
J2VwaWtfcHl0aG9uJywgJy1waCcsICc3LjAnLCAnLXRuJywgJzgnLCAnLW1hJywgJzIwMCcsICctbWV0YWxfYmluZGluZycsICctaW1hZScsICc8aW5maWxlLm1hZT4nLCAnLW9tYWUnLCAnPG91dGZpbGUubWFlPic=

> <r_epik_Ionization_Penalty>
0.0047799

> <r_epik_Ionization_Penalty_Charging>
0

> <r_epik_Ionization_Penalty_Neutral>
0.0047799

> <r_epik_State_Penalty>
0.0034394

> <r_epik_Charging_Adjusted_Penalty>
0.0034394

> <i_epik_Tot_Q>
0

> <i_epik_Tot_abs_Q>
0

> <r_epik_Metal_State_Penalty>
-0

> <b_epik_Metal_Only>
0

> <s_lp_Force_Field>
OPLS_2005

> <r_lp_Energy>
22.2943

> <b_lp_Chiralities_Consistent>
1

> <s_lp_Variant>
AV-unprocessed.smi:1863-1

> <Gold.Version>
5.8.1

> <Gold.Id.Protein>
6NUR|6NUR_protein|mol2

> <Gold.PLP.Fitness>
40.1750

> <Gold.PLP.PLP>
-29.6468

> <Gold.PLP.part.hbond>
-3.0000

> <Gold.PLP.part.metal>
0.0000

> <Gold.PLP.part.buried>
-3.8923

> <Gold.PLP.part.nonpolar>
-23.1050

> <Gold.PLP.part.repulsive>
0.2564

> <Gold.PLP.ligand.clash>
0.0000

> <Gold.PLP.ligand.torsion>
0.6972

> <Gold.PLP.Chemscore.Hbond>
2.9680

> <Gold.PLP.Chemscore.CHOScore>
1.0000

> <Gold.PLP.Chemscore.Metal>
0.0000

> <Gold.Chemscore.Hbonds>
donor molecule, donor type, donor heavy atom, donor atom, acceptor molecule, acceptor atom, score
      L1  H    10    32       P1 10175  0.96
      L1  H    13    33       P1 10175  0.96
      P1  H  7989  7998       L1     9  1.00
      L1  C    19    37       P1  7948  1.00

> <Gold.PLP.Chemscore.Internal.Correction>
0.0186

> <Gold.Rescore>
     Score         DG    S(hbond)    S(metal)    S(lipo)     H(rot)  DE(clash)    DE(int)     intcor
     14.40     -17.06       2.89        0.00      50.15       1.54       0.01       2.65       ----

> <Gold.Chemscore.Fitness>
14.3986

> <Gold.Chemscore.DG>
-17.0588

> <Gold.Chemscore.ZeroCoef>
-5.4800

> <Gold.Chemscore.Hbond>
2.8927

> <Gold.Chemscore.Metal>
0.0000

> <Gold.Chemscore.Lipo>
50.1452

> <Gold.Chemscore.Internal_Hbond>
0.0000

> <Gold.Chemscore.DEClash>
0.0106

> <Gold.Chemscore.DEInternal>
2.6497

> <Gold.Chemscore.Rot>
1.5428

> <Gold.Chemscore.Internal.Correction>
   9.000000E+99

> <Gold.Chemscore.Hbonds>
donor molecule, donor type, donor heavy atom, donor atom, acceptor molecule, acceptor atom, score
      L1  H    10    32       P1 10175  0.86
      L1  H    13    33       P1 10175  0.92
      P1  H  7989  7998       L1     9  0.39

> <Gold.Chemscore.Hbond.Weighted>
-9.6615

> <Gold.Chemscore.Metal.Weighted>
-0.0000

> <Gold.Chemscore.Lipo.Weighted>
-5.8670

> <Gold.Chemscore.Internal_Hbond.Weighted>
0.0000

> <Gold.Chemscore.DEClash.Weighted>
0.0106

> <Gold.Chemscore.DEInternal.Weighted>
2.6497

> <Gold.Chemscore.Rot.Weighted>
3.9497

> <Gold.Chemscore.Internal.Correction.Weighted>
   9.000000E+99

> <Gold.Protein.RotatedTorsions>
[ 6907 6896 6895 6894 ] final -171.36 input  -60.11 | X-H torsion
[ 7974 7965 7964 7962 ] final   -3.21 input  175.53 | X-H torsion
[ 8008 7997 7996 7995 ] final  -85.68 input   59.86 | X-H torsion
[ 10167 10162 10161 10158 ] final  -50.60 input  -65.29 | X-H torsion
[ 10718 10713 10712 10709 ] final   11.71 input   66.30 | X-H torsion
[ 10763 10752 10751 10750 ] final  -89.55 input  -60.55 | X-H torsion
[ 11005 11000 10999 10996 ] final -164.45 input  -57.11 | X-H torsion

> <Gold.Protein.ActiveResidues>
 VAL166  LYS551  ARG553  GLY616  TRP617  ASP618  TYR619  PRO620  LYS621  CYS622 
 ASP623  PHE694  ASN695  SER759  ASP760  ASP761  ALA762  ILE779  LEU786  VAL792 
 PHE793  MET794  SER795  GLU796  ALA797  LYS798  CYS799  TRP800  GLU811  SER814 

> <Gold.Protein.RotatedAtoms>
  151.5226  133.3463  159.2903 H   0  0  0  0  0  0  0  0  0  0  0  0  # atno 6907 bound_to 6896
  150.8643  134.8005  159.7117 H   0  0  0  0  0  0  0  0  0  0  0  0  # atno 6908 bound_to 6896
  152.4652  134.5100  159.9802 H   0  0  0  0  0  0  0  0  0  0  0  0  # atno 6909 bound_to 6896
  146.2393  140.1687  142.8332 H   0  0  0  0  0  0  0  0  0  0  0  0  # atno 7974 bound_to 7965
  154.6434  140.0588  156.9872 H   0  0  0  0  0  0  0  0  0  0  0  0  # atno 8008 bound_to 7997
  155.1482  140.3271  155.4418 H   0  0  0  0  0  0  0  0  0  0  0  0  # atno 8009 bound_to 7997
  156.2542  140.1952  156.6594 H   0  0  0  0  0  0  0  0  0  0  0  0  # atno 8010 bound_to 7997
  140.6629  143.2651  151.4383 H   0  0  0  0  0  0  0  0  0  0  0  0  # atno 10167 bound_to 10162
  156.9995  130.6074  149.5695 H   0  0  0  0  0  0  0  0  0  0  0  0  # atno 10718 bound_to 10713
  154.6564  135.5337  153.7965 H   0  0  0  0  0  0  0  0  0  0  0  0  # atno 10763 bound_to 10752
  153.0416  135.6495  154.0938 H   0  0  0  0  0  0  0  0  0  0  0  0  # atno 10764 bound_to 10752
  154.0851  135.2944  155.3263 H   0  0  0  0  0  0  0  0  0  0  0  0  # atno 10765 bound_to 10752
  140.5868  134.5085  157.5187 H   0  0  0  0  0  0  0  0  0  0  0  0  # atno 11005 bound_to 11000
  145.0029  140.8648  143.5271 LP  0  0  0  0  0  0  0  0  0  0  0  0  # atno 17320 bound_to 7965
  145.1709  139.2405  143.5342 LP  0  0  0  0  0  0  0  0  0  0  0  0  # atno 17321 bound_to 7965
  139.5869  144.1585  152.2040 LP  0  0  0  0  0  0  0  0  0  0  0  0  # atno 17342 bound_to 10162
  140.0927  144.5607  150.7043 LP  0  0  0  0  0  0  0  0  0  0  0  0  # atno 17343 bound_to 10162
  156.0176  130.5271  150.8181 LP  0  0  0  0  0  0  0  0  0  0  0  0  # atno 17370 bound_to 10713
  157.5400  131.0940  150.9840 LP  0  0  0  0  0  0  0  0  0  0  0  0  # atno 17371 bound_to 10713
  139.9292  134.7996  156.0980 LP  0  0  0  0  0  0  0  0  0  0  0  0  # atno 17394 bound_to 11000
  141.0961  133.6695  156.2648 LP  0  0  0  0  0  0  0  0  0  0  0  0  # atno 17395 bound_to 11000

$$$$
