#       Name:                AV-unprocessed.smi:2754
#       Creating user name   scv26
#       Creation time:       Fri Mar 27 15:06:30 2020


#       File generated by GOLD software.
#

@<TRIPOS>MOLECULE
AV-unprocessed.smi:2754
    30    31     1
SMALL
NO_CHARGES


@<TRIPOS>ATOM
      1 ****        -3.3128   2.4869   0.0473 N.pl3          1 S1                 0.0000
      2 ****        -1.9401   2.4763   0.0295 C.ar           1 S1                 0.0000
      3 ****        -1.3332   3.6646   0.0273 N.ar           1 S1                 0.0000
      4 ****         0.0173   3.6579   0.0077 C.ar           1 S1                 0.0000
      5 ****         0.7538   2.4556  -0.0074 C.ar           1 S1                 0.0000
      6 ****         0.0014   1.2609  -0.0017 C.ar           1 S1                 0.0000
      7 ****         0.6796  -0.1018  -0.0136 C.3            1 S1                 0.0000
      8 ****         0.3496  -0.9068  -1.2860 C.3            1 S1                 0.0000
      9 ****         1.0471  -2.2755  -1.2526 C.3            1 S1                 0.0000
     10 ****         0.7025  -3.0370   0.0382 C.3            1 S1                 0.0000
     11 ****         1.0480  -2.2304   1.2291 N.4            1 S1                 1.0000
     12 ****         0.3646  -0.9182   1.2578 C.3            1 S1                 0.0000
     13 ****        -1.3519   1.2780   0.0172 N.ar           1 S1                 0.0000
     14 ****        -3.8276   1.6182   0.0505 H              1 S1                 0.0000
     15 ****        -3.8153   3.3541   0.1681 H              1 S1                 0.0000
     16 ****         0.5133   4.6173   0.0054 H              1 S1                 0.0000
     17 ****         1.8338   2.4583  -0.0232 H              1 S1                 0.0000
     18 ****         1.7555   0.0812  -0.0198 H              1 S1                 0.0000
     19 ****        -0.7283  -1.0537  -1.3687 H              1 S1                 0.0000
     20 ****         0.6576  -0.3536  -2.1738 H              1 S1                 0.0000
     21 ****         0.7543  -2.8640  -2.1226 H              1 S1                 0.0000
     22 ****         2.1272  -2.1390  -1.3212 H              1 S1                 0.0000
     23 ****        -0.3605  -3.2806   0.0643 H              1 S1                 0.0000
     24 ****         1.2472  -3.9807   0.0777 H              1 S1                 0.0000
     25 ****         0.7975  -2.7479   2.0597 H              1 S1                 0.0000
     26 ****         0.6853  -0.3746   2.1470 H              1 S1                 0.0000
     27 ****        -0.7093  -1.0836   1.3552 H              1 S1                 0.0000
     28 ****         2.0458  -2.0739   1.2318 H              1 S1                 0.0000
     29 ****        -1.8530   4.5188   0.0395 LP             1 S1                 0.0000
     30 ****        -1.8860   0.4326   0.0217 LP             1 S1                 0.0000
@<TRIPOS>BOND
    1    1    2 1     
    2    1   14 1     
    3    1   15 1     
    4    2   13 ar    
    5    2    3 ar    
    6    3    4 ar    
    7    4    5 ar    
    8    4   16 1     
    9    5    6 ar    
   10    5   17 1     
   11    6    7 1     
   12    6   13 ar    
   13    7   12 1     
   14    7    8 1     
   15    7   18 1     
   16    8    9 1     
   17    8   19 1     
   18    8   20 1     
   19    9   10 1     
   20    9   21 1     
   21    9   22 1     
   22   10   11 1     
   23   10   23 1     
   24   10   24 1     
   25   11   12 1     
   26   11   25 1     
   27   11   28 1     
   28   12   26 1     
   29   12   27 1     
   30    3   29 1     
   31   13   30 1     
@<TRIPOS>SUBSTRUCTURE
      1 S1             1
@<TRIPOS>SET
LONE_PAIRS      STATIC     ATOMS    <user>   **** ""
2 29 30
DONOR_HYDROGENS      STATIC     ATOMS    <user>   **** ""
4 14 15 25 28
ATOM$BLUE        STATIC     ATOMS    COLORGROUP SYSTEM
2 29 30
ATOM$RED        STATIC     ATOMS    COLORGROUP SYSTEM
4 14 15 25 28
