AV-unprocessed.smi:926|AV-procd|sdf|4185|dock3
  -GOLD-   22720 2 93D 1   1.00000     0.00000
 Structure written by MMmdl.
 37 39  0  0  0  0  0  0  0  0  1 V2000
  149.5255  141.2271  153.8136 O   0  0  0  0  0  0  0  0  0  0  0  0
  149.9317  140.3146  154.5329 C   0  0  0  0  0  0  0  0  0  0  0  0
  150.1747  138.9267  153.9395 C   0  0  0  0  0  0  0  0  0  0  0  0
  151.3948  138.3456  154.4654 N   0  0  0  0  0  0  0  0  0  0  0  0
  152.6471  138.8068  154.4891 C   0  0  0  0  0  0  0  0  0  0  0  0
  153.4736  137.9473  155.0655 N   0  0  0  0  0  0  0  0  0  0  0  0
  152.6428  136.8935  155.4082 N   0  0  0  0  0  0  0  0  0  0  0  0
  151.4083  137.1235  155.0536 N   0  0  0  0  0  0  0  0  0  0  0  0
  150.1787  140.4587  155.8440 N   0  0  0  0  0  0  0  0  0  0  0  0
  150.0110  141.6960  156.5971 C   0  0  0  0  0  0  0  0  0  0  0  0
  151.1367  141.8870  157.6285 C   0  0  0  0  0  0  0  0  0  0  0  0
  150.9296  143.1263  158.5216 C   0  0  2  0  0  0  0  0  0  0  0  0
  151.3871  144.4518  157.8683 C   0  0  0  0  0  0  0  0  0  0  0  0
  152.3711  145.0305  158.9010 C   0  0  1  0  0  0  0  0  0  0  0  0
  151.5994  145.4738  160.1578 C   0  0  0  0  0  0  0  0  0  0  0  0
  151.2115  144.1320  160.8076 C   0  0  0  0  0  0  0  0  0  0  0  0
  151.7773  143.0982  159.8149 C   0  0  2  0  0  0  0  0  0  0  0  0
  153.0780  143.7725  159.3882 C   0  0  0  0  0  0  0  0  0  0  0  0
  149.3385  138.2714  154.1873 H   0  0  0  0  0  0  0  0  0  0  0  0
  150.2353  138.9733  152.8508 H   0  0  0  0  0  0  0  0  0  0  0  0
  152.9499  139.7622  154.0862 H   0  0  0  0  0  0  0  0  0  0  0  0
  150.5061  139.6532  156.3576 H   0  0  0  0  0  0  0  0  0  0  0  0
  150.0081  142.5210  155.8849 H   0  0  0  0  0  0  0  0  0  0  0  0
  149.0361  141.7094  157.0875 H   0  0  0  0  0  0  0  0  0  0  0  0
  151.1880  141.0026  158.2649 H   0  0  0  0  0  0  0  0  0  0  0  0
  152.0977  141.9468  157.1169 H   0  0  0  0  0  0  0  0  0  0  0  0
  149.8718  143.1818  158.7832 H   0  0  0  0  0  0  0  0  0  0  0  0
  151.9017  144.2744  156.9230 H   0  0  0  0  0  0  0  0  0  0  0  0
  150.5525  145.1246  157.6682 H   0  0  0  0  0  0  0  0  0  0  0  0
  153.0276  145.8006  158.4954 H   0  0  0  0  0  0  0  0  0  0  0  0
  152.2395  146.0524  160.8250 H   0  0  0  0  0  0  0  0  0  0  0  0
  150.7299  146.0849  159.9130 H   0  0  0  0  0  0  0  0  0  0  0  0
  151.6863  144.0290  161.7841 H   0  0  0  0  0  0  0  0  0  0  0  0
  150.1349  144.0316  160.9498 H   0  0  0  0  0  0  0  0  0  0  0  0
  151.8936  142.1045  160.2491 H   0  0  0  0  0  0  0  0  0  0  0  0
  153.6098  143.2403  158.5983 H   0  0  0  0  0  0  0  0  0  0  0  0
  153.7634  143.9559  160.2176 H   0  0  0  0  0  0  0  0  0  0  0  0
  1  2  2  0  0  0  0
  2  3  1  0  0  0  0
  2  9  1  0  0  0  0
  3  4  1  0  0  0  0
  3 19  1  0  0  0  0
  3 20  1  0  0  0  0
  4  8  1  0  0  0  0
  4  5  1  0  0  0  0
  5  6  2  0  0  0  0
  5 21  1  0  0  0  0
  6  7  1  0  0  0  0
  7  8  2  0  0  0  0
  9 10  1  0  0  0  0
  9 22  1  0  0  0  0
 10 11  1  0  0  0  0
 10 23  1  0  0  0  0
 10 24  1  0  0  0  0
 11 12  1  0  0  0  0
 11 25  1  0  0  0  0
 11 26  1  0  0  0  0
 12 17  1  0  0  0  0
 12 13  1  0  0  0  0
 12 27  1  0  0  0  0
 13 14  1  0  0  0  0
 13 28  1  0  0  0  0
 13 29  1  0  0  0  0
 14 18  1  0  0  0  0
 14 15  1  0  0  0  0
 14 30  1  0  0  0  0
 15 16  1  0  0  0  0
 15 31  1  0  0  0  0
 15 32  1  0  0  0  0
 16 17  1  0  0  0  0
 16 33  1  0  0  0  0
 16 34  1  0  0  0  0
 17 18  1  0  0  0  0
 17 35  1  0  0  0  0
 18 36  1  0  0  0  0
 18 37  1  0  0  0  0
M  END
> <s_m_source_file>
AV-unprocessed.smi

> <i_m_source_file_index>
926

> <i_lp_mmshare_version>
43012

> <i_f3d_flags>
0

> <s_epik_input>
bjFubltjSF1uMVtDSDJdQyg9TylbTkhdW0NIMl1bQ0gyXVtDQEhdKFtDSDJdW0NASF0yMylbQ0BIXShbQ0gyXTMpW0NIMl1bQ0gyXTI=

> <s_epik_cmdline>
J2VwaWtfcHl0aG9uJywgJy1waCcsICc3LjAnLCAnLXRuJywgJzgnLCAnLW1hJywgJzIwMCcsICctbWV0YWxfYmluZGluZycsICctaW1hZScsICc8aW5maWxlLm1hZT4nLCAnLW9tYWUnLCAnPG91dGZpbGUubWFlPic=

> <r_lp_tautomer_probability>
1

> <r_epik_Ionization_Penalty>
4.22645e-07

> <r_epik_Ionization_Penalty_Charging>
0

> <r_epik_Ionization_Penalty_Neutral>
4.22645e-07

> <r_epik_State_Penalty>
-0

> <r_epik_Charging_Adjusted_Penalty>
0

> <i_epik_Tot_Q>
0

> <i_epik_Tot_abs_Q>
0

> <r_epik_Metal_State_Penalty>
-0

> <b_epik_Metal_Only>
0

> <s_lp_Force_Field>
OPLS_2005

> <r_lp_Energy>
50.9279

> <b_lp_Chiralities_Consistent>
1

> <s_lp_Variant>
AV-unprocessed.smi:926-3

> <Gold.Version>
5.8.1

> <Gold.Id.Protein>
6NUR|6NUR_protein|mol2

> <Gold.PLP.Fitness>
49.2631

> <Gold.PLP.PLP>
-44.9691

> <Gold.PLP.part.hbond>
-3.7846

> <Gold.PLP.part.metal>
0.0000

> <Gold.PLP.part.buried>
-4.7515

> <Gold.PLP.part.nonpolar>
-36.7717

> <Gold.PLP.part.repulsive>
1.9207

> <Gold.PLP.ligand.clash>
0.0000

> <Gold.PLP.ligand.torsion>
0.6265

> <Gold.PLP.Chemscore.Hbond>
1.8240

> <Gold.PLP.Chemscore.CHOScore>
0.0000

> <Gold.PLP.Chemscore.Metal>
0.0000

> <Gold.Chemscore.Hbonds>
donor molecule, donor type, donor heavy atom, donor atom, acceptor molecule, acceptor atom, score
      P1  H  8011  8017       L1     1  0.86
      P1  H 10752 10765       L1     7  0.62

> <Gold.PLP.Chemscore.Internal.Correction>
0.0749

> <Gold.Rescore>
     Score         DG    S(hbond)    S(metal)    S(lipo)     H(rot)  DE(clash)    DE(int)     intcor
     14.43     -15.80       1.27        0.00     107.50       2.54       0.67       0.70       ----

> <Gold.Chemscore.Fitness>
14.4270

> <Gold.Chemscore.DG>
-15.7970

> <Gold.Chemscore.ZeroCoef>
-5.4800

> <Gold.Chemscore.Hbond>
1.2728

> <Gold.Chemscore.Metal>
0.0000

> <Gold.Chemscore.Lipo>
107.5005

> <Gold.Chemscore.Internal_Hbond>
0.0000

> <Gold.Chemscore.DEClash>
0.6700

> <Gold.Chemscore.DEInternal>
0.7000

> <Gold.Chemscore.Rot>
2.5436

> <Gold.Chemscore.Internal.Correction>
   9.000000E+99

> <Gold.Chemscore.Hbonds>
donor molecule, donor type, donor heavy atom, donor atom, acceptor molecule, acceptor atom, score
      P1  H  8011  8017       L1     1  0.85
      P1  H 10752 10765       L1     7  0.45

> <Gold.Chemscore.Hbond.Weighted>
-4.2512

> <Gold.Chemscore.Metal.Weighted>
-0.0000

> <Gold.Chemscore.Lipo.Weighted>
-12.5776

> <Gold.Chemscore.Internal_Hbond.Weighted>
0.0000

> <Gold.Chemscore.DEClash.Weighted>
0.6700

> <Gold.Chemscore.DEInternal.Weighted>
0.7000

> <Gold.Chemscore.Rot.Weighted>
6.5117

> <Gold.Chemscore.Internal.Correction.Weighted>
   9.000000E+99

> <Gold.Protein.RotatedTorsions>
[ 6907 6896 6895 6894 ] final  132.64 input  -60.11 | X-H torsion
[ 7974 7965 7964 7962 ] final   27.61 input  175.53 | X-H torsion
[ 8008 7997 7996 7995 ] final  147.44 input   59.86 | X-H torsion
[ 10167 10162 10161 10158 ] final  173.01 input  -65.29 | X-H torsion
[ 10718 10713 10712 10709 ] final   87.76 input   66.30 | X-H torsion
[ 10763 10752 10751 10750 ] final -156.64 input  -60.55 | X-H torsion
[ 11005 11000 10999 10996 ] final  120.77 input  -57.11 | X-H torsion

> <Gold.Protein.ActiveResidues>
 VAL166  LYS551  ARG553  GLY616  TRP617  ASP618  TYR619  PRO620  LYS621  CYS622 
 ASP623  PHE694  ASN695  SER759  ASP760  ASP761  ALA762  ILE779  LEU786  VAL792 
 PHE793  MET794  SER795  GLU796  ALA797  LYS798  CYS799  TRP800  GLU811  SER814 

> <Gold.Protein.RotatedAtoms>
  152.3303  133.5951  159.5804 H   0  0  0  0  0  0  0  0  0  0  0  0  # atno 6907 bound_to 6896
  150.7419  133.9877  159.3606 H   0  0  0  0  0  0  0  0  0  0  0  0  # atno 6908 bound_to 6896
  151.7753  135.0776  160.0417 H   0  0  0  0  0  0  0  0  0  0  0  0  # atno 6909 bound_to 6896
  146.1775  139.7168  142.8924 H   0  0  0  0  0  0  0  0  0  0  0  0  # atno 7974 bound_to 7965
  156.2824  140.2155  156.5538 H   0  0  0  0  0  0  0  0  0  0  0  0  # atno 8008 bound_to 7997
  154.7269  140.0498  157.0714 H   0  0  0  0  0  0  0  0  0  0  0  0  # atno 8009 bound_to 7997
  155.0404  140.3145  155.4729 H   0  0  0  0  0  0  0  0  0  0  0  0  # atno 8010 bound_to 7997
  139.5094  144.3310  152.0112 H   0  0  0  0  0  0  0  0  0  0  0  0  # atno 10167 bound_to 10162
  157.6943  131.0268  150.3172 H   0  0  0  0  0  0  0  0  0  0  0  0  # atno 10718 bound_to 10713
  154.7698  135.3141  154.8213 H   0  0  0  0  0  0  0  0  0  0  0  0  # atno 10763 bound_to 10752
  153.8952  135.6821  153.4762 H   0  0  0  0  0  0  0  0  0  0  0  0  # atno 10764 bound_to 10752
  153.1309  135.4780  154.9282 H   0  0  0  0  0  0  0  0  0  0  0  0  # atno 10765 bound_to 10752
  139.9198  134.9636  156.7857 H   0  0  0  0  0  0  0  0  0  0  0  0  # atno 11005 bound_to 11000
  145.4171  141.0403  143.2984 LP  0  0  0  0  0  0  0  0  0  0  0  0  # atno 17320 bound_to 7965
  144.8259  139.5710  143.6965 LP  0  0  0  0  0  0  0  0  0  0  0  0  # atno 17321 bound_to 7965
  140.2749  144.3923  150.6138 LP  0  0  0  0  0  0  0  0  0  0  0  0  # atno 17342 bound_to 10162
  140.6061  143.2168  151.6978 LP  0  0  0  0  0  0  0  0  0  0  0  0  # atno 17343 bound_to 10162
  156.3665  130.3856  149.7209 LP  0  0  0  0  0  0  0  0  0  0  0  0  # atno 17370 bound_to 10713
  156.4638  130.7964  151.2984 LP  0  0  0  0  0  0  0  0  0  0  0  0  # atno 17371 bound_to 10713
  140.6508  133.9733  155.7754 LP  0  0  0  0  0  0  0  0  0  0  0  0  # atno 17394 bound_to 11000
  141.0709  134.0206  157.3527 LP  0  0  0  0  0  0  0  0  0  0  0  0  # atno 17395 bound_to 11000

$$$$
