#       Name:                AV-unprocessed.smi:1231
#       Creating user name   scv26
#       Creation time:       Fri Mar 27 04:23:30 2020


#       File generated by GOLD software.
#

@<TRIPOS>MOLECULE
AV-unprocessed.smi:1231
    48    49     1
SMALL
NO_CHARGES


@<TRIPOS>ATOM
      1 ****        -4.5207   3.2357  -0.7662 C.3            1 S1                 0.0000
      2 ****        -4.0102   1.8269  -0.4466 C.3            1 S1                 0.0000
      3 ****        -2.4725   1.7692  -0.3661 C.3            1 S1                 0.0000
      4 ****        -1.9942   0.4436   0.0184 N.3            1 S1                 0.0000
      5 ****        -0.5376   0.3794   0.1218 C.3            1 S1                 0.0000
      6 ****         0.2158   0.5278  -1.2134 C.3            1 S1                 0.0000
      7 ****         1.6549   0.3864  -1.0285 N.am           1 S1                 0.0000
      8 ****         2.3037  -0.7808  -0.9077 C.2            1 S1                 0.0000
      9 ****         1.7413  -1.8759  -0.9426 O.2            1 S1                 0.0000
     10 ****         3.6246  -0.5887  -0.7441 N.am           1 S1                 0.0000
     11 ****         4.6404  -1.5679  -0.5807 C.ar           1 S1                 0.0000
     12 ****         5.9480  -1.0542  -0.4267 C.ar           1 S1                 0.0000
     13 ****         7.0268  -1.9440  -0.2589 C.ar           1 S1                 0.0000
     14 ****         6.7697  -3.3265  -0.2485 C.ar           1 S1                 0.0000
     15 ****         5.4387  -3.7547  -0.4067 C.ar           1 S1                 0.0000
     16 ****         4.4037  -2.9037  -0.5684 N.ar           1 S1                 0.0000
     17 ****        -2.6223   0.0625   1.2785 C.3            1 S1                 0.0000
     18 ****        -4.1598   0.1138   1.1976 C.3            1 S1                 0.0000
     19 ****        -4.8226  -0.2115   2.5402 C.3            1 S1                 0.0000
     20 ****        -4.5596   1.4237   0.8049 O.3            1 S1                 0.0000
     21 ****        -4.1399   3.5826  -1.7271 H              1 S1                 0.0000
     22 ****        -4.2092   3.9505  -0.0041 H              1 S1                 0.0000
     23 ****        -5.6097   3.2529  -0.8145 H              1 S1                 0.0000
     24 ****        -4.3606   1.1435  -1.2220 H              1 S1                 0.0000
     25 ****        -2.0641   2.0511  -1.3359 H              1 S1                 0.0000
     26 ****        -2.1176   2.5111   0.3511 H              1 S1                 0.0000
     27 ****        -0.1849   1.1339   0.8268 H              1 S1                 0.0000
     28 ****        -0.2638  -0.5838   0.5546 H              1 S1                 0.0000
     29 ****        -0.1429  -0.2047  -1.9384 H              1 S1                 0.0000
     30 ****         0.0423   1.5107  -1.6499 H              1 S1                 0.0000
     31 ****         2.1940   1.2389  -0.9887 H              1 S1                 0.0000
     32 ****         3.9407   0.3697  -0.7349 H              1 S1                 0.0000
     33 ****         6.1278   0.0112  -0.4367 H              1 S1                 0.0000
     34 ****         8.0335  -1.5713  -0.1402 H              1 S1                 0.0000
     35 ****         7.5704  -4.0400  -0.1223 H              1 S1                 0.0000
     36 ****         5.1979  -4.8076  -0.4036 H              1 S1                 0.0000
     37 ****        -2.3108  -0.9457   1.5545 H              1 S1                 0.0000
     38 ****        -2.2784   0.7233   2.0761 H              1 S1                 0.0000
     39 ****        -4.5106  -0.6017   0.4518 H              1 S1                 0.0000
     40 ****        -4.5526  -1.2123   2.8782 H              1 S1                 0.0000
     41 ****        -5.9089  -0.1707   2.4579 H              1 S1                 0.0000
     42 ****        -4.5199   0.4965   3.3123 H              1 S1                 0.0000
     43 ****        -2.2498  -0.2019  -0.7013 LP             1 S1                 0.0000
     44 ****         0.7502  -1.9253  -1.0664 LP             1 S1                 0.0000
     45 ****         2.2757  -2.7157  -0.8472 LP             1 S1                 0.0000
     46 ****         3.4733  -3.2536  -0.6779 LP             1 S1                 0.0000
     47 ****        -5.5570   1.4442   0.7355 LP             1 S1                 0.0000
     48 ****        -4.2610   2.0708   1.5063 LP             1 S1                 0.0000
@<TRIPOS>BOND
    1    1    2 1     
    2    1   21 1     
    3    1   22 1     
    4    1   23 1     
    5    2   20 1     
    6    2    3 1     
    7    2   24 1     
    8    3    4 1     
    9    3   25 1     
   10    3   26 1     
   11    4    5 1     
   12    4   17 1     
   13    5    6 1     
   14    5   27 1     
   15    5   28 1     
   16    6    7 1     
   17    6   29 1     
   18    6   30 1     
   19    7    8 am    
   20    7   31 1     
   21    8    9 2     
   22    8   10 am    
   23   10   11 1     
   24   10   32 1     
   25   11   16 ar    
   26   11   12 ar    
   27   12   13 ar    
   28   12   33 1     
   29   13   14 ar    
   30   13   34 1     
   31   14   15 ar    
   32   14   35 1     
   33   15   16 ar    
   34   15   36 1     
   35   17   18 1     
   36   17   37 1     
   37   17   38 1     
   38   18   19 1     
   39   18   20 1     
   40   18   39 1     
   41   19   40 1     
   42   19   41 1     
   43   19   42 1     
   44    4   43 1     
   45    9   44 1     
   46    9   45 1     
   47   16   46 1     
   48   20   47 1     
   49   20   48 1     
@<TRIPOS>SUBSTRUCTURE
      1 S1             1
@<TRIPOS>SET
LONE_PAIRS      STATIC     ATOMS    <user>   **** ""
6 43 44 45 46 47 48
DONOR_HYDROGENS      STATIC     ATOMS    <user>   **** ""
2 31 32
ATOM$BLUE        STATIC     ATOMS    COLORGROUP SYSTEM
6 43 44 45 46 47 48
ATOM$RED        STATIC     ATOMS    COLORGROUP SYSTEM
2 31 32
