AV-unprocessed.smi:1251|AV-procd|sdf|5256|dock1
  -GOLD-   22720 4363D 1   1.00000     0.00000
 Structure written by MMmdl.
 39 40  0  0  0  0  0  0  0  0  1 V2000
  151.2120  143.0809  159.0300 C   0  0  0  0  0  0  0  0  0  0  0  0
  150.6283  142.0256  158.0846 C   0  0  0  0  0  0  0  0  0  0  0  0
  151.1856  142.1399  156.6587 C   0  0  0  0  0  0  0  0  0  0  0  0
  150.7783  140.9956  155.7914 C   0  0  0  0  0  0  0  0  0  0  0  0
  151.6609  140.1440  155.2547 N   0  0  0  0  0  0  0  0  0  0  0  0
  151.0499  139.1845  154.4594 N   0  0  0  0  0  0  0  0  0  0  0  0
  149.7213  139.3512  154.4070 C   0  0  0  0  0  0  0  0  0  0  0  0
  148.8494  138.5165  153.6589 N   0  0  0  0  0  0  0  0  0  0  0  0
  147.5050  138.5015  153.6598 C   0  0  0  0  0  0  0  0  0  0  0  0
  146.7857  139.2433  154.3292 O   0  0  0  0  0  0  0  0  0  0  0  0
  147.0324  137.5670  152.8214 N   0  0  0  0  0  0  0  0  0  0  0  0
  145.6214  137.2735  152.5726 C   0  0  2  0  0  0  0  0  0  0  0  0
  144.9362  136.9719  153.9137 C   0  0  0  0  0  0  0  0  0  0  0  0
  145.4795  136.1014  151.5791 C   0  0  2  0  0  0  0  0  0  0  0  0
  144.0510  135.5916  151.3773 C   0  0  0  0  0  0  0  0  0  0  0  0
  144.2957  134.1860  150.8802 C   0  0  0  0  0  0  0  0  0  0  0  0
  145.4949  133.7621  151.7225 C   0  0  0  0  0  0  0  0  0  0  0  0
  146.1985  134.9604  152.0421 O   0  0  0  0  0  0  0  0  0  0  0  0
  149.1030  140.7045  155.3384 S   0  0  0  0  0  0  0  0  0  0  0  0
  150.7985  142.9746  160.0330 H   0  0  0  0  0  0  0  0  0  0  0  0
  150.9864  144.0893  158.6820 H   0  0  0  0  0  0  0  0  0  0  0  0
  152.2953  142.9857  159.1049 H   0  0  0  0  0  0  0  0  0  0  0  0
  150.8413  141.0323  158.4814 H   0  0  0  0  0  0  0  0  0  0  0  0
  149.5422  142.1236  158.0624 H   0  0  0  0  0  0  0  0  0  0  0  0
  150.8484  143.0689  156.1969 H   0  0  0  0  0  0  0  0  0  0  0  0
  152.2749  142.1828  156.6855 H   0  0  0  0  0  0  0  0  0  0  0  0
  149.3042  137.8489  153.0539 H   0  0  0  0  0  0  0  0  0  0  0  0
  147.7023  137.0102  152.3116 H   0  0  0  0  0  0  0  0  0  0  0  0
  145.1307  138.1493  152.1443 H   0  0  0  0  0  0  0  0  0  0  0  0
  143.8707  136.7854  153.7786 H   0  0  0  0  0  0  0  0  0  0  0  0
  145.0350  137.8111  154.6029 H   0  0  0  0  0  0  0  0  0  0  0  0
  145.3689  136.0932  154.3935 H   0  0  0  0  0  0  0  0  0  0  0  0
  145.8942  136.3806  150.6087 H   0  0  0  0  0  0  0  0  0  0  0  0
  143.5144  135.5623  152.3269 H   0  0  0  0  0  0  0  0  0  0  0  0
  143.4756  136.1975  150.6769 H   0  0  0  0  0  0  0  0  0  0  0  0
  143.4335  133.5298  151.0025 H   0  0  0  0  0  0  0  0  0  0  0  0
  144.5652  134.2053  149.8232 H   0  0  0  0  0  0  0  0  0  0  0  0
  145.1639  133.2988  152.6527 H   0  0  0  0  0  0  0  0  0  0  0  0
  146.1364  133.0522  151.2000 H   0  0  0  0  0  0  0  0  0  0  0  0
  1  2  1  0  0  0  0
  1 20  1  0  0  0  0
  1 21  1  0  0  0  0
  1 22  1  0  0  0  0
  2  3  1  0  0  0  0
  2 23  1  0  0  0  0
  2 24  1  0  0  0  0
  3  4  1  0  0  0  0
  3 25  1  0  0  0  0
  3 26  1  0  0  0  0
  4 19  1  0  0  0  0
  4  5  2  0  0  0  0
  5  6  1  0  0  0  0
  6  7  2  0  0  0  0
  7  8  1  0  0  0  0
  7 19  1  0  0  0  0
  8  9  1  0  0  0  0
  8 27  1  0  0  0  0
  9 10  2  0  0  0  0
  9 11  1  0  0  0  0
 11 12  1  0  0  0  0
 11 28  1  0  0  0  0
 12 13  1  0  0  0  0
 12 14  1  0  0  0  0
 12 29  1  0  0  0  0
 13 30  1  0  0  0  0
 13 31  1  0  0  0  0
 13 32  1  0  0  0  0
 14 18  1  0  0  0  0
 14 15  1  0  0  0  0
 14 33  1  0  0  0  0
 15 16  1  0  0  0  0
 15 34  1  0  0  0  0
 15 35  1  0  0  0  0
 16 17  1  0  0  0  0
 16 36  1  0  0  0  0
 16 37  1  0  0  0  0
 17 18  1  0  0  0  0
 17 38  1  0  0  0  0
 17 39  1  0  0  0  0
M  END
> <s_m_source_file>
AV-unprocessed.smi

> <i_m_source_file_index>
1251

> <i_lp_mmshare_version>
43012

> <i_f3d_flags>
0

> <s_epik_input>
W0NIM11bQ0gyXVtDSDJdYzFubmMoczEpW05IXUMoPU8pW05IXVtDQEhdKFtDSDNdKVtDQEBIXTJbQ0gyXVtDSDJdW0NIMl1PMg==

> <s_epik_cmdline>
J2VwaWtfcHl0aG9uJywgJy1waCcsICc3LjAnLCAnLXRuJywgJzgnLCAnLW1hJywgJzIwMCcsICctbWV0YWxfYmluZGluZycsICctaW1hZScsICc8aW5maWxlLm1hZT4nLCAnLW9tYWUnLCAnPG91dGZpbGUubWFlPic=

> <r_lp_tautomer_probability>
1

> <r_epik_Ionization_Penalty>
0.000503621

> <r_epik_Ionization_Penalty_Charging>
0

> <r_epik_Ionization_Penalty_Neutral>
0.000503621

> <r_epik_State_Penalty>
-0

> <r_epik_Charging_Adjusted_Penalty>
0

> <i_epik_Tot_Q>
0

> <i_epik_Tot_abs_Q>
0

> <r_epik_Metal_State_Penalty>
0.219912

> <b_epik_Metal_Only>
0

> <s_lp_Force_Field>
OPLS_2005

> <r_lp_Energy>
13.0055

> <b_lp_Chiralities_Consistent>
1

> <s_lp_Variant>
AV-unprocessed.smi:1251-1

> <Gold.Version>
5.8.1

> <Gold.Id.Protein>
6NUR|6NUR_protein|mol2

> <Gold.PLP.Fitness>
37.6490

> <Gold.PLP.PLP>
-32.2069

> <Gold.PLP.part.hbond>
-4.9821

> <Gold.PLP.part.metal>
0.0000

> <Gold.PLP.part.buried>
-4.5368

> <Gold.PLP.part.nonpolar>
-23.4437

> <Gold.PLP.part.repulsive>
1.5826

> <Gold.PLP.ligand.clash>
0.0000

> <Gold.PLP.ligand.torsion>
0.1172

> <Gold.PLP.Chemscore.Hbond>
1.8723

> <Gold.PLP.Chemscore.CHOScore>
0.0000

> <Gold.PLP.Chemscore.Metal>
0.0000

> <Gold.Chemscore.Hbonds>
donor molecule, donor type, donor heavy atom, donor atom, acceptor molecule, acceptor atom, score
      L1  H     8    27       P1  7948  0.88
      L1  H    11    28       P1  7948  0.99

> <Gold.PLP.Chemscore.Internal.Correction>
0.0597

> <Gold.Rescore>
     Score         DG    S(hbond)    S(metal)    S(lipo)     H(rot)  DE(clash)    DE(int)     intcor
     12.74     -15.44       1.94        0.00      64.38       1.58       0.01       2.70       ----

> <Gold.Chemscore.Fitness>
12.7410

> <Gold.Chemscore.DG>
-15.4446

> <Gold.Chemscore.ZeroCoef>
-5.4800

> <Gold.Chemscore.Hbond>
1.9424

> <Gold.Chemscore.Metal>
0.0000

> <Gold.Chemscore.Lipo>
64.3829

> <Gold.Chemscore.Internal_Hbond>
0.0000

> <Gold.Chemscore.DEClash>
0.0073

> <Gold.Chemscore.DEInternal>
2.6963

> <Gold.Chemscore.Rot>
1.5843

> <Gold.Chemscore.Internal.Correction>
   9.000000E+99

> <Gold.Chemscore.Hbonds>
donor molecule, donor type, donor heavy atom, donor atom, acceptor molecule, acceptor atom, score
      L1  H     8    27       P1  7948  0.80
      L1  H    11    28       P1  7948  0.92

> <Gold.Chemscore.Hbond.Weighted>
-6.4876

> <Gold.Chemscore.Metal.Weighted>
-0.0000

> <Gold.Chemscore.Lipo.Weighted>
-7.5328

> <Gold.Chemscore.Internal_Hbond.Weighted>
0.0000

> <Gold.Chemscore.DEClash.Weighted>
0.0073

> <Gold.Chemscore.DEInternal.Weighted>
2.6963

> <Gold.Chemscore.Rot.Weighted>
4.0558

> <Gold.Chemscore.Internal.Correction.Weighted>
   9.000000E+99

> <Gold.Protein.RotatedTorsions>
[ 6907 6896 6895 6894 ] final -123.54 input  -60.11 | X-H torsion
[ 7974 7965 7964 7962 ] final   17.42 input  175.53 | X-H torsion
[ 8008 7997 7996 7995 ] final   19.05 input   59.86 | X-H torsion
[ 10167 10162 10161 10158 ] final  153.44 input  -65.29 | X-H torsion
[ 10718 10713 10712 10709 ] final   65.10 input   66.30 | X-H torsion
[ 10763 10752 10751 10750 ] final -139.20 input  -60.55 | X-H torsion
[ 11005 11000 10999 10996 ] final   94.78 input  -57.11 | X-H torsion

> <Gold.Protein.ActiveResidues>
 VAL166  LYS551  ARG553  GLY616  TRP617  ASP618  TYR619  PRO620  LYS621  CYS622 
 ASP623  PHE694  ASN695  SER759  ASP760  ASP761  ALA762  ILE779  LEU786  VAL792 
 PHE793  MET794  SER795  GLU796  ALA797  LYS798  CYS799  TRP800  GLU811  SER814 

> <Gold.Protein.RotatedAtoms>
  150.8680  133.7546  159.2970 H   0  0  0  0  0  0  0  0  0  0  0  0  # atno 6907 bound_to 6896
  151.5167  135.1065  159.9877 H   0  0  0  0  0  0  0  0  0  0  0  0  # atno 6908 bound_to 6896
  152.4675  133.7910  159.6958 H   0  0  0  0  0  0  0  0  0  0  0  0  # atno 6909 bound_to 6896
  146.2219  139.8605  142.8605 H   0  0  0  0  0  0  0  0  0  0  0  0  # atno 7974 bound_to 7965
  154.9151  140.3019  155.5246 H   0  0  0  0  0  0  0  0  0  0  0  0  # atno 8008 bound_to 7997
  156.3013  140.2382  156.4130 H   0  0  0  0  0  0  0  0  0  0  0  0  # atno 8009 bound_to 7997
  154.8387  140.0415  157.1515 H   0  0  0  0  0  0  0  0  0  0  0  0  # atno 8010 bound_to 7997
  139.4827  144.5273  151.7780 H   0  0  0  0  0  0  0  0  0  0  0  0  # atno 10167 bound_to 10162
  157.6083  130.9196  149.9932 H   0  0  0  0  0  0  0  0  0  0  0  0  # atno 10718 bound_to 10713
  154.8616  135.3589  154.5507 H   0  0  0  0  0  0  0  0  0  0  0  0  # atno 10763 bound_to 10752
  153.6126  135.7009  153.5346 H   0  0  0  0  0  0  0  0  0  0  0  0  # atno 10764 bound_to 10752
  153.3196  135.4155  155.1366 H   0  0  0  0  0  0  0  0  0  0  0  0  # atno 10765 bound_to 10752
  139.8795  134.8864  156.3915 H   0  0  0  0  0  0  0  0  0  0  0  0  # atno 11005 bound_to 11000
  145.2709  141.0108  143.3772 LP  0  0  0  0  0  0  0  0  0  0  0  0  # atno 17320 bound_to 7965
  144.9224  139.4395  143.6534 LP  0  0  0  0  0  0  0  0  0  0  0  0  # atno 17321 bound_to 7965
  140.4794  144.1471  150.5930 LP  0  0  0  0  0  0  0  0  0  0  0  0  # atno 17342 bound_to 10162
  140.4294  143.2575  151.9614 LP  0  0  0  0  0  0  0  0  0  0  0  0  # atno 17343 bound_to 10162
  156.1177  130.3647  149.9939 LP  0  0  0  0  0  0  0  0  0  0  0  0  # atno 17370 bound_to 10713
  156.8026  130.9296  151.3645 LP  0  0  0  0  0  0  0  0  0  0  0  0  # atno 17371 bound_to 10713
  140.9330  133.7566  156.0048 LP  0  0  0  0  0  0  0  0  0  0  0  0  # atno 17394 bound_to 11000
  140.8309  134.3179  157.5349 LP  0  0  0  0  0  0  0  0  0  0  0  0  # atno 17395 bound_to 11000

$$$$
