AV-unprocessed.smi:1032|AV-procd|sdf|4483|dock3
  -GOLD-   22720 2463D 1   1.00000     0.00000
 Structure written by MMmdl.
 46 47  0  0  0  0  0  0  0  0  2 V2000
  151.2828  142.2653  157.4498 C   0  0  0  0  0  0  0  0  0  0  0  0
  150.7615  141.6344  156.1512 C   0  0  2  0  0  0  0  0  0  0  0  0
  149.2318  141.7454  156.0360 C   0  0  0  0  0  0  0  0  0  0  0  0
  148.7178  141.0832  154.7461 C   0  0  0  0  0  0  0  0  0  0  0  0
  149.1422  139.6620  154.6655 N   0  3  1  0  0  0  0  0  0  0  0  0
  148.5470  138.9580  153.4999 C   0  0  0  0  0  0  0  0  0  0  0  0
  147.0944  139.3981  153.2270 C   0  0  1  0  0  0  0  0  0  0  0  0
  147.0191  139.7784  151.8666 O   0  0  0  0  0  0  0  0  0  0  0  0
  146.0966  138.2494  153.4754 C   0  0  0  0  0  0  0  0  0  0  0  0
  146.4382  137.0609  152.7003 N   0  0  0  0  0  0  0  0  0  0  0  0
  145.5501  136.2340  152.1298 C   0  0  0  0  0  0  0  0  0  0  0  0
  144.3337  136.4132  152.1802 O   0  0  0  0  0  0  0  0  0  0  0  0
  146.1680  135.2164  151.5046 N   0  0  0  0  0  0  0  0  0  0  0  0
  145.6058  134.1096  150.8096 C   0  0  0  0  0  0  0  0  0  0  0  0
  146.4648  133.0347  150.4989 C   0  0  0  0  0  0  0  0  0  0  0  0
  145.9388  131.9156  149.8234 C   0  0  0  0  0  0  0  0  0  0  0  0
  144.6442  131.8112  149.4577 N   0  0  0  0  0  0  0  0  0  0  0  0
  143.8206  132.8358  149.7635 C   0  0  0  0  0  0  0  0  0  0  0  0
  144.2438  133.9994  150.4367 C   0  0  0  0  0  0  0  0  0  0  0  0
  150.6216  139.5298  154.7389 C   0  0  0  0  0  0  0  0  0  0  0  0
  151.1711  140.1570  156.0309 C   0  0  0  0  0  0  0  0  0  0  0  0
  150.8715  141.7664  158.3280 H   0  0  0  0  0  0  0  0  0  0  0  0
  151.0132  143.3202  157.5096 H   0  0  0  0  0  0  0  0  0  0  0  0
  152.3697  142.2002  157.5088 H   0  0  0  0  0  0  0  0  0  0  0  0
  151.2062  142.1794  155.3171 H   0  0  0  0  0  0  0  0  0  0  0  0
  148.7600  141.2738  156.8993 H   0  0  0  0  0  0  0  0  0  0  0  0
  148.9302  142.7932  156.0546 H   0  0  0  0  0  0  0  0  0  0  0  0
  147.6289  141.1441  154.7257 H   0  0  0  0  0  0  0  0  0  0  0  0
  149.0829  141.6241  153.8714 H   0  0  0  0  0  0  0  0  0  0  0  0
  149.1408  139.1494  152.6044 H   0  0  0  0  0  0  0  0  0  0  0  0
  148.5995  137.8815  153.6696 H   0  0  0  0  0  0  0  0  0  0  0  0
  146.8309  140.2505  153.8528 H   0  0  0  0  0  0  0  0  0  0  0  0
  147.8763  140.0566  151.5802 H   0  0  0  0  0  0  0  0  0  0  0  0
  145.9985  138.0257  154.5395 H   0  0  0  0  0  0  0  0  0  0  0  0
  145.1045  138.5532  153.1404 H   0  0  0  0  0  0  0  0  0  0  0  0
  147.4198  136.8457  152.6031 H   0  0  0  0  0  0  0  0  0  0  0  0
  147.1767  135.2486  151.5068 H   0  0  0  0  0  0  0  0  0  0  0  0
  147.5102  133.0626  150.7697 H   0  0  0  0  0  0  0  0  0  0  0  0
  146.5757  131.0805  149.5721 H   0  0  0  0  0  0  0  0  0  0  0  0
  142.7883  132.7234  149.4670 H   0  0  0  0  0  0  0  0  0  0  0  0
  143.5163  134.7644  150.6558 H   0  0  0  0  0  0  0  0  0  0  0  0
  150.9121  138.4805  154.7047 H   0  0  0  0  0  0  0  0  0  0  0  0
  151.0747  140.0097  153.8699 H   0  0  0  0  0  0  0  0  0  0  0  0
  152.2579  140.0682  156.0471 H   0  0  0  0  0  0  0  0  0  0  0  0
  150.8028  139.5980  156.8925 H   0  0  0  0  0  0  0  0  0  0  0  0
  148.7641  139.2103  155.4867 H   0  0  0  0  0  0  0  0  0  0  0  0
  1  2  1  0  0  0  0
  1 22  1  0  0  0  0
  1 23  1  0  0  0  0
  1 24  1  0  0  0  0
  2 21  1  0  0  0  0
  2  3  1  0  0  0  0
  2 25  1  0  0  0  0
  3  4  1  0  0  0  0
  3 26  1  0  0  0  0
  3 27  1  0  0  0  0
  4  5  1  0  0  0  0
  4 28  1  0  0  0  0
  4 29  1  0  0  0  0
  5  6  1  0  0  0  0
  5 20  1  0  0  0  0
  5 46  1  0  0  0  0
  6  7  1  0  0  0  0
  6 30  1  0  0  0  0
  6 31  1  0  0  0  0
  7  8  1  0  0  0  0
  7  9  1  0  0  0  0
  7 32  1  0  0  0  0
  8 33  1  0  0  0  0
  9 10  1  0  0  0  0
  9 34  1  0  0  0  0
  9 35  1  0  0  0  0
 10 11  1  0  0  0  0
 10 36  1  0  0  0  0
 11 12  2  0  0  0  0
 11 13  1  0  0  0  0
 13 14  1  0  0  0  0
 13 37  1  0  0  0  0
 14 19  1  0  0  0  0
 14 15  2  0  0  0  0
 15 16  1  0  0  0  0
 15 38  1  0  0  0  0
 16 17  2  0  0  0  0
 16 39  1  0  0  0  0
 17 18  1  0  0  0  0
 18 19  2  0  0  0  0
 18 40  1  0  0  0  0
 19 41  1  0  0  0  0
 20 21  1  0  0  0  0
 20 42  1  0  0  0  0
 20 43  1  0  0  0  0
 21 44  1  0  0  0  0
 21 45  1  0  0  0  0
M  CHG  1   5   1
M  END
> <s_m_source_file>
AV-unprocessed.smi

> <i_m_source_file_index>
1032

> <i_lp_mmshare_version>
43012

> <i_f3d_flags>
0

> <s_epik_input>
W0NIM11bQ0hdMVtDSDJdW0NIMl1OKFtDSDJdW0NIMl0xKVtDSDJdW0NASF0oW09IXSlbQ0gyXVtOSF1DKD1PKVtOSF1jMltjSF1bY0hdbltjSF1bY0hdMg==

> <s_epik_cmdline>
J2VwaWtfcHl0aG9uJywgJy1waCcsICc3LjAnLCAnLXRuJywgJzgnLCAnLW1hJywgJzIwMCcsICctbWV0YWxfYmluZGluZycsICctaW1hZScsICc8aW5maWxlLm1hZT4nLCAnLW9tYWUnLCAnPG91dGZpbGUubWFlPic=

> <r_epik_Ionization_Penalty>
0.11743

> <r_epik_Ionization_Penalty_Charging>
0.00147689

> <r_epik_Ionization_Penalty_Neutral>
0.115954

> <r_epik_State_Penalty>
0.105552

> <r_epik_Charging_Adjusted_Penalty>
0.107029

> <i_epik_Tot_Q>
1

> <i_epik_Tot_abs_Q>
1

> <r_epik_Metal_State_Penalty>
0.0881315

> <b_epik_Metal_Only>
0

> <s_lp_Force_Field>
OPLS_2005

> <r_lp_Energy>
24.2585

> <b_lp_Chiralities_Consistent>
1

> <s_lp_Variant>
AV-unprocessed.smi:1032-2

> <Gold.Version>
5.8.1

> <Gold.Id.Protein>
6NUR|6NUR_protein|mol2

> <Gold.PLP.Fitness>
50.0648

> <Gold.PLP.PLP>
-37.1804

> <Gold.PLP.part.hbond>
-4.0000

> <Gold.PLP.part.metal>
0.0000

> <Gold.PLP.part.buried>
0.1882

> <Gold.PLP.part.nonpolar>
-34.4678

> <Gold.PLP.part.repulsive>
0.5056

> <Gold.PLP.ligand.clash>
0.0000

> <Gold.PLP.ligand.torsion>
1.1062

> <Gold.PLP.Chemscore.Hbond>
3.1264

> <Gold.PLP.Chemscore.CHOScore>
1.8775

> <Gold.PLP.Chemscore.Metal>
0.0000

> <Gold.Chemscore.Hbonds>
donor molecule, donor type, donor heavy atom, donor atom, acceptor molecule, acceptor atom, score
      L1  H     8    33       P1  7957  1.00
      L1  H    10    36       P1  7948  1.00
      L1  H    13    37       P1  7948  1.00
      P1  H 10785 10796       L1    17  0.13
      L1  C    16    39       P1 10747  0.91
      L1  C    18    40       P1 10186  0.96

> <Gold.PLP.Chemscore.Internal.Correction>
0.0852

> <Gold.Rescore>
     Score         DG    S(hbond)    S(metal)    S(lipo)     H(rot)  DE(clash)    DE(int)     intcor
     18.32     -20.56       2.90        0.00      96.12       2.29       0.02       2.22       ----

> <Gold.Chemscore.Fitness>
18.3208

> <Gold.Chemscore.DG>
-20.5640

> <Gold.Chemscore.ZeroCoef>
-5.4800

> <Gold.Chemscore.Hbond>
2.9017

> <Gold.Chemscore.Metal>
0.0000

> <Gold.Chemscore.Lipo>
96.1177

> <Gold.Chemscore.Internal_Hbond>
0.0000

> <Gold.Chemscore.DEClash>
0.0189

> <Gold.Chemscore.DEInternal>
2.2243

> <Gold.Chemscore.Rot>
2.2865

> <Gold.Chemscore.Internal.Correction>
   9.000000E+99

> <Gold.Chemscore.Hbonds>
donor molecule, donor type, donor heavy atom, donor atom, acceptor molecule, acceptor atom, score
      L1  H     8    33       P1  7957  1.00
      L1  H    10    36       P1  7948  0.99
      L1  H    13    37       P1  7948  0.86
      P1  H 10785 10796       L1    17  0.07

> <Gold.Chemscore.Hbond.Weighted>
-9.6917

> <Gold.Chemscore.Metal.Weighted>
-0.0000

> <Gold.Chemscore.Lipo.Weighted>
-11.2458

> <Gold.Chemscore.Internal_Hbond.Weighted>
0.0000

> <Gold.Chemscore.DEClash.Weighted>
0.0189

> <Gold.Chemscore.DEInternal.Weighted>
2.2243

> <Gold.Chemscore.Rot.Weighted>
5.8536

> <Gold.Chemscore.Internal.Correction.Weighted>
   9.000000E+99

> <Gold.Protein.RotatedTorsions>
[ 6907 6896 6895 6894 ] final -125.89 input  -60.11 | X-H torsion
[ 7974 7965 7964 7962 ] final -136.51 input  175.53 | X-H torsion
[ 8008 7997 7996 7995 ] final  138.28 input   59.86 | X-H torsion
[ 10167 10162 10161 10158 ] final  143.30 input  -65.29 | X-H torsion
[ 10718 10713 10712 10709 ] final  -85.76 input   66.30 | X-H torsion
[ 10763 10752 10751 10750 ] final   68.85 input  -60.55 | X-H torsion
[ 11005 11000 10999 10996 ] final -147.81 input  -57.11 | X-H torsion

> <Gold.Protein.ActiveResidues>
 VAL166  LYS551  ARG553  GLY616  TRP617  ASP618  TYR619  PRO620  LYS621  CYS622 
 ASP623  PHE694  ASN695  SER759  ASP760  ASP761  ALA762  ILE779  LEU786  VAL792 
 PHE793  MET794  SER795  GLU796  ALA797  LYS798  CYS799  TRP800  GLU811  SER814 

> <Gold.Protein.RotatedAtoms>
  150.8913  133.7239  159.2903 H   0  0  0  0  0  0  0  0  0  0  0  0  # atno 6907 bound_to 6896
  151.4788  135.1049  159.9781 H   0  0  0  0  0  0  0  0  0  0  0  0  # atno 6908 bound_to 6896
  152.4822  133.8235  159.7121 H   0  0  0  0  0  0  0  0  0  0  0  0  # atno 6909 bound_to 6896
  144.8921  140.6656  143.5138 H   0  0  0  0  0  0  0  0  0  0  0  0  # atno 7974 bound_to 7965
  156.2998  140.2397  156.4047 H   0  0  0  0  0  0  0  0  0  0  0  0  # atno 8008 bound_to 7997
  154.8495  140.0424  157.1614 H   0  0  0  0  0  0  0  0  0  0  0  0  # atno 8009 bound_to 7997
  154.9014  140.2977  155.5319 H   0  0  0  0  0  0  0  0  0  0  0  0  # atno 8010 bound_to 7997
  139.4973  144.6049  151.6400 H   0  0  0  0  0  0  0  0  0  0  0  0  # atno 10167 bound_to 10162
  155.9994  130.4742  150.4612 H   0  0  0  0  0  0  0  0  0  0  0  0  # atno 10718 bound_to 10713
  153.0256  135.5232  154.7198 H   0  0  0  0  0  0  0  0  0  0  0  0  # atno 10763 bound_to 10752
  154.6257  135.2894  155.0277 H   0  0  0  0  0  0  0  0  0  0  0  0  # atno 10764 bound_to 10752
  154.1248  135.6602  153.4962 H   0  0  0  0  0  0  0  0  0  0  0  0  # atno 10765 bound_to 10752
  140.7678  134.3224  157.5084 H   0  0  0  0  0  0  0  0  0  0  0  0  # atno 11005 bound_to 11000
  145.3764  139.1646  143.4304 LP  0  0  0  0  0  0  0  0  0  0  0  0  # atno 17320 bound_to 7965
  146.3060  140.3841  142.8687 LP  0  0  0  0  0  0  0  0  0  0  0  0  # atno 17321 bound_to 7965
  140.5708  144.0111  150.6216 LP  0  0  0  0  0  0  0  0  0  0  0  0  # atno 17342 bound_to 10162
  140.3228  143.3126  152.0766 LP  0  0  0  0  0  0  0  0  0  0  0  0  # atno 17343 bound_to 10162
  157.2636  131.0572  151.2305 LP  0  0  0  0  0  0  0  0  0  0  0  0  # atno 17370 bound_to 10713
  157.3410  130.7033  149.6382 LP  0  0  0  0  0  0  0  0  0  0  0  0  # atno 17371 bound_to 10713
  139.8760  134.9242  156.3343 LP  0  0  0  0  0  0  0  0  0  0  0  0  # atno 17394 bound_to 11000
  140.9603  133.7393  156.0392 LP  0  0  0  0  0  0  0  0  0  0  0  0  # atno 17395 bound_to 11000

$$$$
