AV-unprocessed.smi:767|AV-procd|sdf|3657|dock10
  -GOLD-   22720 1 63D 1   1.00000     0.00000
 Structure written by MMmdl.
 47 49  0  0  0  0  0  0  0  0  1 V2000
  145.6734  130.2726  152.0435 C   0  0  0  0  0  0  0  0  0  0  0  0
  145.4269  131.7593  151.8922 C   0  0  0  0  0  0  0  0  0  0  0  0
  144.1600  132.2458  151.5061 C   0  0  0  0  0  0  0  0  0  0  0  0
  143.9855  133.6377  151.3822 C   0  0  0  0  0  0  0  0  0  0  0  0
  145.0788  134.4866  151.6506 C   0  0  0  0  0  0  0  0  0  0  0  0
  144.9415  135.9919  151.5381 C   0  0  0  0  0  0  0  0  0  0  0  0
  145.2403  136.6999  152.8693 C   0  0  0  0  0  0  0  0  0  0  0  0
  146.6593  136.6452  153.1985 N   0  0  0  0  0  0  0  0  0  0  0  0
  147.1989  137.0797  154.3455 C   0  0  0  0  0  0  0  0  0  0  0  0
  146.5545  137.5852  155.2649 O   0  0  0  0  0  0  0  0  0  0  0  0
  148.5242  136.8905  154.3739 N   0  0  0  0  0  0  0  0  0  0  0  0
  149.3803  137.2402  155.5008 C   0  0  2  0  0  0  0  0  0  0  0  0
  150.8012  137.6006  155.0663 C   0  0  1  0  0  0  0  0  0  0  0  0
  151.6164  138.8443  155.0862 C   0  0  0  0  0  0  0  0  0  0  0  0
  152.9202  138.2331  155.6663 C   0  0  0  0  0  0  0  0  0  0  0  0
  152.5703  136.8995  156.1117 O   0  0  0  0  0  0  0  0  0  0  0  0
  151.1903  136.9929  156.3998 C   0  0  2  0  0  0  0  0  0  0  0  0
  150.0324  135.9928  156.2080 C   0  0  0  0  0  0  0  0  0  0  0  0
  149.3436  135.5380  157.4950 C   0  0  0  0  0  0  0  0  0  0  0  0
  150.3159  134.7138  155.3941 C   0  0  0  0  0  0  0  0  0  0  0  0
  146.3029  133.8987  152.0337 C   0  0  0  0  0  0  0  0  0  0  0  0
  146.4796  132.5652  152.1536 N   0  0  0  0  0  0  0  0  0  0  0  0
  144.9044  129.6931  151.5321 H   0  0  0  0  0  0  0  0  0  0  0  0
  145.6669  129.9955  153.0978 H   0  0  0  0  0  0  0  0  0  0  0  0
  146.6404  129.9970  151.6212 H   0  0  0  0  0  0  0  0  0  0  0  0
  143.3400  131.5709  151.3089 H   0  0  0  0  0  0  0  0  0  0  0  0
  143.0284  134.0436  151.0885 H   0  0  0  0  0  0  0  0  0  0  0  0
  145.6174  136.3479  150.7595 H   0  0  0  0  0  0  0  0  0  0  0  0
  143.9320  136.2339  151.2032 H   0  0  0  0  0  0  0  0  0  0  0  0
  144.9505  137.7491  152.8048 H   0  0  0  0  0  0  0  0  0  0  0  0
  144.6513  136.2630  153.6778 H   0  0  0  0  0  0  0  0  0  0  0  0
  147.2729  136.2434  152.5049 H   0  0  0  0  0  0  0  0  0  0  0  0
  148.9680  136.4667  153.5723 H   0  0  0  0  0  0  0  0  0  0  0  0
  148.9436  137.9707  156.1882 H   0  0  0  0  0  0  0  0  0  0  0  0
  151.1036  136.9891  154.2127 H   0  0  0  0  0  0  0  0  0  0  0  0
  151.7602  139.2744  154.0947 H   0  0  0  0  0  0  0  0  0  0  0  0
  151.1896  139.6013  155.7457 H   0  0  0  0  0  0  0  0  0  0  0  0
  153.7092  138.1710  154.9163 H   0  0  0  0  0  0  0  0  0  0  0  0
  153.2913  138.8292  156.5008 H   0  0  0  0  0  0  0  0  0  0  0  0
  151.0192  137.6563  157.2555 H   0  0  0  0  0  0  0  0  0  0  0  0
  149.9855  134.8803  158.0819 H   0  0  0  0  0  0  0  0  0  0  0  0
  148.4194  134.9984  157.2859 H   0  0  0  0  0  0  0  0  0  0  0  0
  149.0826  136.3847  158.1304 H   0  0  0  0  0  0  0  0  0  0  0  0
  150.9872  134.0465  155.9353 H   0  0  0  0  0  0  0  0  0  0  0  0
  150.7788  134.9020  154.4271 H   0  0  0  0  0  0  0  0  0  0  0  0
  149.3986  134.1579  155.1976 H   0  0  0  0  0  0  0  0  0  0  0  0
  147.1630  134.5141  152.2528 H   0  0  0  0  0  0  0  0  0  0  0  0
  1  2  1  0  0  0  0
  1 23  1  0  0  0  0
  1 24  1  0  0  0  0
  1 25  1  0  0  0  0
  2 22  1  0  0  0  0
  2  3  2  0  0  0  0
  3  4  1  0  0  0  0
  3 26  1  0  0  0  0
  4  5  2  0  0  0  0
  4 27  1  0  0  0  0
  5  6  1  0  0  0  0
  5 21  1  0  0  0  0
  6  7  1  0  0  0  0
  6 28  1  0  0  0  0
  6 29  1  0  0  0  0
  7  8  1  0  0  0  0
  7 30  1  0  0  0  0
  7 31  1  0  0  0  0
  8  9  1  0  0  0  0
  8 32  1  0  0  0  0
  9 10  2  0  0  0  0
  9 11  1  0  0  0  0
 11 12  1  0  0  0  0
 11 33  1  0  0  0  0
 12 18  1  0  0  0  0
 12 13  1  0  0  0  0
 12 34  1  0  0  0  0
 13 17  1  0  0  0  0
 13 14  1  0  0  0  0
 13 35  1  0  0  0  0
 14 15  1  0  0  0  0
 14 36  1  0  0  0  0
 14 37  1  0  0  0  0
 15 16  1  0  0  0  0
 15 38  1  0  0  0  0
 15 39  1  0  0  0  0
 16 17  1  0  0  0  0
 17 18  1  0  0  0  0
 17 40  1  0  0  0  0
 18 19  1  0  0  0  0
 18 20  1  0  0  0  0
 19 41  1  0  0  0  0
 19 42  1  0  0  0  0
 19 43  1  0  0  0  0
 20 44  1  0  0  0  0
 20 45  1  0  0  0  0
 20 46  1  0  0  0  0
 21 22  2  0  0  0  0
 21 47  1  0  0  0  0
M  END
> <s_m_source_file>
AV-unprocessed.smi

> <i_m_source_file_index>
767

> <i_lp_mmshare_version>
43012

> <i_f3d_flags>
0

> <s_epik_input>
W0NIM11jMVtjSF1bY0hdYyhbY0hdbjEpW0NIMl1bQ0gyXVtOSF1DKD1PKVtOSF1bQ0BIXTJDKFtDSDNdKShbQ0gzXSlbQ0BIXShbQ0BASF0yMylPW0NIMl1bQ0gyXTM=

> <s_epik_cmdline>
J2VwaWtfcHl0aG9uJywgJy1waCcsICc3LjAnLCAnLXRuJywgJzgnLCAnLW1hJywgJzIwMCcsICctbWV0YWxfYmluZGluZycsICctaW1hZScsICc8aW5maWxlLm1hZT4nLCAnLW9tYWUnLCAnPG91dGZpbGUubWFlPic=

> <r_epik_Ionization_Penalty>
0.0567523

> <r_epik_Ionization_Penalty_Charging>
0

> <r_epik_Ionization_Penalty_Neutral>
0.0567523

> <r_epik_State_Penalty>
0.0489186

> <r_epik_Charging_Adjusted_Penalty>
0.0489186

> <i_epik_Tot_Q>
0

> <i_epik_Tot_abs_Q>
0

> <r_epik_Metal_State_Penalty>
0.044622

> <b_epik_Metal_Only>
0

> <s_lp_Force_Field>
OPLS_2005

> <r_lp_Energy>
54.5337

> <b_lp_Chiralities_Consistent>
1

> <s_lp_Variant>
AV-unprocessed.smi:767-1

> <Gold.Version>
5.8.1

> <Gold.Id.Protein>
6NUR|6NUR_protein|mol2

> <Gold.PLP.Fitness>
45.4749

> <Gold.PLP.PLP>
-34.7227

> <Gold.PLP.part.hbond>
-2.8630

> <Gold.PLP.part.metal>
0.0000

> <Gold.PLP.part.buried>
-5.3954

> <Gold.PLP.part.nonpolar>
-27.1280

> <Gold.PLP.part.repulsive>
0.2007

> <Gold.PLP.ligand.clash>
0.0000

> <Gold.PLP.ligand.torsion>
0.2537

> <Gold.PLP.Chemscore.Hbond>
2.6640

> <Gold.PLP.Chemscore.CHOScore>
1.0000

> <Gold.PLP.Chemscore.Metal>
0.0000

> <Gold.Chemscore.Hbonds>
donor molecule, donor type, donor heavy atom, donor atom, acceptor molecule, acceptor atom, score
      L1  H     8    32       P1  7948  0.91
      L1  H    11    33       P1  7948  0.98
      P1  H 10752 10763       L1    16  0.88
      L1  C    21    47       P1  7948  1.00

> <Gold.PLP.Chemscore.Internal.Correction>
0.2675

> <Gold.Rescore>
     Score         DG    S(hbond)    S(metal)    S(lipo)     H(rot)  DE(clash)    DE(int)     intcor
     20.98     -21.39       2.70        0.00      90.76       1.45       0.04       0.37       ----

> <Gold.Chemscore.Fitness>
20.9826

> <Gold.Chemscore.DG>
-21.3933

> <Gold.Chemscore.ZeroCoef>
-5.4800

> <Gold.Chemscore.Hbond>
2.6964

> <Gold.Chemscore.Metal>
0.0000

> <Gold.Chemscore.Lipo>
90.7584

> <Gold.Chemscore.Internal_Hbond>
0.0000

> <Gold.Chemscore.DEClash>
0.0376

> <Gold.Chemscore.DEInternal>
0.3731

> <Gold.Chemscore.Rot>
1.4497

> <Gold.Chemscore.Internal.Correction>
   9.000000E+99

> <Gold.Chemscore.Hbonds>
donor molecule, donor type, donor heavy atom, donor atom, acceptor molecule, acceptor atom, score
      L1  H     8    32       P1  7948  0.90
      L1  H    11    33       P1  7948  0.92
      P1  H 10752 10763       L1    16  0.77

> <Gold.Chemscore.Hbond.Weighted>
-9.0058

> <Gold.Chemscore.Metal.Weighted>
-0.0000

> <Gold.Chemscore.Lipo.Weighted>
-10.6187

> <Gold.Chemscore.Internal_Hbond.Weighted>
0.0000

> <Gold.Chemscore.DEClash.Weighted>
0.0376

> <Gold.Chemscore.DEInternal.Weighted>
0.3731

> <Gold.Chemscore.Rot.Weighted>
3.7112

> <Gold.Chemscore.Internal.Correction.Weighted>
   9.000000E+99

> <Gold.Protein.RotatedTorsions>
[ 6907 6896 6895 6894 ] final -151.14 input  -60.11 | X-H torsion
[ 7974 7965 7964 7962 ] final -127.50 input  175.53 | X-H torsion
[ 8008 7997 7996 7995 ] final  145.29 input   59.86 | X-H torsion
[ 10167 10162 10161 10158 ] final  103.08 input  -65.29 | X-H torsion
[ 10718 10713 10712 10709 ] final   -9.59 input   66.30 | X-H torsion
[ 10763 10752 10751 10750 ] final   87.77 input  -60.55 | X-H torsion
[ 11005 11000 10999 10996 ] final  133.72 input  -57.11 | X-H torsion

> <Gold.Protein.ActiveResidues>
 VAL166  LYS551  ARG553  GLY616  TRP617  ASP618  TYR619  PRO620  LYS621  CYS622 
 ASP623  PHE694  ASN695  SER759  ASP760  ASP761  ALA762  ILE779  LEU786  VAL792 
 PHE793  MET794  SER795  GLU796  ALA797  LYS798  CYS799  TRP800  GLU811  SER814 

> <Gold.Protein.RotatedAtoms>
  151.2088  133.4568  159.2597 H   0  0  0  0  0  0  0  0  0  0  0  0  # atno 6907 bound_to 6896
  151.0997  134.9965  159.8452 H   0  0  0  0  0  0  0  0  0  0  0  0  # atno 6908 bound_to 6896
  152.5442  134.2016  159.8767 H   0  0  0  0  0  0  0  0  0  0  0  0  # atno 6909 bound_to 6896
  144.9765  140.7598  143.4638 H   0  0  0  0  0  0  0  0  0  0  0  0  # atno 7974 bound_to 7965
  156.2887  140.2213  156.5192 H   0  0  0  0  0  0  0  0  0  0  0  0  # atno 8008 bound_to 7997
  154.7543  140.0478  157.0942 H   0  0  0  0  0  0  0  0  0  0  0  0  # atno 8009 bound_to 7997
  155.0070  140.3108  155.4848 H   0  0  0  0  0  0  0  0  0  0  0  0  # atno 8010 bound_to 7997
  139.7294  144.7039  151.0746 H   0  0  0  0  0  0  0  0  0  0  0  0  # atno 10167 bound_to 10162
  156.6858  130.5050  149.5958 H   0  0  0  0  0  0  0  0  0  0  0  0  # atno 10718 bound_to 10713
  153.1701  135.4531  154.9891 H   0  0  0  0  0  0  0  0  0  0  0  0  # atno 10763 bound_to 10752
  154.7960  135.3237  154.7669 H   0  0  0  0  0  0  0  0  0  0  0  0  # atno 10764 bound_to 10752
  153.8146  135.6952  153.4890 H   0  0  0  0  0  0  0  0  0  0  0  0  # atno 10765 bound_to 10752
  139.9869  134.9529  156.9765 H   0  0  0  0  0  0  0  0  0  0  0  0  # atno 11005 bound_to 11000
  145.2483  139.2043  143.4956 LP  0  0  0  0  0  0  0  0  0  0  0  0  # atno 17320 bound_to 7965
  146.3396  140.2391  142.8595 LP  0  0  0  0  0  0  0  0  0  0  0  0  # atno 17321 bound_to 7965
  140.7768  143.5063  150.9708 LP  0  0  0  0  0  0  0  0  0  0  0  0  # atno 17342 bound_to 10162
  139.8751  143.7143  152.3163 LP  0  0  0  0  0  0  0  0  0  0  0  0  # atno 17343 bound_to 10162
  156.1834  130.6513  151.0978 LP  0  0  0  0  0  0  0  0  0  0  0  0  # atno 17370 bound_to 10713
  157.7027  131.0769  150.6769 LP  0  0  0  0  0  0  0  0  0  0  0  0  # atno 17371 bound_to 10713
  140.4984  134.1122  155.7245 LP  0  0  0  0  0  0  0  0  0  0  0  0  # atno 17394 bound_to 11000
  141.1533  133.8929  157.2043 LP  0  0  0  0  0  0  0  0  0  0  0  0  # atno 17395 bound_to 11000

$$$$
