AV-unprocessed.smi:1381|AV-procd|sdf|5616|dock2
  -GOLD-   22720 5223D 1   1.00000     0.00000
 Structure written by MMmdl.
 42 43  0  0  0  0  0  0  0  0  3 V2000
  148.2184  135.9368  163.2544 C   0  0  0  0  0  0  0  0  0  0  0  0
  148.0742  135.5894  161.8123 C   0  0  0  0  0  0  0  0  0  0  0  0
  147.6688  134.4560  161.1657 C   0  0  0  0  0  0  0  0  0  0  0  0
  147.7764  134.8120  159.7950 C   0  0  0  0  0  0  0  0  0  0  0  0
  147.4405  133.8810  158.7766 N   0  0  0  0  0  0  0  0  0  0  0  0
  148.2538  133.2494  157.9105 C   0  0  0  0  0  0  0  0  0  0  0  0
  149.4722  133.4614  157.9286 O   0  0  0  0  0  0  0  0  0  0  0  0
  147.5720  132.4156  157.0768 N   0  5  0  0  0  0  0  0  0  0  0  0
  146.5172  132.8359  156.1554 C   0  0  0  0  0  0  0  0  0  0  0  0
  146.4787  131.9065  154.9281 C   0  0  0  0  0  0  0  0  0  0  0  0
  145.5537  132.4330  153.8920 N   0  3  1  0  0  0  0  0  0  0  0  0
  145.5423  133.9127  153.8021 C   0  0  0  0  0  0  0  0  0  0  0  0
  144.4876  134.3770  152.7806 C   0  0  1  0  0  0  0  0  0  0  0  0
  144.4899  135.8985  152.5975 C   0  0  0  0  0  0  0  0  0  0  0  0
  144.7654  133.7760  151.5198 O   0  0  0  0  0  0  0  0  0  0  0  0
  144.7003  132.3540  151.5626 C   0  0  1  0  0  0  0  0  0  0  0  0
  144.9241  131.8222  150.1428 C   0  0  0  0  0  0  0  0  0  0  0  0
  145.7584  131.8315  152.5519 C   0  0  0  0  0  0  0  0  0  0  0  0
  148.2082  136.0525  159.6219 N   0  0  0  0  0  0  0  0  0  0  0  0
  148.4020  136.5565  160.9134 O   0  0  0  0  0  0  0  0  0  0  0  0
  147.5538  135.3291  163.8685 H   0  0  0  0  0  0  0  0  0  0  0  0
  147.9743  136.9848  163.4295 H   0  0  0  0  0  0  0  0  0  0  0  0
  149.2409  135.7659  163.5907 H   0  0  0  0  0  0  0  0  0  0  0  0
  147.3481  133.5229  161.6044 H   0  0  0  0  0  0  0  0  0  0  0  0
  146.4591  133.6607  158.6953 H   0  0  0  0  0  0  0  0  0  0  0  0
  145.5341  132.8465  156.6285 H   0  0  0  0  0  0  0  0  0  0  0  0
  146.6827  133.8578  155.8133 H   0  0  0  0  0  0  0  0  0  0  0  0
  147.4856  131.8022  154.5201 H   0  0  0  0  0  0  0  0  0  0  0  0
  146.1753  130.9019  155.2282 H   0  0  0  0  0  0  0  0  0  0  0  0
  145.3197  134.3361  154.7825 H   0  0  0  0  0  0  0  0  0  0  0  0
  146.5331  134.2685  153.5144 H   0  0  0  0  0  0  0  0  0  0  0  0
  143.4942  134.0701  153.1127 H   0  0  0  0  0  0  0  0  0  0  0  0
  144.2664  136.4072  153.5357 H   0  0  0  0  0  0  0  0  0  0  0  0
  143.7394  136.2038  151.8681 H   0  0  0  0  0  0  0  0  0  0  0  0
  145.4593  136.2535  152.2468 H   0  0  0  0  0  0  0  0  0  0  0  0
  143.7055  132.0501  151.8935 H   0  0  0  0  0  0  0  0  0  0  0  0
  144.8715  130.7334  150.1188 H   0  0  0  0  0  0  0  0  0  0  0  0
  145.9007  132.1190  149.7591 H   0  0  0  0  0  0  0  0  0  0  0  0
  144.1669  132.2062  149.4587 H   0  0  0  0  0  0  0  0  0  0  0  0
  146.7614  132.0712  152.1950 H   0  0  0  0  0  0  0  0  0  0  0  0
  145.6937  130.7448  152.6256 H   0  0  0  0  0  0  0  0  0  0  0  0
  144.6283  132.1600  154.1911 H   0  0  0  0  0  0  0  0  0  0  0  0
  1  2  1  0  0  0  0
  1 21  1  0  0  0  0
  1 22  1  0  0  0  0
  1 23  1  0  0  0  0
  2 20  1  0  0  0  0
  2  3  2  0  0  0  0
  3  4  1  0  0  0  0
  3 24  1  0  0  0  0
  4  5  1  0  0  0  0
  4 19  2  0  0  0  0
  5  6  1  0  0  0  0
  5 25  1  0  0  0  0
  6  7  2  0  0  0  0
  6  8  1  0  0  0  0
  8  9  1  0  0  0  0
  9 10  1  0  0  0  0
  9 26  1  0  0  0  0
  9 27  1  0  0  0  0
 10 11  1  0  0  0  0
 10 28  1  0  0  0  0
 10 29  1  0  0  0  0
 11 18  1  0  0  0  0
 11 12  1  0  0  0  0
 11 42  1  0  0  0  0
 12 13  1  0  0  0  0
 12 30  1  0  0  0  0
 12 31  1  0  0  0  0
 13 14  1  0  0  0  0
 13 15  1  0  0  0  0
 13 32  1  0  0  0  0
 14 33  1  0  0  0  0
 14 34  1  0  0  0  0
 14 35  1  0  0  0  0
 15 16  1  0  0  0  0
 16 17  1  0  0  0  0
 16 18  1  0  0  0  0
 16 36  1  0  0  0  0
 17 37  1  0  0  0  0
 17 38  1  0  0  0  0
 17 39  1  0  0  0  0
 18 40  1  0  0  0  0
 18 41  1  0  0  0  0
 19 20  1  0  0  0  0
M  CHG  1   8  -1
M  CHG  1  11   1
M  END
> <s_m_source_file>
AV-unprocessed.smi

> <i_m_source_file_index>
1381

> <i_lp_mmshare_version>
43012

> <i_f3d_flags>
0

> <s_epik_input>
W0NIM11jMVtjSF1jKG5vMSlbTkhdQyg9TylbTkhdW0NIMl1bQ0gyXU4yW0NIMl1bQ0BASF0oW0NIM10pT1tDQEBIXShbQ0gzXSlbQ0gyXTI=

> <s_epik_cmdline>
J2VwaWtfcHl0aG9uJywgJy1waCcsICc3LjAnLCAnLXRuJywgJzgnLCAnLW1hJywgJzIwMCcsICctbWV0YWxfYmluZGluZycsICctaW1hZScsICc8aW5maWxlLm1hZT4nLCAnLW9tYWUnLCAnPG91dGZpbGUubWFlPic=

> <r_epik_Ionization_Penalty>
6.8073

> <r_epik_Ionization_Penalty_Charging>
6.80729

> <r_epik_Ionization_Penalty_Neutral>
5.65391e-06

> <r_epik_State_Penalty>
7.47323

> <r_epik_Charging_Adjusted_Penalty>
14.2805

> <i_epik_Tot_Q>
0

> <i_epik_Tot_abs_Q>
2

> <r_epik_Metal_State_Penalty>
3.40035

> <b_epik_Metal_Only>
1

> <s_lp_Force_Field>
OPLS_2005

> <r_lp_Energy>
11.4992

> <b_lp_Chiralities_Consistent>
1

> <s_lp_Variant>
AV-unprocessed.smi:1381-15

> <Gold.Version>
5.8.1

> <Gold.Id.Protein>
6NUR|6NUR_protein|mol2

> <Gold.PLP.Fitness>
38.6773

> <Gold.PLP.PLP>
-27.6661

> <Gold.PLP.part.hbond>
-3.9937

> <Gold.PLP.part.metal>
0.0000

> <Gold.PLP.part.buried>
-5.3312

> <Gold.PLP.part.nonpolar>
-19.0316

> <Gold.PLP.part.repulsive>
0.1385

> <Gold.PLP.ligand.clash>
0.0000

> <Gold.PLP.ligand.torsion>
1.6356

> <Gold.PLP.Chemscore.Hbond>
4.7280

> <Gold.PLP.Chemscore.CHOScore>
0.0000

> <Gold.PLP.Chemscore.Metal>
0.0000

> <Gold.Chemscore.Hbonds>
donor molecule, donor type, donor heavy atom, donor atom, acceptor molecule, acceptor atom, score
      L1  H    11    42       P1 10957  1.73
      P1  H  6896  6909       L1     7  1.00
      P1  H  6931  6943       L1    20  0.93

> <Gold.PLP.Chemscore.Internal.Correction>
0.0985

> <Gold.Rescore>
     Score         DG    S(hbond)    S(metal)    S(lipo)     H(rot)  DE(clash)    DE(int)     intcor
     16.89     -18.44       2.96        0.00      60.74       1.58       0.02       1.53       ----

> <Gold.Chemscore.Fitness>
16.8946

> <Gold.Chemscore.DG>
-18.4436

> <Gold.Chemscore.ZeroCoef>
-5.4800

> <Gold.Chemscore.Hbond>
2.9641

> <Gold.Chemscore.Metal>
0.0000

> <Gold.Chemscore.Lipo>
60.7375

> <Gold.Chemscore.Internal_Hbond>
0.0000

> <Gold.Chemscore.DEClash>
0.0234

> <Gold.Chemscore.DEInternal>
1.5256

> <Gold.Chemscore.Rot>
1.5792

> <Gold.Chemscore.Internal.Correction>
   9.000000E+99

> <Gold.Chemscore.Hbonds>
donor molecule, donor type, donor heavy atom, donor atom, acceptor molecule, acceptor atom, score
      L1  H    11    42       P1 10957  0.19
      P1  H  6896  6909       L1     7  1.00
      P1  H  6931  6943       L1    20  0.65

> <Gold.Chemscore.Hbond.Weighted>
-9.9001

> <Gold.Chemscore.Metal.Weighted>
-0.0000

> <Gold.Chemscore.Lipo.Weighted>
-7.1063

> <Gold.Chemscore.Internal_Hbond.Weighted>
0.0000

> <Gold.Chemscore.DEClash.Weighted>
0.0234

> <Gold.Chemscore.DEInternal.Weighted>
1.5256

> <Gold.Chemscore.Rot.Weighted>
4.0428

> <Gold.Chemscore.Internal.Correction.Weighted>
   9.000000E+99

> <Gold.Protein.RotatedTorsions>
[ 6907 6896 6895 6894 ] final    6.16 input  -60.11 | X-H torsion
[ 7974 7965 7964 7962 ] final   15.93 input  175.53 | X-H torsion
[ 8008 7997 7996 7995 ] final -174.91 input   59.86 | X-H torsion
[ 10167 10162 10161 10158 ] final -128.36 input  -65.29 | X-H torsion
[ 10718 10713 10712 10709 ] final -130.42 input   66.30 | X-H torsion
[ 10763 10752 10751 10750 ] final   43.03 input  -60.55 | X-H torsion
[ 11005 11000 10999 10996 ] final  171.37 input  -57.11 | X-H torsion

> <Gold.Protein.ActiveResidues>
 VAL166  LYS551  ARG553  GLY616  TRP617  ASP618  TYR619  PRO620  LYS621  CYS622 
 ASP623  PHE694  ASN695  SER759  ASP760  ASP761  ALA762  ILE779  LEU786  VAL792 
 PHE793  MET794  SER795  GLU796  ALA797  LYS798  CYS799  TRP800  GLU811  SER814 

> <Gold.Protein.RotatedAtoms>
  151.6691  135.0978  160.0194 H   0  0  0  0  0  0  0  0  0  0  0  0  # atno 6907 bound_to 6896
  152.3902  133.6663  159.6239 H   0  0  0  0  0  0  0  0  0  0  0  0  # atno 6908 bound_to 6896
  150.7819  133.8884  159.3347 H   0  0  0  0  0  0  0  0  0  0  0  0  # atno 6909 bound_to 6896
  146.2264  139.8823  142.8569 H   0  0  0  0  0  0  0  0  0  0  0  0  # atno 7974 bound_to 7965
  155.9760  140.1172  157.0770 H   0  0  0  0  0  0  0  0  0  0  0  0  # atno 8008 bound_to 7997
  154.4169  140.1154  156.5438 H   0  0  0  0  0  0  0  0  0  0  0  0  # atno 8009 bound_to 7997
  155.6534  140.3473  155.4758 H   0  0  0  0  0  0  0  0  0  0  0  0  # atno 8010 bound_to 7997
  139.9511  143.6055  152.2475 H   0  0  0  0  0  0  0  0  0  0  0  0  # atno 10167 bound_to 10162
  156.2142  130.6938  151.0684 H   0  0  0  0  0  0  0  0  0  0  0  0  # atno 10718 bound_to 10713
  152.9869  135.6114  154.3045 H   0  0  0  0  0  0  0  0  0  0  0  0  # atno 10763 bound_to 10752
  154.2763  135.2778  155.2718 H   0  0  0  0  0  0  0  0  0  0  0  0  # atno 10764 bound_to 10752
  154.5077  135.5849  153.6637 H   0  0  0  0  0  0  0  0  0  0  0  0  # atno 10765 bound_to 10752
  140.3182  134.7459  157.4044 H   0  0  0  0  0  0  0  0  0  0  0  0  # atno 11005 bound_to 11000
  145.2500  141.0040  143.3886 LP  0  0  0  0  0  0  0  0  0  0  0  0  # atno 17320 bound_to 7965
  144.9382  139.4220  143.6462 LP  0  0  0  0  0  0  0  0  0  0  0  0  # atno 17321 bound_to 7965
  139.6628  144.7662  151.1931 LP  0  0  0  0  0  0  0  0  0  0  0  0  # atno 17342 bound_to 10162
  140.7582  143.5984  150.8724 LP  0  0  0  0  0  0  0  0  0  0  0  0  # atno 17343 bound_to 10162
  157.7054  131.0758  150.6682 LP  0  0  0  0  0  0  0  0  0  0  0  0  # atno 17370 bound_to 10713
  156.6743  130.4548  149.5647 LP  0  0  0  0  0  0  0  0  0  0  0  0  # atno 17371 bound_to 10713
  140.0965  134.5531  155.8394 LP  0  0  0  0  0  0  0  0  0  0  0  0  # atno 17394 bound_to 11000
  141.2092  133.6682  156.6427 LP  0  0  0  0  0  0  0  0  0  0  0  0  # atno 17395 bound_to 11000

$$$$
