AV-unprocessed.smi:3157|AV-procd|sdf|12037|dock4
  -GOLD-   2272017453D 1   1.00000     0.00000
 Structure written by MMmdl.
 40 41  0  0  0  0  0  0  0  0  2 V2000
  151.8577  140.1441  156.8474 C   0  0  0  0  0  0  0  0  0  0  0  0
  150.7965  140.9280  156.0513 C   0  0  2  0  0  0  0  0  0  0  0  0
  150.2390  142.0130  156.8930 N   0  3  0  0  0  0  0  0  0  0  0  0
  151.2367  142.8785  157.5553 C   0  0  0  0  0  0  0  0  0  0  0  0
  151.2380  142.6553  159.0760 C   0  0  0  0  0  0  0  0  0  0  0  0
  151.2419  143.9558  159.8826 C   0  0  0  0  0  0  0  0  0  0  0  0
  151.7317  143.5560  161.2785 C   0  0  0  0  0  0  0  0  0  0  0  0
  152.5359  142.2597  161.0965 C   0  0  0  0  0  0  0  0  0  0  0  0
  152.4765  141.9229  159.6023 C   0  0  0  0  0  0  0  0  0  0  0  0
  149.6479  140.0221  155.5353 C   0  0  2  0  0  0  0  0  0  0  0  0
  150.1127  138.9423  154.5401 C   0  0  0  0  0  0  0  0  0  0  0  0
  148.5896  140.8256  154.9322 N   0  0  0  0  0  0  0  0  0  0  0  0
  148.2851  140.9965  153.5959 C   0  0  0  0  0  0  0  0  0  0  0  0
  147.2365  141.8678  153.5236 C   0  0  0  0  0  0  0  0  0  0  0  0
  146.9695  142.1889  154.8833 C   0  0  0  0  0  0  0  0  0  0  0  0
  147.7867  141.5728  155.7218 N   0  0  0  0  0  0  0  0  0  0  0  0
  152.3545  139.3972  156.2288 H   0  0  0  0  0  0  0  0  0  0  0  0
  151.4130  139.6294  157.6999 H   0  0  0  0  0  0  0  0  0  0  0  0
  152.6408  140.7985  157.2293 H   0  0  0  0  0  0  0  0  0  0  0  0
  151.2796  141.3823  155.1845 H   0  0  0  0  0  0  0  0  0  0  0  0
  149.6829  142.6059  156.2925 H   0  0  0  0  0  0  0  0  0  0  0  0
  152.2302  142.6938  157.1467 H   0  0  0  0  0  0  0  0  0  0  0  0
  150.9919  143.9199  157.3416 H   0  0  0  0  0  0  0  0  0  0  0  0
  150.3497  142.0870  159.3581 H   0  0  0  0  0  0  0  0  0  0  0  0
  151.9452  144.6647  159.4426 H   0  0  0  0  0  0  0  0  0  0  0  0
  150.2632  144.4359  159.9073 H   0  0  0  0  0  0  0  0  0  0  0  0
  152.3282  144.3475  161.7335 H   0  0  0  0  0  0  0  0  0  0  0  0
  150.8811  143.3709  161.9357 H   0  0  0  0  0  0  0  0  0  0  0  0
  153.5661  142.3682  161.4376 H   0  0  0  0  0  0  0  0  0  0  0  0
  152.0817  141.4592  161.6818 H   0  0  0  0  0  0  0  0  0  0  0  0
  152.4363  140.8481  159.4220 H   0  0  0  0  0  0  0  0  0  0  0  0
  153.3725  142.3052  159.1111 H   0  0  0  0  0  0  0  0  0  0  0  0
  149.2156  139.5004  156.3917 H   0  0  0  0  0  0  0  0  0  0  0  0
  150.7652  138.2105  155.0156 H   0  0  0  0  0  0  0  0  0  0  0  0
  150.6546  139.3764  153.6994 H   0  0  0  0  0  0  0  0  0  0  0  0
  149.2620  138.3908  154.1377 H   0  0  0  0  0  0  0  0  0  0  0  0
  148.8330  140.4904  152.8146 H   0  0  0  0  0  0  0  0  0  0  0  0
  146.7371  142.2234  152.6345 H   0  0  0  0  0  0  0  0  0  0  0  0
  146.2151  142.8506  155.2830 H   0  0  0  0  0  0  0  0  0  0  0  0
  149.6295  141.6077  157.5889 H   0  0  0  0  0  0  0  0  0  0  0  0
  1  2  1  0  0  0  0
  1 17  1  0  0  0  0
  1 18  1  0  0  0  0
  1 19  1  0  0  0  0
  2  3  1  0  0  0  0
  2 10  1  0  0  0  0
  2 20  1  0  0  0  0
  3  4  1  0  0  0  0
  3 21  1  0  0  0  0
  3 40  1  0  0  0  0
  4  5  1  0  0  0  0
  4 22  1  0  0  0  0
  4 23  1  0  0  0  0
  5  9  1  0  0  0  0
  5  6  1  0  0  0  0
  5 24  1  0  0  0  0
  6  7  1  0  0  0  0
  6 25  1  0  0  0  0
  6 26  1  0  0  0  0
  7  8  1  0  0  0  0
  7 27  1  0  0  0  0
  7 28  1  0  0  0  0
  8  9  1  0  0  0  0
  8 29  1  0  0  0  0
  8 30  1  0  0  0  0
  9 31  1  0  0  0  0
  9 32  1  0  0  0  0
 10 11  1  0  0  0  0
 10 12  1  0  0  0  0
 10 33  1  0  0  0  0
 11 34  1  0  0  0  0
 11 35  1  0  0  0  0
 11 36  1  0  0  0  0
 12 16  1  0  0  0  0
 12 13  1  0  0  0  0
 13 14  2  0  0  0  0
 13 37  1  0  0  0  0
 14 15  1  0  0  0  0
 14 38  1  0  0  0  0
 15 16  2  0  0  0  0
 15 39  1  0  0  0  0
M  CHG  1   3   1
M  END
> <s_m_source_file>
AV-unprocessed.smi

> <i_m_source_file_index>
3157

> <i_lp_mmshare_version>
43012

> <i_f3d_flags>
0

> <s_epik_input>
bjFbY0hdW2NIXVtjSF1uMVtDQEBIXShbQ0gzXSlbQ0BIXShbQ0gzXSlbTkhdW0NIMl1bQ0hdMltDSDJdW0NIMl1bQ0gyXVtDSDJdMg==

> <s_epik_cmdline>
J2VwaWtfcHl0aG9uJywgJy1waCcsICc3LjAnLCAnLXRuJywgJzgnLCAnLW1hJywgJzIwMCcsICctbWV0YWxfYmluZGluZycsICctaW1hZScsICc8aW5maWxlLm1hZT4nLCAnLW9tYWUnLCAnPG91dGZpbGUubWFlPic=

> <r_lp_tautomer_probability>
1

> <r_epik_Ionization_Penalty>
0.00132192

> <r_epik_Ionization_Penalty_Charging>
0.0013111

> <r_epik_Ionization_Penalty_Neutral>
1.08112e-05

> <r_epik_State_Penalty>
-0

> <r_epik_Charging_Adjusted_Penalty>
0.0013111

> <i_epik_Tot_Q>
1

> <i_epik_Tot_abs_Q>
1

> <r_epik_Metal_State_Penalty>
-0

> <b_epik_Metal_Only>
0

> <s_lp_Force_Field>
OPLS_2005

> <r_lp_Energy>
31.0944

> <b_lp_Chiralities_Consistent>
1

> <s_lp_Variant>
AV-unprocessed.smi:3157-1

> <Gold.Version>
5.8.1

> <Gold.Id.Protein>
6NUR|6NUR_protein|mol2

> <Gold.PLP.Fitness>
45.8412

> <Gold.PLP.PLP>
-39.7405

> <Gold.PLP.part.hbond>
-1.0000

> <Gold.PLP.part.metal>
0.0000

> <Gold.PLP.part.buried>
-4.5298

> <Gold.PLP.part.nonpolar>
-34.5951

> <Gold.PLP.part.repulsive>
0.2076

> <Gold.PLP.ligand.clash>
0.0000

> <Gold.PLP.ligand.torsion>
1.5358

> <Gold.PLP.Chemscore.Hbond>
2.0000

> <Gold.PLP.Chemscore.CHOScore>
1.0000

> <Gold.PLP.Chemscore.Metal>
0.0000

> <Gold.Chemscore.Hbonds>
donor molecule, donor type, donor heavy atom, donor atom, acceptor molecule, acceptor atom, score
      L1  H     3    21       P1  8028  0.42
      L1  C    13    37       P1  7957  0.62

> <Gold.PLP.Chemscore.Internal.Correction>
0.1723

> <Gold.Rescore>
     Score         DG    S(hbond)    S(metal)    S(lipo)     H(rot)  DE(clash)    DE(int)     intcor
     14.74     -17.58       0.90        0.00     110.68       1.50       0.10       2.73       ----

> <Gold.Chemscore.Fitness>
14.7434

> <Gold.Chemscore.DG>
-17.5823

> <Gold.Chemscore.ZeroCoef>
-5.4800

> <Gold.Chemscore.Hbond>
0.8996

> <Gold.Chemscore.Metal>
0.0000

> <Gold.Chemscore.Lipo>
110.6815

> <Gold.Chemscore.Internal_Hbond>
0.0000

> <Gold.Chemscore.DEClash>
0.1039

> <Gold.Chemscore.DEInternal>
2.7350

> <Gold.Chemscore.Rot>
1.5047

> <Gold.Chemscore.Internal.Correction>
   9.000000E+99

> <Gold.Chemscore.Hbonds>
donor molecule, donor type, donor heavy atom, donor atom, acceptor molecule, acceptor atom, score
      L1  H     3    21       P1  8028  0.20

> <Gold.Chemscore.Hbond.Weighted>
-3.0045

> <Gold.Chemscore.Metal.Weighted>
-0.0000

> <Gold.Chemscore.Lipo.Weighted>
-12.9497

> <Gold.Chemscore.Internal_Hbond.Weighted>
0.0000

> <Gold.Chemscore.DEClash.Weighted>
0.1039

> <Gold.Chemscore.DEInternal.Weighted>
2.7350

> <Gold.Chemscore.Rot.Weighted>
3.8520

> <Gold.Chemscore.Internal.Correction.Weighted>
   9.000000E+99

> <Gold.Protein.RotatedTorsions>
[ 6907 6896 6895 6894 ] final  103.72 input  -60.11 | X-H torsion
[ 7974 7965 7964 7962 ] final   85.11 input  175.53 | X-H torsion
[ 8008 7997 7996 7995 ] final  -98.65 input   59.86 | X-H torsion
[ 10167 10162 10161 10158 ] final  -78.11 input  -65.29 | X-H torsion
[ 10718 10713 10712 10709 ] final   70.04 input   66.30 | X-H torsion
[ 10763 10752 10751 10750 ] final -161.92 input  -60.55 | X-H torsion
[ 11005 11000 10999 10996 ] final   -9.40 input  -57.11 | X-H torsion

> <Gold.Protein.ActiveResidues>
 VAL166  LYS551  ARG553  GLY616  TRP617  ASP618  TYR619  PRO620  LYS621  CYS622 
 ASP623  PHE694  ASN695  SER759  ASP760  ASP761  ALA762  ILE779  LEU786  VAL792 
 PHE793  MET794  SER795  GLU796  ALA797  LYS798  CYS799  TRP800  GLU811  SER814 

> <Gold.Protein.RotatedAtoms>
  152.5287  133.9783  159.7794 H   0  0  0  0  0  0  0  0  0  0  0  0  # atno 6907 bound_to 6896
  151.0042  133.6019  159.2698 H   0  0  0  0  0  0  0  0  0  0  0  0  # atno 6908 bound_to 6896
  151.3117  135.0802  159.9328 H   0  0  0  0  0  0  0  0  0  0  0  0  # atno 6909 bound_to 6896
  145.5898  139.2336  143.2306 H   0  0  0  0  0  0  0  0  0  0  0  0  # atno 7974 bound_to 7965
  154.8040  140.0453  157.1294 H   0  0  0  0  0  0  0  0  0  0  0  0  # atno 8008 bound_to 7997
  154.9445  140.3057  155.5084 H   0  0  0  0  0  0  0  0  0  0  0  0  # atno 8009 bound_to 7997
  156.2965  140.2299  156.4517 H   0  0  0  0  0  0  0  0  0  0  0  0  # atno 8010 bound_to 7997
  140.4711  143.2426  151.8204 H   0  0  0  0  0  0  0  0  0  0  0  0  # atno 10167 bound_to 10162
  157.6378  130.9457  150.0596 H   0  0  0  0  0  0  0  0  0  0  0  0  # atno 10718 bound_to 10713
  154.7261  135.3036  154.8969 H   0  0  0  0  0  0  0  0  0  0  0  0  # atno 10763 bound_to 10752
  153.9826  135.6728  153.4755 H   0  0  0  0  0  0  0  0  0  0  0  0  # atno 10764 bound_to 10752
  153.0876  135.4976  154.8546 H   0  0  0  0  0  0  0  0  0  0  0  0  # atno 10765 bound_to 10752
  140.7337  133.8727  155.8913 H   0  0  0  0  0  0  0  0  0  0  0  0  # atno 11005 bound_to 11000
  146.1655  140.6724  142.9257 LP  0  0  0  0  0  0  0  0  0  0  0  0  # atno 17320 bound_to 7965
  144.7356  140.4799  143.6906 LP  0  0  0  0  0  0  0  0  0  0  0  0  # atno 17321 bound_to 7965
  139.4818  144.4891  151.9209 LP  0  0  0  0  0  0  0  0  0  0  0  0  # atno 17342 bound_to 10162
  140.3976  144.2535  150.5895 LP  0  0  0  0  0  0  0  0  0  0  0  0  # atno 17343 bound_to 10162
  156.1632  130.3644  149.9269 LP  0  0  0  0  0  0  0  0  0  0  0  0  # atno 17370 bound_to 10713
  156.7262  130.9026  151.3622 LP  0  0  0  0  0  0  0  0  0  0  0  0  # atno 17371 bound_to 10713
  140.9898  134.1294  157.4419 LP  0  0  0  0  0  0  0  0  0  0  0  0  # atno 17394 bound_to 11000
  139.8820  135.0037  156.6202 LP  0  0  0  0  0  0  0  0  0  0  0  0  # atno 17395 bound_to 11000

$$$$
