AV-unprocessed.smi:1163|AV-procd|sdf|4921|dock7
  -GOLD-   22720 3503D 1   1.00000     0.00000
 Structure written by MMmdl.
 39 40  0  0  0  0  0  0  0  0  1 V2000
  144.6824  131.7974  150.6273 C   0  0  0  0  0  0  0  0  0  0  0  0
  145.1190  132.4043  151.8387 O   0  0  0  0  0  0  0  0  0  0  0  0
  145.2469  133.7780  151.8738 C   0  0  0  0  0  0  0  0  0  0  0  0
  145.7086  134.3823  153.0598 C   0  0  0  0  0  0  0  0  0  0  0  0
  145.8441  135.7828  153.0987 C   0  0  0  0  0  0  0  0  0  0  0  0
  145.5236  136.5376  151.9525 C   0  0  0  0  0  0  0  0  0  0  0  0
  145.6563  137.9504  152.0282 N   0  0  0  0  0  0  0  0  0  0  0  0
  146.4862  138.6751  152.7980 C   0  0  0  0  0  0  0  0  0  0  0  0
  147.2848  138.2147  153.6134 O   0  0  0  0  0  0  0  0  0  0  0  0
  146.3199  139.9870  152.5801 N   0  0  0  0  0  0  0  0  0  0  0  0
  147.0392  141.0633  153.2558 C   0  0  1  0  0  0  0  0  0  0  0  0
  146.4796  141.3507  154.6467 C   0  0  0  0  0  0  0  0  0  0  0  0
  147.7320  141.5735  155.4864 C   0  0  0  0  0  0  0  0  0  0  0  0
  148.6558  140.5888  154.9454 N   0  0  0  0  0  0  0  0  0  0  0  0
  150.0217  140.8185  155.4117 C   0  0  0  0  0  0  0  0  0  0  0  0
  150.8750  139.5353  155.4373 C   0  0  0  0  0  0  0  0  0  0  0  0
  152.1456  139.8738  155.6525 F   0  0  0  0  0  0  0  0  0  0  0  0
  150.4782  138.7307  156.4239 F   0  0  0  0  0  0  0  0  0  0  0  0
  150.8106  138.8789  154.2789 F   0  0  0  0  0  0  0  0  0  0  0  0
  148.5070  140.6774  153.4948 C   0  0  0  0  0  0  0  0  0  0  0  0
  145.0549  135.8384  150.8135 C   0  0  0  0  0  0  0  0  0  0  0  0
  144.9213  134.4957  150.7705 N   0  0  0  0  0  0  0  0  0  0  0  0
  144.6445  130.7161  150.7585 H   0  0  0  0  0  0  0  0  0  0  0  0
  145.3686  132.0062  149.8051 H   0  0  0  0  0  0  0  0  0  0  0  0
  143.6811  132.1327  150.3529 H   0  0  0  0  0  0  0  0  0  0  0  0
  145.9537  133.7821  153.9236 H   0  0  0  0  0  0  0  0  0  0  0  0
  146.1946  136.2683  153.9980 H   0  0  0  0  0  0  0  0  0  0  0  0
  145.0033  138.4757  151.4656 H   0  0  0  0  0  0  0  0  0  0  0  0
  145.6356  140.2681  151.8933 H   0  0  0  0  0  0  0  0  0  0  0  0
  147.0209  141.9820  152.6668 H   0  0  0  0  0  0  0  0  0  0  0  0
  145.8090  142.2103  154.6601 H   0  0  0  0  0  0  0  0  0  0  0  0
  145.9290  140.4913  155.0335 H   0  0  0  0  0  0  0  0  0  0  0  0
  148.1185  142.5822  155.3299 H   0  0  0  0  0  0  0  0  0  0  0  0
  147.5558  141.4292  156.5528 H   0  0  0  0  0  0  0  0  0  0  0  0
  150.5048  141.5878  154.8072 H   0  0  0  0  0  0  0  0  0  0  0  0
  149.9662  141.2114  156.4280 H   0  0  0  0  0  0  0  0  0  0  0  0
  148.7841  139.7388  153.0135 H   0  0  0  0  0  0  0  0  0  0  0  0
  149.1541  141.4615  153.0978 H   0  0  0  0  0  0  0  0  0  0  0  0
  144.7548  136.3472  149.9110 H   0  0  0  0  0  0  0  0  0  0  0  0
  1  2  1  0  0  0  0
  1 23  1  0  0  0  0
  1 24  1  0  0  0  0
  1 25  1  0  0  0  0
  2  3  1  0  0  0  0
  3 22  1  0  0  0  0
  3  4  2  0  0  0  0
  4  5  1  0  0  0  0
  4 26  1  0  0  0  0
  5  6  2  0  0  0  0
  5 27  1  0  0  0  0
  6  7  1  0  0  0  0
  6 21  1  0  0  0  0
  7  8  1  0  0  0  0
  7 28  1  0  0  0  0
  8  9  2  0  0  0  0
  8 10  1  0  0  0  0
 10 11  1  0  0  0  0
 10 29  1  0  0  0  0
 11 20  1  0  0  0  0
 11 12  1  0  0  0  0
 11 30  1  0  0  0  0
 12 13  1  0  0  0  0
 12 31  1  0  0  0  0
 12 32  1  0  0  0  0
 13 14  1  0  0  0  0
 13 33  1  0  0  0  0
 13 34  1  0  0  0  0
 14 15  1  0  0  0  0
 14 20  1  0  0  0  0
 15 16  1  0  0  0  0
 15 35  1  0  0  0  0
 15 36  1  0  0  0  0
 16 17  1  0  0  0  0
 16 18  1  0  0  0  0
 16 19  1  0  0  0  0
 20 37  1  0  0  0  0
 20 38  1  0  0  0  0
 21 22  2  0  0  0  0
 21 39  1  0  0  0  0
M  END
> <s_m_source_file>
AV-unprocessed.smi

> <i_m_source_file_index>
1163

> <i_lp_mmshare_version>
43012

> <i_f3d_flags>
0

> <s_epik_input>
W0NIM11PYzFbY0hdW2NIXWMoW2NIXW4xKVtOSF1DKD1PKVtOSF1bQ0BASF0yW0NIMl1bQ0gyXU4oW0NIMl0yKVtDSDJdQyhGKShGKUY=

> <s_epik_cmdline>
J2VwaWtfcHl0aG9uJywgJy1waCcsICc3LjAnLCAnLXRuJywgJzgnLCAnLW1hJywgJzIwMCcsICctbWV0YWxfYmluZGluZycsICctaW1hZScsICc8aW5maWxlLm1hZT4nLCAnLW9tYWUnLCAnPG91dGZpbGUubWFlPic=

> <r_lp_tautomer_probability>
1

> <r_epik_Ionization_Penalty>
0.0970123

> <r_epik_Ionization_Penalty_Charging>
0

> <r_epik_Ionization_Penalty_Neutral>
0.0970123

> <r_epik_State_Penalty>
0.0870533

> <r_epik_Charging_Adjusted_Penalty>
0.0870533

> <i_epik_Tot_Q>
0

> <i_epik_Tot_abs_Q>
0

> <r_epik_Metal_State_Penalty>
0.0870519

> <b_epik_Metal_Only>
0

> <s_lp_Force_Field>
OPLS_2005

> <r_lp_Energy>
29.6524

> <b_lp_Chiralities_Consistent>
1

> <s_lp_Variant>
AV-unprocessed.smi:1163-2

> <Gold.Version>
5.8.1

> <Gold.Id.Protein>
6NUR|6NUR_protein|mol2

> <Gold.PLP.Fitness>
39.9563

> <Gold.PLP.PLP>
-34.2345

> <Gold.PLP.part.hbond>
-2.2709

> <Gold.PLP.part.metal>
0.0000

> <Gold.PLP.part.buried>
-1.0002

> <Gold.PLP.part.nonpolar>
-31.3378

> <Gold.PLP.part.repulsive>
0.9696

> <Gold.PLP.ligand.clash>
0.0000

> <Gold.PLP.ligand.torsion>
0.8530

> <Gold.PLP.Chemscore.Hbond>
1.3841

> <Gold.PLP.Chemscore.CHOScore>
0.9244

> <Gold.PLP.Chemscore.Metal>
0.0000

> <Gold.Chemscore.Hbonds>
donor molecule, donor type, donor heavy atom, donor atom, acceptor molecule, acceptor atom, score
      L1  H     7    28       P1 10171  0.99
      L1  H    10    29       P1 10175  0.40
      L1  C    21    39       P1 10171  0.93

> <Gold.PLP.Chemscore.Internal.Correction>
0.5026

> <Gold.Rescore>
     Score         DG    S(hbond)    S(metal)    S(lipo)     H(rot)  DE(clash)    DE(int)     intcor
      5.29     -12.57       0.97        0.00      69.01       1.65       1.90       5.38       ----

> <Gold.Chemscore.Fitness>
5.2855

> <Gold.Chemscore.DG>
-12.5666

> <Gold.Chemscore.ZeroCoef>
-5.4800

> <Gold.Chemscore.Hbond>
0.9703

> <Gold.Chemscore.Metal>
0.0000

> <Gold.Chemscore.Lipo>
69.0051

> <Gold.Chemscore.Internal_Hbond>
0.0000

> <Gold.Chemscore.DEClash>
1.8986

> <Gold.Chemscore.DEInternal>
5.3825

> <Gold.Chemscore.Rot>
1.6515

> <Gold.Chemscore.Internal.Correction>
   9.000000E+99

> <Gold.Chemscore.Hbonds>
donor molecule, donor type, donor heavy atom, donor atom, acceptor molecule, acceptor atom, score
      L1  H     7    28       P1 10171  0.90
      L1  H    10    29       P1 10175  0.10

> <Gold.Chemscore.Hbond.Weighted>
-3.2408

> <Gold.Chemscore.Metal.Weighted>
-0.0000

> <Gold.Chemscore.Lipo.Weighted>
-8.0736

> <Gold.Chemscore.Internal_Hbond.Weighted>
0.0000

> <Gold.Chemscore.DEClash.Weighted>
1.8986

> <Gold.Chemscore.DEInternal.Weighted>
5.3825

> <Gold.Chemscore.Rot.Weighted>
4.2279

> <Gold.Chemscore.Internal.Correction.Weighted>
   9.000000E+99

> <Gold.Protein.RotatedTorsions>
[ 6907 6896 6895 6894 ] final    1.83 input  -60.11 | X-H torsion
[ 7974 7965 7964 7962 ] final  -20.61 input  175.53 | X-H torsion
[ 8008 7997 7996 7995 ] final  103.90 input   59.86 | X-H torsion
[ 10167 10162 10161 10158 ] final -148.75 input  -65.29 | X-H torsion
[ 10718 10713 10712 10709 ] final  176.29 input   66.30 | X-H torsion
[ 10763 10752 10751 10750 ] final   60.12 input  -60.55 | X-H torsion
[ 11005 11000 10999 10996 ] final  -77.71 input  -57.11 | X-H torsion

> <Gold.Protein.ActiveResidues>
 VAL166  LYS551  ARG553  GLY616  TRP617  ASP618  TYR619  PRO620  LYS621  CYS622 
 ASP623  PHE694  ASN695  SER759  ASP760  ASP761  ALA762  ILE779  LEU786  VAL792 
 PHE793  MET794  SER795  GLU796  ALA797  LYS798  CYS799  TRP800  GLU811  SER814 

> <Gold.Protein.RotatedAtoms>
  151.5990  135.1048  160.0055 H   0  0  0  0  0  0  0  0  0  0  0  0  # atno 6907 bound_to 6896
  152.4267  133.7204  159.6540 H   0  0  0  0  0  0  0  0  0  0  0  0  # atno 6908 bound_to 6896
  150.8157  133.8270  159.3184 H   0  0  0  0  0  0  0  0  0  0  0  0  # atno 6909 bound_to 6896
  146.1779  140.4226  142.8506 H   0  0  0  0  0  0  0  0  0  0  0  0  # atno 7974 bound_to 7965
  156.1526  140.3157  155.8672 H   0  0  0  0  0  0  0  0  0  0  0  0  # atno 8008 bound_to 7997
  155.3942  140.0495  157.3056 H   0  0  0  0  0  0  0  0  0  0  0  0  # atno 8009 bound_to 7997
  154.5072  140.2151  155.9239 H   0  0  0  0  0  0  0  0  0  0  0  0  # atno 8010 bound_to 7997
  139.7504  143.8527  152.2585 H   0  0  0  0  0  0  0  0  0  0  0  0  # atno 10167 bound_to 10162
  156.9223  130.9944  151.3002 H   0  0  0  0  0  0  0  0  0  0  0  0  # atno 10718 bound_to 10713
  152.9912  135.5547  154.5822 H   0  0  0  0  0  0  0  0  0  0  0  0  # atno 10763 bound_to 10752
  154.5201  135.2807  155.1272 H   0  0  0  0  0  0  0  0  0  0  0  0  # atno 10764 bound_to 10752
  154.2628  135.6378  153.5334 H   0  0  0  0  0  0  0  0  0  0  0  0  # atno 10765 bound_to 10752
  141.1661  133.7033  156.7861 H   0  0  0  0  0  0  0  0  0  0  0  0  # atno 11005 bound_to 11000
  144.8266  140.6638  143.6318 LP  0  0  0  0  0  0  0  0  0  0  0  0  # atno 17320 bound_to 7965
  145.4161  139.1572  143.4099 LP  0  0  0  0  0  0  0  0  0  0  0  0  # atno 17321 bound_to 7965
  139.8504  144.7167  150.9221 LP  0  0  0  0  0  0  0  0  0  0  0  0  # atno 17342 bound_to 10162
  140.7797  143.3904  151.1319 LP  0  0  0  0  0  0  0  0  0  0  0  0  # atno 17343 bound_to 10162
  157.5900  130.8437  149.8645 LP  0  0  0  0  0  0  0  0  0  0  0  0  # atno 17370 bound_to 10713
  156.0485  130.3722  150.1258 LP  0  0  0  0  0  0  0  0  0  0  0  0  # atno 17371 bound_to 10713
  140.2359  134.8650  157.3524 LP  0  0  0  0  0  0  0  0  0  0  0  0  # atno 17394 bound_to 11000
  140.1844  134.4449  155.7752 LP  0  0  0  0  0  0  0  0  0  0  0  0  # atno 17395 bound_to 11000

$$$$
