AV-unprocessed.smi:2451|AV-procd|sdf|9670|dock3
  -GOLD-   2272013303D 1   1.00000     0.00000
 Structure written by MMmdl.
 38 39  0  0  0  0  0  0  0  0  1 V2000
  151.8999  145.6724  159.8519 C   0  0  0  0  0  0  0  0  0  0  0  0
  152.2768  144.2417  159.4332 C   0  0  1  0  0  0  0  0  0  0  0  0
  152.4823  143.3221  160.6561 C   0  0  0  0  0  0  0  0  0  0  0  0
  152.9563  141.9191  160.2403 C   0  0  0  0  0  0  0  0  0  0  0  0
  152.0151  141.2834  159.2053 C   0  0  0  0  0  0  0  0  0  0  0  0
  151.8228  142.2171  157.9970 C   0  0  1  0  0  0  0  0  0  0  0  0
  150.9543  141.5906  156.9965 N   0  0  0  0  0  0  0  0  0  0  0  0
  151.3253  139.9947  156.4612 S   0  0  0  0  0  0  0  0  0  0  0  0
  151.1046  139.9514  155.0073 O   0  0  0  0  0  0  0  0  0  0  0  0
  152.6413  139.6397  157.0143 O   0  0  0  0  0  0  0  0  0  0  0  0
  150.0255  138.9829  157.2854 C   0  0  0  0  0  0  0  0  0  0  0  0
  150.3385  137.5239  157.1135 C   0  0  0  0  0  0  0  0  0  0  0  0
  150.5413  136.7983  155.9068 C   0  0  0  0  0  0  0  0  0  0  0  0
  150.7901  135.5269  156.3375 C   0  0  0  0  0  0  0  0  0  0  0  0
  150.7412  135.4661  157.6921 O   0  0  0  0  0  0  0  0  0  0  0  0
  150.4508  136.7457  158.1784 N   0  0  0  0  0  0  0  0  0  0  0  0
  151.2951  143.6150  158.4068 C   0  0  1  0  0  0  0  0  0  0  0  0
  149.8295  143.5899  158.9010 C   0  0  0  0  0  0  0  0  0  0  0  0
  150.9903  145.6945  160.4521 H   0  0  0  0  0  0  0  0  0  0  0  0
  151.7459  146.3103  158.9812 H   0  0  0  0  0  0  0  0  0  0  0  0
  152.6931  146.1216  160.4503 H   0  0  0  0  0  0  0  0  0  0  0  0
  153.2433  144.3227  158.9329 H   0  0  0  0  0  0  0  0  0  0  0  0
  153.2167  143.7628  161.3310 H   0  0  0  0  0  0  0  0  0  0  0  0
  151.5571  143.2429  161.2279 H   0  0  0  0  0  0  0  0  0  0  0  0
  153.9605  141.9871  159.8202 H   0  0  0  0  0  0  0  0  0  0  0  0
  153.0326  141.2769  161.1180 H   0  0  0  0  0  0  0  0  0  0  0  0
  152.4275  140.3286  158.8769 H   0  0  0  0  0  0  0  0  0  0  0  0
  151.0543  141.0586  159.6688 H   0  0  0  0  0  0  0  0  0  0  0  0
  152.8045  142.3575  157.5414 H   0  0  0  0  0  0  0  0  0  0  0  0
  149.9713  141.6773  157.2538 H   0  0  0  0  0  0  0  0  0  0  0  0
  149.9912  139.2613  158.3390 H   0  0  0  0  0  0  0  0  0  0  0  0
  149.0615  139.2333  156.8431 H   0  0  0  0  0  0  0  0  0  0  0  0
  150.5141  137.1560  154.8883 H   0  0  0  0  0  0  0  0  0  0  0  0
  151.0089  134.6001  155.8282 H   0  0  0  0  0  0  0  0  0  0  0  0
  151.3129  144.2414  157.5136 H   0  0  0  0  0  0  0  0  0  0  0  0
  149.7094  143.0009  159.8095 H   0  0  0  0  0  0  0  0  0  0  0  0
  149.1618  143.1696  158.1490 H   0  0  0  0  0  0  0  0  0  0  0  0
  149.4614  144.5941  159.1084 H   0  0  0  0  0  0  0  0  0  0  0  0
  1  2  1  0  0  0  0
  1 19  1  0  0  0  0
  1 20  1  0  0  0  0
  1 21  1  0  0  0  0
  2 17  1  0  0  0  0
  2  3  1  0  0  0  0
  2 22  1  0  0  0  0
  3  4  1  0  0  0  0
  3 23  1  0  0  0  0
  3 24  1  0  0  0  0
  4  5  1  0  0  0  0
  4 25  1  0  0  0  0
  4 26  1  0  0  0  0
  5  6  1  0  0  0  0
  5 27  1  0  0  0  0
  5 28  1  0  0  0  0
  6  7  1  0  0  0  0
  6 17  1  0  0  0  0
  6 29  1  0  0  0  0
  7  8  1  0  0  0  0
  7 30  1  0  0  0  0
  8  9  2  0  0  0  0
  8 10  2  0  0  0  0
  8 11  1  0  0  0  0
 11 12  1  0  0  0  0
 11 31  1  0  0  0  0
 11 32  1  0  0  0  0
 12 16  2  0  0  0  0
 12 13  1  0  0  0  0
 13 14  2  0  0  0  0
 13 33  1  0  0  0  0
 14 15  1  0  0  0  0
 14 34  1  0  0  0  0
 15 16  1  0  0  0  0
 17 18  1  0  0  0  0
 17 35  1  0  0  0  0
 18 36  1  0  0  0  0
 18 37  1  0  0  0  0
 18 38  1  0  0  0  0
M  END
> <s_m_source_file>
AV-unprocessed.smi

> <i_m_source_file_index>
2451

> <i_lp_mmshare_version>
43012

> <i_f3d_flags>
0

> <s_epik_input>
W0NIM11bQ0BASF0xW0NIMl1bQ0gyXVtDSDJdW0NASF0oW0NASF0xW0NIM10pW05IXVMoPU8pKD1PKVtDSDJdYzJbY0hdW2NIXW9uMg==

> <s_epik_cmdline>
J2VwaWtfcHl0aG9uJywgJy1waCcsICc3LjAnLCAnLXRuJywgJzgnLCAnLW1hJywgJzIwMCcsICctbWV0YWxfYmluZGluZycsICctaW1hZScsICc8aW5maWxlLm1hZT4nLCAnLW9tYWUnLCAnPG91dGZpbGUubWFlPic=

> <r_lp_tautomer_probability>
1

> <r_epik_Ionization_Penalty>
8.73668e-05

> <r_epik_Ionization_Penalty_Charging>
0

> <r_epik_Ionization_Penalty_Neutral>
8.73668e-05

> <r_epik_State_Penalty>
-0

> <r_epik_Charging_Adjusted_Penalty>
0

> <i_epik_Tot_Q>
0

> <i_epik_Tot_abs_Q>
0

> <r_epik_Metal_State_Penalty>
0.0716439

> <b_epik_Metal_Only>
0

> <s_lp_Force_Field>
OPLS_2005

> <r_lp_Energy>
8.89421

> <b_lp_Chiralities_Consistent>
1

> <s_lp_Variant>
AV-unprocessed.smi:2451-2

> <Gold.Version>
5.8.1

> <Gold.Id.Protein>
6NUR|6NUR_protein|mol2

> <Gold.PLP.Fitness>
41.0157

> <Gold.PLP.PLP>
-34.6690

> <Gold.PLP.part.hbond>
-3.0935

> <Gold.PLP.part.metal>
0.0000

> <Gold.PLP.part.buried>
-6.2061

> <Gold.PLP.part.nonpolar>
-25.5689

> <Gold.PLP.part.repulsive>
0.0449

> <Gold.PLP.ligand.clash>
0.0000

> <Gold.PLP.ligand.torsion>
0.4336

> <Gold.PLP.Chemscore.Hbond>
2.3557

> <Gold.PLP.Chemscore.CHOScore>
0.0000

> <Gold.PLP.Chemscore.Metal>
0.0000

> <Gold.Chemscore.Hbonds>
donor molecule, donor type, donor heavy atom, donor atom, acceptor molecule, acceptor atom, score
      P1  H  6896  6909       L1    15  0.34
      P1  H  7989  7998       L1     9  1.00
      P1  H  7997  8008       L1    10  1.00

> <Gold.PLP.Chemscore.Internal.Correction>
0.1469

> <Gold.Rescore>
     Score         DG    S(hbond)    S(metal)    S(lipo)     H(rot)  DE(clash)    DE(int)     intcor
     18.63     -20.89       2.53        0.00      95.73       1.66       0.21       2.05       ----

> <Gold.Chemscore.Fitness>
18.6309

> <Gold.Chemscore.DG>
-20.8895

> <Gold.Chemscore.ZeroCoef>
-5.4800

> <Gold.Chemscore.Hbond>
2.5318

> <Gold.Chemscore.Metal>
0.0000

> <Gold.Chemscore.Lipo>
95.7265

> <Gold.Chemscore.Internal_Hbond>
0.0000

> <Gold.Chemscore.DEClash>
0.2106

> <Gold.Chemscore.DEInternal>
2.0481

> <Gold.Chemscore.Rot>
1.6588

> <Gold.Chemscore.Internal.Correction>
   9.000000E+99

> <Gold.Chemscore.Hbonds>
donor molecule, donor type, donor heavy atom, donor atom, acceptor molecule, acceptor atom, score
      P1  H  6896  6909       L1    15  0.13
      P1  H  7989  7998       L1     9  1.00
      P1  H  7997  8008       L1    10  0.98

> <Gold.Chemscore.Hbond.Weighted>
-8.4561

> <Gold.Chemscore.Metal.Weighted>
-0.0000

> <Gold.Chemscore.Lipo.Weighted>
-11.2000

> <Gold.Chemscore.Internal_Hbond.Weighted>
0.0000

> <Gold.Chemscore.DEClash.Weighted>
0.2106

> <Gold.Chemscore.DEInternal.Weighted>
2.0481

> <Gold.Chemscore.Rot.Weighted>
4.2466

> <Gold.Chemscore.Internal.Correction.Weighted>
   9.000000E+99

> <Gold.Protein.RotatedTorsions>
[ 6907 6896 6895 6894 ] final   30.73 input  -60.11 | X-H torsion
[ 7974 7965 7964 7962 ] final -101.01 input  175.53 | X-H torsion
[ 8008 7997 7996 7995 ] final  -42.80 input   59.86 | X-H torsion
[ 10167 10162 10161 10158 ] final -173.66 input  -65.29 | X-H torsion
[ 10718 10713 10712 10709 ] final   61.87 input   66.30 | X-H torsion
[ 10763 10752 10751 10750 ] final -129.79 input  -60.55 | X-H torsion
[ 11005 11000 10999 10996 ] final   77.62 input  -57.11 | X-H torsion

> <Gold.Protein.ActiveResidues>
 VAL166  LYS551  ARG553  GLY616  TRP617  ASP618  TYR619  PRO620  LYS621  CYS622 
 ASP623  PHE694  ASN695  SER759  ASP760  ASP761  ALA762  ILE779  LEU786  VAL792 
 PHE793  MET794  SER795  GLU796  ALA797  LYS798  CYS799  TRP800  GLU811  SER814 

> <Gold.Protein.RotatedAtoms>
  152.0502  134.9658  160.0574 H   0  0  0  0  0  0  0  0  0  0  0  0  # atno 6907 bound_to 6896
  152.1062  133.4271  159.4618 H   0  0  0  0  0  0  0  0  0  0  0  0  # atno 6908 bound_to 6896
  150.6841  134.2621  159.4597 H   0  0  0  0  0  0  0  0  0  0  0  0  # atno 6909 bound_to 6896
  145.2871  140.9342  143.2899 H   0  0  0  0  0  0  0  0  0  0  0  0  # atno 7974 bound_to 7965
  154.3998  140.1464  156.3414 H   0  0  0  0  0  0  0  0  0  0  0  0  # atno 8008 bound_to 7997
  155.8353  140.3464  155.5576 H   0  0  0  0  0  0  0  0  0  0  0  0  # atno 8009 bound_to 7997
  155.8145  140.0889  157.1875 H   0  0  0  0  0  0  0  0  0  0  0  0  # atno 8010 bound_to 7997
  139.5676  144.1718  152.1336 H   0  0  0  0  0  0  0  0  0  0  0  0  # atno 10167 bound_to 10162
  157.5859  130.9018  149.9515 H   0  0  0  0  0  0  0  0  0  0  0  0  # atno 10718 bound_to 10713
  154.8757  135.3883  154.3978 H   0  0  0  0  0  0  0  0  0  0  0  0  # atno 10763 bound_to 10752
  153.4706  135.7030  153.6001 H   0  0  0  0  0  0  0  0  0  0  0  0  # atno 10764 bound_to 10752
  153.4459  135.3845  155.2224 H   0  0  0  0  0  0  0  0  0  0  0  0  # atno 10765 bound_to 10752
  139.9247  134.7697  156.1545 H   0  0  0  0  0  0  0  0  0  0  0  0  # atno 11005 bound_to 11000
  144.9204  139.4419  143.6544 LP  0  0  0  0  0  0  0  0  0  0  0  0  # atno 17320 bound_to 7965
  146.3197  139.8061  142.8955 LP  0  0  0  0  0  0  0  0  0  0  0  0  # atno 17321 bound_to 7965
  140.1244  144.5344  150.6842 LP  0  0  0  0  0  0  0  0  0  0  0  0  # atno 17342 bound_to 10162
  140.6960  143.2404  151.4999 LP  0  0  0  0  0  0  0  0  0  0  0  0  # atno 17343 bound_to 10162
  156.0909  130.3663  150.0398 LP  0  0  0  0  0  0  0  0  0  0  0  0  # atno 17370 bound_to 10713
  156.8529  130.9465  151.3624 LP  0  0  0  0  0  0  0  0  0  0  0  0  # atno 17371 bound_to 10713
  141.0795  133.6760  156.2306 LP  0  0  0  0  0  0  0  0  0  0  0  0  # atno 17394 bound_to 11000
  140.6372  134.5203  157.5566 LP  0  0  0  0  0  0  0  0  0  0  0  0  # atno 17395 bound_to 11000

$$$$
