AV-unprocessed.smi:678|AV-procd|sdf|3313|dock2
  -GOLD-   22720 0273D 1   1.00000     0.00000
 Structure written by MMmdl.
 51 52  0  0  0  0  0  0  0  0  2 V2000
  153.6768  142.0172  160.7596 C   0  0  0  0  0  0  0  0  0  0  0  0
  152.8481  142.5831  159.6198 C   0  0  0  0  0  0  0  0  0  0  0  0
  152.7505  143.9142  159.4117 C   0  0  0  0  0  0  0  0  0  0  0  0
  151.9590  144.4433  158.3275 C   0  0  0  0  0  0  0  0  0  0  0  0
  151.3223  143.5774  157.5262 C   0  0  0  0  0  0  0  0  0  0  0  0
  151.4100  142.1861  157.7190 N   0  0  0  0  0  0  0  0  0  0  0  0
  150.6655  141.3306  156.7791 C   0  0  0  0  0  0  0  0  0  0  0  0
  149.1465  141.5264  156.8749 C   0  0  0  0  0  0  0  0  0  0  0  0
  148.6399  142.0000  157.8927 O   0  0  0  0  0  0  0  0  0  0  0  0
  148.4332  141.1580  155.8003 N   0  0  0  0  0  0  0  0  0  0  0  0
  146.9776  141.1886  155.7093 C   0  0  0  0  0  0  0  0  0  0  0  0
  146.4850  140.5656  154.3902 C   0  0  2  0  0  0  0  0  0  0  0  0
  146.2327  139.0514  154.5262 C   0  0  0  0  0  0  0  0  0  0  0  0
  145.8095  138.4737  153.2259 N   0  3  2  0  0  0  0  0  0  0  0  0
  145.4987  137.0223  153.2893 C   0  0  0  0  0  0  0  0  0  0  0  0
  144.9480  136.4583  151.9614 C   0  0  0  0  0  0  0  0  0  0  0  0
  144.0936  135.2083  152.2195 C   0  0  0  0  0  0  0  0  0  0  0  0
  146.0723  136.1419  150.9609 C   0  0  0  0  0  0  0  0  0  0  0  0
  146.8013  138.7927  152.1717 C   0  0  0  0  0  0  0  0  0  0  0  0
  147.0520  140.3079  152.1091 C   0  0  0  0  0  0  0  0  0  0  0  0
  147.4745  140.7667  153.3855 O   0  0  0  0  0  0  0  0  0  0  0  0
  152.1446  141.6353  158.7356 C   0  0  0  0  0  0  0  0  0  0  0  0
  152.2061  140.4141  158.8960 O   0  0  0  0  0  0  0  0  0  0  0  0
  154.1445  142.8104  161.3437 H   0  0  0  0  0  0  0  0  0  0  0  0
  154.4672  141.3729  160.3733 H   0  0  0  0  0  0  0  0  0  0  0  0
  153.0508  141.4292  161.4314 H   0  0  0  0  0  0  0  0  0  0  0  0
  153.2692  144.6007  160.0647 H   0  0  0  0  0  0  0  0  0  0  0  0
  151.8786  145.5085  158.1683 H   0  0  0  0  0  0  0  0  0  0  0  0
  150.7050  143.8921  156.6975 H   0  0  0  0  0  0  0  0  0  0  0  0
  150.9667  141.5257  155.7492 H   0  0  0  0  0  0  0  0  0  0  0  0
  150.9173  140.2834  156.9579 H   0  0  0  0  0  0  0  0  0  0  0  0
  148.9333  140.7930  155.0024 H   0  0  0  0  0  0  0  0  0  0  0  0
  146.5213  140.6920  156.5674 H   0  0  0  0  0  0  0  0  0  0  0  0
  146.6703  142.2335  155.7592 H   0  0  0  0  0  0  0  0  0  0  0  0
  145.5588  141.0612  154.0922 H   0  0  0  0  0  0  0  0  0  0  0  0
  147.1383  138.5497  154.8715 H   0  0  0  0  0  0  0  0  0  0  0  0
  145.4670  138.8830  155.2823 H   0  0  0  0  0  0  0  0  0  0  0  0
  146.4047  136.4702  153.5444 H   0  0  0  0  0  0  0  0  0  0  0  0
  144.7959  136.8429  154.1044 H   0  0  0  0  0  0  0  0  0  0  0  0
  144.2894  137.1960  151.5043 H   0  0  0  0  0  0  0  0  0  0  0  0
  144.6863  134.4044  152.6573 H   0  0  0  0  0  0  0  0  0  0  0  0
  143.6568  134.8326  151.2936 H   0  0  0  0  0  0  0  0  0  0  0  0
  143.2720  135.4263  152.9026 H   0  0  0  0  0  0  0  0  0  0  0  0
  146.7698  135.4083  151.3666 H   0  0  0  0  0  0  0  0  0  0  0  0
  146.6410  137.0354  150.7025 H   0  0  0  0  0  0  0  0  0  0  0  0
  145.6684  135.7364  150.0328 H   0  0  0  0  0  0  0  0  0  0  0  0
  147.7359  138.2682  152.3776 H   0  0  0  0  0  0  0  0  0  0  0  0
  146.4415  138.4415  151.2039 H   0  0  0  0  0  0  0  0  0  0  0  0
  147.8295  140.5311  151.3785 H   0  0  0  0  0  0  0  0  0  0  0  0
  146.1545  140.8426  151.7933 H   0  0  0  0  0  0  0  0  0  0  0  0
  144.9543  138.9400  152.9578 H   0  0  0  0  0  0  0  0  0  0  0  0
  1  2  1  0  0  0  0
  1 24  1  0  0  0  0
  1 25  1  0  0  0  0
  1 26  1  0  0  0  0
  2 22  1  0  0  0  0
  2  3  2  0  0  0  0
  3  4  1  0  0  0  0
  3 27  1  0  0  0  0
  4  5  2  0  0  0  0
  4 28  1  0  0  0  0
  5  6  1  0  0  0  0
  5 29  1  0  0  0  0
  6  7  1  0  0  0  0
  6 22  1  0  0  0  0
  7  8  1  0  0  0  0
  7 30  1  0  0  0  0
  7 31  1  0  0  0  0
  8  9  2  0  0  0  0
  8 10  1  0  0  0  0
 10 11  1  0  0  0  0
 10 32  1  0  0  0  0
 11 12  1  0  0  0  0
 11 33  1  0  0  0  0
 11 34  1  0  0  0  0
 12 21  1  0  0  0  0
 12 13  1  0  0  0  0
 12 35  1  0  0  0  0
 13 14  1  0  0  0  0
 13 36  1  0  0  0  0
 13 37  1  0  0  0  0
 14 15  1  0  0  0  0
 14 19  1  0  0  0  0
 14 51  1  0  0  0  0
 15 16  1  0  0  0  0
 15 38  1  0  0  0  0
 15 39  1  0  0  0  0
 16 17  1  0  0  0  0
 16 18  1  0  0  0  0
 16 40  1  0  0  0  0
 17 41  1  0  0  0  0
 17 42  1  0  0  0  0
 17 43  1  0  0  0  0
 18 44  1  0  0  0  0
 18 45  1  0  0  0  0
 18 46  1  0  0  0  0
 19 20  1  0  0  0  0
 19 47  1  0  0  0  0
 19 48  1  0  0  0  0
 20 21  1  0  0  0  0
 20 49  1  0  0  0  0
 20 50  1  0  0  0  0
 22 23  2  0  0  0  0
M  CHG  1  14   1
M  END
> <s_m_source_file>
AV-unprocessed.smi

> <i_m_source_file_index>
678

> <i_lp_mmshare_version>
43012

> <i_f3d_flags>
0

> <s_epik_input>
W0NIM11jMVtjSF1bY0hdW2NIXW4oYzE9TylbQ0gyXUMoPU8pW05IXVtDSDJdW0NAQEhdMltDSDJdTihbQ0gyXVtDSDJdTzIpW0NIMl1bQ0hdKFtDSDNdKVtDSDNd

> <s_epik_cmdline>
J2VwaWtfcHl0aG9uJywgJy1waCcsICc3LjAnLCAnLXRuJywgJzgnLCAnLW1hJywgJzIwMCcsICctbWV0YWxfYmluZGluZycsICctaW1hZScsICc8aW5maWxlLm1hZT4nLCAnLW9tYWUnLCAnPG91dGZpbGUubWFlPic=

> <r_lp_tautomer_probability>
1

> <r_epik_Ionization_Penalty>
0.0975937

> <r_epik_Ionization_Penalty_Charging>
0.0975937

> <r_epik_Ionization_Penalty_Neutral>
6.27044e-08

> <r_epik_State_Penalty>
0.0877056

> <r_epik_Charging_Adjusted_Penalty>
0.185299

> <i_epik_Tot_Q>
1

> <i_epik_Tot_abs_Q>
1

> <r_epik_Metal_State_Penalty>
0.0877109

> <b_epik_Metal_Only>
0

> <s_lp_Force_Field>
OPLS_2005

> <r_lp_Energy>
27.0363

> <b_lp_Chiralities_Consistent>
1

> <s_lp_Variant>
AV-unprocessed.smi:678-1

> <Gold.Version>
5.8.1

> <Gold.Id.Protein>
6NUR|6NUR_protein|mol2

> <Gold.PLP.Fitness>
50.0599

> <Gold.PLP.PLP>
-42.8619

> <Gold.PLP.part.hbond>
-1.0000

> <Gold.PLP.part.metal>
0.0000

> <Gold.PLP.part.buried>
-2.7834

> <Gold.PLP.part.nonpolar>
-40.5925

> <Gold.PLP.part.repulsive>
0.4329

> <Gold.PLP.ligand.clash>
0.0000

> <Gold.PLP.ligand.torsion>
0.9726

> <Gold.PLP.Chemscore.Hbond>
2.0000

> <Gold.PLP.Chemscore.CHOScore>
1.0000

> <Gold.PLP.Chemscore.Metal>
0.0000

> <Gold.Chemscore.Hbonds>
donor molecule, donor type, donor heavy atom, donor atom, acceptor molecule, acceptor atom, score
      L1  H    14    51       P1 10175  1.92
      L1  C     5    29       P1  8028  1.00

> <Gold.PLP.Chemscore.Internal.Correction>
0.1433

> <Gold.Rescore>
     Score         DG    S(hbond)    S(metal)    S(lipo)     H(rot)  DE(clash)    DE(int)     intcor
     15.11     -16.75       1.00        0.00     109.16       1.89       0.58       1.06       ----

> <Gold.Chemscore.Fitness>
15.1120

> <Gold.Chemscore.DG>
-16.7507

> <Gold.Chemscore.ZeroCoef>
-5.4800

> <Gold.Chemscore.Hbond>
0.9968

> <Gold.Chemscore.Metal>
0.0000

> <Gold.Chemscore.Lipo>
109.1642

> <Gold.Chemscore.Internal_Hbond>
0.0000

> <Gold.Chemscore.DEClash>
0.5821

> <Gold.Chemscore.DEInternal>
1.0566

> <Gold.Chemscore.Rot>
1.8871

> <Gold.Chemscore.Internal.Correction>
   9.000000E+99

> <Gold.Chemscore.Hbonds>
donor molecule, donor type, donor heavy atom, donor atom, acceptor molecule, acceptor atom, score
      L1  H    14    51       P1 10175  0.91

> <Gold.Chemscore.Hbond.Weighted>
-3.3294

> <Gold.Chemscore.Metal.Weighted>
-0.0000

> <Gold.Chemscore.Lipo.Weighted>
-12.7722

> <Gold.Chemscore.Internal_Hbond.Weighted>
0.0000

> <Gold.Chemscore.DEClash.Weighted>
0.5821

> <Gold.Chemscore.DEInternal.Weighted>
1.0566

> <Gold.Chemscore.Rot.Weighted>
4.8309

> <Gold.Chemscore.Internal.Correction.Weighted>
   9.000000E+99

> <Gold.Protein.RotatedTorsions>
[ 6907 6896 6895 6894 ] final -117.09 input  -60.11 | X-H torsion
[ 7974 7965 7964 7962 ] final -130.63 input  175.53 | X-H torsion
[ 8008 7997 7996 7995 ] final  -72.53 input   59.86 | X-H torsion
[ 10167 10162 10161 10158 ] final   39.61 input  -65.29 | X-H torsion
[ 10718 10713 10712 10709 ] final -116.03 input   66.30 | X-H torsion
[ 10763 10752 10751 10750 ] final  -91.14 input  -60.55 | X-H torsion
[ 11005 11000 10999 10996 ] final  -82.37 input  -57.11 | X-H torsion

> <Gold.Protein.ActiveResidues>
 VAL166  LYS551  ARG553  GLY616  TRP617  ASP618  TYR619  PRO620  LYS621  CYS622 
 ASP623  PHE694  ASN695  SER759  ASP760  ASP761  ALA762  ILE779  LEU786  VAL792 
 PHE793  MET794  SER795  GLU796  ALA797  LYS798  CYS799  TRP800  GLU811  SER814 

> <Gold.Protein.RotatedAtoms>
  150.8109  133.8424  159.3182 H   0  0  0  0  0  0  0  0  0  0  0  0  # atno 6907 bound_to 6896
  151.6210  135.1030  160.0111 H   0  0  0  0  0  0  0  0  0  0  0  0  # atno 6908 bound_to 6896
  152.4200  133.7061  159.6508 H   0  0  0  0  0  0  0  0  0  0  0  0  # atno 6909 bound_to 6896
  144.9456  140.7288  143.4819 H   0  0  0  0  0  0  0  0  0  0  0  0  # atno 7974 bound_to 7965
  154.5173  140.0795  156.8106 H   0  0  0  0  0  0  0  0  0  0  0  0  # atno 8008 bound_to 7997
  155.3652  140.3420  155.4223 H   0  0  0  0  0  0  0  0  0  0  0  0  # atno 8009 bound_to 7997
  156.1642  140.1598  156.8547 H   0  0  0  0  0  0  0  0  0  0  0  0  # atno 8010 bound_to 7997
  140.3823  144.1963  150.6130 H   0  0  0  0  0  0  0  0  0  0  0  0  # atno 10167 bound_to 10162
  156.0936  130.6113  150.8983 H   0  0  0  0  0  0  0  0  0  0  0  0  # atno 10718 bound_to 10713
  154.6730  135.5278  153.8163 H   0  0  0  0  0  0  0  0  0  0  0  0  # atno 10763 bound_to 10752
  153.0514  135.6534  154.0694 H   0  0  0  0  0  0  0  0  0  0  0  0  # atno 10764 bound_to 10752
  154.0591  135.2963  155.3308 H   0  0  0  0  0  0  0  0  0  0  0  0  # atno 10765 bound_to 10752
  141.1663  133.7241  156.8562 H   0  0  0  0  0  0  0  0  0  0  0  0  # atno 11005 bound_to 11000
  145.2922  139.1879  143.4734 LP  0  0  0  0  0  0  0  0  0  0  0  0  # atno 17320 bound_to 7965
  146.3302  140.2901  142.8615 LP  0  0  0  0  0  0  0  0  0  0  0  0  # atno 17321 bound_to 7965
  140.4925  143.2343  151.8798 LP  0  0  0  0  0  0  0  0  0  0  0  0  # atno 17342 bound_to 10162
  139.4794  144.5150  151.8880 LP  0  0  0  0  0  0  0  0  0  0  0  0  # atno 17343 bound_to 10162
  157.6091  131.0937  150.8826 LP  0  0  0  0  0  0  0  0  0  0  0  0  # atno 17370 bound_to 10713
  156.8969  130.5233  149.5284 LP  0  0  0  0  0  0  0  0  0  0  0  0  # atno 17371 bound_to 10713
  140.1880  134.8986  157.3027 LP  0  0  0  0  0  0  0  0  0  0  0  0  # atno 17394 bound_to 11000
  140.2321  134.3897  155.7517 LP  0  0  0  0  0  0  0  0  0  0  0  0  # atno 17395 bound_to 11000

$$$$
