AV-unprocessed.smi:204|AV-procd|sdf|1598|dock1
  -GOLD-   2262019503D 1   1.00000     0.00000
 Structure written by MMmdl.
 53 56  0  0  0  0  0  0  0  0  1 V2000
  156.0466  139.9730  161.1159 C   0  0  0  0  0  0  0  0  0  0  0  0
  154.5529  140.1241  160.8472 C   0  0  0  0  0  0  0  0  0  0  0  0
  153.7591  139.2883  161.2779 O   0  0  0  0  0  0  0  0  0  0  0  0
  154.1849  141.1963  160.1323 N   0  0  0  0  0  0  0  0  0  0  0  0
  152.8095  141.5145  159.7690 C   0  0  0  0  0  0  0  0  0  0  0  0
  152.6135  141.5160  158.2416 C   0  0  2  0  0  0  0  0  0  0  0  0
  151.2450  142.0946  157.8196 C   0  0  0  0  0  0  0  0  0  0  0  0
  151.0741  142.0334  156.2935 C   0  0  0  0  0  0  0  0  0  0  0  0
  151.2922  140.6046  155.7725 C   0  0  0  0  0  0  0  0  0  0  0  0
  152.5828  140.0898  156.2182 N   0  0  0  0  0  0  0  0  0  0  0  0
  152.9263  138.9295  155.6215 C   0  0  0  0  0  0  0  0  0  0  0  0
  154.1303  138.8854  155.0011 N   0  0  0  0  0  0  0  0  0  0  0  0
  154.5246  137.7637  154.3905 C   0  0  0  0  0  0  0  0  0  0  0  0
  153.8789  136.6003  154.2823 N   0  0  0  0  0  0  0  0  0  0  0  0
  152.6637  136.6454  154.9000 C   0  0  0  0  0  0  0  0  0  0  0  0
  152.1135  137.7616  155.5913 C   0  0  0  0  0  0  0  0  0  0  0  0
  150.8593  137.4379  156.0942 N   0  0  0  0  0  0  0  0  0  0  0  0
  150.6805  136.1990  155.7258 C   0  0  0  0  0  0  0  0  0  0  0  0
  151.7089  135.6476  154.9944 N   0  0  0  0  0  0  0  0  0  0  0  0
  151.7624  134.2954  154.4591 C   0  0  0  0  0  0  0  0  0  0  0  0
  150.4590  133.4888  154.6405 C   0  0  0  0  0  0  0  0  0  0  0  0
  149.2839  134.1724  153.9189 C   0  0  0  0  0  0  0  0  0  0  0  0
  149.2995  133.9003  152.5319 O   0  0  0  0  0  0  0  0  0  0  0  0
  150.5617  131.9776  154.3865 C   0  0  0  0  0  0  0  0  0  0  0  0
  149.9378  131.6671  155.6501 O   0  0  0  0  0  0  0  0  0  0  0  0
  150.1543  133.0298  156.0732 C   0  0  0  0  0  0  0  0  0  0  0  0
  152.7796  140.0956  157.6656 C   0  0  0  0  0  0  0  0  0  0  0  0
  156.5940  139.8737  160.1782 H   0  0  0  0  0  0  0  0  0  0  0  0
  156.2449  139.0887  161.7222 H   0  0  0  0  0  0  0  0  0  0  0  0
  156.4277  140.8444  161.6491 H   0  0  0  0  0  0  0  0  0  0  0  0
  154.9033  141.8327  159.8180 H   0  0  0  0  0  0  0  0  0  0  0  0
  152.1482  140.7779  160.2279 H   0  0  0  0  0  0  0  0  0  0  0  0
  152.5373  142.4875  160.1821 H   0  0  0  0  0  0  0  0  0  0  0  0
  153.3938  142.1419  157.8049 H   0  0  0  0  0  0  0  0  0  0  0  0
  150.4427  141.5316  158.2987 H   0  0  0  0  0  0  0  0  0  0  0  0
  151.1424  143.1276  158.1531 H   0  0  0  0  0  0  0  0  0  0  0  0
  150.0818  142.3867  156.0126 H   0  0  0  0  0  0  0  0  0  0  0  0
  151.7898  142.7065  155.8196 H   0  0  0  0  0  0  0  0  0  0  0  0
  150.4952  139.9527  156.1331 H   0  0  0  0  0  0  0  0  0  0  0  0
  151.2453  140.5963  154.6825 H   0  0  0  0  0  0  0  0  0  0  0  0
  155.4961  137.8044  153.9203 H   0  0  0  0  0  0  0  0  0  0  0  0
  149.7825  135.6508  155.9720 H   0  0  0  0  0  0  0  0  0  0  0  0
  152.0257  134.3658  153.4030 H   0  0  0  0  0  0  0  0  0  0  0  0
  152.5975  133.7768  154.9314 H   0  0  0  0  0  0  0  0  0  0  0  0
  148.3230  133.8682  154.3340 H   0  0  0  0  0  0  0  0  0  0  0  0
  149.3351  135.2546  154.0457 H   0  0  0  0  0  0  0  0  0  0  0  0
  149.8471  134.5428  152.1062 H   0  0  0  0  0  0  0  0  0  0  0  0
  149.9817  131.6288  153.5312 H   0  0  0  0  0  0  0  0  0  0  0  0
  151.5832  131.5974  154.3446 H   0  0  0  0  0  0  0  0  0  0  0  0
  151.0028  133.1115  156.7545 H   0  0  0  0  0  0  0  0  0  0  0  0
  149.2619  133.4821  156.5074 H   0  0  0  0  0  0  0  0  0  0  0  0
  153.7751  139.7142  157.8980 H   0  0  0  0  0  0  0  0  0  0  0  0
  152.0621  139.4224  158.1363 H   0  0  0  0  0  0  0  0  0  0  0  0
  1  2  1  0  0  0  0
  1 28  1  0  0  0  0
  1 29  1  0  0  0  0
  1 30  1  0  0  0  0
  2  3  2  0  0  0  0
  2  4  1  0  0  0  0
  4  5  1  0  0  0  0
  4 31  1  0  0  0  0
  5  6  1  0  0  0  0
  5 32  1  0  0  0  0
  5 33  1  0  0  0  0
  6 27  1  0  0  0  0
  6  7  1  0  0  0  0
  6 34  1  0  0  0  0
  7  8  1  0  0  0  0
  7 35  1  0  0  0  0
  7 36  1  0  0  0  0
  8  9  1  0  0  0  0
  8 37  1  0  0  0  0
  8 38  1  0  0  0  0
  9 10  1  0  0  0  0
  9 39  1  0  0  0  0
  9 40  1  0  0  0  0
 10 11  1  0  0  0  0
 10 27  1  0  0  0  0
 11 16  1  0  0  0  0
 11 12  2  0  0  0  0
 12 13  1  0  0  0  0
 13 14  2  0  0  0  0
 13 41  1  0  0  0  0
 14 15  1  0  0  0  0
 15 19  1  0  0  0  0
 15 16  2  0  0  0  0
 16 17  1  0  0  0  0
 17 18  2  0  0  0  0
 18 19  1  0  0  0  0
 18 42  1  0  0  0  0
 19 20  1  0  0  0  0
 20 21  1  0  0  0  0
 20 43  1  0  0  0  0
 20 44  1  0  0  0  0
 21 26  1  0  0  0  0
 21 22  1  0  0  0  0
 21 24  1  0  0  0  0
 22 23  1  0  0  0  0
 22 45  1  0  0  0  0
 22 46  1  0  0  0  0
 23 47  1  0  0  0  0
 24 25  1  0  0  0  0
 24 48  1  0  0  0  0
 24 49  1  0  0  0  0
 25 26  1  0  0  0  0
 26 50  1  0  0  0  0
 26 51  1  0  0  0  0
 27 52  1  0  0  0  0
 27 53  1  0  0  0  0
M  END
> <s_m_source_file>
AV-unprocessed.smi

> <i_m_source_file_index>
204

> <i_lp_mmshare_version>
43012

> <i_f3d_flags>
0

> <s_epik_input>
W0NIM11DKD1PKVtOSF1bQ0gyXVtDQEBIXTFbQ0gyXVtDSDJdW0NIMl1OKFtDSDJdMSljKG5bY0hdbjIpYyhjMjMpbltjSF1uM1tDSDJdQzQoW0NIMl1bT0hdKVtDSDJdT1tDSDJdNA==

> <s_epik_cmdline>
J2VwaWtfcHl0aG9uJywgJy1waCcsICc3LjAnLCAnLXRuJywgJzgnLCAnLW1hJywgJzIwMCcsICctbWV0YWxfYmluZGluZycsICctaW1hZScsICc8aW5maWxlLm1hZT4nLCAnLW9tYWUnLCAnPG91dGZpbGUubWFlPic=

> <r_lp_tautomer_probability>
1

> <r_epik_Ionization_Penalty>
0.00166599

> <r_epik_Ionization_Penalty_Charging>
0

> <r_epik_Ionization_Penalty_Neutral>
0.00166599

> <r_epik_State_Penalty>
0.000989951

> <r_epik_Charging_Adjusted_Penalty>
0.000989951

> <i_epik_Tot_Q>
0

> <i_epik_Tot_abs_Q>
0

> <r_epik_Metal_State_Penalty>
-0

> <b_epik_Metal_Only>
0

> <s_lp_Force_Field>
OPLS_2005

> <r_lp_Energy>
36.8691

> <b_lp_Chiralities_Consistent>
1

> <s_lp_Variant>
AV-unprocessed.smi:204-1

> <Gold.Version>
5.8.1

> <Gold.Id.Protein>
6NUR|6NUR_protein|mol2

> <Gold.PLP.Fitness>
45.3578

> <Gold.PLP.PLP>
-38.3865

> <Gold.PLP.part.hbond>
-3.3459

> <Gold.PLP.part.metal>
0.0000

> <Gold.PLP.part.buried>
-5.8112

> <Gold.PLP.part.nonpolar>
-29.8913

> <Gold.PLP.part.repulsive>
0.1641

> <Gold.PLP.ligand.clash>
0.0000

> <Gold.PLP.ligand.torsion>
0.7876

> <Gold.PLP.Chemscore.Hbond>
2.6400

> <Gold.PLP.Chemscore.CHOScore>
0.0000

> <Gold.PLP.Chemscore.Metal>
0.0000

> <Gold.PLP.Chemscore.Internal.Correction>
0.6264

> <Gold.Rescore>
     Score         DG    S(hbond)    S(metal)    S(lipo)     H(rot)  DE(clash)    DE(int)     intcor
     11.42     -12.46       1.99        0.00      75.54       3.33       0.01       1.04       ----

> <Gold.Chemscore.Fitness>
11.4207

> <Gold.Chemscore.DG>
-12.4640

> <Gold.Chemscore.ZeroCoef>
-5.4800

> <Gold.Chemscore.Hbond>
1.9944

> <Gold.Chemscore.Metal>
0.0000

> <Gold.Chemscore.Lipo>
75.5360

> <Gold.Chemscore.Internal_Hbond>
0.0000

> <Gold.Chemscore.DEClash>
0.0052

> <Gold.Chemscore.DEInternal>
1.0382

> <Gold.Chemscore.Rot>
3.3261

> <Gold.Chemscore.Internal.Correction>
   9.000000E+99

> <Gold.Chemscore.Hbond.Weighted>
-6.6611

> <Gold.Chemscore.Metal.Weighted>
-0.0000

> <Gold.Chemscore.Lipo.Weighted>
-8.8377

> <Gold.Chemscore.Internal_Hbond.Weighted>
0.0000

> <Gold.Chemscore.DEClash.Weighted>
0.0052

> <Gold.Chemscore.DEInternal.Weighted>
1.0382

> <Gold.Chemscore.Rot.Weighted>
8.5149

> <Gold.Chemscore.Internal.Correction.Weighted>
   9.000000E+99

> <Gold.Protein.RotatedTorsions>
[ 6907 6896 6895 6894 ] final  -74.58 input  -60.11 | X-H torsion
[ 7974 7965 7964 7962 ] final -131.49 input  175.53 | X-H torsion
[ 8008 7997 7996 7995 ] final   89.56 input   59.86 | X-H torsion
[ 10167 10162 10161 10158 ] final  -37.05 input  -65.29 | X-H torsion
[ 10718 10713 10712 10709 ] final  -81.20 input   66.30 | X-H torsion
[ 10763 10752 10751 10750 ] final  -80.77 input  -60.55 | X-H torsion
[ 11005 11000 10999 10996 ] final -115.44 input  -57.11 | X-H torsion

> <Gold.Protein.ActiveResidues>
 VAL166  LYS551  ARG553  GLY616  TRP617  ASP618  TYR619  PRO620  LYS621  CYS622 
 ASP623  PHE694  ASN695  SER759  ASP760  ASP761  ALA762  ILE779  LEU786  VAL792 
 PHE793  MET794  SER795  GLU796  ALA797  LYS798  CYS799  TRP800  GLU811  SER814 

> <Gold.Protein.RotatedAtoms>
  150.7088  134.4848  159.5487 H   0  0  0  0  0  0  0  0  0  0  0  0  # atno 6907 bound_to 6896
  152.2478  134.8160  160.0459 H   0  0  0  0  0  0  0  0  0  0  0  0  # atno 6908 bound_to 6896
  151.8919  133.3483  159.3838 H   0  0  0  0  0  0  0  0  0  0  0  0  # atno 6909 bound_to 6896
  144.9374  140.7199  143.4868 H   0  0  0  0  0  0  0  0  0  0  0  0  # atno 7974 bound_to 7965
  156.0015  140.3359  155.6850 H   0  0  0  0  0  0  0  0  0  0  0  0  # atno 8008 bound_to 7997
  155.6284  140.0682  157.2674 H   0  0  0  0  0  0  0  0  0  0  0  0  # atno 8009 bound_to 7997
  154.4251  140.1764  156.1433 H   0  0  0  0  0  0  0  0  0  0  0  0  # atno 8010 bound_to 7997
  140.7128  143.3367  151.2447 H   0  0  0  0  0  0  0  0  0  0  0  0  # atno 10167 bound_to 10162
  156.0055  130.4596  150.3916 H   0  0  0  0  0  0  0  0  0  0  0  0  # atno 10718 bound_to 10713
  154.5554  135.5649  153.6959 H   0  0  0  0  0  0  0  0  0  0  0  0  # atno 10763 bound_to 10752
  153.0002  135.6261  154.2318 H   0  0  0  0  0  0  0  0  0  0  0  0  # atno 10764 bound_to 10752
  154.2254  135.2868  155.2889 H   0  0  0  0  0  0  0  0  0  0  0  0  # atno 10765 bound_to 10752
  141.0487  133.9721  157.2873 H   0  0  0  0  0  0  0  0  0  0  0  0  # atno 11005 bound_to 11000
  145.3045  139.1839  143.4672 LP  0  0  0  0  0  0  0  0  0  0  0  0  # atno 17320 bound_to 7965
  146.3272  140.3041  142.8622 LP  0  0  0  0  0  0  0  0  0  0  0  0  # atno 17321 bound_to 7965
  139.6864  143.9766  152.2836 LP  0  0  0  0  0  0  0  0  0  0  0  0  # atno 17342 bound_to 10162
  139.9413  144.6679  150.8263 LP  0  0  0  0  0  0  0  0  0  0  0  0  # atno 17343 bound_to 10162
  157.1990  131.0433  151.2660 LP  0  0  0  0  0  0  0  0  0  0  0  0  # atno 17370 bound_to 10713
  157.3993  130.7324  149.6755 LP  0  0  0  0  0  0  0  0  0  0  0  0  # atno 17371 bound_to 10713
  139.9333  135.0198  156.8472 LP  0  0  0  0  0  0  0  0  0  0  0  0  # atno 17394 bound_to 11000
  140.6096  134.0095  155.7571 LP  0  0  0  0  0  0  0  0  0  0  0  0  # atno 17395 bound_to 11000

$$$$
