#       Name:                AV-unprocessed.smi:942
#       Creating user name   scv26
#       Creation time:       Fri Mar 27 02:13:17 2020


#       File generated by GOLD software.
#

@<TRIPOS>MOLECULE
AV-unprocessed.smi:942
    45    47     1
SMALL
NO_CHARGES


@<TRIPOS>ATOM
      1 ****         0.3150   1.9743   0.0759 O.2            1 S1                 0.0000
      2 ****        -0.0311   0.9484  -0.5111 C.2            1 S1                 0.0000
      3 ****         0.8371   0.0161  -0.9348 N.am           1 S1                 0.0000
      4 ****         2.2917   0.0689  -0.7706 C.3            1 S1                 0.0000
      5 ****         2.9791  -0.6382  -1.9584 C.3            1 S1                 0.0000
      6 ****         3.7538  -1.8319  -1.3816 C.3            1 S1                 0.0000
      7 ****         3.1330  -2.0914  -0.0111 C.3            1 S1                 0.0000
      8 ****         2.7914  -0.6841   0.4858 C.3            1 S1                 0.0000
      9 ****         1.9033  -0.6306   1.6622 N.pl3          1 S1                 0.0000
     10 ****         0.9314  -1.5226   2.0488 C.2            1 S1                 0.0000
     11 ****         0.3508  -1.0070   3.1785 C.2            1 S1                 0.0000
     12 ****         0.9814   0.1806   3.4308 N.pl3          1 S1                 1.0000
     13 ****         1.9209   0.4087   2.5081 C.2            1 S1                 0.0000
     14 ****        -1.5172   0.6664  -0.7662 C.3            1 S1                 0.0000
     15 ****        -2.1751   1.8156  -1.5602 C.3            1 S1                 0.0000
     16 ****        -3.6710   1.5494  -1.7952 C.3            1 S1                 0.0000
     17 ****        -4.4094   1.3133  -0.4682 C.3            1 S1                 0.0000
     18 ****        -3.7599   0.1750   0.3342 C.3            1 S1                 0.0000
     19 ****        -2.2635   0.4395   0.5661 C.3            1 S1                 0.0000
     20 ****         0.4638  -0.7939  -1.4085 H              1 S1                 0.0000
     21 ****         2.6174   1.1101  -0.7293 H              1 S1                 0.0000
     22 ****         2.2482  -0.9881  -2.6891 H              1 S1                 0.0000
     23 ****         3.6524   0.0374  -2.4871 H              1 S1                 0.0000
     24 ****         3.7153  -2.7081  -2.0293 H              1 S1                 0.0000
     25 ****         4.8031  -1.5603  -1.2590 H              1 S1                 0.0000
     26 ****         2.2337  -2.6942  -0.1390 H              1 S1                 0.0000
     27 ****         3.8068  -2.6250   0.6602 H              1 S1                 0.0000
     28 ****         3.7324  -0.2224   0.7921 H              1 S1                 0.0000
     29 ****         0.7197  -2.4328   1.5082 H              1 S1                 0.0000
     30 ****        -0.4484  -1.3827   3.8006 H              1 S1                 0.0000
     31 ****         2.5610   1.2712   2.4503 H              1 S1                 0.0000
     32 ****        -1.5970  -0.2453  -1.3613 H              1 S1                 0.0000
     33 ****        -2.0615   2.7587  -1.0233 H              1 S1                 0.0000
     34 ****        -1.6738   1.9456  -2.5203 H              1 S1                 0.0000
     35 ****        -4.1190   2.3910  -2.3243 H              1 S1                 0.0000
     36 ****        -3.7912   0.6785  -2.4407 H              1 S1                 0.0000
     37 ****        -4.3992   2.2298   0.1232 H              1 S1                 0.0000
     38 ****        -5.4572   1.0813  -0.6615 H              1 S1                 0.0000
     39 ****        -4.2692   0.0573   1.2912 H              1 S1                 0.0000
     40 ****        -3.8856  -0.7671  -0.2007 H              1 S1                 0.0000
     41 ****        -1.8270  -0.4041   1.1016 H              1 S1                 0.0000
     42 ****        -2.1493   1.3092   1.2151 H              1 S1                 0.0000
     43 ****         0.7646   0.8033   4.1989 H              1 S1                 0.0000
     44 ****         1.2836   2.1439   0.2575 LP             1 S1                 0.0000
     45 ****        -0.3727   2.6377   0.3709 LP             1 S1                 0.0000
@<TRIPOS>BOND
    1    1    2 2     
    2    2    3 am    
    3    2   14 1     
    4    3    4 1     
    5    3   20 1     
    6    4    8 1     
    7    4    5 1     
    8    4   21 1     
    9    5    6 1     
   10    5   22 1     
   11    5   23 1     
   12    6    7 1     
   13    6   24 1     
   14    6   25 1     
   15    7    8 1     
   16    7   26 1     
   17    7   27 1     
   18    8    9 1     
   19    8   28 1     
   20    9   13 1     
   21    9   10 1     
   22   10   11 2     
   23   10   29 1     
   24   11   12 1     
   25   11   30 1     
   26   12   13 2     
   27   12   43 1     
   28   13   31 1     
   29   14   19 1     
   30   14   15 1     
   31   14   32 1     
   32   15   16 1     
   33   15   33 1     
   34   15   34 1     
   35   16   17 1     
   36   16   35 1     
   37   16   36 1     
   38   17   18 1     
   39   17   37 1     
   40   17   38 1     
   41   18   19 1     
   42   18   39 1     
   43   18   40 1     
   44   19   41 1     
   45   19   42 1     
   46    1   44 1     
   47    1   45 1     
@<TRIPOS>SUBSTRUCTURE
      1 S1             1
@<TRIPOS>SET
LONE_PAIRS      STATIC     ATOMS    <user>   **** ""
2 44 45
DONOR_HYDROGENS      STATIC     ATOMS    <user>   **** ""
2 20 43
ATOM$BLUE        STATIC     ATOMS    COLORGROUP SYSTEM
2 44 45
ATOM$RED        STATIC     ATOMS    COLORGROUP SYSTEM
2 20 43
