#       Name:                AV-unprocessed.smi:1004
#       Creating user name   scv26
#       Creation time:       Fri Mar 27 02:26:17 2020


#       File generated by GOLD software.
#

@<TRIPOS>MOLECULE
AV-unprocessed.smi:1004
    46    47     1
SMALL
NO_CHARGES


@<TRIPOS>ATOM
      1 ****        -3.5039   5.6960  -1.9968 C.3            1 S1                 0.0000
      2 ****        -2.9362   4.4756  -1.3018 C.2            1 S1                 0.0000
      3 ****        -2.9564   4.3694   0.1422 C.2            1 S1                 0.0000
      4 ****        -2.4444   3.2740   0.7242 C.2            1 S1                 0.0000
      5 ****        -1.8872   2.2239  -0.0280 N.am           1 S1                 0.0000
      6 ****        -1.3454   1.0762   0.7185 C.3            1 S1                 0.0000
      7 ****         0.1729   1.1535   0.9355 C.2            1 S1                 0.0000
      8 ****         0.7768   2.2208   0.8190 O.2            1 S1                 0.0000
      9 ****         0.7769   0.0052   1.2704 N.am           1 S1                 0.0000
     10 ****         2.2072  -0.1318   1.5168 C.3            1 S1                 0.0000
     11 ****         2.5679  -1.5555   1.9745 C.3            1 S1                 0.0000
     12 ****         2.1169  -2.6425   1.0100 C.2            1 S1                 0.0000
     13 ****         1.2041  -3.5710   1.3571 C.2            1 S1                 0.0000
     14 ****         0.7048  -4.6650   0.4298 C.3            1 S1                 0.0000
     15 ****         1.0792  -4.4042  -1.0388 C.3            1 S1                 0.0000
     16 ****         2.5289  -3.9199  -1.1629 C.3            1 S1                 0.0000
     17 ****         2.7542  -2.6171  -0.3746 C.3            1 S1                 0.0000
     18 ****        -1.8341   2.2631  -1.3934 C.2            1 S1                 0.0000
     19 ****        -1.3430   1.3491  -2.0568 O.2            1 S1                 0.0000
     20 ****        -2.3984   3.4647  -2.0192 C.2            1 S1                 0.0000
     21 ****        -3.8773   6.4233  -1.2752 H              1 S1                 0.0000
     22 ****        -4.3282   5.4109  -2.6511 H              1 S1                 0.0000
     23 ****        -2.7358   6.1800  -2.6005 H              1 S1                 0.0000
     24 ****        -3.3732   5.1611   0.7473 H              1 S1                 0.0000
     25 ****        -2.4215   3.1359   1.7954 H              1 S1                 0.0000
     26 ****        -1.8244   0.9970   1.6954 H              1 S1                 0.0000
     27 ****        -1.5897   0.1444   0.2051 H              1 S1                 0.0000
     28 ****         0.2141  -0.8295   1.3490 H              1 S1                 0.0000
     29 ****         2.7535   0.1215   0.6070 H              1 S1                 0.0000
     30 ****         2.5161   0.5855   2.2787 H              1 S1                 0.0000
     31 ****         3.6470  -1.6356   2.1086 H              1 S1                 0.0000
     32 ****         2.1276  -1.7378   2.9559 H              1 S1                 0.0000
     33 ****         0.7872  -3.5687   2.3537 H              1 S1                 0.0000
     34 ****         1.1316  -5.6107   0.7651 H              1 S1                 0.0000
     35 ****        -0.3776  -4.7532   0.5263 H              1 S1                 0.0000
     36 ****         0.9281  -5.3087  -1.6287 H              1 S1                 0.0000
     37 ****         0.4128  -3.6480  -1.4558 H              1 S1                 0.0000
     38 ****         3.1981  -4.6940  -0.7852 H              1 S1                 0.0000
     39 ****         2.7911  -3.7706  -2.2106 H              1 S1                 0.0000
     40 ****         2.3331  -1.7763  -0.9267 H              1 S1                 0.0000
     41 ****         3.8243  -2.4294  -0.2811 H              1 S1                 0.0000
     42 ****        -2.3794   3.5383  -3.0969 H              1 S1                 0.0000
     43 ****         0.2782   3.0539   0.5797 LP             1 S1                 0.0000
     44 ****         1.7658   2.2541   0.9636 LP             1 S1                 0.0000
     45 ****        -0.9662   0.5446  -1.5977 LP             1 S1                 0.0000
     46 ****        -1.3210   1.4114  -3.0546 LP             1 S1                 0.0000
@<TRIPOS>BOND
    1    1    2 1     
    2    1   21 1     
    3    1   22 1     
    4    1   23 1     
    5    2   20 2     
    6    2    3 1     
    7    3    4 2     
    8    3   24 1     
    9    4    5 1     
   10    4   25 1     
   11    5    6 1     
   12    5   18 am    
   13    6    7 1     
   14    6   26 1     
   15    6   27 1     
   16    7    8 2     
   17    7    9 am    
   18    9   10 1     
   19    9   28 1     
   20   10   11 1     
   21   10   29 1     
   22   10   30 1     
   23   11   12 1     
   24   11   31 1     
   25   11   32 1     
   26   12   17 1     
   27   12   13 2     
   28   13   14 1     
   29   13   33 1     
   30   14   15 1     
   31   14   34 1     
   32   14   35 1     
   33   15   16 1     
   34   15   36 1     
   35   15   37 1     
   36   16   17 1     
   37   16   38 1     
   38   16   39 1     
   39   17   40 1     
   40   17   41 1     
   41   18   19 2     
   42   18   20 1     
   43   20   42 1     
   44    8   43 1     
   45    8   44 1     
   46   19   45 1     
   47   19   46 1     
@<TRIPOS>SUBSTRUCTURE
      1 S1             1
@<TRIPOS>SET
LONE_PAIRS      STATIC     ATOMS    <user>   **** ""
4 43 44 45 46
DONOR_HYDROGENS      STATIC     ATOMS    <user>   **** ""
1 28
ATOM$BLUE        STATIC     ATOMS    COLORGROUP SYSTEM
4 43 44 45 46
ATOM$RED        STATIC     ATOMS    COLORGROUP SYSTEM
1 28
