AV-unprocessed.smi:511|AV-procd|sdf|2764|dock8
  -GOLD-   2262023233D 1   1.00000     0.00000
 Structure written by MMmdl.
 46 48  0  0  0  0  0  0  0  0  2 V2000
  149.0343  131.0799  154.0637 C   0  0  0  0  0  0  0  0  0  0  0  0
  150.0511  131.9415  154.5441 O   0  0  0  0  0  0  0  0  0  0  0  0
  149.7734  133.3063  154.2829 C   0  0  0  0  0  0  0  0  0  0  0  0
  148.9596  133.8767  155.4505 C   0  0  0  0  0  0  0  0  0  0  0  0
  148.4794  135.2246  155.1586 N   0  0  0  0  0  0  0  0  0  0  0  0
  147.2143  135.6380  154.8756 C   0  0  0  0  0  0  0  0  0  0  0  0
  146.1299  134.7611  154.8842 N   0  0  0  0  0  0  0  0  0  0  0  0
  144.7284  135.1641  154.9854 C   0  0  0  0  0  0  0  0  0  0  0  0
  144.0222  135.0927  153.6183 C   0  0  0  0  0  0  0  0  0  0  0  0
  144.1396  133.7387  153.0265 N   0  3  0  0  0  0  0  0  0  0  0  0
  143.4671  133.6294  151.7146 C   0  0  0  0  0  0  0  0  0  0  0  0
  145.5469  133.2751  152.9870 C   0  0  0  0  0  0  0  0  0  0  0  0
  146.1947  133.3937  154.3773 C   0  0  0  0  0  0  0  0  0  0  0  0
  147.1051  136.9336  154.5680 N   0  0  0  0  0  0  0  0  0  0  0  0
  148.4074  137.3924  154.6926 C   0  0  0  0  0  0  0  0  0  0  0  0
  149.2454  136.3850  155.0431 C   0  0  0  0  0  0  0  0  0  0  0  0
  150.6891  136.5876  155.2176 C   0  0  0  0  0  0  0  0  0  0  0  0
  151.4680  135.6861  155.5189 O   0  0  0  0  0  0  0  0  0  0  0  0
  151.0732  137.8708  155.0098 N   0  0  0  0  0  0  0  0  0  0  0  0
  150.2815  138.9319  154.6634 C   0  0  0  0  0  0  0  0  0  0  0  0
  150.7848  140.0450  154.5157 O   0  0  0  0  0  0  0  0  0  0  0  0
  148.9391  138.6966  154.4951 N   0  0  0  0  0  0  0  0  0  0  0  0
  148.0069  139.7621  154.1214 C   0  0  0  0  0  0  0  0  0  0  0  0
  152.0574  138.0665  155.1221 H   0  0  0  0  0  0  0  0  0  0  0  0
  149.2927  130.0456  154.2910 H   0  0  0  0  0  0  0  0  0  0  0  0
  148.9200  131.1683  152.9826 H   0  0  0  0  0  0  0  0  0  0  0  0
  148.0760  131.2987  154.5367 H   0  0  0  0  0  0  0  0  0  0  0  0
  150.7049  133.8614  154.1624 H   0  0  0  0  0  0  0  0  0  0  0  0
  149.2102  133.4009  153.3531 H   0  0  0  0  0  0  0  0  0  0  0  0
  148.1250  133.2138  155.6625 H   0  0  0  0  0  0  0  0  0  0  0  0
  149.5554  133.8989  156.3626 H   0  0  0  0  0  0  0  0  0  0  0  0
  144.2210  134.5299  155.7134 H   0  0  0  0  0  0  0  0  0  0  0  0
  144.6600  136.1869  155.3553 H   0  0  0  0  0  0  0  0  0  0  0  0
  142.9694  135.3536  153.7316 H   0  0  0  0  0  0  0  0  0  0  0  0
  144.4616  135.8249  152.9385 H   0  0  0  0  0  0  0  0  0  0  0  0
  143.9371  134.2812  150.9770 H   0  0  0  0  0  0  0  0  0  0  0  0
  142.4158  133.9073  151.7966 H   0  0  0  0  0  0  0  0  0  0  0  0
  143.5126  132.6047  151.3441 H   0  0  0  0  0  0  0  0  0  0  0  0
  145.5830  132.2390  152.6488 H   0  0  0  0  0  0  0  0  0  0  0  0
  146.1083  133.8679  152.2626 H   0  0  0  0  0  0  0  0  0  0  0  0
  147.2360  133.0721  154.3305 H   0  0  0  0  0  0  0  0  0  0  0  0
  145.6988  132.7268  155.0842 H   0  0  0  0  0  0  0  0  0  0  0  0
  148.4889  140.7121  153.8885 H   0  0  0  0  0  0  0  0  0  0  0  0
  147.3029  139.9404  154.9345 H   0  0  0  0  0  0  0  0  0  0  0  0
  147.4351  139.4673  153.2408 H   0  0  0  0  0  0  0  0  0  0  0  0
  143.6538  133.1131  153.6534 H   0  0  0  0  0  0  0  0  0  0  0  0
  1  2  1  0  0  0  0
  1 25  1  0  0  0  0
  1 26  1  0  0  0  0
  1 27  1  0  0  0  0
  2  3  1  0  0  0  0
  3  4  1  0  0  0  0
  3 28  1  0  0  0  0
  3 29  1  0  0  0  0
  4  5  1  0  0  0  0
  4 30  1  0  0  0  0
  4 31  1  0  0  0  0
  5 16  1  0  0  0  0
  5  6  1  0  0  0  0
  6  7  1  0  0  0  0
  6 14  2  0  0  0  0
  7 13  1  0  0  0  0
  7  8  1  0  0  0  0
  8  9  1  0  0  0  0
  8 32  1  0  0  0  0
  8 33  1  0  0  0  0
  9 10  1  0  0  0  0
  9 34  1  0  0  0  0
  9 35  1  0  0  0  0
 10 11  1  0  0  0  0
 10 12  1  0  0  0  0
 10 46  1  0  0  0  0
 11 36  1  0  0  0  0
 11 37  1  0  0  0  0
 11 38  1  0  0  0  0
 12 13  1  0  0  0  0
 12 39  1  0  0  0  0
 12 40  1  0  0  0  0
 13 41  1  0  0  0  0
 13 42  1  0  0  0  0
 14 15  1  0  0  0  0
 15 22  1  0  0  0  0
 15 16  2  0  0  0  0
 16 17  1  0  0  0  0
 17 18  2  0  0  0  0
 17 19  1  0  0  0  0
 19 24  1  0  0  0  0
 19 20  1  0  0  0  0
 20 21  2  0  0  0  0
 20 22  1  0  0  0  0
 22 23  1  0  0  0  0
 23 43  1  0  0  0  0
 23 44  1  0  0  0  0
 23 45  1  0  0  0  0
M  CHG  1  10   1
M  END
> <s_m_source_file>
AV-unprocessed.smi

> <i_m_source_file_index>
511

> <i_lp_mmshare_version>
43012

> <i_f3d_flags>
0

> <s_epik_input>
W0NIM11uMWMoPU8pW25IXWMoPU8pYyhjMTIpbihbQ0gyXVtDSDJdT1tDSDNdKWMobjIpTjNbQ0gyXVtDSDJdTihbQ0gzXSlbQ0gyXVtDSDJdMw==

> <s_epik_cmdline>
J2VwaWtfcHl0aG9uJywgJy1waCcsICc3LjAnLCAnLXRuJywgJzgnLCAnLW1hJywgJzIwMCcsICctbWV0YWxfYmluZGluZycsICctaW1hZScsICc8aW5maWxlLm1hZT4nLCAnLW9tYWUnLCAnPG91dGZpbGUubWFlPic=

> <r_epik_Ionization_Penalty>
0.064781

> <r_epik_Ionization_Penalty_Charging>
0.0647789

> <r_epik_Ionization_Penalty_Neutral>
2.1607e-06

> <r_epik_State_Penalty>
0.0564218

> <r_epik_Charging_Adjusted_Penalty>
0.121201

> <i_epik_Tot_Q>
1

> <i_epik_Tot_abs_Q>
1

> <r_epik_Metal_State_Penalty>
0.0833038

> <b_epik_Metal_Only>
0

> <s_lp_Force_Field>
OPLS_2005

> <r_lp_Energy>
49.4722

> <b_lp_Chiralities_Consistent>
1

> <s_lp_Variant>
AV-unprocessed.smi:511-1

> <Gold.Version>
5.8.1

> <Gold.Id.Protein>
6NUR|6NUR_protein|mol2

> <Gold.PLP.Fitness>
35.3604

> <Gold.PLP.PLP>
-24.1892

> <Gold.PLP.part.hbond>
-3.0000

> <Gold.PLP.part.metal>
0.0000

> <Gold.PLP.part.buried>
-4.3077

> <Gold.PLP.part.nonpolar>
-17.6322

> <Gold.PLP.part.repulsive>
0.3473

> <Gold.PLP.ligand.clash>
0.0000

> <Gold.PLP.ligand.torsion>
0.6939

> <Gold.PLP.Chemscore.Hbond>
4.0000

> <Gold.PLP.Chemscore.CHOScore>
0.0000

> <Gold.PLP.Chemscore.Metal>
0.0000

> <Gold.Chemscore.Hbonds>
donor molecule, donor type, donor heavy atom, donor atom, acceptor molecule, acceptor atom, score
      L1  H    10    46       P1 10957  2.00
      P1  H  7989  7998       L1    21  1.00
      P1  H 10752 10764       L1    18  1.00

> <Gold.PLP.Chemscore.Internal.Correction>
0.5589

> <Gold.Rescore>
     Score         DG    S(hbond)    S(metal)    S(lipo)     H(rot)  DE(clash)    DE(int)     intcor
     15.26     -16.13       2.97        0.00      39.31       1.51       0.07       0.79       ----

> <Gold.Chemscore.Fitness>
15.2607

> <Gold.Chemscore.DG>
-16.1271

> <Gold.Chemscore.ZeroCoef>
-5.4800

> <Gold.Chemscore.Hbond>
2.9672

> <Gold.Chemscore.Metal>
0.0000

> <Gold.Chemscore.Lipo>
39.3059

> <Gold.Chemscore.Internal_Hbond>
0.0000

> <Gold.Chemscore.DEClash>
0.0736

> <Gold.Chemscore.DEInternal>
0.7928

> <Gold.Chemscore.Rot>
1.5086

> <Gold.Chemscore.Internal.Correction>
   9.000000E+99

> <Gold.Chemscore.Hbonds>
donor molecule, donor type, donor heavy atom, donor atom, acceptor molecule, acceptor atom, score
      L1  H    10    46       P1 10957  0.90
      P1  H  7989  7998       L1    21  0.96
      P1  H 10752 10764       L1    18  0.98

> <Gold.Chemscore.Hbond.Weighted>
-9.9104

> <Gold.Chemscore.Metal.Weighted>
-0.0000

> <Gold.Chemscore.Lipo.Weighted>
-4.5988

> <Gold.Chemscore.Internal_Hbond.Weighted>
0.0000

> <Gold.Chemscore.DEClash.Weighted>
0.0736

> <Gold.Chemscore.DEInternal.Weighted>
0.7928

> <Gold.Chemscore.Rot.Weighted>
3.8620

> <Gold.Chemscore.Internal.Correction.Weighted>
   9.000000E+99

> <Gold.Protein.RotatedTorsions>
[ 6907 6896 6895 6894 ] final  133.26 input  -60.11 | X-H torsion
[ 7974 7965 7964 7962 ] final -124.32 input  175.53 | X-H torsion
[ 8008 7997 7996 7995 ] final   93.59 input   59.86 | X-H torsion
[ 10167 10162 10161 10158 ] final -151.89 input  -65.29 | X-H torsion
[ 10718 10713 10712 10709 ] final -117.33 input   66.30 | X-H torsion
[ 10763 10752 10751 10750 ] final  -51.22 input  -60.55 | X-H torsion
[ 11005 11000 10999 10996 ] final   66.99 input  -57.11 | X-H torsion

> <Gold.Protein.ActiveResidues>
 VAL166  LYS551  ARG553  GLY616  TRP617  ASP618  TYR619  PRO620  LYS621  CYS622 
 ASP623  PHE694  ASN695  SER759  ASP760  ASP761  ALA762  ILE779  LEU786  VAL792 
 PHE793  MET794  SER795  GLU796  ALA797  LYS798  CYS799  TRP800  GLU811  SER814 

> <Gold.Protein.RotatedAtoms>
  152.3238  133.5883  159.5762 H   0  0  0  0  0  0  0  0  0  0  0  0  # atno 6907 bound_to 6896
  150.7386  133.9971  159.3635 H   0  0  0  0  0  0  0  0  0  0  0  0  # atno 6908 bound_to 6896
  151.7852  135.0751  160.0430 H   0  0  0  0  0  0  0  0  0  0  0  0  # atno 6909 bound_to 6896
  145.0093  140.7891  143.4448 H   0  0  0  0  0  0  0  0  0  0  0  0  # atno 7974 bound_to 7965
  156.0484  140.3311  155.7323 H   0  0  0  0  0  0  0  0  0  0  0  0  # atno 8008 bound_to 7997
  155.5638  140.0621  157.2840 H   0  0  0  0  0  0  0  0  0  0  0  0  # atno 8009 bound_to 7997
  154.4424  140.1872  156.0798 H   0  0  0  0  0  0  0  0  0  0  0  0  # atno 8010 bound_to 7997
  139.7228  143.8930  152.2509 H   0  0  0  0  0  0  0  0  0  0  0  0  # atno 10167 bound_to 10162
  156.1026  130.6185  150.9151 H   0  0  0  0  0  0  0  0  0  0  0  0  # atno 10718 bound_to 10713
  154.1231  135.6531  153.4907 H   0  0  0  0  0  0  0  0  0  0  0  0  # atno 10763 bound_to 10752
  153.0219  135.5275  154.7077 H   0  0  0  0  0  0  0  0  0  0  0  0  # atno 10764 bound_to 10752
  154.6290  135.2974  155.0209 H   0  0  0  0  0  0  0  0  0  0  0  0  # atno 10765 bound_to 10752
  139.9798  134.6763  156.0284 H   0  0  0  0  0  0  0  0  0  0  0  0  # atno 11005 bound_to 11000
  145.2045  139.2235  143.5175 LP  0  0  0  0  0  0  0  0  0  0  0  0  # atno 17320 bound_to 7965
  146.3467  140.1869  142.8589 LP  0  0  0  0  0  0  0  0  0  0  0  0  # atno 17321 bound_to 7965
  139.8830  144.7007  150.8856 LP  0  0  0  0  0  0  0  0  0  0  0  0  # atno 17342 bound_to 10162
  140.7757  143.3646  151.1764 LP  0  0  0  0  0  0  0  0  0  0  0  0  # atno 17343 bound_to 10162
  157.6199  131.0930  150.8642 LP  0  0  0  0  0  0  0  0  0  0  0  0  # atno 17370 bound_to 10713
  156.8767  130.5165  149.5293 LP  0  0  0  0  0  0  0  0  0  0  0  0  # atno 17371 bound_to 10713
  141.1471  133.6554  156.3901 LP  0  0  0  0  0  0  0  0  0  0  0  0  # atno 17394 bound_to 11000
  140.5120  134.6386  157.5287 LP  0  0  0  0  0  0  0  0  0  0  0  0  # atno 17395 bound_to 11000

$$$$
