AV-unprocessed.smi:1258|AV-procd|sdf|5289|dock3
  -GOLD-   22720 4413D 1   1.00000     0.00000
 Structure written by MMmdl.
 33 34  0  0  0  0  0  0  0  0  1 V2000
  152.8582  142.4099  161.8953 C   0  0  0  0  0  0  0  0  0  0  0  0
  152.7413  143.1356  160.5474 C   0  0  2  0  0  0  0  0  0  0  0  0
  152.0233  144.4904  160.6976 C   0  0  0  0  0  0  0  0  0  0  0  0
  151.9059  145.2170  159.3488 C   0  0  0  0  0  0  0  0  0  0  0  0
  151.1982  144.3404  158.3045 C   0  0  0  0  0  0  0  0  0  0  0  0
  151.9087  142.9848  158.1379 C   0  0  2  0  0  0  0  0  0  0  0  0
  151.1774  142.1658  157.1755 N   0  0  0  0  0  0  0  0  0  0  0  0
  151.4801  140.9015  156.8434 C   0  0  0  0  0  0  0  0  0  0  0  0
  152.4207  140.2812  157.3419 O   0  0  0  0  0  0  0  0  0  0  0  0
  150.5734  140.2577  155.7872 C   0  0  0  0  0  0  0  0  0  0  0  0
  150.9370  138.8818  155.4950 N   0  0  0  0  0  0  0  0  0  0  0  0
  151.2998  138.2937  154.3532 C   0  0  0  0  0  0  0  0  0  0  0  0
  151.5459  137.0038  154.5242 N   0  0  0  0  0  0  0  0  0  0  0  0
  151.3092  136.8149  155.8755 N   0  0  0  0  0  0  0  0  0  0  0  0
  150.9480  137.9257  156.4570 N   0  0  0  0  0  0  0  0  0  0  0  0
  152.0301  142.2612  159.4958 C   0  0  0  0  0  0  0  0  0  0  0  0
  151.8758  142.1860  162.3122 H   0  0  0  0  0  0  0  0  0  0  0  0
  153.3983  143.0169  162.6223 H   0  0  0  0  0  0  0  0  0  0  0  0
  153.3971  141.4683  161.7881 H   0  0  0  0  0  0  0  0  0  0  0  0
  153.7542  143.3300  160.1916 H   0  0  0  0  0  0  0  0  0  0  0  0
  151.0272  144.3371  161.1152 H   0  0  0  0  0  0  0  0  0  0  0  0
  152.5608  145.1216  161.4062 H   0  0  0  0  0  0  0  0  0  0  0  0
  151.3628  146.1536  159.4774 H   0  0  0  0  0  0  0  0  0  0  0  0
  152.9005  145.4836  158.9890 H   0  0  0  0  0  0  0  0  0  0  0  0
  150.1626  144.1819  158.6094 H   0  0  0  0  0  0  0  0  0  0  0  0
  151.1634  144.8650  157.3488 H   0  0  0  0  0  0  0  0  0  0  0  0
  152.9111  143.1745  157.7486 H   0  0  0  0  0  0  0  0  0  0  0  0
  150.3884  142.5995  156.7185 H   0  0  0  0  0  0  0  0  0  0  0  0
  149.5396  140.2744  156.1347 H   0  0  0  0  0  0  0  0  0  0  0  0
  150.6151  140.8423  154.8669 H   0  0  0  0  0  0  0  0  0  0  0  0
  151.3814  138.8056  153.4056 H   0  0  0  0  0  0  0  0  0  0  0  0
  152.5771  141.3259  159.3707 H   0  0  0  0  0  0  0  0  0  0  0  0
  151.0370  141.9901  159.8578 H   0  0  0  0  0  0  0  0  0  0  0  0
  1  2  1  0  0  0  0
  1 17  1  0  0  0  0
  1 18  1  0  0  0  0
  1 19  1  0  0  0  0
  2 16  1  0  0  0  0
  2  3  1  0  0  0  0
  2 20  1  0  0  0  0
  3  4  1  0  0  0  0
  3 21  1  0  0  0  0
  3 22  1  0  0  0  0
  4  5  1  0  0  0  0
  4 23  1  0  0  0  0
  4 24  1  0  0  0  0
  5  6  1  0  0  0  0
  5 25  1  0  0  0  0
  5 26  1  0  0  0  0
  6  7  1  0  0  0  0
  6 16  1  0  0  0  0
  6 27  1  0  0  0  0
  7  8  1  0  0  0  0
  7 28  1  0  0  0  0
  8  9  2  0  0  0  0
  8 10  1  0  0  0  0
 10 11  1  0  0  0  0
 10 29  1  0  0  0  0
 10 30  1  0  0  0  0
 11 15  1  0  0  0  0
 11 12  1  0  0  0  0
 12 13  2  0  0  0  0
 12 31  1  0  0  0  0
 13 14  1  0  0  0  0
 14 15  2  0  0  0  0
 16 32  1  0  0  0  0
 16 33  1  0  0  0  0
M  END
> <s_m_source_file>
AV-unprocessed.smi

> <i_m_source_file_index>
1258

> <i_lp_mmshare_version>
43012

> <i_f3d_flags>
0

> <s_epik_input>
W0NIM11bQ0BASF0xW0NIMl1bQ0gyXVtDSDJdW0NASF0oW0NIMl0xKVtOSF1DKD1PKVtDSDJdbjJbY0hdbm5uMg==

> <s_epik_cmdline>
J2VwaWtfcHl0aG9uJywgJy1waCcsICc3LjAnLCAnLXRuJywgJzgnLCAnLW1hJywgJzIwMCcsICctbWV0YWxfYmluZGluZycsICctaW1hZScsICc8aW5maWxlLm1hZT4nLCAnLW9tYWUnLCAnPG91dGZpbGUubWFlPic=

> <r_lp_tautomer_probability>
1

> <r_epik_Ionization_Penalty>
5.03816e-07

> <r_epik_Ionization_Penalty_Charging>
0

> <r_epik_Ionization_Penalty_Neutral>
5.03816e-07

> <r_epik_State_Penalty>
-0

> <r_epik_Charging_Adjusted_Penalty>
0

> <i_epik_Tot_Q>
0

> <i_epik_Tot_abs_Q>
0

> <r_epik_Metal_State_Penalty>
-0

> <b_epik_Metal_Only>
0

> <s_lp_Force_Field>
OPLS_2005

> <r_lp_Energy>
11.1566

> <b_lp_Chiralities_Consistent>
1

> <s_lp_Variant>
AV-unprocessed.smi:1258-3

> <Gold.Version>
5.8.1

> <Gold.Id.Protein>
6NUR|6NUR_protein|mol2

> <Gold.PLP.Fitness>
43.5160

> <Gold.PLP.PLP>
-37.6604

> <Gold.PLP.part.hbond>
-2.3316

> <Gold.PLP.part.metal>
0.0000

> <Gold.PLP.part.buried>
-4.4043

> <Gold.PLP.part.nonpolar>
-30.6045

> <Gold.PLP.part.repulsive>
0.2553

> <Gold.PLP.ligand.clash>
0.0000

> <Gold.PLP.ligand.torsion>
0.0265

> <Gold.PLP.Chemscore.Hbond>
1.9680

> <Gold.PLP.Chemscore.CHOScore>
0.0000

> <Gold.PLP.Chemscore.Metal>
0.0000

> <Gold.Chemscore.Hbonds>
donor molecule, donor type, donor heavy atom, donor atom, acceptor molecule, acceptor atom, score
      P1  H  7997  8009       L1     9  0.87
      P1  H 10752 10763       L1    13  1.00

> <Gold.PLP.Chemscore.Internal.Correction>
0.0045

> <Gold.Rescore>
     Score         DG    S(hbond)    S(metal)    S(lipo)     H(rot)  DE(clash)    DE(int)     intcor
     15.75     -17.15       1.89        0.00      87.75       1.92       0.05       1.35       ----

> <Gold.Chemscore.Fitness>
15.7544

> <Gold.Chemscore.DG>
-17.1542

> <Gold.Chemscore.ZeroCoef>
-5.4800

> <Gold.Chemscore.Hbond>
1.8907

> <Gold.Chemscore.Metal>
0.0000

> <Gold.Chemscore.Lipo>
87.7497

> <Gold.Chemscore.Internal_Hbond>
0.0000

> <Gold.Chemscore.DEClash>
0.0536

> <Gold.Chemscore.DEInternal>
1.3461

> <Gold.Chemscore.Rot>
1.9169

> <Gold.Chemscore.Internal.Correction>
   9.000000E+99

> <Gold.Chemscore.Hbonds>
donor molecule, donor type, donor heavy atom, donor atom, acceptor molecule, acceptor atom, score
      P1  H  7997  8009       L1     9  0.81
      P1  H 10752 10763       L1    13  0.41

> <Gold.Chemscore.Hbond.Weighted>
-6.3148

> <Gold.Chemscore.Metal.Weighted>
-0.0000

> <Gold.Chemscore.Lipo.Weighted>
-10.2667

> <Gold.Chemscore.Internal_Hbond.Weighted>
0.0000

> <Gold.Chemscore.DEClash.Weighted>
0.0536

> <Gold.Chemscore.DEInternal.Weighted>
1.3461

> <Gold.Chemscore.Rot.Weighted>
4.9073

> <Gold.Chemscore.Internal.Correction.Weighted>
   9.000000E+99

> <Gold.Protein.RotatedTorsions>
[ 6907 6896 6895 6894 ] final  -97.14 input  -60.11 | X-H torsion
[ 7974 7965 7964 7962 ] final  109.13 input  175.53 | X-H torsion
[ 8008 7997 7996 7995 ] final  176.35 input   59.86 | X-H torsion
[ 10167 10162 10161 10158 ] final  120.37 input  -65.29 | X-H torsion
[ 10718 10713 10712 10709 ] final -158.11 input   66.30 | X-H torsion
[ 10763 10752 10751 10750 ] final   30.02 input  -60.55 | X-H torsion
[ 11005 11000 10999 10996 ] final    2.57 input  -57.11 | X-H torsion

> <Gold.Protein.ActiveResidues>
 VAL166  LYS551  ARG553  GLY616  TRP617  ASP618  TYR619  PRO620  LYS621  CYS622 
 ASP623  PHE694  ASN695  SER759  ASP760  ASP761  ALA762  ILE779  LEU786  VAL792 
 PHE793  MET794  SER795  GLU796  ALA797  LYS798  CYS799  TRP800  GLU811  SER814 

> <Gold.Protein.RotatedAtoms>
  150.7008  134.1394  159.4098 H   0  0  0  0  0  0  0  0  0  0  0  0  # atno 6907 bound_to 6896
  151.9379  135.0225  160.0543 H   0  0  0  0  0  0  0  0  0  0  0  0  # atno 6908 bound_to 6896
  152.2119  133.4883  159.5152 H   0  0  0  0  0  0  0  0  0  0  0  0  # atno 6909 bound_to 6896
  145.2718  139.2664  143.3962 H   0  0  0  0  0  0  0  0  0  0  0  0  # atno 7974 bound_to 7965
  156.0774  140.1386  156.9755 H   0  0  0  0  0  0  0  0  0  0  0  0  # atno 8008 bound_to 7997
  154.4565  140.0959  156.6822 H   0  0  0  0  0  0  0  0  0  0  0  0  # atno 8009 bound_to 7997
  155.5131  140.3454  155.4394 H   0  0  0  0  0  0  0  0  0  0  0  0  # atno 8010 bound_to 7997
  139.5986  144.7050  151.3116 H   0  0  0  0  0  0  0  0  0  0  0  0  # atno 10167 bound_to 10162
  156.5497  130.8599  151.2776 H   0  0  0  0  0  0  0  0  0  0  0  0  # atno 10718 bound_to 10713
  153.0396  135.6474  154.0980 H   0  0  0  0  0  0  0  0  0  0  0  0  # atno 10763 bound_to 10752
  154.0689  135.2882  155.3313 H   0  0  0  0  0  0  0  0  0  0  0  0  # atno 10764 bound_to 10752
  154.6607  135.5392  153.8079 H   0  0  0  0  0  0  0  0  0  0  0  0  # atno 10765 bound_to 10752
  140.6028  133.9820  155.8140 H   0  0  0  0  0  0  0  0  0  0  0  0  # atno 11005 bound_to 11000
  146.3244  140.3163  142.8630 LP  0  0  0  0  0  0  0  0  0  0  0  0  # atno 17320 bound_to 7965
  144.9328  140.7994  143.5678 LP  0  0  0  0  0  0  0  0  0  0  0  0  # atno 17321 bound_to 7965
  140.7232  143.7078  150.7794 LP  0  0  0  0  0  0  0  0  0  0  0  0  # atno 17342 bound_to 10162
  140.0649  143.5118  152.2609 LP  0  0  0  0  0  0  0  0  0  0  0  0  # atno 17343 bound_to 10162
  157.7390  130.9823  150.2286 LP  0  0  0  0  0  0  0  0  0  0  0  0  # atno 17370 bound_to 10713
  156.2896  130.3744  149.7854 LP  0  0  0  0  0  0  0  0  0  0  0  0  # atno 17371 bound_to 10713
  141.0860  133.9989  157.3312 LP  0  0  0  0  0  0  0  0  0  0  0  0  # atno 17394 bound_to 11000
  139.9225  135.0201  156.8116 LP  0  0  0  0  0  0  0  0  0  0  0  0  # atno 17395 bound_to 11000

$$$$
