#       Name:                AV-unprocessed.smi:1678
#       Creating user name   scv26
#       Creation time:       Fri Mar 27 07:47:21 2020


#       File generated by GOLD software.
#

@<TRIPOS>MOLECULE
AV-unprocessed.smi:1678
    48    49     1
SMALL
NO_CHARGES


@<TRIPOS>ATOM
      1 ****        -5.3450  -0.3972  -1.4427 C.3            1 S1                 0.0000
      2 ****        -5.2201   0.8958  -0.6531 C.ar           1 S1                 0.0000
      3 ****        -6.3818   1.6435  -0.3653 C.ar           1 S1                 0.0000
      4 ****        -6.2650   2.8390   0.3640 C.ar           1 S1                 0.0000
      5 ****        -4.9827   3.2392   0.7772 C.ar           1 S1                 0.0000
      6 ****        -3.8676   2.5312   0.5063 N.ar           1 S1                 0.0000
      7 ****        -3.9624   1.3744  -0.1966 C.ar           1 S1                 0.0000
      8 ****        -2.8282   0.5761  -0.5182 N.am           1 S1                 0.0000
      9 ****        -1.5375   0.7923  -0.2082 C.2            1 S1                 0.0000
     10 ****        -1.1073   1.7568   0.4253 O.2            1 S1                 0.0000
     11 ****        -0.7546  -0.1890  -0.6794 N.am           1 S1                 0.0000
     12 ****         0.6921  -0.2542  -0.5109 C.3            1 S1                 0.0000
     13 ****         1.0760  -0.7893   0.8816 C.3            1 S1                 0.0000
     14 ****         2.5341  -0.8703   1.0357 N.am           1 S1                 0.0000
     15 ****         3.1435  -2.1914   0.8094 C.3            1 S1                 0.0000
     16 ****         3.9933  -2.2732  -0.4807 C.3            1 S1                 0.0000
     17 ****         4.6670  -0.9653  -0.9406 C.3            1 S1                 0.0000
     18 ****         5.5084  -0.2505   0.1372 C.3            1 S1                 0.0000
     19 ****         4.7969   0.0560   1.4765 C.3            1 S1                 0.0000
     20 ****         3.2728   0.2196   1.3607 C.2            1 S1                 0.0000
     21 ****         2.7802   1.3299   1.5610 O.2            1 S1                 0.0000
     22 ****        -6.3852  -0.6140  -1.6881 H              1 S1                 0.0000
     23 ****        -4.9549  -1.2365  -0.8664 H              1 S1                 0.0000
     24 ****        -4.7873  -0.3282  -2.3771 H              1 S1                 0.0000
     25 ****        -7.3528   1.3075  -0.6983 H              1 S1                 0.0000
     26 ****        -7.1350   3.4335   0.6005 H              1 S1                 0.0000
     27 ****        -4.8473   4.1513   1.3394 H              1 S1                 0.0000
     28 ****        -3.0263  -0.2614  -1.0449 H              1 S1                 0.0000
     29 ****        -1.1886  -0.9435  -1.1905 H              1 S1                 0.0000
     30 ****         1.0925  -0.9119  -1.2829 H              1 S1                 0.0000
     31 ****         1.1302   0.7298  -0.6862 H              1 S1                 0.0000
     32 ****         0.6582  -0.1488   1.6605 H              1 S1                 0.0000
     33 ****         0.6142  -1.7642   1.0408 H              1 S1                 0.0000
     34 ****         3.7566  -2.4542   1.6716 H              1 S1                 0.0000
     35 ****         2.3874  -2.9761   0.7759 H              1 S1                 0.0000
     36 ****         4.7487  -3.0496  -0.3555 H              1 S1                 0.0000
     37 ****         3.3530  -2.6167  -1.2940 H              1 S1                 0.0000
     38 ****         5.3046  -1.1819  -1.7981 H              1 S1                 0.0000
     39 ****         3.9066  -0.2818  -1.3214 H              1 S1                 0.0000
     40 ****         6.3968  -0.8475   0.3460 H              1 S1                 0.0000
     41 ****         5.8784   0.6847  -0.2844 H              1 S1                 0.0000
     42 ****         5.0148  -0.7252   2.2045 H              1 S1                 0.0000
     43 ****         5.2218   0.9634   1.9076 H              1 S1                 0.0000
     44 ****        -2.9761   2.8566   0.8215 LP             1 S1                 0.0000
     45 ****        -1.7374   2.4600   0.7545 LP             1 S1                 0.0000
     46 ****        -0.1278   1.8366   0.6106 LP             1 S1                 0.0000
     47 ****         1.7914   1.4590   1.4865 LP             1 S1                 0.0000
     48 ****         3.3689   2.1026   1.7983 LP             1 S1                 0.0000
@<TRIPOS>BOND
    1    1    2 1     
    2    1   22 1     
    3    1   23 1     
    4    1   24 1     
    5    2    7 ar    
    6    2    3 ar    
    7    3    4 ar    
    8    3   25 1     
    9    4    5 ar    
   10    4   26 1     
   11    5    6 ar    
   12    5   27 1     
   13    6    7 ar    
   14    7    8 1     
   15    8    9 am    
   16    8   28 1     
   17    9   10 2     
   18    9   11 am    
   19   11   12 1     
   20   11   29 1     
   21   12   13 1     
   22   12   30 1     
   23   12   31 1     
   24   13   14 1     
   25   13   32 1     
   26   13   33 1     
   27   14   20 am    
   28   14   15 1     
   29   15   16 1     
   30   15   34 1     
   31   15   35 1     
   32   16   17 1     
   33   16   36 1     
   34   16   37 1     
   35   17   18 1     
   36   17   38 1     
   37   17   39 1     
   38   18   19 1     
   39   18   40 1     
   40   18   41 1     
   41   19   20 1     
   42   19   42 1     
   43   19   43 1     
   44   20   21 2     
   45    6   44 1     
   46   10   45 1     
   47   10   46 1     
   48   21   47 1     
   49   21   48 1     
@<TRIPOS>SUBSTRUCTURE
      1 S1             1
@<TRIPOS>SET
LONE_PAIRS      STATIC     ATOMS    <user>   **** ""
5 44 45 46 47 48
DONOR_HYDROGENS      STATIC     ATOMS    <user>   **** ""
2 28 29
ATOM$BLUE        STATIC     ATOMS    COLORGROUP SYSTEM
5 44 45 46 47 48
ATOM$RED        STATIC     ATOMS    COLORGROUP SYSTEM
2 28 29
