AV-unprocessed.smi:3048|AV-procd|sdf|11625|dock1
  -GOLD-   2272017 13D 1   1.00000     0.00000
 Structure written by MMmdl.
 38 39  0  0  0  0  0  0  0  0  2 V2000
  153.9877  140.6957  161.0127 C   0  0  0  0  0  0  0  0  0  0  0  0
  153.2481  141.9932  160.8576 C   0  0  0  0  0  0  0  0  0  0  0  0
  152.8094  142.8779  161.8834 C   0  0  0  0  0  0  0  0  0  0  0  0
  152.1875  143.9454  161.4098 N   0  0  0  0  0  0  0  0  0  0  0  0
  152.2018  143.7775  160.0703 N   0  0  0  0  0  0  0  0  0  0  0  0
  151.6083  144.7853  159.2098 C   0  0  0  0  0  0  0  0  0  0  0  0
  151.6775  144.3874  157.7271 C   0  0  0  0  0  0  0  0  0  0  0  0
  150.6781  143.3515  157.3976 N   0  3  0  0  0  0  0  0  0  0  0  0
  151.1783  142.2864  156.5075 C   0  0  0  0  0  0  0  0  0  0  0  0
  150.0335  141.3710  156.0517 C   0  0  2  0  0  0  0  0  0  0  0  0
  149.5079  140.4906  157.2019 C   0  0  0  0  0  0  0  0  0  0  0  0
  148.4339  139.5223  156.6929 C   0  0  0  0  0  0  0  0  0  0  0  0
  148.9729  138.7339  155.4946 C   0  0  0  0  0  0  0  0  0  0  0  0
  149.5355  139.6929  154.4338 C   0  0  0  0  0  0  0  0  0  0  0  0
  150.5327  140.5275  155.0152 O   0  0  0  0  0  0  0  0  0  0  0  0
  152.8359  142.6078  159.7092 C   0  0  0  0  0  0  0  0  0  0  0  0
  154.1845  140.4629  162.0594 H   0  0  0  0  0  0  0  0  0  0  0  0
  154.9511  140.7186  160.5032 H   0  0  0  0  0  0  0  0  0  0  0  0
  153.4235  139.8599  160.5988 H   0  0  0  0  0  0  0  0  0  0  0  0
  152.9266  142.7772  162.9524 H   0  0  0  0  0  0  0  0  0  0  0  0
  150.5681  144.9173  159.5098 H   0  0  0  0  0  0  0  0  0  0  0  0
  152.1060  145.7418  159.3786 H   0  0  0  0  0  0  0  0  0  0  0  0
  151.5144  145.2663  157.1018 H   0  0  0  0  0  0  0  0  0  0  0  0
  152.6720  144.0074  157.4910 H   0  0  0  0  0  0  0  0  0  0  0  0
  150.3435  142.9352  158.2546 H   0  0  0  0  0  0  0  0  0  0  0  0
  151.6690  142.7316  155.6408 H   0  0  0  0  0  0  0  0  0  0  0  0
  151.9313  141.7067  157.0433 H   0  0  0  0  0  0  0  0  0  0  0  0
  149.2187  141.9842  155.6618 H   0  0  0  0  0  0  0  0  0  0  0  0
  150.3315  139.9233  157.6378 H   0  0  0  0  0  0  0  0  0  0  0  0
  149.0999  141.1120  157.9997 H   0  0  0  0  0  0  0  0  0  0  0  0
  148.1255  138.8428  157.4879 H   0  0  0  0  0  0  0  0  0  0  0  0
  147.5459  140.0814  156.3955 H   0  0  0  0  0  0  0  0  0  0  0  0
  149.7604  138.0555  155.8255 H   0  0  0  0  0  0  0  0  0  0  0  0
  148.1853  138.1141  155.0650 H   0  0  0  0  0  0  0  0  0  0  0  0
  149.9828  139.1265  153.6168 H   0  0  0  0  0  0  0  0  0  0  0  0
  148.7418  140.3031  154.0002 H   0  0  0  0  0  0  0  0  0  0  0  0
  152.9448  142.3141  158.6753 H   0  0  0  0  0  0  0  0  0  0  0  0
  149.9002  143.8039  156.9373 H   0  0  0  0  0  0  0  0  0  0  0  0
  1  2  1  0  0  0  0
  1 17  1  0  0  0  0
  1 18  1  0  0  0  0
  1 19  1  0  0  0  0
  2 16  2  0  0  0  0
  2  3  1  0  0  0  0
  3  4  2  0  0  0  0
  3 20  1  0  0  0  0
  4  5  1  0  0  0  0
  5  6  1  0  0  0  0
  5 16  1  0  0  0  0
  6  7  1  0  0  0  0
  6 21  1  0  0  0  0
  6 22  1  0  0  0  0
  7  8  1  0  0  0  0
  7 23  1  0  0  0  0
  7 24  1  0  0  0  0
  8  9  1  0  0  0  0
  8 25  1  0  0  0  0
  8 38  1  0  0  0  0
  9 10  1  0  0  0  0
  9 26  1  0  0  0  0
  9 27  1  0  0  0  0
 10 15  1  0  0  0  0
 10 11  1  0  0  0  0
 10 28  1  0  0  0  0
 11 12  1  0  0  0  0
 11 29  1  0  0  0  0
 11 30  1  0  0  0  0
 12 13  1  0  0  0  0
 12 31  1  0  0  0  0
 12 32  1  0  0  0  0
 13 14  1  0  0  0  0
 13 33  1  0  0  0  0
 13 34  1  0  0  0  0
 14 15  1  0  0  0  0
 14 35  1  0  0  0  0
 14 36  1  0  0  0  0
 16 37  1  0  0  0  0
M  CHG  1   8   1
M  END
> <s_m_source_file>
AV-unprocessed.smi

> <i_m_source_file_index>
3048

> <i_lp_mmshare_version>
43012

> <i_f3d_flags>
0

> <s_epik_input>
W0NIM11jMVtjSF1ubihbY0hdMSlbQ0gyXVtDSDJdW05IXVtDSDJdW0NAQEhdMltDSDJdW0NIMl1bQ0gyXVtDSDJdTzI=

> <s_epik_cmdline>
J2VwaWtfcHl0aG9uJywgJy1waCcsICc3LjAnLCAnLXRuJywgJzgnLCAnLW1hJywgJzIwMCcsICctbWV0YWxfYmluZGluZycsICctaW1hZScsICc8aW5maWxlLm1hZT4nLCAnLW9tYWUnLCAnPG91dGZpbGUubWFlPic=

> <r_lp_tautomer_probability>
1

> <r_epik_Ionization_Penalty>
0.0084937

> <r_epik_Ionization_Penalty_Charging>
0.00848754

> <r_epik_Ionization_Penalty_Neutral>
6.1613e-06

> <r_epik_State_Penalty>
0.00639836

> <r_epik_Charging_Adjusted_Penalty>
0.0148859

> <i_epik_Tot_Q>
1

> <i_epik_Tot_abs_Q>
1

> <r_epik_Metal_State_Penalty>
0.00642541

> <b_epik_Metal_Only>
0

> <s_lp_Force_Field>
OPLS_2005

> <r_lp_Energy>
10.6877

> <b_lp_Chiralities_Consistent>
1

> <s_lp_Variant>
AV-unprocessed.smi:3048-1

> <Gold.Version>
5.8.1

> <Gold.Id.Protein>
6NUR|6NUR_protein|mol2

> <Gold.PLP.Fitness>
48.7588

> <Gold.PLP.PLP>
-40.5613

> <Gold.PLP.part.hbond>
-2.0000

> <Gold.PLP.part.metal>
0.0000

> <Gold.PLP.part.buried>
-6.3502

> <Gold.PLP.part.nonpolar>
-32.0805

> <Gold.PLP.part.repulsive>
0.2217

> <Gold.PLP.ligand.clash>
0.0000

> <Gold.PLP.ligand.torsion>
0.4370

> <Gold.PLP.Chemscore.Hbond>
2.9920

> <Gold.PLP.Chemscore.CHOScore>
0.0000

> <Gold.PLP.Chemscore.Metal>
0.0000

> <Gold.Chemscore.Hbonds>
donor molecule, donor type, donor heavy atom, donor atom, acceptor molecule, acceptor atom, score
      L1  H     8    38       P1  8028  2.00
      P1  H  7989  7998       L1    15  0.99

> <Gold.PLP.Chemscore.Internal.Correction>
0.0955

> <Gold.Rescore>
     Score         DG    S(hbond)    S(metal)    S(lipo)     H(rot)  DE(clash)    DE(int)     intcor
     18.89     -19.23       1.85        0.00     100.16       1.61       0.06       0.28       ----

> <Gold.Chemscore.Fitness>
18.8889

> <Gold.Chemscore.DG>
-19.2308

> <Gold.Chemscore.ZeroCoef>
-5.4800

> <Gold.Chemscore.Hbond>
1.8461

> <Gold.Chemscore.Metal>
0.0000

> <Gold.Chemscore.Lipo>
100.1612

> <Gold.Chemscore.Internal_Hbond>
0.0000

> <Gold.Chemscore.DEClash>
0.0579

> <Gold.Chemscore.DEInternal>
0.2840

> <Gold.Chemscore.Rot>
1.6149

> <Gold.Chemscore.Internal.Correction>
   9.000000E+99

> <Gold.Chemscore.Hbonds>
donor molecule, donor type, donor heavy atom, donor atom, acceptor molecule, acceptor atom, score
      L1  H     8    38       P1  8028  0.97
      P1  H  7989  7998       L1    15  0.28

> <Gold.Chemscore.Hbond.Weighted>
-6.1661

> <Gold.Chemscore.Metal.Weighted>
-0.0000

> <Gold.Chemscore.Lipo.Weighted>
-11.7189

> <Gold.Chemscore.Internal_Hbond.Weighted>
0.0000

> <Gold.Chemscore.DEClash.Weighted>
0.0579

> <Gold.Chemscore.DEInternal.Weighted>
0.2840

> <Gold.Chemscore.Rot.Weighted>
4.1341

> <Gold.Chemscore.Internal.Correction.Weighted>
   9.000000E+99

> <Gold.Protein.RotatedTorsions>
[ 6907 6896 6895 6894 ] final  -77.34 input  -60.11 | X-H torsion
[ 7974 7965 7964 7962 ] final  126.57 input  175.53 | X-H torsion
[ 8008 7997 7996 7995 ] final  147.21 input   59.86 | X-H torsion
[ 10167 10162 10161 10158 ] final -109.80 input  -65.29 | X-H torsion
[ 10718 10713 10712 10709 ] final  -66.42 input   66.30 | X-H torsion
[ 10763 10752 10751 10750 ] final  159.93 input  -60.55 | X-H torsion
[ 11005 11000 10999 10996 ] final  156.07 input  -57.11 | X-H torsion

> <Gold.Protein.ActiveResidues>
 VAL166  LYS551  ARG553  GLY616  TRP617  ASP618  TYR619  PRO620  LYS621  CYS622 
 ASP623  PHE694  ASN695  SER759  ASP760  ASP761  ALA762  ILE779  LEU786  VAL792 
 PHE793  MET794  SER795  GLU796  ALA797  LYS798  CYS799  TRP800  GLU811  SER814 

> <Gold.Protein.RotatedAtoms>
  150.7001  134.4437  159.5303 H   0  0  0  0  0  0  0  0  0  0  0  0  # atno 6907 bound_to 6896
  152.2142  134.8470  160.0503 H   0  0  0  0  0  0  0  0  0  0  0  0  # atno 6908 bound_to 6896
  151.9344  133.3585  159.3979 H   0  0  0  0  0  0  0  0  0  0  0  0  # atno 6909 bound_to 6896
  145.0602  139.3811  143.5010 H   0  0  0  0  0  0  0  0  0  0  0  0  # atno 7974 bound_to 7965
  156.2832  140.2161  156.5501 H   0  0  0  0  0  0  0  0  0  0  0  0  # atno 8008 bound_to 7997
  154.7298  140.0496  157.0738 H   0  0  0  0  0  0  0  0  0  0  0  0  # atno 8009 bound_to 7997
  155.0368  140.3141  155.4741 H   0  0  0  0  0  0  0  0  0  0  0  0  # atno 8010 bound_to 7997
  140.1514  143.4196  152.1492 H   0  0  0  0  0  0  0  0  0  0  0  0  # atno 10167 bound_to 10162
  156.0614  130.4262  150.1706 H   0  0  0  0  0  0  0  0  0  0  0  0  # atno 10718 bound_to 10713
  154.2394  135.2775  155.2859 H   0  0  0  0  0  0  0  0  0  0  0  0  # atno 10763 bound_to 10752
  154.5557  135.5662  153.6965 H   0  0  0  0  0  0  0  0  0  0  0  0  # atno 10764 bound_to 10752
  153.0003  135.6285  154.2538 H   0  0  0  0  0  0  0  0  0  0  0  0  # atno 10765 bound_to 10752
  140.1640  134.8589  157.2610 H   0  0  0  0  0  0  0  0  0  0  0  0  # atno 11005 bound_to 11000
  146.3524  140.0296  142.8651 LP  0  0  0  0  0  0  0  0  0  0  0  0  # atno 17320 bound_to 7965
  145.1418  140.9575  143.4484 LP  0  0  0  0  0  0  0  0  0  0  0  0  # atno 17321 bound_to 7965
  139.5424  144.7268  151.4691 LP  0  0  0  0  0  0  0  0  0  0  0  0  # atno 17342 bound_to 10162
  140.6700  143.8314  150.6988 LP  0  0  0  0  0  0  0  0  0  0  0  0  # atno 17343 bound_to 10162
  156.9773  130.9853  151.3445 LP  0  0  0  0  0  0  0  0  0  0  0  0  # atno 17370 bound_to 10713
  157.5624  130.8255  149.8284 LP  0  0  0  0  0  0  0  0  0  0  0  0  # atno 17371 bound_to 10713
  140.2455  134.3745  155.7463 LP  0  0  0  0  0  0  0  0  0  0  0  0  # atno 17394 bound_to 11000
  141.2212  133.7288  156.8855 LP  0  0  0  0  0  0  0  0  0  0  0  0  # atno 17395 bound_to 11000

$$$$
