AV-unprocessed.smi:1586|AV-procd|sdf|6373|dock2
  -GOLD-   22720 7 03D 1   1.00000     0.00000
 Structure written by MMmdl.
 47 48  0  0  0  0  0  0  0  0  2 V2000
  145.3874  133.3498  150.6560 C   0  0  0  0  0  0  0  0  0  0  0  0
  144.3797  133.1117  151.7899 C   0  0  0  0  0  0  0  0  0  0  0  0
  145.0322  132.7233  153.0654 N   0  3  0  0  0  0  0  0  0  0  0  0
  145.8449  133.8071  153.6733 C   0  0  0  0  0  0  0  0  0  0  0  0
  146.4687  133.3288  155.0014 C   0  0  0  0  0  0  0  0  0  0  0  0
  147.3462  132.1656  154.8066 N   0  0  0  0  0  0  0  0  0  0  0  0
  148.5750  132.4118  154.0188 C   0  0  2  0  0  0  0  0  0  0  0  0
  149.1655  131.0746  153.5123 C   0  0  0  0  0  0  0  0  0  0  0  0
  149.6427  133.1924  154.8347 C   0  0  0  0  0  0  0  0  0  0  0  0
  149.8265  134.5595  154.3564 N   0  0  0  0  0  0  0  0  0  0  0  0
  150.6249  135.4676  154.9373 C   0  0  0  0  0  0  0  0  0  0  0  0
  151.2818  135.2389  155.9542 O   0  0  0  0  0  0  0  0  0  0  0  0
  150.6094  136.6347  154.2715 N   0  0  0  0  0  0  0  0  0  0  0  0
  151.3318  137.8148  154.5836 C   0  0  0  0  0  0  0  0  0  0  0  0
  150.7125  138.8871  155.2788 C   0  0  0  0  0  0  0  0  0  0  0  0
  151.7161  139.8094  155.3789 C   0  0  0  0  0  0  0  0  0  0  0  0
  151.7853  141.1713  155.9804 C   0  0  0  0  0  0  0  0  0  0  0  0
  152.8516  139.3394  154.7951 O   0  0  0  0  0  0  0  0  0  0  0  0
  152.5993  138.0593  154.2879 N   0  0  0  0  0  0  0  0  0  0  0  0
  146.4822  131.0974  154.2810 C   0  0  0  0  0  0  0  0  0  0  0  0
  145.8367  131.4835  152.9310 C   0  0  0  0  0  0  0  0  0  0  0  0
  144.8803  133.7272  149.7678 H   0  0  0  0  0  0  0  0  0  0  0  0
  145.9016  132.4336  150.3665 H   0  0  0  0  0  0  0  0  0  0  0  0
  146.1399  134.0847  150.9430 H   0  0  0  0  0  0  0  0  0  0  0  0
  143.8251  134.0383  151.9448 H   0  0  0  0  0  0  0  0  0  0  0  0
  143.6470  132.3574  151.4995 H   0  0  0  0  0  0  0  0  0  0  0  0
  146.6114  134.1463  152.9754 H   0  0  0  0  0  0  0  0  0  0  0  0
  145.2126  134.6697  153.8803 H   0  0  0  0  0  0  0  0  0  0  0  0
  146.9871  134.1434  155.5028 H   0  0  0  0  0  0  0  0  0  0  0  0
  145.6702  133.0501  155.6907 H   0  0  0  0  0  0  0  0  0  0  0  0
  148.3247  133.0130  153.1466 H   0  0  0  0  0  0  0  0  0  0  0  0
  150.1276  131.2160  153.0208 H   0  0  0  0  0  0  0  0  0  0  0  0
  148.5285  130.5954  152.7702 H   0  0  0  0  0  0  0  0  0  0  0  0
  149.3194  130.3728  154.3327 H   0  0  0  0  0  0  0  0  0  0  0  0
  149.3817  133.2708  155.8893 H   0  0  0  0  0  0  0  0  0  0  0  0
  150.6032  132.6780  154.7895 H   0  0  0  0  0  0  0  0  0  0  0  0
  149.3195  134.8258  153.5247 H   0  0  0  0  0  0  0  0  0  0  0  0
  150.0262  136.6825  153.4493 H   0  0  0  0  0  0  0  0  0  0  0  0
  149.6995  138.9702  155.6432 H   0  0  0  0  0  0  0  0  0  0  0  0
  151.0166  141.2991  156.7427 H   0  0  0  0  0  0  0  0  0  0  0  0
  151.6380  141.9368  155.2185 H   0  0  0  0  0  0  0  0  0  0  0  0
  152.7553  141.3412  156.4483 H   0  0  0  0  0  0  0  0  0  0  0  0
  147.0227  130.1570  154.1910 H   0  0  0  0  0  0  0  0  0  0  0  0
  145.6954  130.8972  155.0098 H   0  0  0  0  0  0  0  0  0  0  0  0
  145.1862  130.6713  152.6051 H   0  0  0  0  0  0  0  0  0  0  0  0
  146.5896  131.6048  152.1515 H   0  0  0  0  0  0  0  0  0  0  0  0
  144.2933  132.5095  153.7199 H   0  0  0  0  0  0  0  0  0  0  0  0
  1  2  1  0  0  0  0
  1 22  1  0  0  0  0
  1 23  1  0  0  0  0
  1 24  1  0  0  0  0
  2  3  1  0  0  0  0
  2 25  1  0  0  0  0
  2 26  1  0  0  0  0
  3 21  1  0  0  0  0
  3  4  1  0  0  0  0
  3 47  1  0  0  0  0
  4  5  1  0  0  0  0
  4 27  1  0  0  0  0
  4 28  1  0  0  0  0
  5  6  1  0  0  0  0
  5 29  1  0  0  0  0
  5 30  1  0  0  0  0
  6  7  1  0  0  0  0
  6 20  1  0  0  0  0
  7  8  1  0  0  0  0
  7  9  1  0  0  0  0
  7 31  1  0  0  0  0
  8 32  1  0  0  0  0
  8 33  1  0  0  0  0
  8 34  1  0  0  0  0
  9 10  1  0  0  0  0
  9 35  1  0  0  0  0
  9 36  1  0  0  0  0
 10 11  1  0  0  0  0
 10 37  1  0  0  0  0
 11 12  2  0  0  0  0
 11 13  1  0  0  0  0
 13 14  1  0  0  0  0
 13 38  1  0  0  0  0
 14 19  2  0  0  0  0
 14 15  1  0  0  0  0
 15 16  2  0  0  0  0
 15 39  1  0  0  0  0
 16 17  1  0  0  0  0
 16 18  1  0  0  0  0
 17 40  1  0  0  0  0
 17 41  1  0  0  0  0
 17 42  1  0  0  0  0
 18 19  1  0  0  0  0
 20 21  1  0  0  0  0
 20 43  1  0  0  0  0
 20 44  1  0  0  0  0
 21 45  1  0  0  0  0
 21 46  1  0  0  0  0
M  CHG  1   3   1
M  END
> <s_m_source_file>
AV-unprocessed.smi

> <i_m_source_file_index>
1586

> <i_lp_mmshare_version>
43012

> <i_f3d_flags>
0

> <s_epik_input>
W0NIM11bQ0gyXU4xW0NIMl1bQ0gyXU4oW0NIMl1bQ0gyXTEpW0NASF0oW0NIM10pW0NIMl1bTkhdQyg9TylbTkhdYzJbY0hdYyhbQ0gzXSlvbjI=

> <s_epik_cmdline>
J2VwaWtfcHl0aG9uJywgJy1waCcsICc3LjAnLCAnLXRuJywgJzgnLCAnLW1hJywgJzIwMCcsICctbWV0YWxfYmluZGluZycsICctaW1hZScsICc8aW5maWxlLm1hZT4nLCAnLW9tYWUnLCAnPG91dGZpbGUubWFlPic=

> <r_epik_Ionization_Penalty>
0.0459786

> <r_epik_Ionization_Penalty_Charging>
0.0453654

> <r_epik_Ionization_Penalty_Neutral>
0.000613264

> <r_epik_State_Penalty>
0.163057

> <r_epik_Charging_Adjusted_Penalty>
0.208422

> <i_epik_Tot_Q>
1

> <i_epik_Tot_abs_Q>
1

> <r_epik_Metal_State_Penalty>
0.17399

> <b_epik_Metal_Only>
0

> <s_lp_Force_Field>
OPLS_2005

> <r_lp_Energy>
17.9393

> <b_lp_Chiralities_Consistent>
1

> <s_lp_Variant>
AV-unprocessed.smi:1586-1

> <Gold.Version>
5.8.1

> <Gold.Id.Protein>
6NUR|6NUR_protein|mol2

> <Gold.PLP.Fitness>
40.6902

> <Gold.PLP.PLP>
-31.0772

> <Gold.PLP.part.hbond>
-6.3365

> <Gold.PLP.part.metal>
0.0000

> <Gold.PLP.part.buried>
-5.8302

> <Gold.PLP.part.nonpolar>
-19.4428

> <Gold.PLP.part.repulsive>
0.2602

> <Gold.PLP.ligand.clash>
0.0000

> <Gold.PLP.ligand.torsion>
1.7831

> <Gold.PLP.Chemscore.Hbond>
4.3725

> <Gold.PLP.Chemscore.CHOScore>
0.0000

> <Gold.PLP.Chemscore.Metal>
0.0000

> <Gold.Chemscore.Hbonds>
donor molecule, donor type, donor heavy atom, donor atom, acceptor molecule, acceptor atom, score
      L1  H     3    47       P1 10957  1.82
      L1  H    10    37       P1  7948  0.43
      L1  H    13    38       P1  7948  0.80
      P1  H  7997  8008       L1    18  0.78
      P1  H 10752 10763       L1    12  0.02

> <Gold.PLP.Chemscore.Internal.Correction>
0.0616

> <Gold.Rescore>
     Score         DG    S(hbond)    S(metal)    S(lipo)     H(rot)  DE(clash)    DE(int)     intcor
     13.98     -15.62       2.49        0.00      54.14       1.76       0.00       1.64       ----

> <Gold.Chemscore.Fitness>
13.9833

> <Gold.Chemscore.DG>
-15.6234

> <Gold.Chemscore.ZeroCoef>
-5.4800

> <Gold.Chemscore.Hbond>
2.4922

> <Gold.Chemscore.Metal>
0.0000

> <Gold.Chemscore.Lipo>
54.1406

> <Gold.Chemscore.Internal_Hbond>
0.0000

> <Gold.Chemscore.DEClash>
0.0000

> <Gold.Chemscore.DEInternal>
1.6401

> <Gold.Chemscore.Rot>
1.7637

> <Gold.Chemscore.Internal.Correction>
   9.000000E+99

> <Gold.Chemscore.Hbonds>
donor molecule, donor type, donor heavy atom, donor atom, acceptor molecule, acceptor atom, score
      L1  H     3    47       P1 10957  0.35
      L1  H    10    37       P1  7948  0.04
      L1  H    13    38       P1  7948  0.12
      P1  H  7997  8008       L1    18  0.38

> <Gold.Chemscore.Hbond.Weighted>
-8.3239

> <Gold.Chemscore.Metal.Weighted>
-0.0000

> <Gold.Chemscore.Lipo.Weighted>
-6.3345

> <Gold.Chemscore.Internal_Hbond.Weighted>
0.0000

> <Gold.Chemscore.DEClash.Weighted>
0.0000

> <Gold.Chemscore.DEInternal.Weighted>
1.6401

> <Gold.Chemscore.Rot.Weighted>
4.5150

> <Gold.Chemscore.Internal.Correction.Weighted>
   9.000000E+99

> <Gold.Protein.RotatedTorsions>
[ 6907 6896 6895 6894 ] final  -74.27 input  -60.11 | X-H torsion
[ 7974 7965 7964 7962 ] final  153.84 input  175.53 | X-H torsion
[ 8008 7997 7996 7995 ] final  -18.93 input   59.86 | X-H torsion
[ 10167 10162 10161 10158 ] final  -20.58 input  -65.29 | X-H torsion
[ 10718 10713 10712 10709 ] final  152.14 input   66.30 | X-H torsion
[ 10763 10752 10751 10750 ] final   56.48 input  -60.55 | X-H torsion
[ 11005 11000 10999 10996 ] final -106.01 input  -57.11 | X-H torsion

> <Gold.Protein.ActiveResidues>
 VAL166  LYS551  ARG553  GLY616  TRP617  ASP618  TYR619  PRO620  LYS621  CYS622 
 ASP623  PHE694  ASN695  SER759  ASP760  ASP761  ALA762  ILE779  LEU786  VAL792 
 PHE793  MET794  SER795  GLU796  ALA797  LYS798  CYS799  TRP800  GLU811  SER814 

> <Gold.Protein.RotatedAtoms>
  150.7099  134.4894  159.5508 H   0  0  0  0  0  0  0  0  0  0  0  0  # atno 6907 bound_to 6896
  152.2515  134.8125  160.0454 H   0  0  0  0  0  0  0  0  0  0  0  0  # atno 6908 bound_to 6896
  151.8871  133.3473  159.3822 H   0  0  0  0  0  0  0  0  0  0  0  0  # atno 6909 bound_to 6896
  144.8128  139.6854  143.6134 H   0  0  0  0  0  0  0  0  0  0  0  0  # atno 7974 bound_to 7965
  154.4871  140.2102  155.9630 H   0  0  0  0  0  0  0  0  0  0  0  0  # atno 8008 bound_to 7997
  156.1252  140.3206  155.8236 H   0  0  0  0  0  0  0  0  0  0  0  0  # atno 8009 bound_to 7997
  155.4396  140.0509  157.3002 H   0  0  0  0  0  0  0  0  0  0  0  0  # atno 8010 bound_to 7997
  140.7277  143.4709  151.0249 H   0  0  0  0  0  0  0  0  0  0  0  0  # atno 10167 bound_to 10162
  157.2616  131.0799  151.1662 H   0  0  0  0  0  0  0  0  0  0  0  0  # atno 10718 bound_to 10713
  152.9833  135.5674  154.5236 H   0  0  0  0  0  0  0  0  0  0  0  0  # atno 10763 bound_to 10752
  154.4720  135.2785  155.1637 H   0  0  0  0  0  0  0  0  0  0  0  0  # atno 10764 bound_to 10752
  154.3181  135.6274  153.5549 H   0  0  0  0  0  0  0  0  0  0  0  0  # atno 10765 bound_to 10752
  141.1026  133.8856  157.1803 H   0  0  0  0  0  0  0  0  0  0  0  0  # atno 11005 bound_to 11000
  146.2428  139.6036  142.9480 LP  0  0  0  0  0  0  0  0  0  0  0  0  # atno 17320 bound_to 7965
  145.5284  141.0428  143.2396 LP  0  0  0  0  0  0  0  0  0  0  0  0  # atno 17321 bound_to 7965
  139.8400  143.7576  152.3180 LP  0  0  0  0  0  0  0  0  0  0  0  0  # atno 17342 bound_to 10162
  139.7721  144.7473  151.0209 LP  0  0  0  0  0  0  0  0  0  0  0  0  # atno 17343 bound_to 10162
  157.3169  130.6918  149.6247 LP  0  0  0  0  0  0  0  0  0  0  0  0  # atno 17370 bound_to 10713
  155.9664  130.4347  150.5059 LP  0  0  0  0  0  0  0  0  0  0  0  0  # atno 17371 bound_to 10713
  139.9883  135.0074  156.9914 LP  0  0  0  0  0  0  0  0  0  0  0  0  # atno 17394 bound_to 11000
  140.4984  134.1122  155.7246 LP  0  0  0  0  0  0  0  0  0  0  0  0  # atno 17395 bound_to 11000

$$$$
