AV-unprocessed.smi:1990|AV-procd|sdf|8065|dock9
  -GOLD-   2272010273D 1   1.00000     0.00000
 Structure written by MMmdl.
 46 47  0  0  0  0  0  0  0  0  1 V2000
  152.3749  144.7051  159.2866 C   0  0  0  0  0  0  0  0  0  0  0  0
  152.1846  143.3746  158.5507 C   0  0  1  0  0  0  0  0  0  0  0  0
  152.6865  142.1813  159.3844 C   0  0  0  0  0  0  0  0  0  0  0  0
  152.3654  140.9243  158.7175 N   0  0  0  0  0  0  0  0  0  0  0  0
  153.0422  139.7867  159.2056 C   0  0  0  0  0  0  0  0  0  0  0  0
  152.3183  138.6150  159.5266 C   0  0  0  0  0  0  0  0  0  0  0  0
  153.0085  137.4896  160.0170 C   0  0  0  0  0  0  0  0  0  0  0  0
  154.4136  137.5598  160.1688 C   0  0  0  0  0  0  0  0  0  0  0  0
  155.2354  136.5107  160.6648 N   0  0  0  0  0  0  0  0  0  0  0  0
  155.1368  135.1809  160.4771 C   0  0  0  0  0  0  0  0  0  0  0  0
  154.3003  134.6348  159.7589 O   0  0  0  0  0  0  0  0  0  0  0  0
  156.1820  134.3309  161.2138 C   0  0  2  0  0  0  0  0  0  0  0  0
  157.0975  133.5709  160.2399 C   0  0  0  0  0  0  0  0  0  0  0  0
  155.3392  133.1330  162.3512 S   0  0  0  0  0  0  0  0  0  0  0  0
  154.3020  134.2217  163.4164 C   0  0  0  0  0  0  0  0  0  0  0  0
  154.4397  132.2764  161.5630 O   0  0  0  0  0  0  0  0  0  0  0  0
  156.3685  132.5100  163.1974 O   0  0  0  0  0  0  0  0  0  0  0  0
  155.0437  138.7740  159.8309 C   0  0  0  0  0  0  0  0  0  0  0  0
  154.3861  139.8555  159.3647 N   0  0  0  0  0  0  0  0  0  0  0  0
  150.9477  140.7911  158.3907 C   0  0  0  0  0  0  0  0  0  0  0  0
  150.4481  142.0115  157.5934 C   0  0  2  0  0  0  0  0  0  0  0  0
  150.9145  142.0184  156.1263 C   0  0  0  0  0  0  0  0  0  0  0  0
  150.7926  143.2190  158.2758 O   0  0  0  0  0  0  0  0  0  0  0  0
  153.4272  144.8839  159.5080 H   0  0  0  0  0  0  0  0  0  0  0  0
  151.8274  144.7165  160.2296 H   0  0  0  0  0  0  0  0  0  0  0  0
  152.0157  145.5388  158.6828 H   0  0  0  0  0  0  0  0  0  0  0  0
  152.7403  143.4262  157.6142 H   0  0  0  0  0  0  0  0  0  0  0  0
  153.7583  142.2849  159.5505 H   0  0  0  0  0  0  0  0  0  0  0  0
  152.2134  142.1846  160.3673 H   0  0  0  0  0  0  0  0  0  0  0  0
  151.2443  138.5742  159.4204 H   0  0  0  0  0  0  0  0  0  0  0  0
  152.4395  136.6112  160.2748 H   0  0  0  0  0  0  0  0  0  0  0  0
  156.0136  136.8143  161.2319 H   0  0  0  0  0  0  0  0  0  0  0  0
  156.8017  134.9800  161.8338 H   0  0  0  0  0  0  0  0  0  0  0  0
  157.5798  134.2496  159.5355 H   0  0  0  0  0  0  0  0  0  0  0  0
  156.5430  132.8283  159.6648 H   0  0  0  0  0  0  0  0  0  0  0  0
  157.8855  133.0450  160.7794 H   0  0  0  0  0  0  0  0  0  0  0  0
  153.8415  133.6223  164.2013 H   0  0  0  0  0  0  0  0  0  0  0  0
  153.5172  134.6871  162.8208 H   0  0  0  0  0  0  0  0  0  0  0  0
  154.9245  134.9921  163.8705 H   0  0  0  0  0  0  0  0  0  0  0  0
  156.1131  138.8848  159.9387 H   0  0  0  0  0  0  0  0  0  0  0  0
  150.7704  139.8803  157.8170 H   0  0  0  0  0  0  0  0  0  0  0  0
  150.3813  140.7030  159.3189 H   0  0  0  0  0  0  0  0  0  0  0  0
  149.3586  141.9719  157.5765 H   0  0  0  0  0  0  0  0  0  0  0  0
  150.5247  141.1507  155.5942 H   0  0  0  0  0  0  0  0  0  0  0  0
  152.0001  141.9900  156.0361 H   0  0  0  0  0  0  0  0  0  0  0  0
  150.5580  142.9094  155.6092 H   0  0  0  0  0  0  0  0  0  0  0  0
  1  2  1  0  0  0  0
  1 24  1  0  0  0  0
  1 25  1  0  0  0  0
  1 26  1  0  0  0  0
  2 23  1  0  0  0  0
  2  3  1  0  0  0  0
  2 27  1  0  0  0  0
  3  4  1  0  0  0  0
  3 28  1  0  0  0  0
  3 29  1  0  0  0  0
  4  5  1  0  0  0  0
  4 20  1  0  0  0  0
  5 19  1  0  0  0  0
  5  6  2  0  0  0  0
  6  7  1  0  0  0  0
  6 30  1  0  0  0  0
  7  8  2  0  0  0  0
  7 31  1  0  0  0  0
  8  9  1  0  0  0  0
  8 18  1  0  0  0  0
  9 10  1  0  0  0  0
  9 32  1  0  0  0  0
 10 11  2  0  0  0  0
 10 12  1  0  0  0  0
 12 13  1  0  0  0  0
 12 14  1  0  0  0  0
 12 33  1  0  0  0  0
 13 34  1  0  0  0  0
 13 35  1  0  0  0  0
 13 36  1  0  0  0  0
 14 15  1  0  0  0  0
 14 16  2  0  0  0  0
 14 17  2  0  0  0  0
 15 37  1  0  0  0  0
 15 38  1  0  0  0  0
 15 39  1  0  0  0  0
 18 19  2  0  0  0  0
 18 40  1  0  0  0  0
 20 21  1  0  0  0  0
 20 41  1  0  0  0  0
 20 42  1  0  0  0  0
 21 22  1  0  0  0  0
 21 23  1  0  0  0  0
 21 43  1  0  0  0  0
 22 44  1  0  0  0  0
 22 45  1  0  0  0  0
 22 46  1  0  0  0  0
M  END
> <s_m_source_file>
AV-unprocessed.smi

> <i_m_source_file_index>
1990

> <i_lp_mmshare_version>
43012

> <i_f3d_flags>
0

> <s_epik_input>
W0NIM11bQ0BASF0xW0NIMl1OKFtDSDJdW0NASF0oTzEpW0NIM10pYzJbY0hdW2NIXWMoW2NIXW4yKVtOSF1DKD1PKVtDQEhdKFtDSDNdKVMoPU8pKD1PKVtDSDNd

> <s_epik_cmdline>
J2VwaWtfcHl0aG9uJywgJy1waCcsICc3LjAnLCAnLXRuJywgJzgnLCAnLW1hJywgJzIwMCcsICctbWV0YWxfYmluZGluZycsICctaW1hZScsICc8aW5maWxlLm1hZT4nLCAnLW9tYWUnLCAnPG91dGZpbGUubWFlPic=

> <r_lp_tautomer_probability>
1

> <r_epik_Ionization_Penalty>
0.000334888

> <r_epik_Ionization_Penalty_Charging>
0

> <r_epik_Ionization_Penalty_Neutral>
0.000334888

> <r_epik_State_Penalty>
0.000200905

> <r_epik_Charging_Adjusted_Penalty>
0.000200905

> <i_epik_Tot_Q>
0

> <i_epik_Tot_abs_Q>
0

> <r_epik_Metal_State_Penalty>
-0

> <b_epik_Metal_Only>
0

> <s_lp_Force_Field>
OPLS_2005

> <r_lp_Energy>
21.5774

> <b_lp_Chiralities_Consistent>
1

> <s_lp_Variant>
AV-unprocessed.smi:1990-5

> <Gold.Version>
5.8.1

> <Gold.Id.Protein>
6NUR|6NUR_protein|mol2

> <Gold.PLP.Fitness>
36.7110

> <Gold.PLP.PLP>
-31.2736

> <Gold.PLP.part.hbond>
-2.0000

> <Gold.PLP.part.metal>
0.0000

> <Gold.PLP.part.buried>
-5.2313

> <Gold.PLP.part.nonpolar>
-24.1649

> <Gold.PLP.part.repulsive>
0.1469

> <Gold.PLP.ligand.clash>
0.0000

> <Gold.PLP.ligand.torsion>
0.5196

> <Gold.PLP.Chemscore.Hbond>
2.0000

> <Gold.PLP.Chemscore.CHOScore>
0.0000

> <Gold.PLP.Chemscore.Metal>
0.0000

> <Gold.Chemscore.Hbonds>
donor molecule, donor type, donor heavy atom, donor atom, acceptor molecule, acceptor atom, score
      P1  H  6896  6907       L1    11  1.00
      P1  H  7997  8009       L1    19  0.49

> <Gold.PLP.Chemscore.Internal.Correction>
0.4765

> <Gold.Rescore>
     Score         DG    S(hbond)    S(metal)    S(lipo)     H(rot)  DE(clash)    DE(int)     intcor
     15.89     -16.81       1.70        0.00      81.45       1.52       0.15       0.77       ----

> <Gold.Chemscore.Fitness>
15.8934

> <Gold.Chemscore.DG>
-16.8141

> <Gold.Chemscore.ZeroCoef>
-5.4800

> <Gold.Chemscore.Hbond>
1.7037

> <Gold.Chemscore.Metal>
0.0000

> <Gold.Chemscore.Lipo>
81.4454

> <Gold.Chemscore.Internal_Hbond>
0.0000

> <Gold.Chemscore.DEClash>
0.1537

> <Gold.Chemscore.DEInternal>
0.7670

> <Gold.Chemscore.Rot>
1.5177

> <Gold.Chemscore.Internal.Correction>
   9.000000E+99

> <Gold.Chemscore.Hbonds>
donor molecule, donor type, donor heavy atom, donor atom, acceptor molecule, acceptor atom, score
      P1  H  6896  6907       L1    11  0.99
      P1  H  7997  8009       L1    19  0.04

> <Gold.Chemscore.Hbond.Weighted>
-5.6903

> <Gold.Chemscore.Metal.Weighted>
-0.0000

> <Gold.Chemscore.Lipo.Weighted>
-9.5291

> <Gold.Chemscore.Internal_Hbond.Weighted>
0.0000

> <Gold.Chemscore.DEClash.Weighted>
0.1537

> <Gold.Chemscore.DEInternal.Weighted>
0.7670

> <Gold.Chemscore.Rot.Weighted>
3.8853

> <Gold.Chemscore.Internal.Correction.Weighted>
   9.000000E+99

> <Gold.Protein.RotatedTorsions>
[ 6907 6896 6895 6894 ] final   67.74 input  -60.11 | X-H torsion
[ 7974 7965 7964 7962 ] final  -27.16 input  175.53 | X-H torsion
[ 8008 7997 7996 7995 ] final  137.34 input   59.86 | X-H torsion
[ 10167 10162 10161 10158 ] final  -53.51 input  -65.29 | X-H torsion
[ 10718 10713 10712 10709 ] final   50.35 input   66.30 | X-H torsion
[ 10763 10752 10751 10750 ] final  140.59 input  -60.55 | X-H torsion
[ 11005 11000 10999 10996 ] final -158.22 input  -57.11 | X-H torsion

> <Gold.Protein.ActiveResidues>
 VAL166  LYS551  ARG553  GLY616  TRP617  ASP618  TYR619  PRO620  LYS621  CYS622 
 ASP623  PHE694  ASN695  SER759  ASP760  ASP761  ALA762  ILE779  LEU786  VAL792 
 PHE793  MET794  SER795  GLU796  ALA797  LYS798  CYS799  TRP800  GLU811  SER814 

> <Gold.Protein.RotatedAtoms>
  152.4573  134.5263  159.9797 H   0  0  0  0  0  0  0  0  0  0  0  0  # atno 6907 bound_to 6896
  151.5321  133.3441  159.2928 H   0  0  0  0  0  0  0  0  0  0  0  0  # atno 6908 bound_to 6896
  150.8522  134.7880  159.7080 H   0  0  0  0  0  0  0  0  0  0  0  0  # atno 6909 bound_to 6896
  146.1377  140.5115  142.8665 H   0  0  0  0  0  0  0  0  0  0  0  0  # atno 7974 bound_to 7965
  156.3002  140.2422  156.3893 H   0  0  0  0  0  0  0  0  0  0  0  0  # atno 8008 bound_to 7997
  154.8629  140.0419  157.1696 H   0  0  0  0  0  0  0  0  0  0  0  0  # atno 8009 bound_to 7997
  154.8877  140.2958  155.5392 H   0  0  0  0  0  0  0  0  0  0  0  0  # atno 8010 bound_to 7997
  140.6481  143.2548  151.4803 H   0  0  0  0  0  0  0  0  0  0  0  0  # atno 10167 bound_to 10162
  157.4876  130.8355  149.8164 H   0  0  0  0  0  0  0  0  0  0  0  0  # atno 10718 bound_to 10713
  153.9252  135.2996  155.3447 H   0  0  0  0  0  0  0  0  0  0  0  0  # atno 10763 bound_to 10752
  154.7555  135.4960  153.9370 H   0  0  0  0  0  0  0  0  0  0  0  0  # atno 10764 bound_to 10752
  153.1120  135.6761  153.9587 H   0  0  0  0  0  0  0  0  0  0  0  0  # atno 10765 bound_to 10752
  140.6560  134.4400  157.5235 H   0  0  0  0  0  0  0  0  0  0  0  0  # atno 11005 bound_to 11000
  144.7758  140.5735  143.6639 LP  0  0  0  0  0  0  0  0  0  0  0  0  # atno 17320 bound_to 7965
  145.5119  139.1479  143.3600 LP  0  0  0  0  0  0  0  0  0  0  0  0  # atno 17321 bound_to 7965
  139.5693  144.1967  152.1812 LP  0  0  0  0  0  0  0  0  0  0  0  0  # atno 17342 bound_to 10162
  140.1258  144.5332  150.6834 LP  0  0  0  0  0  0  0  0  0  0  0  0  # atno 17343 bound_to 10162
  156.0155  130.3815  150.2124 LP  0  0  0  0  0  0  0  0  0  0  0  0  # atno 17370 bound_to 10713
  157.0312  131.0008  151.3311 LP  0  0  0  0  0  0  0  0  0  0  0  0  # atno 17371 bound_to 10713
  139.9029  134.8514  156.1822 LP  0  0  0  0  0  0  0  0  0  0  0  0  # atno 17394 bound_to 11000
  141.0501  133.6893  156.1755 LP  0  0  0  0  0  0  0  0  0  0  0  0  # atno 17395 bound_to 11000

$$$$
