#       Name:                AV-unprocessed.smi:630
#       Creating user name   scv26
#       Creation time:       Fri Mar 27 00:04:42 2020


#       File generated by GOLD software.
#

@<TRIPOS>MOLECULE
AV-unprocessed.smi:630
    42    43     1
SMALL
NO_CHARGES


@<TRIPOS>ATOM
      1 ****        -2.7733   1.3707  -2.8572 N.am           1 S1                 0.0000
      2 ****        -1.6585   0.7144  -2.5245 C.2            1 S1                 0.0000
      3 ****        -0.5869   0.9294  -3.0883 O.2            1 S1                 0.0000
      4 ****        -1.7731  -0.3432  -1.4105 C.3            1 S1                 0.0000
      5 ****        -1.1679  -1.6844  -1.8852 C.3            1 S1                 0.0000
      6 ****        -1.3420  -2.8585  -0.9053 C.3            1 S1                 0.0000
      7 ****        -0.3728  -2.7950   0.2855 C.3            1 S1                 0.0000
      8 ****        -0.8260  -1.9228   1.4707 C.3            1 S1                 0.0000
      9 ****        -1.6516  -0.6622   1.1416 C.3            1 S1                 0.0000
     10 ****        -1.1962   0.1873  -0.0682 C.3            1 S1                 0.0000
     11 ****         0.2583   0.3663  -0.1096 N.am           1 S1                 0.0000
     12 ****         0.9825   1.1655   0.6869 C.2            1 S1                 0.0000
     13 ****         0.4219   1.8484   1.5474 O.2            1 S1                 0.0000
     14 ****         2.3118   1.1182   0.4426 N.pl3          1 S1                -1.0000
     15 ****         3.1558   1.8579   1.1799 C.2            1 S1                 0.0000
     16 ****         3.6844   3.0088   0.7490 N.2            1 S1                 0.0000
     17 ****         4.5380   3.6092   1.6762 C.2            1 S1                 0.0000
     18 ****         4.6686   2.8950   2.8373 C.2            1 S1                 0.0000
     19 ****         3.7204   1.4360   2.7991 S.3            1 S1                 0.0000
     20 ****        -2.7398   2.0791  -3.5757 H              1 S1                 0.0000
     21 ****        -3.6407   1.1640  -2.3840 H              1 S1                 0.0000
     22 ****        -2.8405  -0.5160  -1.2611 H              1 S1                 0.0000
     23 ****        -1.6480  -1.9628  -2.8245 H              1 S1                 0.0000
     24 ****        -0.1103  -1.5658  -2.1260 H              1 S1                 0.0000
     25 ****        -2.3756  -2.9446  -0.5686 H              1 S1                 0.0000
     26 ****        -1.1318  -3.7769  -1.4547 H              1 S1                 0.0000
     27 ****        -0.2042  -3.8053   0.6594 H              1 S1                 0.0000
     28 ****         0.6039  -2.4572  -0.0633 H              1 S1                 0.0000
     29 ****        -1.4153  -2.5361   2.1529 H              1 S1                 0.0000
     30 ****         0.0598  -1.6332   2.0375 H              1 S1                 0.0000
     31 ****        -2.6959  -0.9450   1.0060 H              1 S1                 0.0000
     32 ****        -1.6506  -0.0304   2.0307 H              1 S1                 0.0000
     33 ****        -1.6364   1.1764   0.0770 H              1 S1                 0.0000
     34 ****         0.7603  -0.1669  -0.8044 H              1 S1                 0.0000
     35 ****         5.0113   4.5465   1.4254 H              1 S1                 0.0000
     36 ****         5.2619   3.1341   3.7065 H              1 S1                 0.0000
     37 ****        -0.5337   1.6114  -3.8177 LP             1 S1                 0.0000
     38 ****         0.2312   0.4221  -2.8174 LP             1 S1                 0.0000
     39 ****        -0.5719   1.8057   1.6505 LP             1 S1                 0.0000
     40 ****         0.9611   2.4448   2.1420 LP             1 S1                 0.0000
     41 ****         2.6659   0.5327  -0.2867 LP             1 S1                 0.0000
     42 ****         3.4873   3.4008  -0.1496 LP             1 S1                 0.0000
@<TRIPOS>BOND
    1    1    2 am    
    2    1   20 1     
    3    1   21 1     
    4    2    3 2     
    5    2    4 1     
    6    4   10 1     
    7    4    5 1     
    8    4   22 1     
    9    5    6 1     
   10    5   23 1     
   11    5   24 1     
   12    6    7 1     
   13    6   25 1     
   14    6   26 1     
   15    7    8 1     
   16    7   27 1     
   17    7   28 1     
   18    8    9 1     
   19    8   29 1     
   20    8   30 1     
   21    9   10 1     
   22    9   31 1     
   23    9   32 1     
   24   10   11 1     
   25   10   33 1     
   26   11   12 am    
   27   11   34 1     
   28   12   13 2     
   29   12   14 1     
   30   14   15 1     
   31   15   19 1     
   32   15   16 2     
   33   16   17 1     
   34   17   18 2     
   35   17   35 1     
   36   18   19 1     
   37   18   36 1     
   38    3   37 1     
   39    3   38 1     
   40   13   39 1     
   41   13   40 1     
   42   14   41 1     
   43   16   42 1     
@<TRIPOS>SUBSTRUCTURE
      1 S1             1
@<TRIPOS>SET
LONE_PAIRS      STATIC     ATOMS    <user>   **** ""
6 37 38 39 40 41 42
DONOR_HYDROGENS      STATIC     ATOMS    <user>   **** ""
3 20 21 34
ATOM$BLUE        STATIC     ATOMS    COLORGROUP SYSTEM
6 37 38 39 40 41 42
ATOM$RED        STATIC     ATOMS    COLORGROUP SYSTEM
3 20 21 34
