AV-unprocessed.smi:798|AV-procd|sdf|3773|dock7
  -GOLD-   22720 1203D 1   1.00000     0.00000
 Structure written by MMmdl.
 34 36  0  0  0  0  0  0  0  0  1 V2000
  150.4977  135.9208  158.5070 O   0  0  0  0  0  0  0  0  0  0  0  0
  149.6581  136.7502  158.1560 C   0  0  0  0  0  0  0  0  0  0  0  0
  148.5199  137.0321  158.8138 N   0  0  0  0  0  0  0  0  0  0  0  0
  148.0335  136.4573  160.0179 C   0  0  0  0  0  0  0  0  0  0  0  0
  147.5956  137.1768  161.0630 N   0  0  0  0  0  0  0  0  0  0  0  0
  147.1776  136.3681  162.1120 N   0  0  0  0  0  0  0  0  0  0  0  0
  147.3167  135.0724  161.8173 C   0  0  0  0  0  0  0  0  0  0  0  0
  147.9723  134.7133  160.2292 S   0  0  0  0  0  0  0  0  0  0  0  0
  149.7690  137.4894  157.0430 N   0  0  0  0  0  0  0  0  0  0  0  0
  150.8873  137.4379  156.0991 C   0  0  2  0  0  0  0  0  0  0  0  0
  152.2395  137.7895  156.7682 C   0  0  2  0  0  0  0  0  0  0  0  0
  152.1501  139.1118  157.5601 C   0  0  0  0  0  0  0  0  0  0  0  0
  152.0275  140.1639  156.4434 C   0  0  0  0  0  0  0  0  0  0  0  0
  152.0946  139.3126  155.1580 C   0  0  1  0  0  0  0  0  0  0  0  0
  153.0803  138.2268  155.5730 C   0  0  0  0  0  0  0  0  0  0  0  0
  150.8074  138.4785  154.9438 C   0  0  2  0  0  0  0  0  0  0  0  0
  149.4967  139.2846  154.7964 C   0  0  0  0  0  0  0  0  0  0  0  0
  149.6814  140.3651  153.9068 O   0  0  0  0  0  0  0  0  0  0  0  0
  147.9285  137.7388  158.4024 H   0  0  0  0  0  0  0  0  0  0  0  0
  147.0316  134.3227  162.5405 H   0  0  0  0  0  0  0  0  0  0  0  0
  149.0296  138.1430  156.8302 H   0  0  0  0  0  0  0  0  0  0  0  0
  150.9618  136.4349  155.6738 H   0  0  0  0  0  0  0  0  0  0  0  0
  152.6636  136.9677  157.3459 H   0  0  0  0  0  0  0  0  0  0  0  0
  151.3208  139.1487  158.2661 H   0  0  0  0  0  0  0  0  0  0  0  0
  153.0652  139.2745  158.1309 H   0  0  0  0  0  0  0  0  0  0  0  0
  151.1181  140.7577  156.5217 H   0  0  0  0  0  0  0  0  0  0  0  0
  152.8689  140.8569  156.4857 H   0  0  0  0  0  0  0  0  0  0  0  0
  152.3952  139.8804  154.2768 H   0  0  0  0  0  0  0  0  0  0  0  0
  154.0623  138.6144  155.8505 H   0  0  0  0  0  0  0  0  0  0  0  0
  153.2073  137.4440  154.8229 H   0  0  0  0  0  0  0  0  0  0  0  0
  150.9343  137.9264  154.0105 H   0  0  0  0  0  0  0  0  0  0  0  0
  148.7108  138.6478  154.3897 H   0  0  0  0  0  0  0  0  0  0  0  0
  149.1338  139.6626  155.7514 H   0  0  0  0  0  0  0  0  0  0  0  0
  149.3717  140.1068  153.0521 H   0  0  0  0  0  0  0  0  0  0  0  0
  1  2  2  0  0  0  0
  2  3  1  0  0  0  0
  2  9  1  0  0  0  0
  3  4  1  0  0  0  0
  3 19  1  0  0  0  0
  4  8  1  0  0  0  0
  4  5  2  0  0  0  0
  5  6  1  0  0  0  0
  6  7  2  0  0  0  0
  7  8  1  0  0  0  0
  7 20  1  0  0  0  0
  9 10  1  0  0  0  0
  9 21  1  0  0  0  0
 10 16  1  0  0  0  0
 10 11  1  0  0  0  0
 10 22  1  0  0  0  0
 11 15  1  0  0  0  0
 11 12  1  0  0  0  0
 11 23  1  0  0  0  0
 12 13  1  0  0  0  0
 12 24  1  0  0  0  0
 12 25  1  0  0  0  0
 13 14  1  0  0  0  0
 13 26  1  0  0  0  0
 13 27  1  0  0  0  0
 14 15  1  0  0  0  0
 14 16  1  0  0  0  0
 14 28  1  0  0  0  0
 15 29  1  0  0  0  0
 15 30  1  0  0  0  0
 16 17  1  0  0  0  0
 16 31  1  0  0  0  0
 17 18  1  0  0  0  0
 17 32  1  0  0  0  0
 17 33  1  0  0  0  0
 18 34  1  0  0  0  0
M  END
> <s_m_source_file>
AV-unprocessed.smi

> <i_m_source_file_index>
798

> <i_lp_mmshare_version>
43012

> <i_f3d_flags>
0

> <s_epik_input>
W0NIMl0xW0NIMl1bQ0BASF0oW0NIMl0yKVtDQEBIXShbQ0gyXVtPSF0pW0NAQEhdKFtDQEhdMTIpW05IXUMoPU8pW05IXWMzbm5bY0hdczM=

> <s_epik_cmdline>
J2VwaWtfcHl0aG9uJywgJy1waCcsICc3LjAnLCAnLXRuJywgJzgnLCAnLW1hJywgJzIwMCcsICctbWV0YWxfYmluZGluZycsICctaW1hZScsICc8aW5maWxlLm1hZT4nLCAnLW9tYWUnLCAnPG91dGZpbGUubWFlPic=

> <r_lp_tautomer_probability>
1

> <r_epik_Ionization_Penalty>
0.000329046

> <r_epik_Ionization_Penalty_Charging>
0

> <r_epik_Ionization_Penalty_Neutral>
0.000329046

> <r_epik_State_Penalty>
-0

> <r_epik_Charging_Adjusted_Penalty>
0

> <i_epik_Tot_Q>
0

> <i_epik_Tot_abs_Q>
0

> <r_epik_Metal_State_Penalty>
0.173433

> <b_epik_Metal_Only>
0

> <s_lp_Force_Field>
OPLS_2005

> <r_lp_Energy>
50.5105

> <b_lp_Chiralities_Consistent>
1

> <s_lp_Variant>
AV-unprocessed.smi:798-5

> <Gold.Version>
5.8.1

> <Gold.Id.Protein>
6NUR|6NUR_protein|mol2

> <Gold.PLP.Fitness>
39.4388

> <Gold.PLP.PLP>
-27.4530

> <Gold.PLP.part.hbond>
-4.8708

> <Gold.PLP.part.metal>
0.0000

> <Gold.PLP.part.buried>
-3.2126

> <Gold.PLP.part.nonpolar>
-19.4162

> <Gold.PLP.part.repulsive>
0.1649

> <Gold.PLP.ligand.clash>
0.0000

> <Gold.PLP.ligand.torsion>
0.5274

> <Gold.PLP.Chemscore.Hbond>
4.3440

> <Gold.PLP.Chemscore.CHOScore>
0.0000

> <Gold.PLP.Chemscore.Metal>
0.0000

> <Gold.Chemscore.Hbonds>
donor molecule, donor type, donor heavy atom, donor atom, acceptor molecule, acceptor atom, score
      L1  H    18    34       P1  7957  0.99
      P1  H  6896  6908       L1     1  0.85
      P1  H  6931  6943       L1     5  0.90
      P1  H  6934  6947       L1     5  0.93
      P1  H  7989  7998       L1    18  0.67

> <Gold.PLP.Chemscore.Internal.Correction>
0.0087

> <Gold.Rescore>
     Score         DG    S(hbond)    S(metal)    S(lipo)     H(rot)  DE(clash)    DE(int)     intcor
     19.60     -20.35       3.93        0.00      57.44       1.94       0.12       0.63       ----

> <Gold.Chemscore.Fitness>
19.5998

> <Gold.Chemscore.DG>
-20.3510

> <Gold.Chemscore.ZeroCoef>
-5.4800

> <Gold.Chemscore.Hbond>
3.9306

> <Gold.Chemscore.Metal>
0.0000

> <Gold.Chemscore.Lipo>
57.4352

> <Gold.Chemscore.Internal_Hbond>
0.0000

> <Gold.Chemscore.DEClash>
0.1214

> <Gold.Chemscore.DEInternal>
0.6297

> <Gold.Chemscore.Rot>
1.9442

> <Gold.Chemscore.Internal.Correction>
   9.000000E+99

> <Gold.Chemscore.Hbonds>
donor molecule, donor type, donor heavy atom, donor atom, acceptor molecule, acceptor atom, score
      L1  H    18    34       P1  7957  0.94
      P1  H  6896  6908       L1     1  0.82
      P1  H  6931  6943       L1     5  0.29
      P1  H  6934  6947       L1     5  0.90
      P1  H  7989  7998       L1    18  0.15

> <Gold.Chemscore.Hbond.Weighted>
-13.1282

> <Gold.Chemscore.Metal.Weighted>
-0.0000

> <Gold.Chemscore.Lipo.Weighted>
-6.7199

> <Gold.Chemscore.Internal_Hbond.Weighted>
0.0000

> <Gold.Chemscore.DEClash.Weighted>
0.1214

> <Gold.Chemscore.DEInternal.Weighted>
0.6297

> <Gold.Chemscore.Rot.Weighted>
4.9771

> <Gold.Chemscore.Internal.Correction.Weighted>
   9.000000E+99

> <Gold.Protein.RotatedTorsions>
[ 6907 6896 6895 6894 ] final -171.16 input  -60.11 | X-H torsion
[ 7974 7965 7964 7962 ] final  107.18 input  175.53 | X-H torsion
[ 8008 7997 7996 7995 ] final -171.51 input   59.86 | X-H torsion
[ 10167 10162 10161 10158 ] final   19.35 input  -65.29 | X-H torsion
[ 10718 10713 10712 10709 ] final  109.25 input   66.30 | X-H torsion
[ 10763 10752 10751 10750 ] final -163.05 input  -60.55 | X-H torsion
[ 11005 11000 10999 10996 ] final   50.06 input  -57.11 | X-H torsion

> <Gold.Protein.ActiveResidues>
 VAL166  LYS551  ARG553  GLY616  TRP617  ASP618  TYR619  PRO620  LYS621  CYS622 
 ASP623  PHE694  ASN695  SER759  ASP760  ASP761  ALA762  ILE779  LEU786  VAL792 
 PHE793  MET794  SER795  GLU796  ALA797  LYS798  CYS799  TRP800  GLU811  SER814 

> <Gold.Protein.RotatedAtoms>
  151.5193  133.3469  159.2898 H   0  0  0  0  0  0  0  0  0  0  0  0  # atno 6907 bound_to 6896
  150.8662  134.8028  159.7131 H   0  0  0  0  0  0  0  0  0  0  0  0  # atno 6908 bound_to 6896
  152.4666  134.5070  159.9794 H   0  0  0  0  0  0  0  0  0  0  0  0  # atno 6909 bound_to 6896
  145.2969  139.2582  143.3834 H   0  0  0  0  0  0  0  0  0  0  0  0  # atno 7974 bound_to 7965
  155.9325  140.1094  157.1121 H   0  0  0  0  0  0  0  0  0  0  0  0  # atno 8008 bound_to 7997
  154.4073  140.1235  156.4886 H   0  0  0  0  0  0  0  0  0  0  0  0  # atno 8009 bound_to 7997
  155.7062  140.3471  155.4956 H   0  0  0  0  0  0  0  0  0  0  0  0  # atno 8010 bound_to 7997
  140.5586  143.9379  150.6626 H   0  0  0  0  0  0  0  0  0  0  0  0  # atno 10167 bound_to 10162
  157.6550  131.0910  150.6426 H   0  0  0  0  0  0  0  0  0  0  0  0  # atno 10718 bound_to 10713
  154.7158  135.3015  154.9126 H   0  0  0  0  0  0  0  0  0  0  0  0  # atno 10763 bound_to 10752
  154.0014  135.6706  153.4763 H   0  0  0  0  0  0  0  0  0  0  0  0  # atno 10764 bound_to 10752
  153.0792  135.5018  154.8383 H   0  0  0  0  0  0  0  0  0  0  0  0  # atno 10765 bound_to 10752
  140.1050  134.5030  155.8728 H   0  0  0  0  0  0  0  0  0  0  0  0  # atno 11005 bound_to 11000
  146.3165  140.3474  142.8653 LP  0  0  0  0  0  0  0  0  0  0  0  0  # atno 17320 bound_to 7965
  144.9125  140.7774  143.5798 LP  0  0  0  0  0  0  0  0  0  0  0  0  # atno 17321 bound_to 7965
  140.2824  143.3380  152.1139 LP  0  0  0  0  0  0  0  0  0  0  0  0  # atno 17342 bound_to 10162
  139.5059  144.6804  151.6023 LP  0  0  0  0  0  0  0  0  0  0  0  0  # atno 17343 bound_to 10162
  156.6733  130.4546  149.5650 LP  0  0  0  0  0  0  0  0  0  0  0  0  # atno 17370 bound_to 10713
  156.1982  130.6603  151.1137 LP  0  0  0  0  0  0  0  0  0  0  0  0  # atno 17371 bound_to 10713
  141.2116  133.6708  156.6593 LP  0  0  0  0  0  0  0  0  0  0  0  0  # atno 17394 bound_to 11000
  140.3168  134.8041  157.4220 LP  0  0  0  0  0  0  0  0  0  0  0  0  # atno 17395 bound_to 11000

$$$$
