AV-unprocessed.smi:2118|AV-procd|sdf|8629|dock7
  -GOLD-   2272011373D 1   1.00000     0.00000
 Structure written by MMmdl.
 39 40  0  0  0  0  0  0  0  0  2 V2000
  152.1537  144.0273  160.2933 C   0  0  0  0  0  0  0  0  0  0  0  0
  151.8956  142.7127  159.5434 C   0  0  0  0  0  0  0  0  0  0  0  0
  153.1973  141.9538  159.2567 C   0  0  0  0  0  0  0  0  0  0  0  0
  152.9314  140.6365  158.5086 C   0  0  0  0  0  0  0  0  0  0  0  0
  152.1631  140.8550  157.2654 N   0  0  0  0  0  0  0  0  0  0  0  0
  152.1089  139.5296  156.1390 S   0  0  0  0  0  0  0  0  0  0  0  0
  151.2798  139.9743  155.0066 O   0  0  0  0  0  0  0  0  0  0  0  0
  153.5125  139.1796  155.8648 O   0  0  0  0  0  0  0  0  0  0  0  0
  151.3407  138.4662  157.0919 N   0  5  0  0  0  0  0  0  0  0  0  0
  150.5260  137.4345  156.4761 C   0  0  0  0  0  0  0  0  0  0  0  0
  151.3544  136.6747  155.4203 C   0  0  0  0  0  0  0  0  0  0  0  0
  151.1621  135.1640  155.4603 C   0  0  0  0  0  0  0  0  0  0  0  0
  151.8967  134.3623  156.3612 C   0  0  0  0  0  0  0  0  0  0  0  0
  151.6770  132.9714  156.3704 C   0  0  0  0  0  0  0  0  0  0  0  0
  150.7265  132.4369  155.4781 C   0  0  0  0  0  0  0  0  0  0  0  0
  150.0116  133.1912  154.6163 N   0  0  0  0  0  0  0  0  0  0  0  0
  150.2283  134.5246  154.6136 C   0  0  0  0  0  0  0  0  0  0  0  0
  150.9139  141.6242  157.4708 C   0  0  0  0  0  0  0  0  0  0  0  0
  151.1723  142.9468  158.2110 C   0  0  0  0  0  0  0  0  0  0  0  0
  152.7792  144.7022  159.7081 H   0  0  0  0  0  0  0  0  0  0  0  0
  152.6579  143.8447  161.2428 H   0  0  0  0  0  0  0  0  0  0  0  0
  151.2188  144.5444  160.5112 H   0  0  0  0  0  0  0  0  0  0  0  0
  151.2630  142.0861  160.1743 H   0  0  0  0  0  0  0  0  0  0  0  0
  153.8675  142.5779  158.6636 H   0  0  0  0  0  0  0  0  0  0  0  0
  153.7192  141.7422  160.1906 H   0  0  0  0  0  0  0  0  0  0  0  0
  153.8859  140.1653  158.2757 H   0  0  0  0  0  0  0  0  0  0  0  0
  152.3827  139.9409  159.1448 H   0  0  0  0  0  0  0  0  0  0  0  0
  150.1553  136.7211  157.2131 H   0  0  0  0  0  0  0  0  0  0  0  0
  149.6423  137.8590  155.9984 H   0  0  0  0  0  0  0  0  0  0  0  0
  151.0972  137.0302  154.4214 H   0  0  0  0  0  0  0  0  0  0  0  0
  152.4150  136.8918  155.5553 H   0  0  0  0  0  0  0  0  0  0  0  0
  152.6177  134.8054  157.0328 H   0  0  0  0  0  0  0  0  0  0  0  0
  152.2242  132.3298  157.0449 H   0  0  0  0  0  0  0  0  0  0  0  0
  150.5335  131.3745  155.4580 H   0  0  0  0  0  0  0  0  0  0  0  0
  149.6398  135.0989  153.9130 H   0  0  0  0  0  0  0  0  0  0  0  0
  150.4391  141.8399  156.5143 H   0  0  0  0  0  0  0  0  0  0  0  0
  150.2111  141.0090  158.0340 H   0  0  0  0  0  0  0  0  0  0  0  0
  150.2239  143.4559  158.3853 H   0  0  0  0  0  0  0  0  0  0  0  0
  151.7650  143.6078  157.5766 H   0  0  0  0  0  0  0  0  0  0  0  0
  1  2  1  0  0  0  0
  1 20  1  0  0  0  0
  1 21  1  0  0  0  0
  1 22  1  0  0  0  0
  2 19  1  0  0  0  0
  2  3  1  0  0  0  0
  2 23  1  0  0  0  0
  3  4  1  0  0  0  0
  3 24  1  0  0  0  0
  3 25  1  0  0  0  0
  4  5  1  0  0  0  0
  4 26  1  0  0  0  0
  4 27  1  0  0  0  0
  5  6  1  0  0  0  0
  5 18  1  0  0  0  0
  6  7  2  0  0  0  0
  6  8  2  0  0  0  0
  6  9  1  0  0  0  0
  9 10  1  0  0  0  0
 10 11  1  0  0  0  0
 10 28  1  0  0  0  0
 10 29  1  0  0  0  0
 11 12  1  0  0  0  0
 11 30  1  0  0  0  0
 11 31  1  0  0  0  0
 12 17  1  0  0  0  0
 12 13  2  0  0  0  0
 13 14  1  0  0  0  0
 13 32  1  0  0  0  0
 14 15  2  0  0  0  0
 14 33  1  0  0  0  0
 15 16  1  0  0  0  0
 15 34  1  0  0  0  0
 16 17  2  0  0  0  0
 17 35  1  0  0  0  0
 18 19  1  0  0  0  0
 18 36  1  0  0  0  0
 18 37  1  0  0  0  0
 19 38  1  0  0  0  0
 19 39  1  0  0  0  0
M  CHG  1   9  -1
M  END
> <s_m_source_file>
AV-unprocessed.smi

> <i_m_source_file_index>
2118

> <i_lp_mmshare_version>
43012

> <i_f3d_flags>
0

> <s_epik_input>
W0NIM11bQ0hdMVtDSDJdW0NIMl1OKFtDSDJdW0NIMl0xKVMoPU8pKD1PKVtOSF1bQ0gyXVtDSDJdYzJbY0hdW2NIXVtjSF1uW2NIXTI=

> <s_epik_cmdline>
J2VwaWtfcHl0aG9uJywgJy1waCcsICc3LjAnLCAnLXRuJywgJzgnLCAnLW1hJywgJzIwMCcsICctbWV0YWxfYmluZGluZycsICctaW1hZScsICc8aW5maWxlLm1hZT4nLCAnLW9tYWUnLCAnPG91dGZpbGUubWFlPic=

> <r_epik_Ionization_Penalty>
1.98317

> <r_epik_Ionization_Penalty_Charging>
1.95606

> <r_epik_Ionization_Penalty_Neutral>
0.0271171

> <r_epik_State_Penalty>
2.28376

> <r_epik_Charging_Adjusted_Penalty>
4.23982

> <i_epik_Tot_Q>
-1

> <i_epik_Tot_abs_Q>
1

> <r_epik_Metal_State_Penalty>
0.598332

> <b_epik_Metal_Only>
0

> <s_lp_Force_Field>
OPLS_2005

> <r_lp_Energy>
6.66289

> <b_lp_Chiralities_Consistent>
1

> <s_lp_Variant>
AV-unprocessed.smi:2118-2

> <Gold.Version>
5.8.1

> <Gold.Id.Protein>
6NUR|6NUR_protein|mol2

> <Gold.PLP.Fitness>
39.2753

> <Gold.PLP.PLP>
-32.1080

> <Gold.PLP.part.hbond>
-1.9490

> <Gold.PLP.part.metal>
0.0000

> <Gold.PLP.part.buried>
-3.9178

> <Gold.PLP.part.nonpolar>
-26.1526

> <Gold.PLP.part.repulsive>
0.1236

> <Gold.PLP.ligand.clash>
0.0000

> <Gold.PLP.ligand.torsion>
1.6438

> <Gold.PLP.Chemscore.Hbond>
1.9760

> <Gold.PLP.Chemscore.CHOScore>
1.0000

> <Gold.PLP.Chemscore.Metal>
0.0000

> <Gold.Chemscore.Hbonds>
donor molecule, donor type, donor heavy atom, donor atom, acceptor molecule, acceptor atom, score
      P1  H  7989  7998       L1     7  1.00
      P1  H  7997  8009       L1     8  0.51
      L1  C    17    35       P1  7948  0.72

> <Gold.PLP.Chemscore.Internal.Correction>
1.5268

> <Gold.Rescore>
     Score         DG    S(hbond)    S(metal)    S(lipo)     H(rot)  DE(clash)    DE(int)     intcor
     16.87     -18.38       1.93        0.00      86.34       1.42       0.02       1.49       ----

> <Gold.Chemscore.Fitness>
16.8707

> <Gold.Chemscore.DG>
-18.3803

> <Gold.Chemscore.ZeroCoef>
-5.4800

> <Gold.Chemscore.Hbond>
1.9274

> <Gold.Chemscore.Metal>
0.0000

> <Gold.Chemscore.Lipo>
86.3414

> <Gold.Chemscore.Internal_Hbond>
0.0000

> <Gold.Chemscore.DEClash>
0.0174

> <Gold.Chemscore.DEInternal>
1.4921

> <Gold.Chemscore.Rot>
1.4216

> <Gold.Chemscore.Internal.Correction>
   9.000000E+99

> <Gold.Chemscore.Hbonds>
donor molecule, donor type, donor heavy atom, donor atom, acceptor molecule, acceptor atom, score
      P1  H  7989  7998       L1     7  1.00
      P1  H  7997  8009       L1     8  0.40

> <Gold.Chemscore.Hbond.Weighted>
-6.4375

> <Gold.Chemscore.Metal.Weighted>
-0.0000

> <Gold.Chemscore.Lipo.Weighted>
-10.1019

> <Gold.Chemscore.Internal_Hbond.Weighted>
0.0000

> <Gold.Chemscore.DEClash.Weighted>
0.0174

> <Gold.Chemscore.DEInternal.Weighted>
1.4921

> <Gold.Chemscore.Rot.Weighted>
3.6392

> <Gold.Chemscore.Internal.Correction.Weighted>
   9.000000E+99

> <Gold.Protein.RotatedTorsions>
[ 6907 6896 6895 6894 ] final  -28.44 input  -60.11 | X-H torsion
[ 7974 7965 7964 7962 ] final   52.00 input  175.53 | X-H torsion
[ 8008 7997 7996 7995 ] final -171.56 input   59.86 | X-H torsion
[ 10167 10162 10161 10158 ] final   -7.92 input  -65.29 | X-H torsion
[ 10718 10713 10712 10709 ] final   54.95 input   66.30 | X-H torsion
[ 10763 10752 10751 10750 ] final  -23.89 input  -60.55 | X-H torsion
[ 11005 11000 10999 10996 ] final  -84.15 input  -57.11 | X-H torsion

> <Gold.Protein.ActiveResidues>
 VAL166  LYS551  ARG553  GLY616  TRP617  ASP618  TYR619  PRO620  LYS621  CYS622 
 ASP623  PHE694  ASN695  SER759  ASP760  ASP761  ALA762  ILE779  LEU786  VAL792 
 PHE793  MET794  SER795  GLU796  ALA797  LYS798  CYS799  TRP800  GLU811  SER814 

> <Gold.Protein.RotatedAtoms>
  151.1330  135.0140  159.8590 H   0  0  0  0  0  0  0  0  0  0  0  0  # atno 6907 bound_to 6896
  152.5451  134.1588  159.8559 H   0  0  0  0  0  0  0  0  0  0  0  0  # atno 6908 bound_to 6896
  151.1656  133.4771  159.2627 H   0  0  0  0  0  0  0  0  0  0  0  0  # atno 6909 bound_to 6896
  145.9857  139.4287  143.0105 H   0  0  0  0  0  0  0  0  0  0  0  0  # atno 7974 bound_to 7965
  155.9332  140.1095  157.1115 H   0  0  0  0  0  0  0  0  0  0  0  0  # atno 8008 bound_to 7997
  154.4075  140.1233  156.4896 H   0  0  0  0  0  0  0  0  0  0  0  0  # atno 8009 bound_to 7997
  155.7054  140.3471  155.4953 H   0  0  0  0  0  0  0  0  0  0  0  0  # atno 8010 bound_to 7997
  140.7044  143.6026  150.8783 H   0  0  0  0  0  0  0  0  0  0  0  0  # atno 10167 bound_to 10162
  157.5302  130.8625  149.8677 H   0  0  0  0  0  0  0  0  0  0  0  0  # atno 10718 bound_to 10713
  153.6750  135.6970  153.5135 H   0  0  0  0  0  0  0  0  0  0  0  0  # atno 10763 bound_to 10752
  153.2528  135.4269  155.0814 H   0  0  0  0  0  0  0  0  0  0  0  0  # atno 10764 bound_to 10752
  154.8416  135.3535  154.6294 H   0  0  0  0  0  0  0  0  0  0  0  0  # atno 10765 bound_to 10752
  141.1653  133.7331  156.8825 H   0  0  0  0  0  0  0  0  0  0  0  0  # atno 11005 bound_to 11000
  145.7705  140.9898  143.1152 LP  0  0  0  0  0  0  0  0  0  0  0  0  # atno 17320 bound_to 7965
  144.6874  139.9441  143.7476 LP  0  0  0  0  0  0  0  0  0  0  0  0  # atno 17321 bound_to 7965
  139.9750  143.6014  152.2961 LP  0  0  0  0  0  0  0  0  0  0  0  0  # atno 17342 bound_to 10162
  139.6615  144.7662  151.1954 LP  0  0  0  0  0  0  0  0  0  0  0  0  # atno 17343 bound_to 10162
  156.0417  130.3737  150.1419 LP  0  0  0  0  0  0  0  0  0  0  0  0  # atno 17370 bound_to 10713
  156.9604  130.9803  151.3480 LP  0  0  0  0  0  0  0  0  0  0  0  0  # atno 17371 bound_to 10713
  140.1705  134.9103  157.2827 LP  0  0  0  0  0  0  0  0  0  0  0  0  # atno 17394 bound_to 11000
  140.2508  134.3686  155.7443 LP  0  0  0  0  0  0  0  0  0  0  0  0  # atno 17395 bound_to 11000

$$$$
