#       Name:                AV-unprocessed.smi:3191
#       Creating user name   scv26
#       Creation time:       Fri Mar 27 18:03:25 2020


#       File generated by GOLD software.
#

@<TRIPOS>MOLECULE
AV-unprocessed.smi:3191
    38    39     1
SMALL
NO_CHARGES


@<TRIPOS>ATOM
      1 ****        -3.2346   2.4504  -2.3324 C.3            1 S1                 0.0000
      2 ****        -3.7295   1.8275  -1.1026 N.pl3          1 S1                 0.0000
      3 ****        -5.0333   1.7847  -0.8012 C.2            1 S1                 0.0000
      4 ****        -5.1384   1.1543   0.3704 N.pl3          1 S1                 1.0000
      5 ****        -3.8988   0.7916   0.8203 C.2            1 S1                 0.0000
      6 ****        -2.9874   1.2176  -0.1168 C.2            1 S1                 0.0000
      7 ****        -1.4945   1.1096  -0.1811 C.3            1 S1                 0.0000
      8 ****        -0.8977   0.3233   1.0003 C.3            1 S1                 0.0000
      9 ****         0.5558   0.2461   0.9125 N.am           1 S1                 0.0000
     10 ****         1.2368  -0.5875   0.1111 C.2            1 S1                 0.0000
     11 ****         0.6807  -1.3837  -0.6464 O.2            1 S1                 0.0000
     12 ****         2.7238  -0.4444   0.2193 C.3            1 S1                 0.0000
     13 ****         3.5713  -0.9641  -0.9238 C.3            1 S1                 0.0000
     14 ****         3.6103  -1.6733   0.4116 C.3            1 S1                 0.0000
     15 ****         4.8349  -1.5331   1.2987 C.3            1 S1                 0.0000
     16 ****         3.0549  -3.0879   0.5229 C.3            1 S1                 0.0000
     17 ****         3.0680   0.4675   0.7056 H              1 S1                 0.0000
     18 ****        -4.0613   2.8888  -2.8931 H              1 S1                 0.0000
     19 ****        -2.7449   1.6922  -2.9439 H              1 S1                 0.0000
     20 ****        -2.5187   3.2315  -2.0755 H              1 S1                 0.0000
     21 ****        -5.8435   2.1800  -1.3879 H              1 S1                 0.0000
     22 ****        -3.7594   0.2668   1.7543 H              1 S1                 0.0000
     23 ****        -1.2246   0.6316  -1.1235 H              1 S1                 0.0000
     24 ****        -1.0732   2.1153  -0.2062 H              1 S1                 0.0000
     25 ****        -1.1511   0.8116   1.9417 H              1 S1                 0.0000
     26 ****        -1.3179  -0.6830   1.0457 H              1 S1                 0.0000
     27 ****         1.0842   0.8695   1.5062 H              1 S1                 0.0000
     28 ****         3.0776  -1.4708  -1.7512 H              1 S1                 0.0000
     29 ****         4.4310  -0.3618  -1.2104 H              1 S1                 0.0000
     30 ****         5.6110  -2.2344   0.9908 H              1 S1                 0.0000
     31 ****         4.5749  -1.7339   2.3384 H              1 S1                 0.0000
     32 ****         5.2449  -0.5246   1.2370 H              1 S1                 0.0000
     33 ****         3.8563  -3.8204   0.4227 H              1 S1                 0.0000
     34 ****         2.3262  -3.2973  -0.2591 H              1 S1                 0.0000
     35 ****         2.5765  -3.2302   1.4922 H              1 S1                 0.0000
     36 ****        -6.0099   0.9714   0.8521 H              1 S1                 0.0000
     37 ****        -0.3178  -1.4268  -0.6810 LP             1 S1                 0.0000
     38 ****         1.2277  -1.9870  -1.2267 LP             1 S1                 0.0000
@<TRIPOS>BOND
    1    1    2 1     
    2    1   18 1     
    3    1   19 1     
    4    1   20 1     
    5    2    6 1     
    6    2    3 1     
    7    3    4 2     
    8    3   21 1     
    9    4    5 1     
   10    4   36 1     
   11    5    6 2     
   12    5   22 1     
   13    6    7 1     
   14    7    8 1     
   15    7   23 1     
   16    7   24 1     
   17    8    9 1     
   18    8   25 1     
   19    8   26 1     
   20    9   10 am    
   21    9   27 1     
   22   10   11 2     
   23   10   12 1     
   24   12   17 1     
   25   12   14 1     
   26   12   13 1     
   27   13   14 1     
   28   13   28 1     
   29   13   29 1     
   30   14   15 1     
   31   14   16 1     
   32   15   30 1     
   33   15   31 1     
   34   15   32 1     
   35   16   33 1     
   36   16   34 1     
   37   16   35 1     
   38   11   37 1     
   39   11   38 1     
@<TRIPOS>SUBSTRUCTURE
      1 S1             1
@<TRIPOS>SET
LONE_PAIRS      STATIC     ATOMS    <user>   **** ""
2 37 38
DONOR_HYDROGENS      STATIC     ATOMS    <user>   **** ""
2 36 27
ATOM$BLUE        STATIC     ATOMS    COLORGROUP SYSTEM
2 37 38
ATOM$RED        STATIC     ATOMS    COLORGROUP SYSTEM
2 36 27
