AV-unprocessed.smi:112|AV-procd|sdf|1088|dock9
  -GOLD-   2262018193D 1   1.00000     0.00000
 Structure written by MMmdl.
 54 57  0  0  0  0  0  0  0  0  3 V2000
  147.2725  139.6591  152.8688 C   0  0  0  0  0  0  0  0  0  0  0  0
  147.2133  140.5443  154.1041 C   0  0  0  0  0  0  0  0  0  0  0  0
  146.0702  140.7285  154.8039 C   0  0  0  0  0  0  0  0  0  0  0  0
  145.9771  141.5257  155.9339 N   0  0  0  0  0  0  0  0  0  0  0  0
  144.6985  141.6577  156.7525 C   0  0  1  0  0  0  0  0  0  0  0  0
  144.0336  143.0411  156.6999 C   0  0  0  0  0  0  0  0  0  0  0  0
  142.8691  142.8389  155.7300 C   0  0  1  0  0  0  0  0  0  0  0  0
  142.9242  143.7799  154.6765 O   0  0  0  0  0  0  0  0  0  0  0  0
  143.0342  141.3977  155.2139 C   0  0  2  0  0  0  0  0  0  0  0  0
  141.7174  140.6422  154.9776 C   0  0  0  0  0  0  0  0  0  0  0  0
  141.9628  139.3997  154.3534 O   0  0  0  0  0  0  0  0  0  0  0  0
  143.7646  140.7562  156.2516 O   0  0  0  0  0  0  0  0  0  0  0  0
  147.1506  142.1151  156.4529 C   0  0  0  0  0  0  0  0  0  0  0  0
  147.1196  142.7710  157.4970 O   0  0  0  0  0  0  0  0  0  0  0  0
  148.3617  141.9438  155.7452 N   0  0  0  0  0  0  0  0  0  0  0  0
  149.5876  142.5931  156.2640 C   0  0  0  0  0  0  0  0  0  0  0  0
  150.4852  141.6543  157.0999 C   0  0  0  0  0  0  0  0  0  0  0  0
  150.5201  140.4563  156.8164 O   0  0  0  0  0  0  0  0  0  0  0  0
  151.2015  142.2002  158.1144 N   0  0  0  0  0  0  0  0  0  0  0  0
  151.1708  143.6343  158.4509 C   0  0  0  0  0  0  0  0  0  0  0  0
  152.1198  143.8185  159.6551 C   0  0  0  0  0  0  0  0  0  0  0  0
  152.6233  142.4279  159.9058 C   0  0  0  0  0  0  0  0  0  0  0  0
  153.5277  142.0307  160.9053 C   0  0  0  0  0  0  0  0  0  0  0  0
  153.8924  140.6643  160.9947 C   0  0  0  0  0  0  0  0  0  0  0  0
  154.8407  140.2106  162.0314 N   0  3  0  0  0  0  0  0  0  0  0  0
  155.2171  139.0433  162.0046 O   0  0  0  0  0  0  0  0  0  0  0  0
  155.2114  141.0212  162.8745 O   0  5  0  0  0  0  0  0  0  0  0  0
  153.3332  139.7390  160.0736 C   0  0  0  0  0  0  0  0  0  0  0  0
  152.4257  140.1557  159.0751 C   0  0  0  0  0  0  0  0  0  0  0  0
  152.0768  141.5220  159.0041 C   0  0  0  0  0  0  0  0  0  0  0  0
  148.4487  141.1896  154.5504 C   0  0  0  0  0  0  0  0  0  0  0  0
  149.5169  141.0954  153.9426 O   0  0  0  0  0  0  0  0  0  0  0  0
  146.2954  139.2459  152.6167 H   0  0  0  0  0  0  0  0  0  0  0  0
  147.9551  138.8244  153.0321 H   0  0  0  0  0  0  0  0  0  0  0  0
  147.6251  140.2274  152.0074 H   0  0  0  0  0  0  0  0  0  0  0  0
  145.1979  140.2036  154.4514 H   0  0  0  0  0  0  0  0  0  0  0  0
  144.9799  141.4047  157.7758 H   0  0  0  0  0  0  0  0  0  0  0  0
  143.6435  143.2698  157.6925 H   0  0  0  0  0  0  0  0  0  0  0  0
  144.7360  143.8340  156.4419 H   0  0  0  0  0  0  0  0  0  0  0  0
  141.9262  142.9516  156.2664 H   0  0  0  0  0  0  0  0  0  0  0  0
  142.9257  143.3135  153.8548 H   0  0  0  0  0  0  0  0  0  0  0  0
  143.6441  141.3748  154.3088 H   0  0  0  0  0  0  0  0  0  0  0  0
  141.2210  140.4536  155.9298 H   0  0  0  0  0  0  0  0  0  0  0  0
  141.0305  141.2298  154.3678 H   0  0  0  0  0  0  0  0  0  0  0  0
  142.4239  139.5552  153.5435 H   0  0  0  0  0  0  0  0  0  0  0  0
  150.1781  143.0063  155.4452 H   0  0  0  0  0  0  0  0  0  0  0  0
  149.3243  143.4635  156.8662 H   0  0  0  0  0  0  0  0  0  0  0  0
  151.5087  144.2367  157.6067 H   0  0  0  0  0  0  0  0  0  0  0  0
  150.1607  143.9497  158.7153 H   0  0  0  0  0  0  0  0  0  0  0  0
  152.9477  144.4889  159.4219 H   0  0  0  0  0  0  0  0  0  0  0  0
  151.5943  144.1972  160.5323 H   0  0  0  0  0  0  0  0  0  0  0  0
  153.9294  142.7661  161.5870 H   0  0  0  0  0  0  0  0  0  0  0  0
  153.5966  138.6927  160.1236 H   0  0  0  0  0  0  0  0  0  0  0  0
  152.0244  139.4205  158.3959 H   0  0  0  0  0  0  0  0  0  0  0  0
  1  2  1  0  0  0  0
  1 33  1  0  0  0  0
  1 34  1  0  0  0  0
  1 35  1  0  0  0  0
  2 31  1  0  0  0  0
  2  3  2  0  0  0  0
  3  4  1  0  0  0  0
  3 36  1  0  0  0  0
  4  5  1  0  0  0  0
  4 13  1  0  0  0  0
  5 12  1  0  0  0  0
  5  6  1  0  0  0  0
  5 37  1  0  0  0  0
  6  7  1  0  0  0  0
  6 38  1  0  0  0  0
  6 39  1  0  0  0  0
  7  8  1  0  0  0  0
  7  9  1  0  0  0  0
  7 40  1  0  0  0  0
  8 41  1  0  0  0  0
  9 10  1  0  0  0  0
  9 12  1  0  0  0  0
  9 42  1  0  0  0  0
 10 11  1  0  0  0  0
 10 43  1  0  0  0  0
 10 44  1  0  0  0  0
 11 45  1  0  0  0  0
 13 14  2  0  0  0  0
 13 15  1  0  0  0  0
 15 16  1  0  0  0  0
 15 31  1  0  0  0  0
 16 17  1  0  0  0  0
 16 46  1  0  0  0  0
 16 47  1  0  0  0  0
 17 18  2  0  0  0  0
 17 19  1  0  0  0  0
 19 30  1  0  0  0  0
 19 20  1  0  0  0  0
 20 21  1  0  0  0  0
 20 48  1  0  0  0  0
 20 49  1  0  0  0  0
 21 22  1  0  0  0  0
 21 50  1  0  0  0  0
 21 51  1  0  0  0  0
 22 30  2  0  0  0  0
 22 23  1  0  0  0  0
 23 24  2  0  0  0  0
 23 52  1  0  0  0  0
 24 25  1  0  0  0  0
 24 28  1  0  0  0  0
 25 26  2  0  0  0  0
 25 27  1  0  0  0  0
 28 29  2  0  0  0  0
 28 53  1  0  0  0  0
 29 30  1  0  0  0  0
 29 54  1  0  0  0  0
 31 32  2  0  0  0  0
M  CHG  1  25   1
M  CHG  1  27  -1
M  END
> <s_m_source_file>
AV-unprocessed.smi

> <i_m_source_file_index>
112

> <i_lp_mmshare_version>
43012

> <i_f3d_flags>
0

> <s_epik_input>
W09IXVtDSDJdW0NAQEhdKE8xKVtDQEhdKFtPSF0pW0NIMl1bQ0BIXTFuKFtjSF1jMltDSDNdKWMoPU8pbihjMj1PKVtDSDJdQyg9TylOKFtDSDJdW0NIMl0zKWMoYzM0KVtjSF1bY0hdYyhbY0hdNClbTitdKD1PKVtPLV0=

> <s_epik_cmdline>
J2VwaWtfcHl0aG9uJywgJy1waCcsICc3LjAnLCAnLXRuJywgJzgnLCAnLW1hJywgJzIwMCcsICctbWV0YWxfYmluZGluZycsICctaW1hZScsICc8aW5maWxlLm1hZT4nLCAnLW9tYWUnLCAnPG91dGZpbGUubWFlPic=

> <r_lp_tautomer_probability>
1

> <r_epik_Ionization_Penalty>
2.5696e-07

> <r_epik_Ionization_Penalty_Charging>
1.04886e-08

> <r_epik_Ionization_Penalty_Neutral>
2.46472e-07

> <r_epik_State_Penalty>
-0

> <r_epik_Charging_Adjusted_Penalty>
1.04886e-08

> <i_epik_Tot_Q>
0

> <i_epik_Tot_abs_Q>
2

> <r_epik_Metal_State_Penalty>
-0

> <b_epik_Metal_Only>
0

> <s_epik_Chemistry_Notes>
This compound contains an acetal/aminal-like group ( X-CH(R)-Y where X, Y are N, S, or O) that may be acid/base labile, releasing an aldehyde.

> <s_lp_Force_Field>
OPLS_2005

> <r_lp_Energy>
55.094

> <b_lp_Chiralities_Consistent>
1

> <s_lp_Variant>
AV-unprocessed.smi:112-6

> <Gold.Version>
5.8.1

> <Gold.Id.Protein>
6NUR|6NUR_protein|mol2

> <Gold.PLP.Fitness>
50.8156

> <Gold.PLP.PLP>
-40.5809

> <Gold.PLP.part.hbond>
-4.8418

> <Gold.PLP.part.metal>
0.0000

> <Gold.PLP.part.buried>
7.3639

> <Gold.PLP.part.nonpolar>
-42.9646

> <Gold.PLP.part.repulsive>
2.4618

> <Gold.PLP.ligand.clash>
0.0000

> <Gold.PLP.ligand.torsion>
0.9920

> <Gold.PLP.Chemscore.Hbond>
3.0460

> <Gold.PLP.Chemscore.CHOScore>
1.0000

> <Gold.PLP.Chemscore.Metal>
0.0000

> <Gold.Chemscore.Hbonds>
donor molecule, donor type, donor heavy atom, donor atom, acceptor molecule, acceptor atom, score
      L1  H     8    41       P1 10174  1.00
      L1  H    11    45       P1 10175  1.00
      P1  H  7989  7998       L1    32  0.26
      P1  H  8011  8017       L1    32  0.72
      L1  C     3    36       P1 10175  1.00

> <Gold.PLP.Chemscore.Internal.Correction>
0.0808

> <Gold.Rescore>
     Score         DG    S(hbond)    S(metal)    S(lipo)     H(rot)  DE(clash)    DE(int)     intcor
     10.53     -18.25       2.72        0.00     103.51       3.29       5.03       2.70       ----

> <Gold.Chemscore.Fitness>
10.5265

> <Gold.Chemscore.DG>
-18.2529

> <Gold.Chemscore.ZeroCoef>
-5.4800

> <Gold.Chemscore.Hbond>
2.7213

> <Gold.Chemscore.Metal>
0.0000

> <Gold.Chemscore.Lipo>
103.5066

> <Gold.Chemscore.Internal_Hbond>
0.0000

> <Gold.Chemscore.DEClash>
5.0277

> <Gold.Chemscore.DEInternal>
2.6987

> <Gold.Chemscore.Rot>
3.2916

> <Gold.Chemscore.Internal.Correction>
   9.000000E+99

> <Gold.Chemscore.Hbonds>
donor molecule, donor type, donor heavy atom, donor atom, acceptor molecule, acceptor atom, score
      L1  H     8    41       P1 10174  0.98
      L1  H    11    45       P1 10175  0.97
      P1  H  7989  7998       L1    32  0.27
      P1  H  8011  8017       L1    32  0.66

> <Gold.Chemscore.Hbond.Weighted>
-9.0892

> <Gold.Chemscore.Metal.Weighted>
-0.0000

> <Gold.Chemscore.Lipo.Weighted>
-12.1103

> <Gold.Chemscore.Internal_Hbond.Weighted>
0.0000

> <Gold.Chemscore.DEClash.Weighted>
5.0277

> <Gold.Chemscore.DEInternal.Weighted>
2.6987

> <Gold.Chemscore.Rot.Weighted>
8.4265

> <Gold.Chemscore.Internal.Correction.Weighted>
   9.000000E+99

> <Gold.Protein.RotatedTorsions>
[ 6907 6896 6895 6894 ] final -179.49 input  -60.11 | X-H torsion
[ 7974 7965 7964 7962 ] final   27.21 input  175.53 | X-H torsion
[ 8008 7997 7996 7995 ] final   90.06 input   59.86 | X-H torsion
[ 10167 10162 10161 10158 ] final  -51.02 input  -65.29 | X-H torsion
[ 10718 10713 10712 10709 ] final   82.39 input   66.30 | X-H torsion
[ 10763 10752 10751 10750 ] final  -94.70 input  -60.55 | X-H torsion
[ 11005 11000 10999 10996 ] final -125.33 input  -57.11 | X-H torsion

> <Gold.Protein.ActiveResidues>
 VAL166  LYS551  ARG553  GLY616  TRP617  ASP618  TYR619  PRO620  LYS621  CYS622 
 ASP623  PHE694  ASN695  SER759  ASP760  ASP761  ALA762  ILE779  LEU786  VAL792 
 PHE793  MET794  SER795  GLU796  ALA797  LYS798  CYS799  TRP800  GLU811  SER814 

> <Gold.Protein.RotatedAtoms>
  151.6543  133.3319  159.3158 H   0  0  0  0  0  0  0  0  0  0  0  0  # atno 6907 bound_to 6896
  150.7945  134.6998  159.6553 H   0  0  0  0  0  0  0  0  0  0  0  0  # atno 6908 bound_to 6896
  152.4030  134.6259  160.0114 H   0  0  0  0  0  0  0  0  0  0  0  0  # atno 6909 bound_to 6896
  146.1797  139.7223  142.8909 H   0  0  0  0  0  0  0  0  0  0  0  0  # atno 7974 bound_to 7965
  156.0075  140.3353  155.6907 H   0  0  0  0  0  0  0  0  0  0  0  0  # atno 8008 bound_to 7997
  155.6205  140.0674  157.2697 H   0  0  0  0  0  0  0  0  0  0  0  0  # atno 8009 bound_to 7997
  154.4270  140.1777  156.1354 H   0  0  0  0  0  0  0  0  0  0  0  0  # atno 8010 bound_to 7997
  140.6609  143.2635  151.4443 H   0  0  0  0  0  0  0  0  0  0  0  0  # atno 10167 bound_to 10162
  157.6856  131.0046  150.2368 H   0  0  0  0  0  0  0  0  0  0  0  0  # atno 10718 bound_to 10713
  154.7079  135.5148  153.8623 H   0  0  0  0  0  0  0  0  0  0  0  0  # atno 10763 bound_to 10752
  153.0756  135.6615  154.0161 H   0  0  0  0  0  0  0  0  0  0  0  0  # atno 10764 bound_to 10752
  154.0009  135.3011  155.3382 H   0  0  0  0  0  0  0  0  0  0  0  0  # atno 10765 bound_to 10752
  140.9770  134.0725  157.3807 H   0  0  0  0  0  0  0  0  0  0  0  0  # atno 11005 bound_to 11000
  145.4112  141.0397  143.3016 LP  0  0  0  0  0  0  0  0  0  0  0  0  # atno 17320 bound_to 7965
  144.8294  139.5655  143.6951 LP  0  0  0  0  0  0  0  0  0  0  0  0  # atno 17321 bound_to 7965
  139.5843  144.1640  152.2009 LP  0  0  0  0  0  0  0  0  0  0  0  0  # atno 17342 bound_to 10162
  140.0974  144.5568  150.7012 LP  0  0  0  0  0  0  0  0  0  0  0  0  # atno 17343 bound_to 10162
  156.2990  130.3756  149.7769 LP  0  0  0  0  0  0  0  0  0  0  0  0  # atno 17370 bound_to 10713
  156.5405  130.8297  151.3267 LP  0  0  0  0  0  0  0  0  0  0  0  0  # atno 17371 bound_to 10713
  139.8935  135.0130  156.6901 LP  0  0  0  0  0  0  0  0  0  0  0  0  # atno 17394 bound_to 11000
  140.7243  133.9114  155.8168 LP  0  0  0  0  0  0  0  0  0  0  0  0  # atno 17395 bound_to 11000

$$$$
