AV-unprocessed.smi:2336|AV-procd|sdf|9331|dock4
  -GOLD-   2272012553D 1   1.00000     0.00000
 Structure written by MMmdl.
 49 50  0  0  0  0  0  0  0  0  1 V2000
  146.8191  141.8432  153.9945 C   0  0  0  0  0  0  0  0  0  0  0  0
  147.8137  140.8307  154.5925 C   0  0  0  0  0  0  0  0  0  0  0  0
  149.0999  141.5244  155.0807 C   0  0  0  0  0  0  0  0  0  0  0  0
  148.0666  139.5717  153.6837 C   0  0  2  0  0  0  0  0  0  0  0  0
  146.7285  138.8803  153.2693 C   0  0  0  0  0  0  0  0  0  0  0  0
  146.9169  137.5447  152.7157 N   0  0  0  0  0  0  0  0  0  0  0  0
  145.9398  136.6754  152.4230 C   0  0  0  0  0  0  0  0  0  0  0  0
  144.7466  136.8970  152.6278 O   0  0  0  0  0  0  0  0  0  0  0  0
  146.4445  135.5469  151.8957 N   0  0  0  0  0  0  0  0  0  0  0  0
  145.7593  134.4080  151.3908 C   0  0  0  0  0  0  0  0  0  0  0  0
  144.5593  134.4661  150.6408 C   0  0  0  0  0  0  0  0  0  0  0  0
  143.9938  133.2609  150.1777 C   0  0  0  0  0  0  0  0  0  0  0  0
  144.5392  132.0471  150.4041 N   0  0  0  0  0  0  0  0  0  0  0  0
  145.6887  131.9962  151.1097 C   0  0  0  0  0  0  0  0  0  0  0  0
  146.3362  133.1402  151.6177 C   0  0  0  0  0  0  0  0  0  0  0  0
  147.4926  133.0183  152.3137 F   0  0  0  0  0  0  0  0  0  0  0  0
  149.0621  138.6384  154.2782 N   0  0  0  0  0  0  0  0  0  0  0  0
  148.9138  138.5168  155.7423 C   0  0  0  0  0  0  0  0  0  0  0  0
  149.9172  137.5250  156.3571 C   0  0  0  0  0  0  0  0  0  0  0  0
  151.2919  137.9300  156.0923 N   0  0  0  0  0  0  0  0  0  0  0  0
  152.2463  137.0038  156.6821 C   0  0  0  0  0  0  0  0  0  0  0  0
  151.4688  138.0372  154.6496 C   0  0  0  0  0  0  0  0  0  0  0  0
  150.4620  139.0233  154.0277 C   0  0  0  0  0  0  0  0  0  0  0  0
  147.2297  142.3630  153.1294 H   0  0  0  0  0  0  0  0  0  0  0  0
  146.5511  142.6035  154.7286 H   0  0  0  0  0  0  0  0  0  0  0  0
  145.8975  141.3507  153.6837 H   0  0  0  0  0  0  0  0  0  0  0  0
  147.3469  140.5151  155.5191 H   0  0  0  0  0  0  0  0  0  0  0  0
  149.5957  142.0982  154.3006 H   0  0  0  0  0  0  0  0  0  0  0  0
  149.8141  140.8009  155.4743 H   0  0  0  0  0  0  0  0  0  0  0  0
  148.8738  142.2248  155.8851 H   0  0  0  0  0  0  0  0  0  0  0  0
  148.5055  139.9373  152.7541 H   0  0  0  0  0  0  0  0  0  0  0  0
  146.0908  138.7142  154.1363 H   0  0  0  0  0  0  0  0  0  0  0  0
  146.1650  139.5224  152.5902 H   0  0  0  0  0  0  0  0  0  0  0  0
  147.8684  137.2698  152.5202 H   0  0  0  0  0  0  0  0  0  0  0  0
  147.4519  135.4823  151.8731 H   0  0  0  0  0  0  0  0  0  0  0  0
  144.0721  135.3981  150.4006 H   0  0  0  0  0  0  0  0  0  0  0  0
  143.0802  133.2735  149.6021 H   0  0  0  0  0  0  0  0  0  0  0  0
  146.1071  131.0140  151.2719 H   0  0  0  0  0  0  0  0  0  0  0  0
  149.0397  139.4945  156.2100 H   0  0  0  0  0  0  0  0  0  0  0  0
  147.9248  138.1703  156.0261 H   0  0  0  0  0  0  0  0  0  0  0  0
  149.7522  137.4677  157.4335 H   0  0  0  0  0  0  0  0  0  0  0  0
  149.7353  136.5249  155.9598 H   0  0  0  0  0  0  0  0  0  0  0  0
  153.2689  137.3300  156.4905 H   0  0  0  0  0  0  0  0  0  0  0  0
  152.1270  135.9998  156.2725 H   0  0  0  0  0  0  0  0  0  0  0  0
  152.1127  136.9477  157.7628 H   0  0  0  0  0  0  0  0  0  0  0  0
  152.4831  138.3710  154.4278 H   0  0  0  0  0  0  0  0  0  0  0  0
  151.3549  137.0567  154.1840 H   0  0  0  0  0  0  0  0  0  0  0  0
  150.6686  139.0331  152.9586 H   0  0  0  0  0  0  0  0  0  0  0  0
  150.6489  140.0313  154.4015 H   0  0  0  0  0  0  0  0  0  0  0  0
  1  2  1  0  0  0  0
  1 24  1  0  0  0  0
  1 25  1  0  0  0  0
  1 26  1  0  0  0  0
  2  3  1  0  0  0  0
  2  4  1  0  0  0  0
  2 27  1  0  0  0  0
  3 28  1  0  0  0  0
  3 29  1  0  0  0  0
  3 30  1  0  0  0  0
  4  5  1  0  0  0  0
  4 17  1  0  0  0  0
  4 31  1  0  0  0  0
  5  6  1  0  0  0  0
  5 32  1  0  0  0  0
  5 33  1  0  0  0  0
  6  7  1  0  0  0  0
  6 34  1  0  0  0  0
  7  8  2  0  0  0  0
  7  9  1  0  0  0  0
  9 10  1  0  0  0  0
  9 35  1  0  0  0  0
 10 15  1  0  0  0  0
 10 11  2  0  0  0  0
 11 12  1  0  0  0  0
 11 36  1  0  0  0  0
 12 13  2  0  0  0  0
 12 37  1  0  0  0  0
 13 14  1  0  0  0  0
 14 15  2  0  0  0  0
 14 38  1  0  0  0  0
 15 16  1  0  0  0  0
 17 23  1  0  0  0  0
 17 18  1  0  0  0  0
 18 19  1  0  0  0  0
 18 39  1  0  0  0  0
 18 40  1  0  0  0  0
 19 20  1  0  0  0  0
 19 41  1  0  0  0  0
 19 42  1  0  0  0  0
 20 21  1  0  0  0  0
 20 22  1  0  0  0  0
 21 43  1  0  0  0  0
 21 44  1  0  0  0  0
 21 45  1  0  0  0  0
 22 23  1  0  0  0  0
 22 46  1  0  0  0  0
 22 47  1  0  0  0  0
 23 48  1  0  0  0  0
 23 49  1  0  0  0  0
M  END
> <s_m_source_file>
AV-unprocessed.smi

> <i_m_source_file_index>
2336

> <i_lp_mmshare_version>
43012

> <i_f3d_flags>
0

> <s_epik_input>
W0NIMl0xW0NIMl1OKFtDSDNdKVtDSDJdW0NIMl1OMVtDQEhdKFtDSF0oW0NIM10pW0NIM10pW0NIMl1bTkhdQyg9TylbTkhdYzJbY0hdW2NIXW5bY0hdYzJG

> <s_epik_cmdline>
J2VwaWtfcHl0aG9uJywgJy1waCcsICc3LjAnLCAnLXRuJywgJzgnLCAnLW1hJywgJzIwMCcsICctbWV0YWxfYmluZGluZycsICctaW1hZScsICc8aW5maWxlLm1hZT4nLCAnLW9tYWUnLCAnPG91dGZpbGUubWFlPic=

> <r_epik_Ionization_Penalty>
2.58102

> <r_epik_Ionization_Penalty_Charging>
0

> <r_epik_Ionization_Penalty_Neutral>
2.58102

> <r_epik_State_Penalty>
2.00874

> <r_epik_Charging_Adjusted_Penalty>
2.00874

> <i_epik_Tot_Q>
0

> <i_epik_Tot_abs_Q>
0

> <r_epik_Metal_State_Penalty>
2.00867

> <b_epik_Metal_Only>
0

> <s_lp_Force_Field>
OPLS_2005

> <r_lp_Energy>
52.971

> <b_lp_Chiralities_Consistent>
1

> <s_lp_Variant>
AV-unprocessed.smi:2336-5

> <Gold.Version>
5.8.1

> <Gold.Id.Protein>
6NUR|6NUR_protein|mol2

> <Gold.PLP.Fitness>
42.7546

> <Gold.PLP.PLP>
-35.6033

> <Gold.PLP.part.hbond>
-1.9786

> <Gold.PLP.part.metal>
0.0000

> <Gold.PLP.part.buried>
-3.0650

> <Gold.PLP.part.nonpolar>
-30.8981

> <Gold.PLP.part.repulsive>
0.6602

> <Gold.PLP.ligand.clash>
0.0000

> <Gold.PLP.ligand.torsion>
1.1149

> <Gold.PLP.Chemscore.Hbond>
1.9840

> <Gold.PLP.Chemscore.CHOScore>
1.0000

> <Gold.PLP.Chemscore.Metal>
0.0000

> <Gold.Chemscore.Hbonds>
donor molecule, donor type, donor heavy atom, donor atom, acceptor molecule, acceptor atom, score
      L1  H     6    34       P1  7948  1.00
      L1  H     9    35       P1  7948  1.00
      L1  C    12    37       P1 10186  1.00

> <Gold.PLP.Chemscore.Internal.Correction>
0.4291

> <Gold.Rescore>
     Score         DG    S(hbond)    S(metal)    S(lipo)     H(rot)  DE(clash)    DE(int)     intcor
     16.08     -17.77       1.82        0.00      88.72       1.63       0.50       1.18       ----

> <Gold.Chemscore.Fitness>
16.0847

> <Gold.Chemscore.DG>
-17.7700

> <Gold.Chemscore.ZeroCoef>
-5.4800

> <Gold.Chemscore.Hbond>
1.8192

> <Gold.Chemscore.Metal>
0.0000

> <Gold.Chemscore.Lipo>
88.7238

> <Gold.Chemscore.Internal_Hbond>
0.0000

> <Gold.Chemscore.DEClash>
0.5040

> <Gold.Chemscore.DEInternal>
1.1813

> <Gold.Chemscore.Rot>
1.6277

> <Gold.Chemscore.Internal.Correction>
   9.000000E+99

> <Gold.Chemscore.Hbonds>
donor molecule, donor type, donor heavy atom, donor atom, acceptor molecule, acceptor atom, score
      L1  H     6    34       P1  7948  0.95
      L1  H     9    35       P1  7948  0.95

> <Gold.Chemscore.Hbond.Weighted>
-6.0762

> <Gold.Chemscore.Metal.Weighted>
-0.0000

> <Gold.Chemscore.Lipo.Weighted>
-10.3807

> <Gold.Chemscore.Internal_Hbond.Weighted>
0.0000

> <Gold.Chemscore.DEClash.Weighted>
0.5040

> <Gold.Chemscore.DEInternal.Weighted>
1.1813

> <Gold.Chemscore.Rot.Weighted>
4.1670

> <Gold.Chemscore.Internal.Correction.Weighted>
   9.000000E+99

> <Gold.Protein.RotatedTorsions>
[ 6907 6896 6895 6894 ] final  143.16 input  -60.11 | X-H torsion
[ 7974 7965 7964 7962 ] final  -99.61 input  175.53 | X-H torsion
[ 8008 7997 7996 7995 ] final    9.56 input   59.86 | X-H torsion
[ 10167 10162 10161 10158 ] final -157.91 input  -65.29 | X-H torsion
[ 10718 10713 10712 10709 ] final   55.66 input   66.30 | X-H torsion
[ 10763 10752 10751 10750 ] final   50.49 input  -60.55 | X-H torsion
[ 11005 11000 10999 10996 ] final  -46.73 input  -57.11 | X-H torsion

> <Gold.Protein.ActiveResidues>
 VAL166  LYS551  ARG553  GLY616  TRP617  ASP618  TYR619  PRO620  LYS621  CYS622 
 ASP623  PHE694  ASN695  SER759  ASP760  ASP761  ALA762  ILE779  LEU786  VAL792 
 PHE793  MET794  SER795  GLU796  ALA797  LYS798  CYS799  TRP800  GLU811  SER814 

> <Gold.Protein.RotatedAtoms>
  152.2097  133.4902  159.5102 H   0  0  0  0  0  0  0  0  0  0  0  0  # atno 6907 bound_to 6896
  150.6987  134.1483  159.4140 H   0  0  0  0  0  0  0  0  0  0  0  0  # atno 6908 bound_to 6896
  151.9402  135.0216  160.0586 H   0  0  0  0  0  0  0  0  0  0  0  0  # atno 6909 bound_to 6896
  145.3053  140.9387  143.2800 H   0  0  0  0  0  0  0  0  0  0  0  0  # atno 7974 bound_to 7965
  154.7817  140.2820  155.6058 H   0  0  0  0  0  0  0  0  0  0  0  0  # atno 8008 bound_to 7997
  156.2951  140.2622  156.2572 H   0  0  0  0  0  0  0  0  0  0  0  0  # atno 8009 bound_to 7997
  154.9776  140.0375  157.2253 H   0  0  0  0  0  0  0  0  0  0  0  0  # atno 8010 bound_to 7997
  139.6733  143.9707  152.2296 H   0  0  0  0  0  0  0  0  0  0  0  0  # atno 10167 bound_to 10162
  157.5364  130.8666  149.8759 H   0  0  0  0  0  0  0  0  0  0  0  0  # atno 10718 bound_to 10713
  152.9784  135.5877  154.4260 H   0  0  0  0  0  0  0  0  0  0  0  0  # atno 10763 bound_to 10752
  154.3879  135.2767  155.2174 H   0  0  0  0  0  0  0  0  0  0  0  0  # atno 10764 bound_to 10752
  154.4059  135.6092  153.5979 H   0  0  0  0  0  0  0  0  0  0  0  0  # atno 10765 bound_to 10752
  141.0597  133.6713  156.3196 H   0  0  0  0  0  0  0  0  0  0  0  0  # atno 11005 bound_to 11000
  144.9060  139.4589  143.6610 LP  0  0  0  0  0  0  0  0  0  0  0  0  # atno 17320 bound_to 7965
  146.3137  139.7841  142.9000 LP  0  0  0  0  0  0  0  0  0  0  0  0  # atno 17321 bound_to 7965
  139.9477  144.6640  150.8202 LP  0  0  0  0  0  0  0  0  0  0  0  0  # atno 17342 bound_to 10162
  140.7626  143.3202  151.2639 LP  0  0  0  0  0  0  0  0  0  0  0  0  # atno 17343 bound_to 10162
  156.0462  130.3727  150.1313 LP  0  0  0  0  0  0  0  0  0  0  0  0  # atno 17370 bound_to 10713
  156.9495  130.9770  151.3501 LP  0  0  0  0  0  0  0  0  0  0  0  0  # atno 17371 bound_to 10713
  140.5893  134.5666  157.5496 LP  0  0  0  0  0  0  0  0  0  0  0  0  # atno 17394 bound_to 11000
  139.9421  134.7767  156.0652 LP  0  0  0  0  0  0  0  0  0  0  0  0  # atno 17395 bound_to 11000

$$$$
