AV-unprocessed.smi:1056|AV-procd|sdf|4644|dock1
  -GOLD-   22720 3153D 1   1.00000     0.00000
 Structure written by MMmdl.
 44 46  0  0  0  0  0  0  0  0  3 V2000
  153.0958  142.5894  162.0462 C   0  0  0  0  0  0  0  0  0  0  0  0
  152.5716  142.2611  160.6591 C   0  0  0  0  0  0  0  0  0  0  0  0
  152.9710  141.0549  160.0405 C   0  0  0  0  0  0  0  0  0  0  0  0
  152.5066  140.7136  158.7514 C   0  0  0  0  0  0  0  0  0  0  0  0
  152.7679  139.6047  157.9647 N   0  0  0  0  0  0  0  0  0  0  0  0
  152.0464  139.8686  156.8795 C   0  0  0  0  0  0  0  0  0  0  0  0
  151.3497  141.0211  156.8680 N   0  0  0  0  0  0  0  0  0  0  0  0
  150.5024  141.5193  155.7993 C   0  0  0  0  0  0  0  0  0  0  0  0
  149.6462  140.4101  155.1584 C   0  0  2  0  0  0  0  0  0  0  0  0
  150.4265  139.6968  154.2181 O   0  0  0  0  0  0  0  0  0  0  0  0
  148.4165  140.9907  154.4342 C   0  0  0  0  0  0  0  0  0  0  0  0
  147.4917  141.6930  155.3588 N   0  3  1  0  0  0  0  0  0  0  0  0
  146.1624  141.9910  154.7635 C   0  0  0  0  0  0  0  0  0  0  0  0
  145.3830  142.9729  155.6595 C   0  0  0  0  0  0  0  0  0  0  0  0
  145.4383  142.5399  157.0611 N   0  5  0  0  0  0  0  0  0  0  0  0
  146.3864  141.7282  157.6251 C   0  0  0  0  0  0  0  0  0  0  0  0
  146.5024  141.4942  158.8261 O   0  0  0  0  0  0  0  0  0  0  0  0
  147.3666  140.9967  156.6690 C   0  0  0  0  0  0  0  0  0  0  0  0
  151.6226  141.6184  158.0941 C   0  0  0  0  0  0  0  0  0  0  0  0
  151.2171  142.8209  158.6993 C   0  0  0  0  0  0  0  0  0  0  0  0
  151.6929  143.1478  159.9862 C   0  0  0  0  0  0  0  0  0  0  0  0
  151.2545  144.4519  160.6287 C   0  0  0  0  0  0  0  0  0  0  0  0
  153.7671  141.8124  162.4128 H   0  0  0  0  0  0  0  0  0  0  0  0
  152.2716  142.6808  162.7539 H   0  0  0  0  0  0  0  0  0  0  0  0
  153.6480  143.5293  162.0338 H   0  0  0  0  0  0  0  0  0  0  0  0
  153.6409  140.3799  160.5525 H   0  0  0  0  0  0  0  0  0  0  0  0
  152.0240  139.1857  156.0428 H   0  0  0  0  0  0  0  0  0  0  0  0
  149.8597  142.2990  156.2100 H   0  0  0  0  0  0  0  0  0  0  0  0
  151.1328  142.0003  155.0501 H   0  0  0  0  0  0  0  0  0  0  0  0
  149.3369  139.7152  155.9388 H   0  0  0  0  0  0  0  0  0  0  0  0
  149.9778  139.7066  153.3856 H   0  0  0  0  0  0  0  0  0  0  0  0
  148.7227  141.6781  153.6443 H   0  0  0  0  0  0  0  0  0  0  0  0
  147.8901  140.1735  153.9385 H   0  0  0  0  0  0  0  0  0  0  0  0
  146.2658  142.4256  153.7701 H   0  0  0  0  0  0  0  0  0  0  0  0
  145.6034  141.0617  154.6413 H   0  0  0  0  0  0  0  0  0  0  0  0
  145.8178  143.9662  155.5454 H   0  0  0  0  0  0  0  0  0  0  0  0
  144.3580  143.0543  155.2985 H   0  0  0  0  0  0  0  0  0  0  0  0
  147.0106  139.9768  156.5155 H   0  0  0  0  0  0  0  0  0  0  0  0
  148.3465  140.9327  157.1442 H   0  0  0  0  0  0  0  0  0  0  0  0
  150.5487  143.4880  158.1752 H   0  0  0  0  0  0  0  0  0  0  0  0
  150.5778  145.0078  159.9792 H   0  0  0  0  0  0  0  0  0  0  0  0
  152.1178  145.0858  160.8324 H   0  0  0  0  0  0  0  0  0  0  0  0
  150.7349  144.2605  161.5678 H   0  0  0  0  0  0  0  0  0  0  0  0
  147.9166  142.5859  155.5655 H   0  0  0  0  0  0  0  0  0  0  0  0
  1  2  1  0  0  0  0
  1 23  1  0  0  0  0
  1 24  1  0  0  0  0
  1 25  1  0  0  0  0
  2 21  1  0  0  0  0
  2  3  2  0  0  0  0
  3  4  1  0  0  0  0
  3 26  1  0  0  0  0
  4 19  2  0  0  0  0
  4  5  1  0  0  0  0
  5  6  2  0  0  0  0
  6  7  1  0  0  0  0
  6 27  1  0  0  0  0
  7  8  1  0  0  0  0
  7 19  1  0  0  0  0
  8  9  1  0  0  0  0
  8 28  1  0  0  0  0
  8 29  1  0  0  0  0
  9 10  1  0  0  0  0
  9 11  1  0  0  0  0
  9 30  1  0  0  0  0
 10 31  1  0  0  0  0
 11 12  1  0  0  0  0
 11 32  1  0  0  0  0
 11 33  1  0  0  0  0
 12 18  1  0  0  0  0
 12 13  1  0  0  0  0
 12 44  1  0  0  0  0
 13 14  1  0  0  0  0
 13 34  1  0  0  0  0
 13 35  1  0  0  0  0
 14 15  1  0  0  0  0
 14 36  1  0  0  0  0
 14 37  1  0  0  0  0
 15 16  1  0  0  0  0
 16 17  2  0  0  0  0
 16 18  1  0  0  0  0
 18 38  1  0  0  0  0
 18 39  1  0  0  0  0
 19 20  1  0  0  0  0
 20 21  2  0  0  0  0
 20 40  1  0  0  0  0
 21 22  1  0  0  0  0
 22 41  1  0  0  0  0
 22 42  1  0  0  0  0
 22 43  1  0  0  0  0
M  CHG  1  12   1
M  CHG  1  15  -1
M  END
> <s_m_source_file>
AV-unprocessed.smi

> <i_m_source_file_index>
1056

> <i_lp_mmshare_version>
43012

> <i_f3d_flags>
0

> <s_epik_input>
W0NIM11jKFtjSF0xKWMoW0NIM10pW2NIXWMoYzEyKW4oW2NIXW4yKVtDSDJdW0NASF0oW09IXSlbQ0gyXU4zW0NIMl1bQ0gyXVtOSF1DKD1PKVtDSDJdMw==

> <s_epik_cmdline>
J2VwaWtfcHl0aG9uJywgJy1waCcsICc3LjAnLCAnLXRuJywgJzgnLCAnLW1hJywgJzIwMCcsICctbWV0YWxfYmluZGluZycsICctaW1hZScsICc8aW5maWxlLm1hZT4nLCAnLW9tYWUnLCAnPG91dGZpbGUubWFlPic=

> <r_epik_Ionization_Penalty>
5.13411

> <r_epik_Ionization_Penalty_Charging>
5.04792

> <r_epik_Ionization_Penalty_Neutral>
0.0861879

> <r_epik_State_Penalty>
5.18224

> <r_epik_Charging_Adjusted_Penalty>
10.2302

> <i_epik_Tot_Q>
0

> <i_epik_Tot_abs_Q>
2

> <r_epik_Metal_State_Penalty>
1.33873

> <b_epik_Metal_Only>
1

> <s_lp_Force_Field>
OPLS_2005

> <r_lp_Energy>
16.7981

> <b_lp_Chiralities_Consistent>
1

> <s_lp_Variant>
AV-unprocessed.smi:1056-15

> <Gold.Version>
5.8.1

> <Gold.Id.Protein>
6NUR|6NUR_protein|mol2

> <Gold.PLP.Fitness>
61.9834

> <Gold.PLP.PLP>
-46.5112

> <Gold.PLP.part.hbond>
-5.0000

> <Gold.PLP.part.metal>
0.0000

> <Gold.PLP.part.buried>
-6.8166

> <Gold.PLP.part.nonpolar>
-34.6415

> <Gold.PLP.part.repulsive>
0.1965

> <Gold.PLP.ligand.clash>
0.0000

> <Gold.PLP.ligand.torsion>
0.6229

> <Gold.PLP.Chemscore.Hbond>
5.5252

> <Gold.PLP.Chemscore.CHOScore>
0.0000

> <Gold.PLP.Chemscore.Metal>
0.0000

> <Gold.Chemscore.Hbonds>
donor molecule, donor type, donor heavy atom, donor atom, acceptor molecule, acceptor atom, score
      L1  H    10    31       P1  7957  0.39
      L1  H    12    44       P1  8028  0.52
      P1  H  6934  6946       L1    17  0.64
      P1  H  7989  7998       L1    10  0.35
      P1  H  7997  8010       L1     5  0.25

> <Gold.PLP.Chemscore.Internal.Correction>
0.1423

> <Gold.Rescore>
     Score         DG    S(hbond)    S(metal)    S(lipo)     H(rot)  DE(clash)    DE(int)     intcor
     21.39     -22.90       3.09        0.00     111.21       2.31       1.01       0.50       ----

> <Gold.Chemscore.Fitness>
21.3880

> <Gold.Chemscore.DG>
-22.8951

> <Gold.Chemscore.ZeroCoef>
-5.4800

> <Gold.Chemscore.Hbond>
3.0926

> <Gold.Chemscore.Metal>
0.0000

> <Gold.Chemscore.Lipo>
111.2094

> <Gold.Chemscore.Internal_Hbond>
0.0000

> <Gold.Chemscore.DEClash>
1.0085

> <Gold.Chemscore.DEInternal>
0.4986

> <Gold.Chemscore.Rot>
2.3147

> <Gold.Chemscore.Internal.Correction>
   9.000000E+99

> <Gold.Chemscore.Hbonds>
donor molecule, donor type, donor heavy atom, donor atom, acceptor molecule, acceptor atom, score
      L1  H    10    31       P1  7957  0.39
      L1  H    12    44       P1  8028  0.24
      P1  H  6934  6946       L1    17  0.61

> <Gold.Chemscore.Hbond.Weighted>
-10.3292

> <Gold.Chemscore.Metal.Weighted>
-0.0000

> <Gold.Chemscore.Lipo.Weighted>
-13.0115

> <Gold.Chemscore.Internal_Hbond.Weighted>
0.0000

> <Gold.Chemscore.DEClash.Weighted>
1.0085

> <Gold.Chemscore.DEInternal.Weighted>
0.4986

> <Gold.Chemscore.Rot.Weighted>
5.9256

> <Gold.Chemscore.Internal.Correction.Weighted>
   9.000000E+99

> <Gold.Protein.RotatedTorsions>
[ 6907 6896 6895 6894 ] final -178.72 input  -60.11 | X-H torsion
[ 7974 7965 7964 7962 ] final  -38.53 input  175.53 | X-H torsion
[ 8008 7997 7996 7995 ] final   51.88 input   59.86 | X-H torsion
[ 10167 10162 10161 10158 ] final -171.32 input  -65.29 | X-H torsion
[ 10718 10713 10712 10709 ] final   35.37 input   66.30 | X-H torsion
[ 10763 10752 10751 10750 ] final   -9.19 input  -60.55 | X-H torsion
[ 11005 11000 10999 10996 ] final    3.37 input  -57.11 | X-H torsion

> <Gold.Protein.ActiveResidues>
 VAL166  LYS551  ARG553  GLY616  TRP617  ASP618  TYR619  PRO620  LYS621  CYS622 
 ASP623  PHE694  ASN695  SER759  ASP760  ASP761  ALA762  ILE779  LEU786  VAL792 
 PHE793  MET794  SER795  GLU796  ALA797  LYS798  CYS799  TRP800  GLU811  SER814 

> <Gold.Protein.RotatedAtoms>
  151.6418  133.3325  159.3131 H   0  0  0  0  0  0  0  0  0  0  0  0  # atno 6907 bound_to 6896
  150.8004  134.7097  159.6606 H   0  0  0  0  0  0  0  0  0  0  0  0  # atno 6908 bound_to 6896
  152.4095  134.6152  160.0088 H   0  0  0  0  0  0  0  0  0  0  0  0  # atno 6909 bound_to 6896
  146.0478  140.6522  142.9056 H   0  0  0  0  0  0  0  0  0  0  0  0  # atno 7974 bound_to 7965
  155.4426  140.3455  155.4291 H   0  0  0  0  0  0  0  0  0  0  0  0  # atno 8008 bound_to 7997
  156.1269  140.1503  156.9153 H   0  0  0  0  0  0  0  0  0  0  0  0  # atno 8009 bound_to 7997
  154.4865  140.0854  156.7478 H   0  0  0  0  0  0  0  0  0  0  0  0  # atno 8010 bound_to 7997
  139.5809  144.1425  152.1514 H   0  0  0  0  0  0  0  0  0  0  0  0  # atno 10167 bound_to 10162
  157.3218  130.7452  149.6790 H   0  0  0  0  0  0  0  0  0  0  0  0  # atno 10718 bound_to 10713
  153.4513  135.7015  153.6107 H   0  0  0  0  0  0  0  0  0  0  0  0  # atno 10763 bound_to 10752
  153.4441  135.3773  155.2245 H   0  0  0  0  0  0  0  0  0  0  0  0  # atno 10764 bound_to 10752
  154.8728  135.3981  154.3925 H   0  0  0  0  0  0  0  0  0  0  0  0  # atno 10765 bound_to 10752
  140.5939  133.9898  155.8101 H   0  0  0  0  0  0  0  0  0  0  0  0  # atno 11005 bound_to 11000
  144.7107  140.4026  143.7083 LP  0  0  0  0  0  0  0  0  0  0  0  0  # atno 17320 bound_to 7965
  145.6776  139.1612  143.2719 LP  0  0  0  0  0  0  0  0  0  0  0  0  # atno 17321 bound_to 7965
  140.0978  144.5566  150.7010 LP  0  0  0  0  0  0  0  0  0  0  0  0  # atno 17342 bound_to 10162
  140.7088  143.2488  151.4646 LP  0  0  0  0  0  0  0  0  0  0  0  0  # atno 17343 bound_to 10162
  155.9686  130.4221  150.4499 LP  0  0  0  0  0  0  0  0  0  0  0  0  # atno 17370 bound_to 10713
  157.2516  131.0547  151.2375 LP  0  0  0  0  0  0  0  0  0  0  0  0  # atno 17371 bound_to 10713
  141.0917  133.9907  157.3227 LP  0  0  0  0  0  0  0  0  0  0  0  0  # atno 17394 bound_to 11000
  139.9262  135.0201  156.8242 LP  0  0  0  0  0  0  0  0  0  0  0  0  # atno 17395 bound_to 11000

$$$$
