AV-unprocessed.smi:115|AV-procd|sdf|1123|dock10
  -GOLD-   2262018243D 1   1.00000     0.00000
 Structure written by MMmdl.
 55 57  0  0  0  0  0  0  0  0  1 V2000
  153.6415  143.3656  157.9356 C   0  0  0  0  0  0  0  0  0  0  0  0
  152.5198  142.9362  157.1795 O   0  0  0  0  0  0  0  0  0  0  0  0
  152.1904  141.5636  157.3497 C   0  0  0  0  0  0  0  0  0  0  0  0
  151.9498  140.8503  156.0010 C   0  0  2  0  0  0  0  0  0  0  0  0
  151.2555  141.7329  154.9459 C   0  0  0  0  0  0  0  0  0  0  0  0
  151.3102  139.5371  156.1883 N   0  0  0  0  0  0  0  0  0  0  0  0
  150.0001  139.3734  156.6370 C   0  0  0  0  0  0  0  0  0  0  0  0
  149.0925  140.5142  156.9755 C   0  0  0  0  0  0  0  0  0  0  0  0
  149.7423  138.0378  156.7045 C   0  0  0  0  0  0  0  0  0  0  0  0
  150.8952  137.3312  156.2714 C   0  0  0  0  0  0  0  0  0  0  0  0
  151.0883  135.8591  156.2076 C   0  0  0  0  0  0  0  0  0  0  0  0
  152.1633  135.3289  155.9234 O   0  0  0  0  0  0  0  0  0  0  0  0
  149.8485  135.0073  156.5394 C   0  0  0  0  0  0  0  0  0  0  0  0
  149.5622  133.9978  155.5266 N   0  0  0  0  0  0  0  0  0  0  0  0
  150.1450  132.7166  155.6892 C   0  0  0  0  0  0  0  0  0  0  0  0
  150.8562  132.4376  156.6561 O   0  0  0  0  0  0  0  0  0  0  0  0
  149.8311  131.7713  154.6247 C   0  0  0  0  0  0  0  0  0  0  0  0
  150.3808  130.5451  154.6416 F   0  0  0  0  0  0  0  0  0  0  0  0
  149.0092  132.1120  153.6088 C   0  0  0  0  0  0  0  0  0  0  0  0
  148.3905  133.3485  153.5121 N   0  0  0  0  0  0  0  0  0  0  0  0
  147.5454  133.7232  152.3115 C   0  0  2  0  0  0  0  0  0  0  0  0
  146.2101  134.4005  152.6666 C   0  0  0  0  0  0  0  0  0  0  0  0
  145.2062  133.2929  152.4118 C   0  0  0  0  0  0  0  0  0  0  0  0
  145.8784  132.5220  151.2826 C   0  0  0  0  0  0  0  0  0  0  0  0
  147.2603  132.5460  151.6164 O   0  0  0  0  0  0  0  0  0  0  0  0
  148.7016  134.3518  154.4587 C   0  0  0  0  0  0  0  0  0  0  0  0
  148.2277  135.4863  154.3601 O   0  0  0  0  0  0  0  0  0  0  0  0
  151.8427  138.2664  155.9174 C   0  0  0  0  0  0  0  0  0  0  0  0
  153.2191  138.0683  155.3445 C   0  0  0  0  0  0  0  0  0  0  0  0
  153.7940  144.4335  157.7796 H   0  0  0  0  0  0  0  0  0  0  0  0
  154.5570  142.8556  157.6378 H   0  0  0  0  0  0  0  0  0  0  0  0
  153.4833  143.2054  159.0026 H   0  0  0  0  0  0  0  0  0  0  0  0
  152.9698  141.0582  157.9227 H   0  0  0  0  0  0  0  0  0  0  0  0
  151.2951  141.5246  157.9665 H   0  0  0  0  0  0  0  0  0  0  0  0
  152.9263  140.6577  155.5650 H   0  0  0  0  0  0  0  0  0  0  0  0
  151.9142  142.5466  154.6411 H   0  0  0  0  0  0  0  0  0  0  0  0
  150.3409  142.1972  155.3079 H   0  0  0  0  0  0  0  0  0  0  0  0
  151.0142  141.1597  154.0502 H   0  0  0  0  0  0  0  0  0  0  0  0
  148.0858  140.1567  157.1931 H   0  0  0  0  0  0  0  0  0  0  0  0
  149.0193  141.2186  156.1463 H   0  0  0  0  0  0  0  0  0  0  0  0
  149.4500  141.0508  157.8548 H   0  0  0  0  0  0  0  0  0  0  0  0
  148.8088  137.6107  157.0404 H   0  0  0  0  0  0  0  0  0  0  0  0
  149.9657  134.5034  157.4998 H   0  0  0  0  0  0  0  0  0  0  0  0
  148.9623  135.6342  156.6502 H   0  0  0  0  0  0  0  0  0  0  0  0
  148.8437  131.3710  152.8435 H   0  0  0  0  0  0  0  0  0  0  0  0
  148.1562  134.3942  151.7059 H   0  0  0  0  0  0  0  0  0  0  0  0
  146.1883  134.8207  153.6719 H   0  0  0  0  0  0  0  0  0  0  0  0
  146.0464  135.2152  151.9600 H   0  0  0  0  0  0  0  0  0  0  0  0
  145.1007  132.6557  153.2899 H   0  0  0  0  0  0  0  0  0  0  0  0
  144.2183  133.6667  152.1421 H   0  0  0  0  0  0  0  0  0  0  0  0
  145.5063  131.5020  151.1868 H   0  0  0  0  0  0  0  0  0  0  0  0
  145.7320  133.0319  150.3293 H   0  0  0  0  0  0  0  0  0  0  0  0
  153.2769  137.1631  154.7425 H   0  0  0  0  0  0  0  0  0  0  0  0
  153.9622  137.9920  156.1382 H   0  0  0  0  0  0  0  0  0  0  0  0
  153.5107  138.8717  154.6746 H   0  0  0  0  0  0  0  0  0  0  0  0
  1  2  1  0  0  0  0
  1 30  1  0  0  0  0
  1 31  1  0  0  0  0
  1 32  1  0  0  0  0
  2  3  1  0  0  0  0
  3  4  1  0  0  0  0
  3 33  1  0  0  0  0
  3 34  1  0  0  0  0
  4  5  1  0  0  0  0
  4  6  1  0  0  0  0
  4 35  1  0  0  0  0
  5 36  1  0  0  0  0
  5 37  1  0  0  0  0
  5 38  1  0  0  0  0
  6 28  1  0  0  0  0
  6  7  1  0  0  0  0
  7  8  1  0  0  0  0
  7  9  2  0  0  0  0
  8 39  1  0  0  0  0
  8 40  1  0  0  0  0
  8 41  1  0  0  0  0
  9 10  1  0  0  0  0
  9 42  1  0  0  0  0
 10 11  1  0  0  0  0
 10 28  2  0  0  0  0
 11 12  2  0  0  0  0
 11 13  1  0  0  0  0
 13 14  1  0  0  0  0
 13 43  1  0  0  0  0
 13 44  1  0  0  0  0
 14 26  1  0  0  0  0
 14 15  1  0  0  0  0
 15 16  2  0  0  0  0
 15 17  1  0  0  0  0
 17 18  1  0  0  0  0
 17 19  2  0  0  0  0
 19 20  1  0  0  0  0
 19 45  1  0  0  0  0
 20 21  1  0  0  0  0
 20 26  1  0  0  0  0
 21 25  1  0  0  0  0
 21 22  1  0  0  0  0
 21 46  1  0  0  0  0
 22 23  1  0  0  0  0
 22 47  1  0  0  0  0
 22 48  1  0  0  0  0
 23 24  1  0  0  0  0
 23 49  1  0  0  0  0
 23 50  1  0  0  0  0
 24 25  1  0  0  0  0
 24 51  1  0  0  0  0
 24 52  1  0  0  0  0
 26 27  2  0  0  0  0
 28 29  1  0  0  0  0
 29 53  1  0  0  0  0
 29 54  1  0  0  0  0
 29 55  1  0  0  0  0
M  END
> <s_m_source_file>
AV-unprocessed.smi

> <i_m_source_file_index>
115

> <i_lp_mmshare_version>
43012

> <i_f3d_flags>
0

> <s_epik_input>
W0NIM11PW0NIMl1bQ0BIXShbQ0gzXSluMWMoW0NIM10pW2NIXWMoYzFbQ0gzXSlDKD1PKVtDSDJdbjJjKD1PKWMoRilbY0hdbihjMj1PKVtDQEBIXTNbQ0gyXVtDSDJdW0NIMl1PMw==

> <s_epik_cmdline>
J2VwaWtfcHl0aG9uJywgJy1waCcsICc3LjAnLCAnLXRuJywgJzgnLCAnLW1hJywgJzIwMCcsICctbWV0YWxfYmluZGluZycsICctaW1hZScsICc8aW5maWxlLm1hZT4nLCAnLW9tYWUnLCAnPG91dGZpbGUubWFlPic=

> <r_lp_tautomer_probability>
1

> <r_epik_Ionization_Penalty>
5.02611e-09

> <r_epik_Ionization_Penalty_Charging>
5.01743e-09

> <r_epik_Ionization_Penalty_Neutral>
8.68114e-12

> <r_epik_State_Penalty>
-0

> <r_epik_Charging_Adjusted_Penalty>
5.01743e-09

> <i_epik_Tot_Q>
0

> <i_epik_Tot_abs_Q>
0

> <r_epik_Metal_State_Penalty>
-0

> <b_epik_Metal_Only>
0

> <s_epik_Chemistry_Notes>
This compound contains an acetal/aminal-like group ( X-CH(R)-Y where X, Y are N, S, or O) that may be acid/base labile, releasing an aldehyde.

> <s_lp_Force_Field>
OPLS_2005

> <r_lp_Energy>
47.9533

> <b_lp_Chiralities_Consistent>
1

> <s_lp_Variant>
AV-unprocessed.smi:115-1

> <Gold.Version>
5.8.1

> <Gold.Id.Protein>
6NUR|6NUR_protein|mol2

> <Gold.PLP.Fitness>
41.1202

> <Gold.PLP.PLP>
-37.1532

> <Gold.PLP.part.hbond>
-1.0000

> <Gold.PLP.part.metal>
0.0000

> <Gold.PLP.part.buried>
-5.4944

> <Gold.PLP.part.nonpolar>
-32.4976

> <Gold.PLP.part.repulsive>
2.8981

> <Gold.PLP.ligand.clash>
0.0000

> <Gold.PLP.ligand.torsion>
1.2546

> <Gold.PLP.Chemscore.Hbond>
1.0000

> <Gold.PLP.Chemscore.CHOScore>
1.0000

> <Gold.PLP.Chemscore.Metal>
0.0000

> <Gold.Chemscore.Hbonds>
donor molecule, donor type, donor heavy atom, donor atom, acceptor molecule, acceptor atom, score
      P1  H 10752 10763       L1    12  0.50
      L1  C    19    45       P1 10747  0.84

> <Gold.PLP.Chemscore.Internal.Correction>
0.4762

> <Gold.Rescore>
     Score         DG    S(hbond)    S(metal)    S(lipo)     H(rot)  DE(clash)    DE(int)     intcor
      8.08     -12.53       0.99        0.00      79.97       2.19       0.21       4.25       ----

> <Gold.Chemscore.Fitness>
8.0767

> <Gold.Chemscore.DG>
-12.5303

> <Gold.Chemscore.ZeroCoef>
-5.4800

> <Gold.Chemscore.Hbond>
0.9910

> <Gold.Chemscore.Metal>
0.0000

> <Gold.Chemscore.Lipo>
79.9691

> <Gold.Chemscore.Internal_Hbond>
0.0000

> <Gold.Chemscore.DEClash>
0.2054

> <Gold.Chemscore.DEInternal>
4.2482

> <Gold.Chemscore.Rot>
2.1938

> <Gold.Chemscore.Internal.Correction>
   9.000000E+99

> <Gold.Chemscore.Hbonds>
donor molecule, donor type, donor heavy atom, donor atom, acceptor molecule, acceptor atom, score
      P1  H 10752 10763       L1    12  0.49

> <Gold.Chemscore.Hbond.Weighted>
-3.3099

> <Gold.Chemscore.Metal.Weighted>
-0.0000

> <Gold.Chemscore.Lipo.Weighted>
-9.3564

> <Gold.Chemscore.Internal_Hbond.Weighted>
0.0000

> <Gold.Chemscore.DEClash.Weighted>
0.2054

> <Gold.Chemscore.DEInternal.Weighted>
4.2482

> <Gold.Chemscore.Rot.Weighted>
5.6160

> <Gold.Chemscore.Internal.Correction.Weighted>
   9.000000E+99

> <Gold.Protein.RotatedTorsions>
[ 6907 6896 6895 6894 ] final  152.21 input  -60.11 | X-H torsion
[ 7974 7965 7964 7962 ] final  -91.26 input  175.53 | X-H torsion
[ 8008 7997 7996 7995 ] final -105.34 input   59.86 | X-H torsion
[ 10167 10162 10161 10158 ] final  113.88 input  -65.29 | X-H torsion
[ 10718 10713 10712 10709 ] final -129.59 input   66.30 | X-H torsion
[ 10763 10752 10751 10750 ] final  100.99 input  -60.55 | X-H torsion
[ 11005 11000 10999 10996 ] final   14.04 input  -57.11 | X-H torsion

> <Gold.Protein.ActiveResidues>
 VAL166  LYS551  ARG553  GLY616  TRP617  ASP618  TYR619  PRO620  LYS621  CYS622 
 ASP623  PHE694  ASN695  SER759  ASP760  ASP761  ALA762  ILE779  LEU786  VAL792 
 PHE793  MET794  SER795  GLU796  ALA797  LYS798  CYS799  TRP800  GLU811  SER814 

> <Gold.Protein.RotatedAtoms>
  152.0899  133.4195  159.4538 H   0  0  0  0  0  0  0  0  0  0  0  0  # atno 6907 bound_to 6896
  150.6862  134.2884  159.4665 H   0  0  0  0  0  0  0  0  0  0  0  0  # atno 6908 bound_to 6896
  152.0734  134.9518  160.0625 H   0  0  0  0  0  0  0  0  0  0  0  0  # atno 6909 bound_to 6896
  145.4155  140.9548  143.2210 H   0  0  0  0  0  0  0  0  0  0  0  0  # atno 7974 bound_to 7965
  154.8985  140.0413  157.1879 H   0  0  0  0  0  0  0  0  0  0  0  0  # atno 8008 bound_to 7997
  154.8468  140.2923  155.5602 H   0  0  0  0  0  0  0  0  0  0  0  0  # atno 8009 bound_to 7997
  156.2994  140.2472  156.3420 H   0  0  0  0  0  0  0  0  0  0  0  0  # atno 8010 bound_to 7997
  139.6429  144.7125  151.2201 H   0  0  0  0  0  0  0  0  0  0  0  0  # atno 10167 bound_to 10162
  156.2061  130.6888  151.0596 H   0  0  0  0  0  0  0  0  0  0  0  0  # atno 10718 bound_to 10713
  153.3209  135.4060  155.1416 H   0  0  0  0  0  0  0  0  0  0  0  0  # atno 10763 bound_to 10752
  154.8600  135.3587  154.5597 H   0  0  0  0  0  0  0  0  0  0  0  0  # atno 10764 bound_to 10752
  153.6030  135.7070  153.5435 H   0  0  0  0  0  0  0  0  0  0  0  0  # atno 10765 bound_to 10752
  140.4740  134.1003  155.7738 H   0  0  0  0  0  0  0  0  0  0  0  0  # atno 11005 bound_to 11000
  144.8280  139.5676  143.6956 LP  0  0  0  0  0  0  0  0  0  0  0  0  # atno 17320 bound_to 7965
  146.2683  139.6574  142.9314 LP  0  0  0  0  0  0  0  0  0  0  0  0  # atno 17321 bound_to 7965
  140.7500  143.6281  150.8449 LP  0  0  0  0  0  0  0  0  0  0  0  0  # atno 17342 bound_to 10162
  139.9920  143.5836  152.2906 LP  0  0  0  0  0  0  0  0  0  0  0  0  # atno 17343 bound_to 10162
  157.7013  131.0775  150.6811 LP  0  0  0  0  0  0  0  0  0  0  0  0  # atno 17370 bound_to 10713
  156.6869  130.4584  149.5611 LP  0  0  0  0  0  0  0  0  0  0  0  0  # atno 17371 bound_to 10713
  141.1563  133.8876  157.1967 LP  0  0  0  0  0  0  0  0  0  0  0  0  # atno 17394 bound_to 11000
  139.9868  135.0079  156.9880 LP  0  0  0  0  0  0  0  0  0  0  0  0  # atno 17395 bound_to 11000

$$$$
