#       Name:                AV-unprocessed.smi:21
#       Creating user name   scv26
#       Creation time:       Thu Mar 26 15:40:09 2020


#       File generated by GOLD software.
#

@<TRIPOS>MOLECULE
AV-unprocessed.smi:21
    71    74     1
SMALL
NO_CHARGES


@<TRIPOS>ATOM
      1 ****        -3.7236   0.1871  -5.8096 C.3            1 S1                 0.0000
      2 ****        -3.2340  -0.8359  -4.9573 O.3            1 S1                 0.0000
      3 ****        -3.9311  -0.9242  -3.7229 C.3            1 S1                 0.0000
      4 ****        -3.5237   0.1732  -2.7220 C.3            1 S1                 0.0000
      5 ****        -2.9374  -0.5909  -1.5244 C.3            1 S1                 0.0000
      6 ****        -3.1284   0.1347  -0.1738 C.3            1 S1                 0.0000
      7 ****        -2.4506   1.4299  -0.1138 N.pl3          1 S1                 0.0000
      8 ****        -3.2354   2.6272  -0.4122 C.3            1 S1                 0.0000
      9 ****        -1.0866   1.5131  -0.1266 C.ar           1 S1                 0.0000
     10 ****        -0.5189   2.6947  -0.4943 N.ar           1 S1                 0.0000
     11 ****         0.8072   2.8395  -0.5398 C.ar           1 S1                 0.0000
     12 ****         1.7515   1.9437  -0.2572 N.ar           1 S1                 0.0000
     13 ****         1.2029   0.7565   0.1249 C.ar           1 S1                 0.0000
     14 ****        -0.1883   0.4536   0.2173 C.ar           1 S1                 0.0000
     15 ****        -0.3391  -0.8630   0.6431 N.2            1 S1                 0.0000
     16 ****         0.8775  -1.3103   0.7807 C.2            1 S1                 0.0000
     17 ****         1.8668  -0.3954   0.5092 N.pl3          1 S1                 0.0000
     18 ****         3.2998  -0.6196   0.5795 C.3            1 S1                 0.0000
     19 ****         4.0304   0.2035   1.6730 C.3            1 S1                 0.0000
     20 ****         5.5583   0.0534   1.4880 C.3            1 S1                 0.0000
     21 ****         5.9916  -1.2629   1.7662 O.3            1 S1                 0.0000
     22 ****         3.5700  -0.1088   3.1276 C.3            1 S1                 0.0000
     23 ****         4.3923   0.5671   4.2143 C.3            1 S1                 0.0000
     24 ****         3.4684   0.4771   5.4192 C.3            1 S1                 0.0000
     25 ****         2.1771   0.7192   4.8844 O.3            1 S1                 0.0000
     26 ****         2.1580   0.3740   3.5022 C.3            1 S1                 0.0000
     27 ****        -3.5454  -1.9098  -1.5906 N.3            1 S1                 0.0000
     28 ****        -2.8472  -2.9198  -0.8063 C.3            1 S1                 0.0000
     29 ****        -3.5440  -2.2206  -3.0063 C.3            1 S1                 0.0000
     30 ****        -5.0110  -0.9103  -3.8820 H              1 S1                 0.0000
     31 ****        -1.8688  -0.7061  -1.7134 H              1 S1                 0.0000
     32 ****        -3.1480   0.1958  -6.7351 H              1 S1                 0.0000
     33 ****        -3.6341   1.1725  -5.3516 H              1 S1                 0.0000
     34 ****        -4.7694   0.0164  -6.0680 H              1 S1                 0.0000
     35 ****        -2.7949   0.8735  -3.1314 H              1 S1                 0.0000
     36 ****        -4.4053   0.7451  -2.4299 H              1 S1                 0.0000
     37 ****        -4.1950   0.2835  -0.0025 H              1 S1                 0.0000
     38 ****        -2.8037  -0.4818   0.6618 H              1 S1                 0.0000
     39 ****        -2.9753   3.4387   0.2684 H              1 S1                 0.0000
     40 ****        -4.3036   2.4394  -0.3034 H              1 S1                 0.0000
     41 ****        -3.0579   2.9605  -1.4353 H              1 S1                 0.0000
     42 ****         1.1611   3.8128  -0.8464 H              1 S1                 0.0000
     43 ****         1.0861  -2.3209   1.1007 H              1 S1                 0.0000
     44 ****         3.4739  -1.6854   0.7317 H              1 S1                 0.0000
     45 ****         3.7105  -0.3804  -0.4021 H              1 S1                 0.0000
     46 ****         3.8159   1.2566   1.4877 H              1 S1                 0.0000
     47 ****         5.8437   0.3040   0.4658 H              1 S1                 0.0000
     48 ****         6.1027   0.7459   2.1300 H              1 S1                 0.0000
     49 ****         5.5688  -1.8532   1.1614 H              1 S1                 0.0000
     50 ****         3.6202  -1.1861   3.2950 H              1 S1                 0.0000
     51 ****         5.3526   0.0822   4.3921 H              1 S1                 0.0000
     52 ****         4.5755   1.6131   3.9638 H              1 S1                 0.0000
     53 ****         3.4939  -0.5256   5.8483 H              1 S1                 0.0000
     54 ****         3.7212   1.1926   6.2017 H              1 S1                 0.0000
     55 ****         1.8768   1.2639   2.9383 H              1 S1                 0.0000
     56 ****         1.4042  -0.3918   3.3233 H              1 S1                 0.0000
     57 ****        -3.3155  -3.8959  -0.9362 H              1 S1                 0.0000
     58 ****        -2.8766  -2.6805   0.2563 H              1 S1                 0.0000
     59 ****        -1.8021  -3.0029  -1.1074 H              1 S1                 0.0000
     60 ****        -4.2220  -3.0422  -3.2396 H              1 S1                 0.0000
     61 ****        -2.5415  -2.5211  -3.3167 H              1 S1                 0.0000
     62 ****        -2.2699  -0.6532  -4.7644 LP             1 S1                 0.0000
     63 ****        -3.3187  -1.7117  -5.4324 LP             1 S1                 0.0000
     64 ****        -1.1059   3.4679  -0.7345 LP             1 S1                 0.0000
     65 ****         2.7341   2.1194  -0.3175 LP             1 S1                 0.0000
     66 ****        -1.1929  -1.3570   0.8073 LP             1 S1                 0.0000
     67 ****         5.7452  -1.5077   2.7040 LP             1 S1                 0.0000
     68 ****         6.9838  -1.3214   1.6563 LP             1 S1                 0.0000
     69 ****         1.9503   1.6876   4.9885 LP             1 S1                 0.0000
     70 ****         1.5047   0.1648   5.3749 LP             1 S1                 0.0000
     71 ****        -4.4616  -1.9093  -1.1899 LP             1 S1                 0.0000
@<TRIPOS>BOND
    1    1    2 1     
    2    1   32 1     
    3    1   33 1     
    4    1   34 1     
    5    2    3 1     
    6    3   30 1     
    7    3   29 1     
    8    3    4 1     
    9    4    5 1     
   10    4   35 1     
   11    4   36 1     
   12    5   31 1     
   13    5    6 1     
   14    5   27 1     
   15    6    7 1     
   16    6   37 1     
   17    6   38 1     
   18    7    8 1     
   19    7    9 1     
   20    8   39 1     
   21    8   40 1     
   22    8   41 1     
   23    9   14 ar    
   24    9   10 ar    
   25   10   11 ar    
   26   11   12 ar    
   27   11   42 1     
   28   12   13 ar    
   29   13   17 1     
   30   13   14 ar    
   31   14   15 1     
   32   15   16 2     
   33   16   17 1     
   34   16   43 1     
   35   17   18 1     
   36   18   19 1     
   37   18   44 1     
   38   18   45 1     
   39   19   20 1     
   40   19   22 1     
   41   19   46 1     
   42   20   21 1     
   43   20   47 1     
   44   20   48 1     
   45   21   49 1     
   46   22   26 1     
   47   22   23 1     
   48   22   50 1     
   49   23   24 1     
   50   23   51 1     
   51   23   52 1     
   52   24   25 1     
   53   24   53 1     
   54   24   54 1     
   55   25   26 1     
   56   26   55 1     
   57   26   56 1     
   58   27   28 1     
   59   27   29 1     
   60   28   57 1     
   61   28   58 1     
   62   28   59 1     
   63   29   60 1     
   64   29   61 1     
   65    2   62 1     
   66    2   63 1     
   67   10   64 1     
   68   12   65 1     
   69   15   66 1     
   70   21   67 1     
   71   21   68 1     
   72   25   69 1     
   73   25   70 1     
   74   27   71 1     
@<TRIPOS>SUBSTRUCTURE
      1 S1             1
@<TRIPOS>SET
LONE_PAIRS      STATIC     ATOMS    <user>   **** ""
10 62 63 64 65 66 67 68 69 70 71
DONOR_HYDROGENS      STATIC     ATOMS    <user>   **** ""
1 49
ATOM$BLUE        STATIC     ATOMS    COLORGROUP SYSTEM
10 62 63 64 65 66 67 68 69 70 71
ATOM$RED        STATIC     ATOMS    COLORGROUP SYSTEM
1 49
