AV-unprocessed.smi:2321|AV-procd|sdf|9281|dock10
  -GOLD-   2272012503D 1   1.00000     0.00000
 Structure written by MMmdl.
 36 37  0  0  0  0  0  0  0  0  1 V2000
  149.0013  140.7484  157.7308 O   0  0  0  0  0  0  0  0  0  0  0  0
  149.0901  141.8403  157.1737 C   0  0  0  0  0  0  0  0  0  0  0  0
  150.0583  142.7475  157.4088 N   0  0  0  0  0  0  0  0  0  0  0  0
  151.1651  142.6665  158.2958 C   0  0  0  0  0  0  0  0  0  0  0  0
  151.7487  141.4524  158.7314 C   0  0  0  0  0  0  0  0  0  0  0  0
  152.8338  141.5103  159.6291 C   0  0  0  0  0  0  0  0  0  0  0  0
  153.3461  142.6654  160.1042 N   0  0  0  0  0  0  0  0  0  0  0  0
  152.7782  143.8201  159.6967 C   0  0  0  0  0  0  0  0  0  0  0  0
  151.6896  143.8739  158.8037 C   0  0  0  0  0  0  0  0  0  0  0  0
  151.1627  145.0679  158.4387 F   0  0  0  0  0  0  0  0  0  0  0  0
  148.2037  142.2121  156.2318 N   0  0  0  0  0  0  0  0  0  0  0  0
  147.0365  141.4773  155.7315 C   0  0  2  0  0  0  0  0  0  0  0  0
  147.0487  141.4478  154.1911 C   0  0  0  0  0  0  0  0  0  0  0  0
  146.7374  142.8244  153.5802 C   0  0  0  0  0  0  0  0  0  0  0  0
  145.4097  143.3855  154.1122 C   0  0  0  0  0  0  0  0  0  0  0  0
  145.4020  143.4656  155.6532 C   0  0  1  0  0  0  0  0  0  0  0  0
  144.0799  144.0465  156.1958 C   0  0  0  0  0  0  0  0  0  0  0  0
  143.0424  143.2990  155.8181 F   0  0  0  0  0  0  0  0  0  0  0  0
  144.1156  144.0929  157.5275 F   0  0  0  0  0  0  0  0  0  0  0  0
  143.9053  145.2873  155.7412 F   0  0  0  0  0  0  0  0  0  0  0  0
  145.7127  142.0775  156.2577 C   0  0  0  0  0  0  0  0  0  0  0  0
  150.0420  143.5674  156.8200 H   0  0  0  0  0  0  0  0  0  0  0  0
  151.3840  140.4892  158.4101 H   0  0  0  0  0  0  0  0  0  0  0  0
  153.2997  140.6015  159.9799 H   0  0  0  0  0  0  0  0  0  0  0  0
  153.2030  144.7292  160.0959 H   0  0  0  0  0  0  0  0  0  0  0  0
  148.3695  143.1082  155.7965 H   0  0  0  0  0  0  0  0  0  0  0  0
  147.1113  140.4430  156.0716 H   0  0  0  0  0  0  0  0  0  0  0  0
  148.0105  141.0848  153.8262 H   0  0  0  0  0  0  0  0  0  0  0  0
  146.3039  140.7307  153.8432 H   0  0  0  0  0  0  0  0  0  0  0  0
  147.5453  143.5215  153.8052 H   0  0  0  0  0  0  0  0  0  0  0  0
  146.6958  142.7447  152.4937 H   0  0  0  0  0  0  0  0  0  0  0  0
  145.2395  144.3737  153.6840 H   0  0  0  0  0  0  0  0  0  0  0  0
  144.5870  142.7566  153.7698 H   0  0  0  0  0  0  0  0  0  0  0  0
  146.1992  144.1477  155.9526 H   0  0  0  0  0  0  0  0  0  0  0  0
  144.8988  141.3930  156.0160 H   0  0  0  0  0  0  0  0  0  0  0  0
  145.7323  142.1392  157.3459 H   0  0  0  0  0  0  0  0  0  0  0  0
  1  2  2  0  0  0  0
  2  3  1  0  0  0  0
  2 11  1  0  0  0  0
  3  4  1  0  0  0  0
  3 22  1  0  0  0  0
  4  9  1  0  0  0  0
  4  5  2  0  0  0  0
  5  6  1  0  0  0  0
  5 23  1  0  0  0  0
  6  7  2  0  0  0  0
  6 24  1  0  0  0  0
  7  8  1  0  0  0  0
  8  9  2  0  0  0  0
  8 25  1  0  0  0  0
  9 10  1  0  0  0  0
 11 12  1  0  0  0  0
 11 26  1  0  0  0  0
 12 21  1  0  0  0  0
 12 13  1  0  0  0  0
 12 27  1  0  0  0  0
 13 14  1  0  0  0  0
 13 28  1  0  0  0  0
 13 29  1  0  0  0  0
 14 15  1  0  0  0  0
 14 30  1  0  0  0  0
 14 31  1  0  0  0  0
 15 16  1  0  0  0  0
 15 32  1  0  0  0  0
 15 33  1  0  0  0  0
 16 17  1  0  0  0  0
 16 21  1  0  0  0  0
 16 34  1  0  0  0  0
 17 18  1  0  0  0  0
 17 19  1  0  0  0  0
 17 20  1  0  0  0  0
 21 35  1  0  0  0  0
 21 36  1  0  0  0  0
M  END
> <s_m_source_file>
AV-unprocessed.smi

> <i_m_source_file_index>
2321

> <i_lp_mmshare_version>
43012

> <i_f3d_flags>
0

> <s_epik_input>
RkMoRikoRilbQ0BASF0oW0NIMl0xKVtDSDJdW0NIMl1bQ0gyXVtDQEhdMVtOSF1DKD1PKVtOSF1jMltjSF1bY0hdbltjSF1jMkY=

> <s_epik_cmdline>
J2VwaWtfcHl0aG9uJywgJy1waCcsICc3LjAnLCAnLXRuJywgJzgnLCAnLW1hJywgJzIwMCcsICctbWV0YWxfYmluZGluZycsICctaW1hZScsICc8aW5maWxlLm1hZT4nLCAnLW9tYWUnLCAnPG91dGZpbGUubWFlPic=

> <r_epik_Ionization_Penalty>
0.00319438

> <r_epik_Ionization_Penalty_Charging>
0

> <r_epik_Ionization_Penalty_Neutral>
0.00319438

> <r_epik_State_Penalty>
0.00222511

> <r_epik_Charging_Adjusted_Penalty>
0.00222511

> <i_epik_Tot_Q>
0

> <i_epik_Tot_abs_Q>
0

> <r_epik_Metal_State_Penalty>
-0

> <b_epik_Metal_Only>
0

> <s_lp_Force_Field>
OPLS_2005

> <r_lp_Energy>
25.9848

> <b_lp_Chiralities_Consistent>
1

> <s_lp_Variant>
AV-unprocessed.smi:2321-1

> <Gold.Version>
5.8.1

> <Gold.Id.Protein>
6NUR|6NUR_protein|mol2

> <Gold.PLP.Fitness>
42.6438

> <Gold.PLP.PLP>
-37.3309

> <Gold.PLP.part.hbond>
-2.0000

> <Gold.PLP.part.metal>
0.0000

> <Gold.PLP.part.buried>
-6.9902

> <Gold.PLP.part.nonpolar>
-29.1057

> <Gold.PLP.part.repulsive>
0.0704

> <Gold.PLP.ligand.clash>
0.0000

> <Gold.PLP.ligand.torsion>
0.2942

> <Gold.PLP.Chemscore.Hbond>
1.9600

> <Gold.PLP.Chemscore.CHOScore>
0.0000

> <Gold.PLP.Chemscore.Metal>
0.0000

> <Gold.Chemscore.Hbonds>
donor molecule, donor type, donor heavy atom, donor atom, acceptor molecule, acceptor atom, score
      L1  H     3    22       P1  8028  0.90
      L1  H    11    26       P1  8028  1.00

> <Gold.PLP.Chemscore.Internal.Correction>
0.0213

> <Gold.Rescore>
     Score         DG    S(hbond)    S(metal)    S(lipo)     H(rot)  DE(clash)    DE(int)     intcor
     17.49     -18.94       1.89        0.00      82.95       1.00       0.23       1.22       ----

> <Gold.Chemscore.Fitness>
17.4880

> <Gold.Chemscore.DG>
-18.9364

> <Gold.Chemscore.ZeroCoef>
-5.4800

> <Gold.Chemscore.Hbond>
1.8898

> <Gold.Chemscore.Metal>
0.0000

> <Gold.Chemscore.Lipo>
82.9456

> <Gold.Chemscore.Internal_Hbond>
0.0000

> <Gold.Chemscore.DEClash>
0.2252

> <Gold.Chemscore.DEInternal>
1.2233

> <Gold.Chemscore.Rot>
1.0000

> <Gold.Chemscore.Internal.Correction>
   9.000000E+99

> <Gold.Chemscore.Hbonds>
donor molecule, donor type, donor heavy atom, donor atom, acceptor molecule, acceptor atom, score
      L1  H     3    22       P1  8028  0.85
      L1  H    11    26       P1  8028  0.94

> <Gold.Chemscore.Hbond.Weighted>
-6.3118

> <Gold.Chemscore.Metal.Weighted>
-0.0000

> <Gold.Chemscore.Lipo.Weighted>
-9.7046

> <Gold.Chemscore.Internal_Hbond.Weighted>
0.0000

> <Gold.Chemscore.DEClash.Weighted>
0.2252

> <Gold.Chemscore.DEInternal.Weighted>
1.2233

> <Gold.Chemscore.Rot.Weighted>
2.5600

> <Gold.Chemscore.Internal.Correction.Weighted>
   9.000000E+99

> <Gold.Protein.RotatedTorsions>
[ 6907 6896 6895 6894 ] final  138.27 input  -60.11 | X-H torsion
[ 7974 7965 7964 7962 ] final   86.74 input  175.53 | X-H torsion
[ 8008 7997 7996 7995 ] final  -90.82 input   59.86 | X-H torsion
[ 10167 10162 10161 10158 ] final -169.20 input  -65.29 | X-H torsion
[ 10718 10713 10712 10709 ] final  -54.76 input   66.30 | X-H torsion
[ 10763 10752 10751 10750 ] final   -7.52 input  -60.55 | X-H torsion
[ 11005 11000 10999 10996 ] final  -83.41 input  -57.11 | X-H torsion

> <Gold.Protein.ActiveResidues>
 VAL166  LYS551  ARG553  GLY616  TRP617  ASP618  TYR619  PRO620  LYS621  CYS622 
 ASP623  PHE694  ASN695  SER759  ASP760  ASP761  ALA762  ILE779  LEU786  VAL792 
 PHE793  MET794  SER795  GLU796  ALA797  LYS798  CYS799  TRP800  GLU811  SER814 

> <Gold.Protein.RotatedAtoms>
  152.2685  133.5361  159.5424 H   0  0  0  0  0  0  0  0  0  0  0  0  # atno 6907 bound_to 6896
  150.7150  134.0730  159.3880 H   0  0  0  0  0  0  0  0  0  0  0  0  # atno 6908 bound_to 6896
  151.8646  135.0512  160.0523 H   0  0  0  0  0  0  0  0  0  0  0  0  # atno 6909 bound_to 6896
  145.5682  139.2311  143.2421 H   0  0  0  0  0  0  0  0  0  0  0  0  # atno 7974 bound_to 7965
  154.7032  140.0526  157.0478 H   0  0  0  0  0  0  0  0  0  0  0  0  # atno 8008 bound_to 7997
  155.0656  140.3194  155.4627 H   0  0  0  0  0  0  0  0  0  0  0  0  # atno 8009 bound_to 7997
  156.2766  140.2091  156.5783 H   0  0  0  0  0  0  0  0  0  0  0  0  # atno 8010 bound_to 7997
  139.5937  144.1158  152.1664 H   0  0  0  0  0  0  0  0  0  0  0  0  # atno 10167 bound_to 10162
  156.1424  130.4154  150.0081 H   0  0  0  0  0  0  0  0  0  0  0  0  # atno 10718 bound_to 10713
  153.4275  135.7011  153.6253 H   0  0  0  0  0  0  0  0  0  0  0  0  # atno 10763 bound_to 10752
  153.4682  135.3721  155.2376 H   0  0  0  0  0  0  0  0  0  0  0  0  # atno 10764 bound_to 10752
  154.8724  135.4036  154.3653 H   0  0  0  0  0  0  0  0  0  0  0  0  # atno 10765 bound_to 10752
  141.1658  133.7293  156.8717 H   0  0  0  0  0  0  0  0  0  0  0  0  # atno 11005 bound_to 11000
  146.1803  140.6508  142.9192 LP  0  0  0  0  0  0  0  0  0  0  0  0  # atno 17320 bound_to 7965
  144.7450  140.5044  143.6842 LP  0  0  0  0  0  0  0  0  0  0  0  0  # atno 17321 bound_to 7965
  140.0738  144.5757  150.7172 LP  0  0  0  0  0  0  0  0  0  0  0  0  # atno 17342 bound_to 10162
  140.7194  143.2575  151.4327 LP  0  0  0  0  0  0  0  0  0  0  0  0  # atno 17343 bound_to 10162
  156.7962  130.9274  151.3646 LP  0  0  0  0  0  0  0  0  0  0  0  0  # atno 17370 bound_to 10713
  157.6587  130.8947  149.9784 LP  0  0  0  0  0  0  0  0  0  0  0  0  # atno 17371 bound_to 10713
  140.1777  134.9055  157.2911 LP  0  0  0  0  0  0  0  0  0  0  0  0  # atno 17394 bound_to 11000
  140.2430  134.3773  155.7473 LP  0  0  0  0  0  0  0  0  0  0  0  0  # atno 17395 bound_to 11000

$$$$
