AV-unprocessed.smi:99|AV-procd|sdf|868|dock7
  -GOLD-   2262017323D 1   1.00000     0.00000
 Structure written by MMmdl.
 53 56  0  0  0  0  0  0  0  0  1 V2000
  148.1820  132.1339  159.2773 O   0  0  0  0  0  0  0  0  0  0  0  0
  147.7415  133.2848  159.2427 C   0  0  0  0  0  0  0  0  0  0  0  0
  147.3910  133.9147  158.1045 O   0  0  0  0  0  0  0  0  0  0  0  0
  147.5907  133.2780  156.8538 C   0  0  0  0  0  0  0  0  0  0  0  0
  148.1192  134.3092  155.8411 C   0  0  1  0  0  0  0  0  0  0  0  0
  148.8377  135.3199  156.5454 O   0  0  0  0  0  0  0  0  0  0  0  0
  150.2082  135.0304  156.5742 C   0  0  2  0  0  0  0  0  0  0  0  0
  150.9695  136.2387  156.0794 N   0  0  0  0  0  0  0  0  0  0  0  0
  150.7188  136.7838  154.8269 C   0  0  0  0  0  0  0  0  0  0  0  0
  151.3878  137.8556  154.3405 C   0  0  0  0  0  0  0  0  0  0  0  0
  152.4325  138.4973  155.1317 C   0  0  0  0  0  0  0  0  0  0  0  0
  153.0890  139.4745  154.7790 O   0  0  0  0  0  0  0  0  0  0  0  0
  152.6614  137.9073  156.3781 N   0  0  0  0  0  0  0  0  0  0  0  0
  151.9829  136.7993  156.8878 C   0  0  0  0  0  0  0  0  0  0  0  0
  152.2842  136.3494  157.9926 O   0  0  0  0  0  0  0  0  0  0  0  0
  150.4707  133.8251  155.6565 C   0  0  1  0  0  0  0  0  0  0  0  0
  150.6965  132.6541  156.4193 O   0  0  0  0  0  0  0  0  0  0  0  0
  149.1679  133.7683  154.8686 C   0  0  1  0  0  0  0  0  0  0  0  0
  148.8652  132.4912  154.3168 O   0  0  0  0  0  0  0  0  0  0  0  0
  147.8784  132.3452  153.4072 C   0  0  0  0  0  0  0  0  0  0  0  0
  147.3226  133.2908  152.8449 O   0  0  0  0  0  0  0  0  0  0  0  0
  147.5371  130.9170  153.1480 C   0  0  0  0  0  0  0  0  0  0  0  0
  146.3773  130.6067  152.4002 C   0  0  0  0  0  0  0  0  0  0  0  0
  146.0294  129.2672  152.1384 C   0  0  0  0  0  0  0  0  0  0  0  0
  146.8369  128.2214  152.6222 C   0  0  0  0  0  0  0  0  0  0  0  0
  147.9930  128.5167  153.3677 C   0  0  0  0  0  0  0  0  0  0  0  0
  148.3432  129.8556  153.6298 C   0  0  0  0  0  0  0  0  0  0  0  0
  147.5438  134.1271  160.4579 C   0  0  0  0  0  0  0  0  0  0  0  0
  147.2838  133.5011  161.6994 C   0  0  0  0  0  0  0  0  0  0  0  0
  147.0967  134.2693  162.8650 C   0  0  0  0  0  0  0  0  0  0  0  0
  147.1660  135.6731  162.8032 C   0  0  0  0  0  0  0  0  0  0  0  0
  147.4223  136.3080  161.5739 C   0  0  0  0  0  0  0  0  0  0  0  0
  147.6106  135.5415  160.4071 C   0  0  0  0  0  0  0  0  0  0  0  0
  153.3822  138.3141  156.9565 H   0  0  0  0  0  0  0  0  0  0  0  0
  148.2826  132.4420  156.9621 H   0  0  0  0  0  0  0  0  0  0  0  0
  146.6361  132.8739  156.5143 H   0  0  0  0  0  0  0  0  0  0  0  0
  147.2851  134.7464  155.2913 H   0  0  0  0  0  0  0  0  0  0  0  0
  150.5032  134.8718  157.6133 H   0  0  0  0  0  0  0  0  0  0  0  0
  149.9604  136.3424  154.1973 H   0  0  0  0  0  0  0  0  0  0  0  0
  151.1498  138.2404  153.3592 H   0  0  0  0  0  0  0  0  0  0  0  0
  151.3340  133.9962  155.0113 H   0  0  0  0  0  0  0  0  0  0  0  0
  150.4776  131.9037  155.8881 H   0  0  0  0  0  0  0  0  0  0  0  0
  149.2358  134.4936  154.0560 H   0  0  0  0  0  0  0  0  0  0  0  0
  145.7416  131.3927  152.0186 H   0  0  0  0  0  0  0  0  0  0  0  0
  145.1418  129.0425  151.5654 H   0  0  0  0  0  0  0  0  0  0  0  0
  146.5697  127.1943  152.4213 H   0  0  0  0  0  0  0  0  0  0  0  0
  148.6135  127.7148  153.7397 H   0  0  0  0  0  0  0  0  0  0  0  0
  149.2376  130.0464  154.2050 H   0  0  0  0  0  0  0  0  0  0  0  0
  147.2270  132.4245  161.7718 H   0  0  0  0  0  0  0  0  0  0  0  0
  146.9003  133.7797  163.8076 H   0  0  0  0  0  0  0  0  0  0  0  0
  147.0228  136.2620  163.6972 H   0  0  0  0  0  0  0  0  0  0  0  0
  147.4746  137.3857  161.5251 H   0  0  0  0  0  0  0  0  0  0  0  0
  147.8056  136.0604  159.4800 H   0  0  0  0  0  0  0  0  0  0  0  0
  1  2  2  0  0  0  0
  2  3  1  0  0  0  0
  2 28  1  0  0  0  0
  3  4  1  0  0  0  0
  4  5  1  0  0  0  0
  4 35  1  0  0  0  0
  4 36  1  0  0  0  0
  5 18  1  0  0  0  0
  5  6  1  0  0  0  0
  5 37  1  0  0  0  0
  6  7  1  0  0  0  0
  7  8  1  0  0  0  0
  7 16  1  0  0  0  0
  7 38  1  0  0  0  0
  8 14  1  0  0  0  0
  8  9  1  0  0  0  0
  9 10  2  0  0  0  0
  9 39  1  0  0  0  0
 10 11  1  0  0  0  0
 10 40  1  0  0  0  0
 11 12  2  0  0  0  0
 11 13  1  0  0  0  0
 13 34  1  0  0  0  0
 13 14  1  0  0  0  0
 14 15  2  0  0  0  0
 16 17  1  0  0  0  0
 16 18  1  0  0  0  0
 16 41  1  0  0  0  0
 17 42  1  0  0  0  0
 18 19  1  0  0  0  0
 18 43  1  0  0  0  0
 19 20  1  0  0  0  0
 20 21  2  0  0  0  0
 20 22  1  0  0  0  0
 22 27  1  0  0  0  0
 22 23  2  0  0  0  0
 23 24  1  0  0  0  0
 23 44  1  0  0  0  0
 24 25  2  0  0  0  0
 24 45  1  0  0  0  0
 25 26  1  0  0  0  0
 25 46  1  0  0  0  0
 26 27  2  0  0  0  0
 26 47  1  0  0  0  0
 27 48  1  0  0  0  0
 28 33  1  0  0  0  0
 28 29  2  0  0  0  0
 29 30  1  0  0  0  0
 29 49  1  0  0  0  0
 30 31  2  0  0  0  0
 30 50  1  0  0  0  0
 31 32  1  0  0  0  0
 31 51  1  0  0  0  0
 32 33  2  0  0  0  0
 32 52  1  0  0  0  0
 33 53  1  0  0  0  0
M  END
> <s_m_source_file>
AV-unprocessed.smi

> <i_m_source_file_index>
99

> <i_lp_mmshare_version>
43012

> <i_f3d_flags>
0

> <s_epik_input>
W2NIXTFbY0hdW2NIXVtjSF1bY0hdYzFDKD1PKU9bQ0gyXVtDQEBIXTJPW0NAQEhdKG4zW2NIXVtjSF1jKD1PKVtuSF1jMz1PKVtDQEBIXShbT0hdKVtDQEhdMk9DKD1PKWM0W2NIXVtjSF1bY0hdW2NIXVtjSF00

> <s_epik_cmdline>
J2VwaWtfcHl0aG9uJywgJy1waCcsICc3LjAnLCAnLXRuJywgJzgnLCAnLW1hJywgJzIwMCcsICctbWV0YWxfYmluZGluZycsICctaW1hZScsICc8aW5maWxlLm1hZT4nLCAnLW9tYWUnLCAnPG91dGZpbGUubWFlPic=

> <r_lp_tautomer_probability>
1

> <r_epik_Ionization_Penalty>
0.00454555

> <r_epik_Ionization_Penalty_Charging>
0.0045191

> <r_epik_Ionization_Penalty_Neutral>
2.64449e-05

> <r_epik_State_Penalty>
-0

> <r_epik_Charging_Adjusted_Penalty>
0.0045191

> <i_epik_Tot_Q>
0

> <i_epik_Tot_abs_Q>
0

> <r_epik_Metal_State_Penalty>
1.27877

> <b_epik_Metal_Only>
0

> <s_epik_Chemistry_Notes>
This compound has an ester and may undergo hydrolysis at high or low pH. This compound contains an acetal/aminal-like group ( X-CH(R)-Y where X, Y are N, S, or O) that may be acid/base labile, releasing an aldehyde.

> <s_lp_Force_Field>
OPLS_2005

> <r_lp_Energy>
39.5306

> <b_lp_Chiralities_Consistent>
1

> <s_lp_Variant>
AV-unprocessed.smi:99-4

> <Gold.Version>
5.8.1

> <Gold.Id.Protein>
6NUR|6NUR_protein|mol2

> <Gold.PLP.Fitness>
58.0523

> <Gold.PLP.PLP>
-54.3100

> <Gold.PLP.part.hbond>
-2.4768

> <Gold.PLP.part.metal>
0.0000

> <Gold.PLP.part.buried>
-6.5993

> <Gold.PLP.part.nonpolar>
-45.5738

> <Gold.PLP.part.repulsive>
0.4412

> <Gold.PLP.ligand.clash>
0.0000

> <Gold.PLP.ligand.torsion>
1.3659

> <Gold.PLP.Chemscore.Hbond>
1.0939

> <Gold.PLP.Chemscore.CHOScore>
1.0077

> <Gold.PLP.Chemscore.Metal>
0.0000

> <Gold.Chemscore.Hbonds>
donor molecule, donor type, donor heavy atom, donor atom, acceptor molecule, acceptor atom, score
      P1  H  7989  7998       L1    12  0.08
      P1  H  7997  8010       L1    12  0.93
      L1  C     9    39       P1  7948  1.00

> <Gold.PLP.Chemscore.Internal.Correction>
0.1695

> <Gold.Rescore>
     Score         DG    S(hbond)    S(metal)    S(lipo)     H(rot)  DE(clash)    DE(int)     intcor
     13.87     -15.06       1.05        0.00     121.81       3.19       0.08       1.11       ----

> <Gold.Chemscore.Fitness>
13.8711

> <Gold.Chemscore.DG>
-15.0584

> <Gold.Chemscore.ZeroCoef>
-5.4800

> <Gold.Chemscore.Hbond>
1.0459

> <Gold.Chemscore.Metal>
0.0000

> <Gold.Chemscore.Lipo>
121.8131

> <Gold.Chemscore.Internal_Hbond>
0.0000

> <Gold.Chemscore.DEClash>
0.0822

> <Gold.Chemscore.DEInternal>
1.1051

> <Gold.Chemscore.Rot>
3.1903

> <Gold.Chemscore.Internal.Correction>
   9.000000E+99

> <Gold.Chemscore.Hbonds>
donor molecule, donor type, donor heavy atom, donor atom, acceptor molecule, acceptor atom, score
      P1  H  6896  6907       L1    15  0.02
      P1  H  7989  7998       L1    12  0.06
      P1  H  7997  8010       L1    12  0.87

> <Gold.Chemscore.Hbond.Weighted>
-3.4933

> <Gold.Chemscore.Metal.Weighted>
-0.0000

> <Gold.Chemscore.Lipo.Weighted>
-14.2521

> <Gold.Chemscore.Internal_Hbond.Weighted>
0.0000

> <Gold.Chemscore.DEClash.Weighted>
0.0822

> <Gold.Chemscore.DEInternal.Weighted>
1.1051

> <Gold.Chemscore.Rot.Weighted>
8.1671

> <Gold.Chemscore.Internal.Correction.Weighted>
   9.000000E+99

> <Gold.Protein.RotatedTorsions>
[ 6907 6896 6895 6894 ] final  -17.15 input  -60.11 | X-H torsion
[ 7974 7965 7964 7962 ] final  150.39 input  175.53 | X-H torsion
[ 8008 7997 7996 7995 ] final  132.71 input   59.86 | X-H torsion
[ 10167 10162 10161 10158 ] final  -81.58 input  -65.29 | X-H torsion
[ 10718 10713 10712 10709 ] final   32.30 input   66.30 | X-H torsion
[ 10763 10752 10751 10750 ] final  -93.53 input  -60.55 | X-H torsion
[ 11005 11000 10999 10996 ] final  -12.04 input  -57.11 | X-H torsion

> <Gold.Protein.ActiveResidues>
 VAL166  LYS551  ARG553  GLY616  TRP617  ASP618  TYR619  PRO620  LYS621  CYS622 
 ASP623  PHE694  ASN695  SER759  ASP760  ASP761  ALA762  ILE779  LEU786  VAL792 
 PHE793  MET794  SER795  GLU796  ALA797  LYS798  CYS799  TRP800  GLU811  SER814 

> <Gold.Protein.RotatedAtoms>
  151.2978  135.0760  159.9227 H   0  0  0  0  0  0  0  0  0  0  0  0  # atno 6907 bound_to 6896
  152.5304  133.9865  159.7841 H   0  0  0  0  0  0  0  0  0  0  0  0  # atno 6908 bound_to 6896
  151.0146  133.5882  159.2709 H   0  0  0  0  0  0  0  0  0  0  0  0  # atno 6909 bound_to 6896
  144.8368  139.6402  143.6034 H   0  0  0  0  0  0  0  0  0  0  0  0  # atno 7974 bound_to 7965
  156.2985  140.2539  156.3134 H   0  0  0  0  0  0  0  0  0  0  0  0  # atno 8008 bound_to 7997
  154.9304  140.0398  157.2064 H   0  0  0  0  0  0  0  0  0  0  0  0  # atno 8009 bound_to 7997
  154.8224  140.2862  155.5782 H   0  0  0  0  0  0  0  0  0  0  0  0  # atno 8010 bound_to 7997
  140.4399  143.2518  151.8641 H   0  0  0  0  0  0  0  0  0  0  0  0  # atno 10167 bound_to 10162
  157.2835  130.7267  149.6570 H   0  0  0  0  0  0  0  0  0  0  0  0  # atno 10718 bound_to 10713
  154.6968  135.5191  153.8470 H   0  0  0  0  0  0  0  0  0  0  0  0  # atno 10763 bound_to 10752
  153.0673  135.6589  154.0334 H   0  0  0  0  0  0  0  0  0  0  0  0  # atno 10764 bound_to 10752
  154.0199  135.2994  155.3362 H   0  0  0  0  0  0  0  0  0  0  0  0  # atno 10765 bound_to 10752
  140.7616  133.8510  155.9129 H   0  0  0  0  0  0  0  0  0  0  0  0  # atno 11005 bound_to 11000
  146.2665  139.6533  142.9325 LP  0  0  0  0  0  0  0  0  0  0  0  0  # atno 17320 bound_to 7965
  145.4778  141.0437  143.2662 LP  0  0  0  0  0  0  0  0  0  0  0  0  # atno 17321 bound_to 7965
  139.4789  144.5241  151.8760 LP  0  0  0  0  0  0  0  0  0  0  0  0  # atno 17342 bound_to 10162
  140.4330  144.2089  150.5888 LP  0  0  0  0  0  0  0  0  0  0  0  0  # atno 17343 bound_to 10162
  155.9665  130.4331  150.4991 LP  0  0  0  0  0  0  0  0  0  0  0  0  # atno 17370 bound_to 10713
  157.2939  131.0632  151.2115 LP  0  0  0  0  0  0  0  0  0  0  0  0  # atno 17371 bound_to 10713
  140.9658  134.1596  157.4617 LP  0  0  0  0  0  0  0  0  0  0  0  0  # atno 17394 bound_to 11000
  139.8770  134.9961  156.5777 LP  0  0  0  0  0  0  0  0  0  0  0  0  # atno 17395 bound_to 11000

$$$$
