AV-unprocessed.smi:901|AV-procd|sdf|4092|dock4
  -GOLD-   22720 1583D 1   1.00000     0.00000
 Structure written by MMmdl.
 43 44  0  0  0  0  0  0  0  0  1 V2000
  152.8775  142.8930  161.0961 C   0  0  0  0  0  0  0  0  0  0  0  0
  152.4729  142.9352  159.6361 C   0  0  0  0  0  0  0  0  0  0  0  0
  152.6408  144.2896  158.9702 C   0  0  0  0  0  0  0  0  0  0  0  0
  151.9998  141.8463  159.0000 C   0  0  0  0  0  0  0  0  0  0  0  0
  151.5796  141.7665  157.5705 C   0  0  2  0  0  0  0  0  0  0  0  0
  150.1533  141.9797  157.0690 C   0  0  2  0  0  0  0  0  0  0  0  0
  149.0265  142.2331  158.0208 C   0  0  0  0  0  0  0  0  0  0  0  0
  148.0528  141.4868  158.1134 O   0  0  0  0  0  0  0  0  0  0  0  0
  149.2362  143.3075  158.8020 N   0  0  0  0  0  0  0  0  0  0  0  0
  148.3843  143.8575  159.7933 C   0  0  0  0  0  0  0  0  0  0  0  0
  148.7500  144.8378  160.7638 C   0  0  0  0  0  0  0  0  0  0  0  0
  147.5998  145.0132  161.4787 C   0  0  0  0  0  0  0  0  0  0  0  0
  146.6448  144.1708  160.9445 N   0  0  0  0  0  0  0  0  0  0  0  0
  145.2649  143.9917  161.3635 C   0  0  0  0  0  0  0  0  0  0  0  0
  144.8936  142.5097  161.4791 C   0  0  0  0  0  0  0  0  0  0  0  0
  143.5923  142.2124  161.5215 N   0  0  0  0  0  0  0  0  0  0  0  0
  145.7641  141.6423  161.5269 O   0  0  0  0  0  0  0  0  0  0  0  0
  147.1298  143.4559  159.9054 N   0  0  0  0  0  0  0  0  0  0  0  0
  150.7845  140.5928  157.0263 C   0  0  0  0  0  0  0  0  0  0  0  0
  151.1522  140.0186  155.6696 C   0  0  0  0  0  0  0  0  0  0  0  0
  150.3279  139.4630  157.9469 C   0  0  0  0  0  0  0  0  0  0  0  0
  152.2716  143.5899  161.6753 H   0  0  0  0  0  0  0  0  0  0  0  0
  153.9245  143.1756  161.2062 H   0  0  0  0  0  0  0  0  0  0  0  0
  152.7479  141.8972  161.5212 H   0  0  0  0  0  0  0  0  0  0  0  0
  152.0359  145.0354  159.4864 H   0  0  0  0  0  0  0  0  0  0  0  0
  152.3373  144.2818  157.9238 H   0  0  0  0  0  0  0  0  0  0  0  0
  153.6833  144.6048  159.0158 H   0  0  0  0  0  0  0  0  0  0  0  0
  151.9191  140.9268  159.5606 H   0  0  0  0  0  0  0  0  0  0  0  0
  152.3644  142.1557  156.9241 H   0  0  0  0  0  0  0  0  0  0  0  0
  150.0746  142.5253  156.1302 H   0  0  0  0  0  0  0  0  0  0  0  0
  150.1147  143.7879  158.6726 H   0  0  0  0  0  0  0  0  0  0  0  0
  149.6944  145.3355  160.9250 H   0  0  0  0  0  0  0  0  0  0  0  0
  147.3844  145.6567  162.3190 H   0  0  0  0  0  0  0  0  0  0  0  0
  145.1277  144.4977  162.3202 H   0  0  0  0  0  0  0  0  0  0  0  0
  144.5996  144.4751  160.6461 H   0  0  0  0  0  0  0  0  0  0  0  0
  143.2950  141.2508  161.5995 H   0  0  0  0  0  0  0  0  0  0  0  0
  142.9088  142.9544  161.4772 H   0  0  0  0  0  0  0  0  0  0  0  0
  150.2914  139.5219  155.2211 H   0  0  0  0  0  0  0  0  0  0  0  0
  151.9611  139.2943  155.7699 H   0  0  0  0  0  0  0  0  0  0  0  0
  151.4826  140.8064  154.9919 H   0  0  0  0  0  0  0  0  0  0  0  0
  149.4556  138.9623  157.5258 H   0  0  0  0  0  0  0  0  0  0  0  0
  150.0596  139.8272  158.9385 H   0  0  0  0  0  0  0  0  0  0  0  0
  151.1241  138.7275  158.0645 H   0  0  0  0  0  0  0  0  0  0  0  0
  1  2  1  0  0  0  0
  1 22  1  0  0  0  0
  1 23  1  0  0  0  0
  1 24  1  0  0  0  0
  2  3  1  0  0  0  0
  2  4  2  0  0  0  0
  3 25  1  0  0  0  0
  3 26  1  0  0  0  0
  3 27  1  0  0  0  0
  4  5  1  0  0  0  0
  4 28  1  0  0  0  0
  5 19  1  0  0  0  0
  5  6  1  0  0  0  0
  5 29  1  0  0  0  0
  6  7  1  0  0  0  0
  6 19  1  0  0  0  0
  6 30  1  0  0  0  0
  7  8  2  0  0  0  0
  7  9  1  0  0  0  0
  9 10  1  0  0  0  0
  9 31  1  0  0  0  0
 10 18  2  0  0  0  0
 10 11  1  0  0  0  0
 11 12  2  0  0  0  0
 11 32  1  0  0  0  0
 12 13  1  0  0  0  0
 12 33  1  0  0  0  0
 13 14  1  0  0  0  0
 13 18  1  0  0  0  0
 14 15  1  0  0  0  0
 14 34  1  0  0  0  0
 14 35  1  0  0  0  0
 15 16  1  0  0  0  0
 15 17  2  0  0  0  0
 16 36  1  0  0  0  0
 16 37  1  0  0  0  0
 19 20  1  0  0  0  0
 19 21  1  0  0  0  0
 20 38  1  0  0  0  0
 20 39  1  0  0  0  0
 20 40  1  0  0  0  0
 21 41  1  0  0  0  0
 21 42  1  0  0  0  0
 21 43  1  0  0  0  0
M  END
> <s_m_source_file>
AV-unprocessed.smi

> <i_m_source_file_index>
901

> <i_lp_mmshare_version>
43012

> <i_f3d_flags>
0

> <s_epik_input>
W0NIM11DKFtDSDNdKT1bQ0hdW0NAQEhdKEMxKFtDSDNdKVtDSDNdKVtDQEhdMUMoPU8pW05IXWMyW2NIXVtjSF1uKG4yKVtDSDJdQyg9TylbTkgyXQ==

> <s_epik_cmdline>
J2VwaWtfcHl0aG9uJywgJy1waCcsICc3LjAnLCAnLXRuJywgJzgnLCAnLW1hJywgJzIwMCcsICctbWV0YWxfYmluZGluZycsICctaW1hZScsICc8aW5maWxlLm1hZT4nLCAnLW9tYWUnLCAnPG91dGZpbGUubWFlPic=

> <r_lp_tautomer_probability>
1

> <r_epik_Ionization_Penalty>
1.01454e-05

> <r_epik_Ionization_Penalty_Charging>
0

> <r_epik_Ionization_Penalty_Neutral>
1.01454e-05

> <r_epik_State_Penalty>
-0

> <r_epik_Charging_Adjusted_Penalty>
0

> <i_epik_Tot_Q>
0

> <i_epik_Tot_abs_Q>
0

> <r_epik_Metal_State_Penalty>
-0

> <b_epik_Metal_Only>
0

> <s_lp_Force_Field>
OPLS_2005

> <r_lp_Energy>
21.7989

> <b_lp_Chiralities_Consistent>
1

> <s_lp_Variant>
AV-unprocessed.smi:901-3

> <Gold.Version>
5.8.1

> <Gold.Id.Protein>
6NUR|6NUR_protein|mol2

> <Gold.PLP.Fitness>
44.6589

> <Gold.PLP.PLP>
-43.9121

> <Gold.PLP.part.hbond>
-1.9156

> <Gold.PLP.part.metal>
0.0000

> <Gold.PLP.part.buried>
-6.9206

> <Gold.PLP.part.nonpolar>
-34.8719

> <Gold.PLP.part.repulsive>
0.4982

> <Gold.PLP.ligand.clash>
0.0000

> <Gold.PLP.ligand.torsion>
0.7495

> <Gold.PLP.Chemscore.Hbond>
0.6720

> <Gold.PLP.Chemscore.CHOScore>
0.0000

> <Gold.PLP.Chemscore.Metal>
0.0000

> <Gold.Chemscore.Hbonds>
donor molecule, donor type, donor heavy atom, donor atom, acceptor molecule, acceptor atom, score
      P1  H  6934  6946       L1    17  0.59

> <Gold.PLP.Chemscore.Internal.Correction>
0.2298

> <Gold.Rescore>
     Score         DG    S(hbond)    S(metal)    S(lipo)     H(rot)  DE(clash)    DE(int)     intcor
     10.51     -13.42       0.88        0.00      89.42       2.13       0.18       2.73       ----

> <Gold.Chemscore.Fitness>
10.5091

> <Gold.Chemscore.DG>
-13.4218

> <Gold.Chemscore.ZeroCoef>
-5.4800

> <Gold.Chemscore.Hbond>
0.8785

> <Gold.Chemscore.Metal>
0.0000

> <Gold.Chemscore.Lipo>
89.4244

> <Gold.Chemscore.Internal_Hbond>
0.0000

> <Gold.Chemscore.DEClash>
0.1785

> <Gold.Chemscore.DEInternal>
2.7341

> <Gold.Chemscore.Rot>
2.1309

> <Gold.Chemscore.Internal.Correction>
   9.000000E+99

> <Gold.Chemscore.Hbonds>
donor molecule, donor type, donor heavy atom, donor atom, acceptor molecule, acceptor atom, score
      P1  H  6934  6946       L1    17  0.58

> <Gold.Chemscore.Hbond.Weighted>
-2.9342

> <Gold.Chemscore.Metal.Weighted>
-0.0000

> <Gold.Chemscore.Lipo.Weighted>
-10.4627

> <Gold.Chemscore.Internal_Hbond.Weighted>
0.0000

> <Gold.Chemscore.DEClash.Weighted>
0.1785

> <Gold.Chemscore.DEInternal.Weighted>
2.7341

> <Gold.Chemscore.Rot.Weighted>
5.4552

> <Gold.Chemscore.Internal.Correction.Weighted>
   9.000000E+99

> <Gold.Protein.RotatedTorsions>
[ 6907 6896 6895 6894 ] final -101.58 input  -60.11 | X-H torsion
[ 7974 7965 7964 7962 ] final  145.40 input  175.53 | X-H torsion
[ 8008 7997 7996 7995 ] final   66.10 input   59.86 | X-H torsion
[ 10167 10162 10161 10158 ] final  -85.07 input  -65.29 | X-H torsion
[ 10718 10713 10712 10709 ] final -115.89 input   66.30 | X-H torsion
[ 10763 10752 10751 10750 ] final  163.07 input  -60.55 | X-H torsion
[ 11005 11000 10999 10996 ] final -178.72 input  -57.11 | X-H torsion

> <Gold.Protein.ActiveResidues>
 VAL166  LYS551  ARG553  GLY616  TRP617  ASP618  TYR619  PRO620  LYS621  CYS622 
 ASP623  PHE694  ASN695  SER759  ASP760  ASP761  ALA762  ILE779  LEU786  VAL792 
 PHE793  MET794  SER795  GLU796  ALA797  LYS798  CYS799  TRP800  GLU811  SER814 

> <Gold.Protein.RotatedAtoms>
  150.7160  134.0713  159.3865 H   0  0  0  0  0  0  0  0  0  0  0  0  # atno 6907 bound_to 6896
  151.8695  135.0492  160.0487 H   0  0  0  0  0  0  0  0  0  0  0  0  # atno 6908 bound_to 6896
  152.2654  133.5299  159.5443 H   0  0  0  0  0  0  0  0  0  0  0  0  # atno 6909 bound_to 6896
  144.8755  139.5779  143.5867 H   0  0  0  0  0  0  0  0  0  0  0  0  # atno 7974 bound_to 7965
  155.6721  140.3497  155.4822 H   0  0  0  0  0  0  0  0  0  0  0  0  # atno 8008 bound_to 7997
  155.9679  140.1150  157.0861 H   0  0  0  0  0  0  0  0  0  0  0  0  # atno 8009 bound_to 7997
  154.4159  140.1162  156.5254 H   0  0  0  0  0  0  0  0  0  0  0  0  # atno 8010 bound_to 7997
  140.4073  143.2637  151.9065 H   0  0  0  0  0  0  0  0  0  0  0  0  # atno 10167 bound_to 10162
  156.0926  130.6105  150.8965 H   0  0  0  0  0  0  0  0  0  0  0  0  # atno 10718 bound_to 10713
  154.2881  135.2761  155.2667 H   0  0  0  0  0  0  0  0  0  0  0  0  # atno 10763 bound_to 10752
  154.5158  135.5770  153.6644 H   0  0  0  0  0  0  0  0  0  0  0  0  # atno 10764 bound_to 10752
  152.9918  135.6192  154.3044 H   0  0  0  0  0  0  0  0  0  0  0  0  # atno 10765 bound_to 10752
  140.4266  134.6557  157.4691 H   0  0  0  0  0  0  0  0  0  0  0  0  # atno 11005 bound_to 11000
  146.2960  139.7279  142.9126 LP  0  0  0  0  0  0  0  0  0  0  0  0  # atno 17320 bound_to 7965
  145.4050  141.0390  143.3049 LP  0  0  0  0  0  0  0  0  0  0  0  0  # atno 17321 bound_to 7965
  139.4783  144.5573  151.8293 LP  0  0  0  0  0  0  0  0  0  0  0  0  # atno 17342 bound_to 10162
  140.4676  144.1633  150.5914 LP  0  0  0  0  0  0  0  0  0  0  0  0  # atno 17343 bound_to 10162
  157.6079  131.0938  150.8846 LP  0  0  0  0  0  0  0  0  0  0  0  0  # atno 17370 bound_to 10713
  156.8991  130.5240  149.5283 LP  0  0  0  0  0  0  0  0  0  0  0  0  # atno 17371 bound_to 10713
  140.0163  134.6614  155.9305 LP  0  0  0  0  0  0  0  0  0  0  0  0  # atno 17394 bound_to 11000
  141.1762  133.6541  156.4840 LP  0  0  0  0  0  0  0  0  0  0  0  0  # atno 17395 bound_to 11000

$$$$
