AV-unprocessed.smi:3341|AV-procd|sdf|12883|dock4
  -GOLD-   2272019283D 1   1.00000     0.00000
 Structure written by MMmdl.
 46 47  0  0  0  0  0  0  0  0  2 V2000
  151.8634  145.4065  160.1863 C   0  0  0  0  0  0  0  0  0  0  0  0
  152.4361  144.9282  158.8467 C   0  0  0  0  0  0  0  0  0  0  0  0
  152.0322  143.5689  158.5439 N   0  0  0  0  0  0  0  0  0  0  0  0
  151.3337  143.1104  157.4445 C   0  0  0  0  0  0  0  0  0  0  0  0
  151.2057  141.7619  157.6246 C   0  0  0  0  0  0  0  0  0  0  0  0
  150.5714  140.7995  156.7987 N   0  0  0  0  0  0  0  0  0  0  0  0
  151.1590  139.9327  155.9580 C   0  0  0  0  0  0  0  0  0  0  0  0
  152.3733  139.8224  155.7869 O   0  0  0  0  0  0  0  0  0  0  0  0
  150.2523  139.1829  155.3158 N   0  0  0  0  0  0  0  0  0  0  0  0
  150.5672  138.1603  154.3247 C   0  0  0  0  0  0  0  0  0  0  0  0
  150.8364  136.7948  154.9862 C   0  0  0  0  0  0  0  0  0  0  0  0
  149.6868  135.8637  154.8566 N   0  3  1  0  0  0  0  0  0  0  0  0
  150.0483  134.4738  155.2387 C   0  0  0  0  0  0  0  0  0  0  0  0
  148.8881  133.5033  154.9665 C   0  0  0  0  0  0  0  0  0  0  0  0
  147.6147  133.9529  155.6932 C   0  0  0  0  0  0  0  0  0  0  0  0
  147.2665  135.4008  155.3096 C   0  0  1  0  0  0  0  0  0  0  0  0
  146.0077  135.8875  156.0416 C   0  0  0  0  0  0  0  0  0  0  0  0
  148.4695  136.3284  155.5756 C   0  0  0  0  0  0  0  0  0  0  0  0
  151.8502  141.4728  158.8555 C   0  0  0  0  0  0  0  0  0  0  0  0
  152.3478  142.5700  159.4051 N   0  0  0  0  0  0  0  0  0  0  0  0
  152.1817  146.4266  160.4013 H   0  0  0  0  0  0  0  0  0  0  0  0
  152.1999  144.7723  161.0071 H   0  0  0  0  0  0  0  0  0  0  0  0
  150.7728  145.3933  160.1778 H   0  0  0  0  0  0  0  0  0  0  0  0
  152.1066  145.5813  158.0375 H   0  0  0  0  0  0  0  0  0  0  0  0
  153.5257  144.9726  158.8659 H   0  0  0  0  0  0  0  0  0  0  0  0
  151.0025  143.7729  156.6584 H   0  0  0  0  0  0  0  0  0  0  0  0
  149.5632  140.7765  156.8473 H   0  0  0  0  0  0  0  0  0  0  0  0
  149.2752  139.3408  155.5166 H   0  0  0  0  0  0  0  0  0  0  0  0
  149.7198  138.1035  153.6429 H   0  0  0  0  0  0  0  0  0  0  0  0
  151.4261  138.4724  153.7279 H   0  0  0  0  0  0  0  0  0  0  0  0
  151.7073  136.3479  154.5046 H   0  0  0  0  0  0  0  0  0  0  0  0
  151.0977  136.9172  156.0385 H   0  0  0  0  0  0  0  0  0  0  0  0
  150.9225  134.1491  154.6727 H   0  0  0  0  0  0  0  0  0  0  0  0
  150.3244  134.4455  156.2941 H   0  0  0  0  0  0  0  0  0  0  0  0
  148.6989  133.4486  153.8936 H   0  0  0  0  0  0  0  0  0  0  0  0
  149.1622  132.4967  155.2838 H   0  0  0  0  0  0  0  0  0  0  0  0
  146.7896  133.2848  155.4436 H   0  0  0  0  0  0  0  0  0  0  0  0
  147.7618  133.8777  156.7716 H   0  0  0  0  0  0  0  0  0  0  0  0
  147.0531  135.4246  154.2397 H   0  0  0  0  0  0  0  0  0  0  0  0
  146.1521  135.8902  157.1225 H   0  0  0  0  0  0  0  0  0  0  0  0
  145.1536  135.2464  155.8218 H   0  0  0  0  0  0  0  0  0  0  0  0
  145.7436  136.9011  155.7387 H   0  0  0  0  0  0  0  0  0  0  0  0
  148.6776  136.3796  156.6457 H   0  0  0  0  0  0  0  0  0  0  0  0
  148.2102  137.3378  155.2580 H   0  0  0  0  0  0  0  0  0  0  0  0
  151.9710  140.5248  159.3585 H   0  0  0  0  0  0  0  0  0  0  0  0
  149.4554  135.8320  153.8739 H   0  0  0  0  0  0  0  0  0  0  0  0
  1  2  1  0  0  0  0
  1 21  1  0  0  0  0
  1 22  1  0  0  0  0
  1 23  1  0  0  0  0
  2  3  1  0  0  0  0
  2 24  1  0  0  0  0
  2 25  1  0  0  0  0
  3 20  1  0  0  0  0
  3  4  1  0  0  0  0
  4  5  2  0  0  0  0
  4 26  1  0  0  0  0
  5  6  1  0  0  0  0
  5 19  1  0  0  0  0
  6  7  1  0  0  0  0
  6 27  1  0  0  0  0
  7  8  2  0  0  0  0
  7  9  1  0  0  0  0
  9 10  1  0  0  0  0
  9 28  1  0  0  0  0
 10 11  1  0  0  0  0
 10 29  1  0  0  0  0
 10 30  1  0  0  0  0
 11 12  1  0  0  0  0
 11 31  1  0  0  0  0
 11 32  1  0  0  0  0
 12 18  1  0  0  0  0
 12 13  1  0  0  0  0
 12 46  1  0  0  0  0
 13 14  1  0  0  0  0
 13 33  1  0  0  0  0
 13 34  1  0  0  0  0
 14 15  1  0  0  0  0
 14 35  1  0  0  0  0
 14 36  1  0  0  0  0
 15 16  1  0  0  0  0
 15 37  1  0  0  0  0
 15 38  1  0  0  0  0
 16 17  1  0  0  0  0
 16 18  1  0  0  0  0
 16 39  1  0  0  0  0
 17 40  1  0  0  0  0
 17 41  1  0  0  0  0
 17 42  1  0  0  0  0
 18 43  1  0  0  0  0
 18 44  1  0  0  0  0
 19 20  2  0  0  0  0
 19 45  1  0  0  0  0
M  CHG  1  12   1
M  END
> <s_m_source_file>
AV-unprocessed.smi

> <i_m_source_file_index>
3341

> <i_lp_mmshare_version>
43012

> <i_f3d_flags>
0

> <s_epik_input>
W0NIM11bQ0gyXW4xW2NIXWMoW2NIXW4xKVtOSF1DKD1PKVtOSF1bQ0gyXVtDSDJdTjJbQ0gyXVtDSDJdW0NIMl1bQ0BASF0oW0NIM10pW0NIMl0y

> <s_epik_cmdline>
J2VwaWtfcHl0aG9uJywgJy1waCcsICc3LjAnLCAnLXRuJywgJzgnLCAnLW1hJywgJzIwMCcsICctbWV0YWxfYmluZGluZycsICctaW1hZScsICc8aW5maWxlLm1hZT4nLCAnLW9tYWUnLCAnPG91dGZpbGUubWFlPic=

> <r_lp_tautomer_probability>
1

> <r_epik_Ionization_Penalty>
0.00203389

> <r_epik_Ionization_Penalty_Charging>
0.00188267

> <r_epik_Ionization_Penalty_Neutral>
0.000151224

> <r_epik_State_Penalty>
0.0012808

> <r_epik_Charging_Adjusted_Penalty>
0.00316346

> <i_epik_Tot_Q>
1

> <i_epik_Tot_abs_Q>
1

> <r_epik_Metal_State_Penalty>
-0

> <b_epik_Metal_Only>
0

> <s_lp_Force_Field>
OPLS_2005

> <r_lp_Energy>
20.2182

> <b_lp_Chiralities_Consistent>
1

> <s_lp_Variant>
AV-unprocessed.smi:3341-1

> <Gold.Version>
5.8.1

> <Gold.Id.Protein>
6NUR|6NUR_protein|mol2

> <Gold.PLP.Fitness>
46.9829

> <Gold.PLP.PLP>
-37.4524

> <Gold.PLP.part.hbond>
-2.6318

> <Gold.PLP.part.metal>
0.0000

> <Gold.PLP.part.buried>
-5.3134

> <Gold.PLP.part.nonpolar>
-30.8179

> <Gold.PLP.part.repulsive>
0.1888

> <Gold.PLP.ligand.clash>
0.0000

> <Gold.PLP.ligand.torsion>
1.2484

> <Gold.PLP.Chemscore.Hbond>
3.0000

> <Gold.PLP.Chemscore.CHOScore>
1.0000

> <Gold.PLP.Chemscore.Metal>
0.0000

> <Gold.Chemscore.Hbonds>
donor molecule, donor type, donor heavy atom, donor atom, acceptor molecule, acceptor atom, score
      L1  H    12    46       P1  7948  1.76
      P1  H  7997  8009       L1     8  0.93
      L1  C     4    26       P1  8028  1.00

> <Gold.PLP.Chemscore.Internal.Correction>
0.0274

> <Gold.Rescore>
     Score         DG    S(hbond)    S(metal)    S(lipo)     H(rot)  DE(clash)    DE(int)     intcor
     15.84     -17.14       1.90        0.00      80.13       1.59       0.15       1.16       ----

> <Gold.Chemscore.Fitness>
15.8386

> <Gold.Chemscore.DG>
-17.1395

> <Gold.Chemscore.ZeroCoef>
-5.4800

> <Gold.Chemscore.Hbond>
1.9035

> <Gold.Chemscore.Metal>
0.0000

> <Gold.Chemscore.Lipo>
80.1252

> <Gold.Chemscore.Internal_Hbond>
0.0000

> <Gold.Chemscore.DEClash>
0.1451

> <Gold.Chemscore.DEInternal>
1.1559

> <Gold.Chemscore.Rot>
1.5909

> <Gold.Chemscore.Internal.Correction>
   9.000000E+99

> <Gold.Chemscore.Hbonds>
donor molecule, donor type, donor heavy atom, donor atom, acceptor molecule, acceptor atom, score
      L1  H    12    46       P1  7948  0.47
      P1  H  7997  8009       L1     8  0.88

> <Gold.Chemscore.Hbond.Weighted>
-6.3576

> <Gold.Chemscore.Metal.Weighted>
-0.0000

> <Gold.Chemscore.Lipo.Weighted>
-9.3746

> <Gold.Chemscore.Internal_Hbond.Weighted>
0.0000

> <Gold.Chemscore.DEClash.Weighted>
0.1451

> <Gold.Chemscore.DEInternal.Weighted>
1.1559

> <Gold.Chemscore.Rot.Weighted>
4.0728

> <Gold.Chemscore.Internal.Correction.Weighted>
   9.000000E+99

> <Gold.Protein.RotatedTorsions>
[ 6907 6896 6895 6894 ] final  168.81 input  -60.11 | X-H torsion
[ 7974 7965 7964 7962 ] final   77.78 input  175.53 | X-H torsion
[ 8008 7997 7996 7995 ] final -164.38 input   59.86 | X-H torsion
[ 10167 10162 10161 10158 ] final   26.35 input  -65.29 | X-H torsion
[ 10718 10713 10712 10709 ] final -150.05 input   66.30 | X-H torsion
[ 10763 10752 10751 10750 ] final  164.21 input  -60.55 | X-H torsion
[ 11005 11000 10999 10996 ] final -177.60 input  -57.11 | X-H torsion

> <Gold.Protein.ActiveResidues>
 VAL166  LYS551  ARG553  GLY616  TRP617  ASP618  TYR619  PRO620  LYS621  CYS622 
 ASP623  PHE694  ASN695  SER759  ASP760  ASP761  ALA762  ILE779  LEU786  VAL792 
 PHE793  MET794  SER795  GLU796  ALA797  LYS798  CYS799  TRP800  GLU811  SER814 

> <Gold.Protein.RotatedAtoms>
  151.8418  133.3425  159.3645 H   0  0  0  0  0  0  0  0  0  0  0  0  # atno 6907 bound_to 6896
  150.7232  134.5384  159.5744 H   0  0  0  0  0  0  0  0  0  0  0  0  # atno 6908 bound_to 6896
  152.2859  134.7777  160.0438 H   0  0  0  0  0  0  0  0  0  0  0  0  # atno 6909 bound_to 6896
  145.6856  139.2537  143.1789 H   0  0  0  0  0  0  0  0  0  0  0  0  # atno 7974 bound_to 7965
  155.8347  140.0939  157.1771 H   0  0  0  0  0  0  0  0  0  0  0  0  # atno 8008 bound_to 7997
  154.3980  140.1412  156.3717 H   0  0  0  0  0  0  0  0  0  0  0  0  # atno 8009 bound_to 7997
  155.8128  140.3449  155.5470 H   0  0  0  0  0  0  0  0  0  0  0  0  # atno 8010 bound_to 7997
  140.5030  144.0284  150.6340 H   0  0  0  0  0  0  0  0  0  0  0  0  # atno 10167 bound_to 10162
  156.4411  130.8122  151.2352 H   0  0  0  0  0  0  0  0  0  0  0  0  # atno 10718 bound_to 10713
  154.3055  135.2758  155.2591 H   0  0  0  0  0  0  0  0  0  0  0  0  # atno 10763 bound_to 10752
  154.5009  135.5808  153.6533 H   0  0  0  0  0  0  0  0  0  0  0  0  # atno 10764 bound_to 10752
  152.9895  135.6157  154.3229 H   0  0  0  0  0  0  0  0  0  0  0  0  # atno 10765 bound_to 10752
  140.4390  134.6448  157.4749 H   0  0  0  0  0  0  0  0  0  0  0  0  # atno 11005 bound_to 11000
  146.0927  140.7637  142.9587 LP  0  0  0  0  0  0  0  0  0  0  0  0  # atno 17320 bound_to 7965
  144.7012  140.3662  143.7154 LP  0  0  0  0  0  0  0  0  0  0  0  0  # atno 17321 bound_to 7965
  140.3585  143.2921  152.0409 LP  0  0  0  0  0  0  0  0  0  0  0  0  # atno 17342 bound_to 10162
  139.4877  144.6321  151.7050 LP  0  0  0  0  0  0  0  0  0  0  0  0  # atno 17343 bound_to 10162
  157.7506  131.0168  150.3559 LP  0  0  0  0  0  0  0  0  0  0  0  0  # atno 17370 bound_to 10713
  156.3917  130.3899  149.7025 LP  0  0  0  0  0  0  0  0  0  0  0  0  # atno 17371 bound_to 10713
  140.0082  134.6731  155.9421 LP  0  0  0  0  0  0  0  0  0  0  0  0  # atno 17394 bound_to 11000
  141.1713  133.6537  156.4663 LP  0  0  0  0  0  0  0  0  0  0  0  0  # atno 17395 bound_to 11000

$$$$
