AV-unprocessed.smi:1966|AV-procd|sdf|7951|dock10
  -GOLD-   2272010123D 1   1.00000     0.00000
 Structure written by MMmdl.
 53 54  0  0  0  0  0  0  0  0  1 V2000
  149.4802  133.9136  154.1081 C   0  0  0  0  0  0  0  0  0  0  0  0
  148.2575  134.6030  154.7033 C   0  0  0  0  0  0  0  0  0  0  0  0
  147.6572  134.0916  155.6481 O   0  0  0  0  0  0  0  0  0  0  0  0
  147.8992  135.7665  154.1377 N   0  0  0  0  0  0  0  0  0  0  0  0
  146.7700  136.6026  154.5530 C   0  0  1  0  0  0  0  0  0  0  0  0
  147.2977  137.7574  155.4283 C   0  0  0  0  0  0  0  0  0  0  0  0
  146.5123  138.4221  156.1051 O   0  0  0  0  0  0  0  0  0  0  0  0
  148.6288  137.9535  155.3852 N   0  0  0  0  0  0  0  0  0  0  0  0
  149.4212  138.9138  156.0716 C   0  0  0  0  0  0  0  0  0  0  0  0
  150.7460  139.2669  155.7231 C   0  0  0  0  0  0  0  0  0  0  0  0
  151.4132  140.2478  156.4821 C   0  0  0  0  0  0  0  0  0  0  0  0
  150.7425  140.8621  157.5658 C   0  0  0  0  0  0  0  0  0  0  0  0
  151.3950  141.8466  158.3399 N   0  0  0  0  0  0  0  0  0  0  0  0
  152.0025  141.4382  159.6035 C   0  0  0  0  0  0  0  0  0  0  0  0
  152.9531  142.5325  160.1203 C   0  0  2  0  0  0  0  0  0  0  0  0
  153.5074  142.1981  161.5092 C   0  0  0  0  0  0  0  0  0  0  0  0
  152.2523  143.7723  160.2107 O   0  0  0  0  0  0  0  0  0  0  0  0
  151.6674  144.2204  158.9858 C   0  0  1  0  0  0  0  0  0  0  0  0
  152.7255  144.7011  157.9767 C   0  0  0  0  0  0  0  0  0  0  0  0
  150.7242  143.1414  158.4176 C   0  0  0  0  0  0  0  0  0  0  0  0
  149.4709  140.5255  157.8926 N   0  0  0  0  0  0  0  0  0  0  0  0
  148.8355  139.5852  157.1630 C   0  0  0  0  0  0  0  0  0  0  0  0
  146.0713  137.1723  153.2828 C   0  0  0  0  0  0  0  0  0  0  0  0
  146.7703  138.4270  152.7189 C   0  0  0  0  0  0  0  0  0  0  0  0
  144.5868  137.4987  153.5407 C   0  0  0  0  0  0  0  0  0  0  0  0
  150.3449  134.5772  154.1381 H   0  0  0  0  0  0  0  0  0  0  0  0
  149.2927  133.6362  153.0706 H   0  0  0  0  0  0  0  0  0  0  0  0
  149.7254  133.0089  154.6654 H   0  0  0  0  0  0  0  0  0  0  0  0
  148.4584  136.1109  153.3709 H   0  0  0  0  0  0  0  0  0  0  0  0
  146.0567  135.9994  155.1190 H   0  0  0  0  0  0  0  0  0  0  0  0
  149.1345  137.3639  154.7400 H   0  0  0  0  0  0  0  0  0  0  0  0
  151.2642  138.8187  154.8905 H   0  0  0  0  0  0  0  0  0  0  0  0
  152.4311  140.5066  156.2316 H   0  0  0  0  0  0  0  0  0  0  0  0
  151.2149  141.2460  160.3335 H   0  0  0  0  0  0  0  0  0  0  0  0
  152.5601  140.5098  159.4725 H   0  0  0  0  0  0  0  0  0  0  0  0
  153.7966  142.6364  159.4376 H   0  0  0  0  0  0  0  0  0  0  0  0
  154.0605  141.2589  161.4954 H   0  0  0  0  0  0  0  0  0  0  0  0
  152.7054  142.1039  162.2421 H   0  0  0  0  0  0  0  0  0  0  0  0
  154.1855  142.9783  161.8558 H   0  0  0  0  0  0  0  0  0  0  0  0
  151.0597  145.0890  159.2407 H   0  0  0  0  0  0  0  0  0  0  0  0
  152.2501  145.1553  157.1070 H   0  0  0  0  0  0  0  0  0  0  0  0
  153.3510  143.8865  157.6124 H   0  0  0  0  0  0  0  0  0  0  0  0
  153.3777  145.4509  158.4246 H   0  0  0  0  0  0  0  0  0  0  0  0
  150.3447  143.4670  157.4501 H   0  0  0  0  0  0  0  0  0  0  0  0
  149.8573  143.0348  159.0710 H   0  0  0  0  0  0  0  0  0  0  0  0
  147.8232  139.3602  157.4655 H   0  0  0  0  0  0  0  0  0  0  0  0
  146.0985  136.4100  152.5019 H   0  0  0  0  0  0  0  0  0  0  0  0
  146.8284  139.2163  153.4691 H   0  0  0  0  0  0  0  0  0  0  0  0
  146.2275  138.8261  151.8617 H   0  0  0  0  0  0  0  0  0  0  0  0
  147.7833  138.2158  152.3767 H   0  0  0  0  0  0  0  0  0  0  0  0
  144.4779  138.2314  154.3409 H   0  0  0  0  0  0  0  0  0  0  0  0
  144.0154  136.6133  153.8195 H   0  0  0  0  0  0  0  0  0  0  0  0
  144.1147  137.9109  152.6484 H   0  0  0  0  0  0  0  0  0  0  0  0
  1  2  1  0  0  0  0
  1 26  1  0  0  0  0
  1 27  1  0  0  0  0
  1 28  1  0  0  0  0
  2  3  2  0  0  0  0
  2  4  1  0  0  0  0
  4  5  1  0  0  0  0
  4 29  1  0  0  0  0
  5  6  1  0  0  0  0
  5 23  1  0  0  0  0
  5 30  1  0  0  0  0
  6  7  2  0  0  0  0
  6  8  1  0  0  0  0
  8  9  1  0  0  0  0
  8 31  1  0  0  0  0
  9 22  1  0  0  0  0
  9 10  2  0  0  0  0
 10 11  1  0  0  0  0
 10 32  1  0  0  0  0
 11 12  2  0  0  0  0
 11 33  1  0  0  0  0
 12 13  1  0  0  0  0
 12 21  1  0  0  0  0
 13 20  1  0  0  0  0
 13 14  1  0  0  0  0
 14 15  1  0  0  0  0
 14 34  1  0  0  0  0
 14 35  1  0  0  0  0
 15 16  1  0  0  0  0
 15 17  1  0  0  0  0
 15 36  1  0  0  0  0
 16 37  1  0  0  0  0
 16 38  1  0  0  0  0
 16 39  1  0  0  0  0
 17 18  1  0  0  0  0
 18 19  1  0  0  0  0
 18 20  1  0  0  0  0
 18 40  1  0  0  0  0
 19 41  1  0  0  0  0
 19 42  1  0  0  0  0
 19 43  1  0  0  0  0
 20 44  1  0  0  0  0
 20 45  1  0  0  0  0
 21 22  2  0  0  0  0
 22 46  1  0  0  0  0
 23 24  1  0  0  0  0
 23 25  1  0  0  0  0
 23 47  1  0  0  0  0
 24 48  1  0  0  0  0
 24 49  1  0  0  0  0
 24 50  1  0  0  0  0
 25 51  1  0  0  0  0
 25 52  1  0  0  0  0
 25 53  1  0  0  0  0
M  END
> <s_m_source_file>
AV-unprocessed.smi

> <i_m_source_file_index>
1966

> <i_lp_mmshare_version>
43012

> <i_f3d_flags>
0

> <s_epik_input>
W0NIM11DKD1PKVtOSF1bQ0BASF0oW0NIXShbQ0gzXSlbQ0gzXSlDKD1PKVtOSF1jMVtjSF1bY0hdYyhuW2NIXTEpTjJbQ0gyXVtDQEBIXShbQ0gzXSlPW0NAQEhdKFtDSDNdKVtDSDJdMg==

> <s_epik_cmdline>
J2VwaWtfcHl0aG9uJywgJy1waCcsICc3LjAnLCAnLXRuJywgJzgnLCAnLW1hJywgJzIwMCcsICctbWV0YWxfYmluZGluZycsICctaW1hZScsICc8aW5maWxlLm1hZT4nLCAnLW9tYWUnLCAnPG91dGZpbGUubWFlPic=

> <r_lp_tautomer_probability>
1

> <r_epik_Ionization_Penalty>
0.000679699

> <r_epik_Ionization_Penalty_Charging>
0

> <r_epik_Ionization_Penalty_Neutral>
0.000679699

> <r_epik_State_Penalty>
0.000430485

> <r_epik_Charging_Adjusted_Penalty>
0.000430485

> <i_epik_Tot_Q>
0

> <i_epik_Tot_abs_Q>
0

> <r_epik_Metal_State_Penalty>
-0

> <b_epik_Metal_Only>
0

> <s_lp_Force_Field>
OPLS_2005

> <r_lp_Energy>
28.9115

> <b_lp_Chiralities_Consistent>
1

> <s_lp_Variant>
AV-unprocessed.smi:1966-4

> <Gold.Version>
5.8.1

> <Gold.Id.Protein>
6NUR|6NUR_protein|mol2

> <Gold.PLP.Fitness>
37.1439

> <Gold.PLP.PLP>
-36.9233

> <Gold.PLP.part.hbond>
-0.9637

> <Gold.PLP.part.metal>
0.0000

> <Gold.PLP.part.buried>
-4.2411

> <Gold.PLP.part.nonpolar>
-31.5630

> <Gold.PLP.part.repulsive>
0.0887

> <Gold.PLP.ligand.clash>
0.0000

> <Gold.PLP.ligand.torsion>
1.5712

> <Gold.PLP.Chemscore.Hbond>
1.0000

> <Gold.PLP.Chemscore.CHOScore>
0.0000

> <Gold.PLP.Chemscore.Metal>
0.0000

> <Gold.Chemscore.Hbonds>
donor molecule, donor type, donor heavy atom, donor atom, acceptor molecule, acceptor atom, score
      L1  H     4    29       P1  7948  1.00

> <Gold.PLP.Chemscore.Internal.Correction>
0.3630

> <Gold.Rescore>
     Score         DG    S(hbond)    S(metal)    S(lipo)     H(rot)  DE(clash)    DE(int)     intcor
     13.51     -16.29       1.00        0.00     100.53       1.68       0.05       2.72       ----

> <Gold.Chemscore.Fitness>
13.5130

> <Gold.Chemscore.DG>
-16.2883

> <Gold.Chemscore.ZeroCoef>
-5.4800

> <Gold.Chemscore.Hbond>
0.9991

> <Gold.Chemscore.Metal>
0.0000

> <Gold.Chemscore.Lipo>
100.5264

> <Gold.Chemscore.Internal_Hbond>
0.0000

> <Gold.Chemscore.DEClash>
0.0529

> <Gold.Chemscore.DEInternal>
2.7225

> <Gold.Chemscore.Rot>
1.6759

> <Gold.Chemscore.Internal.Correction>
   9.000000E+99

> <Gold.Chemscore.Hbonds>
donor molecule, donor type, donor heavy atom, donor atom, acceptor molecule, acceptor atom, score
      L1  H     4    29       P1  7948  0.97

> <Gold.Chemscore.Hbond.Weighted>
-3.3369

> <Gold.Chemscore.Metal.Weighted>
-0.0000

> <Gold.Chemscore.Lipo.Weighted>
-11.7616

> <Gold.Chemscore.Internal_Hbond.Weighted>
0.0000

> <Gold.Chemscore.DEClash.Weighted>
0.0529

> <Gold.Chemscore.DEInternal.Weighted>
2.7225

> <Gold.Chemscore.Rot.Weighted>
4.2902

> <Gold.Chemscore.Internal.Correction.Weighted>
   9.000000E+99

> <Gold.Protein.RotatedTorsions>
[ 6907 6896 6895 6894 ] final   19.41 input  -60.11 | X-H torsion
[ 7974 7965 7964 7962 ] final -157.47 input  175.53 | X-H torsion
[ 8008 7997 7996 7995 ] final  -75.84 input   59.86 | X-H torsion
[ 10167 10162 10161 10158 ] final  176.47 input  -65.29 | X-H torsion
[ 10718 10713 10712 10709 ] final   67.79 input   66.30 | X-H torsion
[ 10763 10752 10751 10750 ] final -103.20 input  -60.55 | X-H torsion
[ 11005 11000 10999 10996 ] final  150.38 input  -57.11 | X-H torsion

> <Gold.Protein.ActiveResidues>
 VAL166  LYS551  ARG553  GLY616  TRP617  ASP618  TYR619  PRO620  LYS621  CYS622 
 ASP623  PHE694  ASN695  SER759  ASP760  ASP761  ALA762  ILE779  LEU786  VAL792 
 PHE793  MET794  SER795  GLU796  ALA797  LYS798  CYS799  TRP800  GLU811  SER814 

> <Gold.Protein.RotatedAtoms>
  151.8805  135.0455  160.0488 H   0  0  0  0  0  0  0  0  0  0  0  0  # atno 6907 bound_to 6896
  152.2516  133.5216  159.5337 H   0  0  0  0  0  0  0  0  0  0  0  0  # atno 6908 bound_to 6896
  150.7086  134.0868  159.3960 H   0  0  0  0  0  0  0  0  0  0  0  0  # atno 6909 bound_to 6896
  144.7547  140.3964  143.6021 H   0  0  0  0  0  0  0  0  0  0  0  0  # atno 7974 bound_to 7965
  154.5452  140.0737  156.8576 H   0  0  0  0  0  0  0  0  0  0  0  0  # atno 8008 bound_to 7997
  155.3102  140.3390  155.4226 H   0  0  0  0  0  0  0  0  0  0  0  0  # atno 8009 bound_to 7997
  156.1911  140.1686  156.8076 H   0  0  0  0  0  0  0  0  0  0  0  0  # atno 8010 bound_to 7997
  139.5215  144.2912  152.0462 H   0  0  0  0  0  0  0  0  0  0  0  0  # atno 10167 bound_to 10162
  157.6251  130.9339  150.0290 H   0  0  0  0  0  0  0  0  0  0  0  0  # atno 10718 bound_to 10713
  154.7790  135.4832  153.9804 H   0  0  0  0  0  0  0  0  0  0  0  0  # atno 10763 bound_to 10752
  153.1467  135.6783  153.8951 H   0  0  0  0  0  0  0  0  0  0  0  0  # atno 10764 bound_to 10752
  153.8608  135.3155  155.3416 H   0  0  0  0  0  0  0  0  0  0  0  0  # atno 10765 bound_to 10752
  140.1126  134.8914  157.1958 H   0  0  0  0  0  0  0  0  0  0  0  0  # atno 11005 bound_to 11000
  145.6821  139.1620  143.2695 LP  0  0  0  0  0  0  0  0  0  0  0  0  # atno 17320 bound_to 7965
  146.1542  140.6882  142.9308 LP  0  0  0  0  0  0  0  0  0  0  0  0  # atno 17321 bound_to 7965
  140.2363  144.4316  150.6278 LP  0  0  0  0  0  0  0  0  0  0  0  0  # atno 17342 bound_to 10162
  140.6321  143.2189  151.6473 LP  0  0  0  0  0  0  0  0  0  0  0  0  # atno 17343 bound_to 10162
  156.1419  130.3642  149.9570 LP  0  0  0  0  0  0  0  0  0  0  0  0  # atno 17370 bound_to 10713
  156.7609  130.9150  151.3641 LP  0  0  0  0  0  0  0  0  0  0  0  0  # atno 17371 bound_to 10713
  140.3071  134.3066  155.7275 LP  0  0  0  0  0  0  0  0  0  0  0  0  # atno 17394 bound_to 11000
  141.2134  133.7627  156.9723 LP  0  0  0  0  0  0  0  0  0  0  0  0  # atno 17395 bound_to 11000

$$$$
