AV-unprocessed.smi:2173|AV-procd|sdf|8839|dock9
  -GOLD-   2272012 33D 1   1.00000     0.00000
 Structure written by MMmdl.
 35 36  0  0  0  0  0  0  0  0  1 V2000
  153.1768  139.5631  157.9434 O   0  0  0  0  0  0  0  0  0  0  0  0
  152.0778  140.1127  157.8618 C   0  0  0  0  0  0  0  0  0  0  0  0
  151.0674  139.6299  157.1230 N   0  0  0  0  0  0  0  0  0  0  0  0
  151.0922  138.3689  156.3887 C   0  0  0  0  0  0  0  0  0  0  0  0
  150.8400  138.5448  154.8763 C   0  0  0  0  0  0  0  0  0  0  0  0
  149.7487  139.5514  154.5476 C   0  0  0  0  0  0  0  0  0  0  0  0
  148.4920  139.1170  154.0753 C   0  0  0  0  0  0  0  0  0  0  0  0
  147.5208  140.0877  153.7613 C   0  0  0  0  0  0  0  0  0  0  0  0
  147.8419  141.4486  153.9292 C   0  0  0  0  0  0  0  0  0  0  0  0
  149.1247  141.7800  154.4083 C   0  0  0  0  0  0  0  0  0  0  0  0
  150.0620  140.8572  154.7126 N   0  0  0  0  0  0  0  0  0  0  0  0
  151.7953  141.4037  158.6407 C   0  0  1  0  0  0  0  0  0  0  0  0
  153.0127  141.7986  159.5076 C   0  0  0  0  0  0  0  0  0  0  0  0
  152.8687  143.1904  160.0969 C   0  0  0  0  0  0  0  0  0  0  0  0
  151.9782  144.0930  159.6511 C   0  0  0  0  0  0  0  0  0  0  0  0
  151.0191  143.8257  158.5042 C   0  0  0  0  0  0  0  0  0  0  0  0
  151.3996  142.5640  157.7054 C   0  0  0  0  0  0  0  0  0  0  0  0
  150.2001  140.1467  157.1119 H   0  0  0  0  0  0  0  0  0  0  0  0
  152.0763  137.9248  156.5405 H   0  0  0  0  0  0  0  0  0  0  0  0
  150.3711  137.6697  156.8149 H   0  0  0  0  0  0  0  0  0  0  0  0
  151.7644  138.8522  154.3866 H   0  0  0  0  0  0  0  0  0  0  0  0
  150.5758  137.5830  154.4339 H   0  0  0  0  0  0  0  0  0  0  0  0
  148.2782  138.0654  153.9520 H   0  0  0  0  0  0  0  0  0  0  0  0
  146.5478  139.7940  153.3966 H   0  0  0  0  0  0  0  0  0  0  0  0
  147.1227  142.2200  153.6971 H   0  0  0  0  0  0  0  0  0  0  0  0
  149.4065  142.8131  154.5491 H   0  0  0  0  0  0  0  0  0  0  0  0
  150.9508  141.2192  159.3078 H   0  0  0  0  0  0  0  0  0  0  0  0
  153.1291  141.0858  160.3248 H   0  0  0  0  0  0  0  0  0  0  0  0
  153.9375  141.7709  158.9296 H   0  0  0  0  0  0  0  0  0  0  0  0
  153.5352  143.4469  160.9071 H   0  0  0  0  0  0  0  0  0  0  0  0
  151.9149  145.0628  160.1227 H   0  0  0  0  0  0  0  0  0  0  0  0
  150.0169  143.7209  158.9206 H   0  0  0  0  0  0  0  0  0  0  0  0
  150.9988  144.6918  157.8424 H   0  0  0  0  0  0  0  0  0  0  0  0
  152.2357  142.8003  157.0449 H   0  0  0  0  0  0  0  0  0  0  0  0
  150.5701  142.2741  157.0589 H   0  0  0  0  0  0  0  0  0  0  0  0
  1  2  2  0  0  0  0
  2  3  1  0  0  0  0
  2 12  1  0  0  0  0
  3  4  1  0  0  0  0
  3 18  1  0  0  0  0
  4  5  1  0  0  0  0
  4 19  1  0  0  0  0
  4 20  1  0  0  0  0
  5  6  1  0  0  0  0
  5 21  1  0  0  0  0
  5 22  1  0  0  0  0
  6 11  1  0  0  0  0
  6  7  2  0  0  0  0
  7  8  1  0  0  0  0
  7 23  1  0  0  0  0
  8  9  2  0  0  0  0
  8 24  1  0  0  0  0
  9 10  1  0  0  0  0
  9 25  1  0  0  0  0
 10 11  2  0  0  0  0
 10 26  1  0  0  0  0
 12 17  1  0  0  0  0
 12 13  1  0  0  0  0
 12 27  1  0  0  0  0
 13 14  1  0  0  0  0
 13 28  1  0  0  0  0
 13 29  1  0  0  0  0
 14 15  2  0  0  0  0
 14 30  1  0  0  0  0
 15 16  1  0  0  0  0
 15 31  1  0  0  0  0
 16 17  1  0  0  0  0
 16 32  1  0  0  0  0
 16 33  1  0  0  0  0
 17 34  1  0  0  0  0
 17 35  1  0  0  0  0
M  END
> <s_m_source_file>
AV-unprocessed.smi

> <i_m_source_file_index>
2173

> <i_lp_mmshare_version>
43012

> <i_f3d_flags>
0

> <s_epik_input>
W0NIMl0xW0NIMl1bQ0hdPVtDSF1bQ0gyXVtDQEhdMUMoPU8pW05IXVtDSDJdW0NIMl1jMltjSF1bY0hdW2NIXVtjSF1uMg==

> <s_epik_cmdline>
J2VwaWtfcHl0aG9uJywgJy1waCcsICc3LjAnLCAnLXRuJywgJzgnLCAnLW1hJywgJzIwMCcsICctbWV0YWxfYmluZGluZycsICctaW1hZScsICc8aW5maWxlLm1hZT4nLCAnLW9tYWUnLCAnPG91dGZpbGUubWFlPic=

> <r_epik_Ionization_Penalty>
0.0268825

> <r_epik_Ionization_Penalty_Charging>
0

> <r_epik_Ionization_Penalty_Neutral>
0.0268825

> <r_epik_State_Penalty>
0.0219706

> <r_epik_Charging_Adjusted_Penalty>
0.0219706

> <i_epik_Tot_Q>
0

> <i_epik_Tot_abs_Q>
0

> <r_epik_Metal_State_Penalty>
0.0210138

> <b_epik_Metal_Only>
0

> <s_lp_Force_Field>
OPLS_2005

> <r_lp_Energy>
8.2635

> <b_lp_Chiralities_Consistent>
1

> <s_lp_Variant>
AV-unprocessed.smi:2173-2

> <Gold.Version>
5.8.1

> <Gold.Id.Protein>
6NUR|6NUR_protein|mol2

> <Gold.PLP.Fitness>
44.6388

> <Gold.PLP.PLP>
-36.6663

> <Gold.PLP.part.hbond>
-2.0000

> <Gold.PLP.part.metal>
0.0000

> <Gold.PLP.part.buried>
-2.4129

> <Gold.PLP.part.nonpolar>
-32.1572

> <Gold.PLP.part.repulsive>
0.1523

> <Gold.PLP.ligand.clash>
0.0000

> <Gold.PLP.ligand.torsion>
0.2488

> <Gold.PLP.Chemscore.Hbond>
1.8160

> <Gold.PLP.Chemscore.CHOScore>
1.0000

> <Gold.PLP.Chemscore.Metal>
0.0000

> <Gold.Chemscore.Hbonds>
donor molecule, donor type, donor heavy atom, donor atom, acceptor molecule, acceptor atom, score
      P1  H  7989  7998       L1    11  0.63
      P1  H  7997  8010       L1     1  1.00
      L1  C    10    26       P1  8028  1.00

> <Gold.PLP.Chemscore.Internal.Correction>
0.0221

> <Gold.Rescore>
     Score         DG    S(hbond)    S(metal)    S(lipo)     H(rot)  DE(clash)    DE(int)     intcor
     18.15     -19.66       1.59        0.00     106.33       1.39       0.08       1.43       ----

> <Gold.Chemscore.Fitness>
18.1469

> <Gold.Chemscore.DG>
-19.6573

> <Gold.Chemscore.ZeroCoef>
-5.4800

> <Gold.Chemscore.Hbond>
1.5858

> <Gold.Chemscore.Metal>
0.0000

> <Gold.Chemscore.Lipo>
106.3309

> <Gold.Chemscore.Internal_Hbond>
0.0000

> <Gold.Chemscore.DEClash>
0.0833

> <Gold.Chemscore.DEInternal>
1.4271

> <Gold.Chemscore.Rot>
1.3907

> <Gold.Chemscore.Internal.Correction>
   9.000000E+99

> <Gold.Chemscore.Hbonds>
donor molecule, donor type, donor heavy atom, donor atom, acceptor molecule, acceptor atom, score
      P1  H  7989  7998       L1    11  0.09
      P1  H  7997  8010       L1     1  0.99

> <Gold.Chemscore.Hbond.Weighted>
-5.2967

> <Gold.Chemscore.Metal.Weighted>
-0.0000

> <Gold.Chemscore.Lipo.Weighted>
-12.4407

> <Gold.Chemscore.Internal_Hbond.Weighted>
0.0000

> <Gold.Chemscore.DEClash.Weighted>
0.0833

> <Gold.Chemscore.DEInternal.Weighted>
1.4271

> <Gold.Chemscore.Rot.Weighted>
3.5601

> <Gold.Chemscore.Internal.Correction.Weighted>
   9.000000E+99

> <Gold.Protein.RotatedTorsions>
[ 6907 6896 6895 6894 ] final   28.16 input  -60.11 | X-H torsion
[ 7974 7965 7964 7962 ] final   44.78 input  175.53 | X-H torsion
[ 8008 7997 7996 7995 ] final   37.63 input   59.86 | X-H torsion
[ 10167 10162 10161 10158 ] final  116.58 input  -65.29 | X-H torsion
[ 10718 10713 10712 10709 ] final  -15.32 input   66.30 | X-H torsion
[ 10763 10752 10751 10750 ] final  150.38 input  -60.55 | X-H torsion
[ 11005 11000 10999 10996 ] final -177.30 input  -57.11 | X-H torsion

> <Gold.Protein.ActiveResidues>
 VAL166  LYS551  ARG553  GLY616  TRP617  ASP618  TYR619  PRO620  LYS621  CYS622 
 ASP623  PHE694  ASN695  SER759  ASP760  ASP761  ALA762  ILE779  LEU786  VAL792 
 PHE793  MET794  SER795  GLU796  ALA797  LYS798  CYS799  TRP800  GLU811  SER814 

> <Gold.Protein.RotatedAtoms>
  152.0129  134.9866  160.0568 H   0  0  0  0  0  0  0  0  0  0  0  0  # atno 6907 bound_to 6896
  152.1412  133.4460  159.4776 H   0  0  0  0  0  0  0  0  0  0  0  0  # atno 6908 bound_to 6896
  150.6865  134.2221  159.4444 H   0  0  0  0  0  0  0  0  0  0  0  0  # atno 6909 bound_to 6896
  146.0538  139.5036  142.9701 H   0  0  0  0  0  0  0  0  0  0  0  0  # atno 7974 bound_to 7965
  155.2069  140.3320  155.4334 H   0  0  0  0  0  0  0  0  0  0  0  0  # atno 8008 bound_to 7997
  156.2385  140.1884  156.7102 H   0  0  0  0  0  0  0  0  0  0  0  0  # atno 8009 bound_to 7997
  154.6104  140.0610  156.9471 H   0  0  0  0  0  0  0  0  0  0  0  0  # atno 8010 bound_to 7997
  139.6237  144.7105  151.2579 H   0  0  0  0  0  0  0  0  0  0  0  0  # atno 10167 bound_to 10162
  156.6033  130.4830  149.6231 H   0  0  0  0  0  0  0  0  0  0  0  0  # atno 10718 bound_to 10713
  154.0866  135.2855  155.3280 H   0  0  0  0  0  0  0  0  0  0  0  0  # atno 10763 bound_to 10752
  154.6648  135.5321  153.8067 H   0  0  0  0  0  0  0  0  0  0  0  0  # atno 10764 bound_to 10752
  153.0429  135.6543  154.1037 H   0  0  0  0  0  0  0  0  0  0  0  0  # atno 10765 bound_to 10752
  140.4425  134.6418  157.4764 H   0  0  0  0  0  0  0  0  0  0  0  0  # atno 11005 bound_to 11000
  145.6679  141.0224  143.1674 LP  0  0  0  0  0  0  0  0  0  0  0  0  # atno 17320 bound_to 7965
  144.7137  139.8276  143.7406 LP  0  0  0  0  0  0  0  0  0  0  0  0  # atno 17321 bound_to 7965
  140.7398  143.6607  150.8166 LP  0  0  0  0  0  0  0  0  0  0  0  0  # atno 17342 bound_to 10162
  140.0222  143.5530  152.2795 LP  0  0  0  0  0  0  0  0  0  0  0  0  # atno 17343 bound_to 10162
  156.2450  130.6874  151.1592 LP  0  0  0  0  0  0  0  0  0  0  0  0  # atno 17370 bound_to 10713
  157.7274  131.0640  150.5869 LP  0  0  0  0  0  0  0  0  0  0  0  0  # atno 17371 bound_to 10713
  140.0060  134.6762  155.9454 LP  0  0  0  0  0  0  0  0  0  0  0  0  # atno 17394 bound_to 11000
  141.1699  133.6537  156.4615 LP  0  0  0  0  0  0  0  0  0  0  0  0  # atno 17395 bound_to 11000

$$$$
