AV-unprocessed.smi:1514|AV-procd|sdf|6116|dock2
  -GOLD-   22720 6253D 1   1.00000     0.00000
 Structure written by MMmdl.
 47 48  0  0  0  0  0  0  0  0  1 V2000
  152.8261  142.3392  160.7298 C   0  0  0  0  0  0  0  0  0  0  0  0
  152.1085  142.9701  159.5281 C   0  0  0  0  0  0  0  0  0  0  0  0
  152.1409  142.1728  158.3036 N   0  0  0  0  0  0  0  0  0  0  0  0
  150.9862  142.4693  157.4560 C   0  0  0  0  0  0  0  0  0  0  0  0
  151.0126  141.6526  156.1507 C   0  0  0  0  0  0  0  0  0  0  0  0
  151.0274  140.2117  156.4171 N   0  0  0  0  0  0  0  0  0  0  0  0
  151.0657  139.4164  155.1918 C   0  0  0  0  0  0  0  0  0  0  0  0
  149.6957  139.1528  154.5465 C   0  0  0  0  0  0  0  0  0  0  0  0
  149.5547  137.7401  154.2241 N   0  0  0  0  0  0  0  0  0  0  0  0
  149.9137  136.7374  155.0367 C   0  0  0  0  0  0  0  0  0  0  0  0
  150.3961  136.9126  156.1558 O   0  0  0  0  0  0  0  0  0  0  0  0
  149.6735  135.5434  154.4672 N   0  0  0  0  0  0  0  0  0  0  0  0
  149.9362  134.3011  154.9527 C   0  0  0  0  0  0  0  0  0  0  0  0
  150.6915  133.9411  156.0353 C   0  0  0  0  0  0  0  0  0  0  0  0
  150.5963  132.5189  156.0249 C   0  0  0  0  0  0  0  0  0  0  0  0
  151.2242  131.5431  156.9758 C   0  0  0  0  0  0  0  0  0  0  0  0
  149.8476  132.0627  155.0272 N   0  0  0  0  0  0  0  0  0  0  0  0
  149.4384  133.1627  154.3590 N   0  0  0  0  0  0  0  0  0  0  0  0
  148.5909  133.0285  153.1902 C   0  0  0  0  0  0  0  0  0  0  0  0
  152.1810  139.9158  157.2668 C   0  0  0  0  0  0  0  0  0  0  0  0
  152.1533  140.7328  158.5718 C   0  0  0  0  0  0  0  0  0  0  0  0
  152.8512  143.0352  161.5683 H   0  0  0  0  0  0  0  0  0  0  0  0
  153.8566  142.0829  160.4822 H   0  0  0  0  0  0  0  0  0  0  0  0
  152.3257  141.4350  161.0757 H   0  0  0  0  0  0  0  0  0  0  0  0
  151.0758  143.1961  159.7974 H   0  0  0  0  0  0  0  0  0  0  0  0
  152.5847  143.9319  159.3328 H   0  0  0  0  0  0  0  0  0  0  0  0
  150.0615  142.2631  157.9975 H   0  0  0  0  0  0  0  0  0  0  0  0
  150.9724  143.5317  157.2107 H   0  0  0  0  0  0  0  0  0  0  0  0
  150.1362  141.9182  155.5607 H   0  0  0  0  0  0  0  0  0  0  0  0
  151.8855  141.9340  155.5594 H   0  0  0  0  0  0  0  0  0  0  0  0
  151.7273  139.8914  154.4654 H   0  0  0  0  0  0  0  0  0  0  0  0
  151.5154  138.4486  155.4187 H   0  0  0  0  0  0  0  0  0  0  0  0
  148.8987  139.4527  155.2290 H   0  0  0  0  0  0  0  0  0  0  0  0
  149.5754  139.7310  153.6301 H   0  0  0  0  0  0  0  0  0  0  0  0
  149.1647  137.5129  153.3212 H   0  0  0  0  0  0  0  0  0  0  0  0
  149.2560  135.5656  153.5486 H   0  0  0  0  0  0  0  0  0  0  0  0
  151.2306  134.5703  156.7273 H   0  0  0  0  0  0  0  0  0  0  0  0
  151.9147  132.0433  157.6549 H   0  0  0  0  0  0  0  0  0  0  0  0
  151.7845  130.7765  156.4400 H   0  0  0  0  0  0  0  0  0  0  0  0
  150.4675  131.0426  157.5803 H   0  0  0  0  0  0  0  0  0  0  0  0
  149.0407  133.5552  152.3483 H   0  0  0  0  0  0  0  0  0  0  0  0
  147.6113  133.4591  153.3983 H   0  0  0  0  0  0  0  0  0  0  0  0
  148.4672  131.9780  152.9234 H   0  0  0  0  0  0  0  0  0  0  0  0
  152.1938  138.8535  157.5131 H   0  0  0  0  0  0  0  0  0  0  0  0
  153.1067  140.1211  156.7268 H   0  0  0  0  0  0  0  0  0  0  0  0
  153.0287  140.4672  159.1636 H   0  0  0  0  0  0  0  0  0  0  0  0
  151.2792  140.4530  159.1619 H   0  0  0  0  0  0  0  0  0  0  0  0
  1  2  1  0  0  0  0
  1 22  1  0  0  0  0
  1 23  1  0  0  0  0
  1 24  1  0  0  0  0
  2  3  1  0  0  0  0
  2 25  1  0  0  0  0
  2 26  1  0  0  0  0
  3 21  1  0  0  0  0
  3  4  1  0  0  0  0
  4  5  1  0  0  0  0
  4 27  1  0  0  0  0
  4 28  1  0  0  0  0
  5  6  1  0  0  0  0
  5 29  1  0  0  0  0
  5 30  1  0  0  0  0
  6  7  1  0  0  0  0
  6 20  1  0  0  0  0
  7  8  1  0  0  0  0
  7 31  1  0  0  0  0
  7 32  1  0  0  0  0
  8  9  1  0  0  0  0
  8 33  1  0  0  0  0
  8 34  1  0  0  0  0
  9 10  1  0  0  0  0
  9 35  1  0  0  0  0
 10 11  2  0  0  0  0
 10 12  1  0  0  0  0
 12 13  1  0  0  0  0
 12 36  1  0  0  0  0
 13 18  1  0  0  0  0
 13 14  2  0  0  0  0
 14 15  1  0  0  0  0
 14 37  1  0  0  0  0
 15 16  1  0  0  0  0
 15 17  2  0  0  0  0
 16 38  1  0  0  0  0
 16 39  1  0  0  0  0
 16 40  1  0  0  0  0
 17 18  1  0  0  0  0
 18 19  1  0  0  0  0
 19 41  1  0  0  0  0
 19 42  1  0  0  0  0
 19 43  1  0  0  0  0
 20 21  1  0  0  0  0
 20 44  1  0  0  0  0
 20 45  1  0  0  0  0
 21 46  1  0  0  0  0
 21 47  1  0  0  0  0
M  END
> <s_m_source_file>
AV-unprocessed.smi

> <i_m_source_file_index>
1514

> <i_lp_mmshare_version>
43012

> <i_f3d_flags>
0

> <s_epik_input>
W0NIM11bQ0gyXU4xW0NIMl1bQ0gyXU4oW0NIMl1bQ0gyXTEpW0NIMl1bQ0gyXVtOSF1DKD1PKVtOSF1jMltjSF1jKFtDSDNdKW5uMltDSDNd

> <s_epik_cmdline>
J2VwaWtfcHl0aG9uJywgJy1waCcsICc3LjAnLCAnLXRuJywgJzgnLCAnLW1hJywgJzIwMCcsICctbWV0YWxfYmluZGluZycsICctaW1hZScsICc8aW5maWxlLm1hZT4nLCAnLW9tYWUnLCAnPG91dGZpbGUubWFlPic=

> <r_lp_tautomer_probability>
1

> <r_epik_Ionization_Penalty>
2.12169

> <r_epik_Ionization_Penalty_Charging>
0

> <r_epik_Ionization_Penalty_Neutral>
2.12169

> <r_epik_State_Penalty>
1.63644

> <r_epik_Charging_Adjusted_Penalty>
1.63644

> <i_epik_Tot_Q>
0

> <i_epik_Tot_abs_Q>
0

> <r_epik_Metal_State_Penalty>
1.63644

> <b_epik_Metal_Only>
0

> <s_lp_Force_Field>
OPLS_2005

> <r_lp_Energy>
34.6539

> <b_lp_Chiralities_Consistent>
1

> <s_lp_Variant>
AV-unprocessed.smi:1514-3

> <Gold.Version>
5.8.1

> <Gold.Id.Protein>
6NUR|6NUR_protein|mol2

> <Gold.PLP.Fitness>
43.5834

> <Gold.PLP.PLP>
-39.7248

> <Gold.PLP.part.hbond>
-2.1493

> <Gold.PLP.part.metal>
0.0000

> <Gold.PLP.part.buried>
-4.2296

> <Gold.PLP.part.nonpolar>
-32.8036

> <Gold.PLP.part.repulsive>
0.0925

> <Gold.PLP.ligand.clash>
0.0000

> <Gold.PLP.ligand.torsion>
1.0870

> <Gold.PLP.Chemscore.Hbond>
1.9760

> <Gold.PLP.Chemscore.CHOScore>
0.0000

> <Gold.PLP.Chemscore.Metal>
0.0000

> <Gold.Chemscore.Hbonds>
donor molecule, donor type, donor heavy atom, donor atom, acceptor molecule, acceptor atom, score
      L1  H     9    35       P1  7948  0.98
      L1  H    12    36       P1  7948  1.00

> <Gold.PLP.Chemscore.Internal.Correction>
0.1046

> <Gold.Rescore>
     Score         DG    S(hbond)    S(metal)    S(lipo)     H(rot)  DE(clash)    DE(int)     intcor
     13.34     -16.79       1.85        0.00      79.92       1.64       0.07       3.38       ----

> <Gold.Chemscore.Fitness>
13.3397

> <Gold.Chemscore.DG>
-16.7884

> <Gold.Chemscore.ZeroCoef>
-5.4800

> <Gold.Chemscore.Hbond>
1.8457

> <Gold.Chemscore.Metal>
0.0000

> <Gold.Chemscore.Lipo>
79.9184

> <Gold.Chemscore.Internal_Hbond>
0.0000

> <Gold.Chemscore.DEClash>
0.0727

> <Gold.Chemscore.DEInternal>
3.3760

> <Gold.Chemscore.Rot>
1.6432

> <Gold.Chemscore.Internal.Correction>
   9.000000E+99

> <Gold.Chemscore.Hbonds>
donor molecule, donor type, donor heavy atom, donor atom, acceptor molecule, acceptor atom, score
      L1  H     9    35       P1  7948  0.92
      L1  H    12    36       P1  7948  0.44

> <Gold.Chemscore.Hbond.Weighted>
-6.1645

> <Gold.Chemscore.Metal.Weighted>
-0.0000

> <Gold.Chemscore.Lipo.Weighted>
-9.3504

> <Gold.Chemscore.Internal_Hbond.Weighted>
0.0000

> <Gold.Chemscore.DEClash.Weighted>
0.0727

> <Gold.Chemscore.DEInternal.Weighted>
3.3760

> <Gold.Chemscore.Rot.Weighted>
4.2065

> <Gold.Chemscore.Internal.Correction.Weighted>
   9.000000E+99

> <Gold.Protein.RotatedTorsions>
[ 6907 6896 6895 6894 ] final  -89.93 input  -60.11 | X-H torsion
[ 7974 7965 7964 7962 ] final   -6.57 input  175.53 | X-H torsion
[ 8008 7997 7996 7995 ] final  -10.97 input   59.86 | X-H torsion
[ 10167 10162 10161 10158 ] final   32.93 input  -65.29 | X-H torsion
[ 10718 10713 10712 10709 ] final -111.26 input   66.30 | X-H torsion
[ 10763 10752 10751 10750 ] final  -35.07 input  -60.55 | X-H torsion
[ 11005 11000 10999 10996 ] final -175.27 input  -57.11 | X-H torsion

> <Gold.Protein.ActiveResidues>
 VAL166  LYS551  ARG553  GLY616  TRP617  ASP618  TYR619  PRO620  LYS621  CYS622 
 ASP623  PHE694  ASN695  SER759  ASP760  ASP761  ALA762  ILE779  LEU786  VAL792 
 PHE793  MET794  SER795  GLU796  ALA797  LYS798  CYS799  TRP800  GLU811  SER814 

> <Gold.Protein.RotatedAtoms>
  150.6877  134.2511  159.4510 H   0  0  0  0  0  0  0  0  0  0  0  0  # atno 6907 bound_to 6896
  152.0448  134.9687  160.0583 H   0  0  0  0  0  0  0  0  0  0  0  0  # atno 6908 bound_to 6896
  152.1174  133.4300  159.4696 H   0  0  0  0  0  0  0  0  0  0  0  0  # atno 6909 bound_to 6896
  146.2328  140.2190  142.8337 H   0  0  0  0  0  0  0  0  0  0  0  0  # atno 7974 bound_to 7965
  154.5506  140.2315  155.8491 H   0  0  0  0  0  0  0  0  0  0  0  0  # atno 8008 bound_to 7997
  156.1943  140.3069  155.9357 H   0  0  0  0  0  0  0  0  0  0  0  0  # atno 8009 bound_to 7997
  155.3078  140.0434  157.3024 H   0  0  0  0  0  0  0  0  0  0  0  0  # atno 8010 bound_to 7997
  140.4453  144.1127  150.6181 H   0  0  0  0  0  0  0  0  0  0  0  0  # atno 10167 bound_to 10162
  156.0637  130.5858  150.8349 H   0  0  0  0  0  0  0  0  0  0  0  0  # atno 10718 bound_to 10713
  153.8571  135.6843  153.4786 H   0  0  0  0  0  0  0  0  0  0  0  0  # atno 10763 bound_to 10752
  153.1363  135.4676  154.9426 H   0  0  0  0  0  0  0  0  0  0  0  0  # atno 10764 bound_to 10752
  154.7776  135.3258  154.8008 H   0  0  0  0  0  0  0  0  0  0  0  0  # atno 10765 bound_to 10752
  140.4652  134.6217  157.4859 H   0  0  0  0  0  0  0  0  0  0  0  0  # atno 11005 bound_to 11000
  144.9647  140.8309  143.5492 LP  0  0  0  0  0  0  0  0  0  0  0  0  # atno 17320 bound_to 7965
  145.2165  139.2179  143.5115 LP  0  0  0  0  0  0  0  0  0  0  0  0  # atno 17321 bound_to 7965
  140.4270  143.2585  151.9643 LP  0  0  0  0  0  0  0  0  0  0  0  0  # atno 17342 bound_to 10162
  139.4792  144.5779  151.7982 LP  0  0  0  0  0  0  0  0  0  0  0  0  # atno 17343 bound_to 10162
  157.5664  131.0946  150.9483 LP  0  0  0  0  0  0  0  0  0  0  0  0  # atno 17370 bound_to 10713
  156.9709  130.5490  149.5290 LP  0  0  0  0  0  0  0  0  0  0  0  0  # atno 17371 bound_to 10713
  139.9920  134.6971  155.9674 LP  0  0  0  0  0  0  0  0  0  0  0  0  # atno 17394 bound_to 11000
  141.1603  133.6539  156.4295 LP  0  0  0  0  0  0  0  0  0  0  0  0  # atno 17395 bound_to 11000

$$$$
