AV-unprocessed.smi:1500|AV-procd|sdf|6063|dock1
  -GOLD-   22720 6183D 1   1.00000     0.00000
 Structure written by MMmdl.
 32 33  0  0  0  0  0  0  0  0  1 V2000
  148.3658  138.9011  152.8621 N   0  0  0  0  0  0  0  0  0  0  0  0
  147.7609  139.7087  153.7370 C   0  0  0  0  0  0  0  0  0  0  0  0
  146.7327  139.3852  154.3275 O   0  0  0  0  0  0  0  0  0  0  0  0
  148.3983  141.0783  153.9807 C   0  0  0  0  0  0  0  0  0  0  0  0
  149.4543  140.9959  154.9745 N   0  0  0  0  0  0  0  0  0  0  0  0
  149.5329  141.6440  156.1923 C   0  0  0  0  0  0  0  0  0  0  0  0
  150.7104  141.2382  156.7533 C   0  0  0  0  0  0  0  0  0  0  0  0
  151.2821  141.5921  158.0016 N   0  0  0  0  0  0  0  0  0  0  0  0
  152.3565  141.0424  158.6003 C   0  0  0  0  0  0  0  0  0  0  0  0
  153.0123  140.1177  158.1188 O   0  0  0  0  0  0  0  0  0  0  0  0
  152.6664  141.6090  159.7876 N   0  0  0  0  0  0  0  0  0  0  0  0
  152.2407  142.9282  160.2661 C   0  0  0  0  0  0  0  0  0  0  0  0
  152.6535  142.9917  161.7370 C   0  0  0  0  0  0  0  0  0  0  0  0
  153.8144  142.0133  161.8406 C   0  0  0  0  0  0  0  0  0  0  0  0
  153.4983  140.9473  160.7918 C   0  0  0  0  0  0  0  0  0  0  0  0
  151.2982  140.3481  155.8174 C   0  0  0  0  0  0  0  0  0  0  0  0
  150.5348  140.2083  154.7444 N   0  0  0  0  0  0  0  0  0  0  0  0
  147.9773  137.9883  152.6730 H   0  0  0  0  0  0  0  0  0  0  0  0
  149.2074  139.2025  152.3929 H   0  0  0  0  0  0  0  0  0  0  0  0
  148.8052  141.4621  153.0437 H   0  0  0  0  0  0  0  0  0  0  0  0
  147.6520  141.7963  154.3234 H   0  0  0  0  0  0  0  0  0  0  0  0
  148.7580  142.3136  156.5350 H   0  0  0  0  0  0  0  0  0  0  0  0
  150.8310  142.3496  158.4937 H   0  0  0  0  0  0  0  0  0  0  0  0
  152.7576  143.6983  159.6916 H   0  0  0  0  0  0  0  0  0  0  0  0
  151.1662  143.0826  160.1557 H   0  0  0  0  0  0  0  0  0  0  0  0
  152.9193  143.9989  162.0587 H   0  0  0  0  0  0  0  0  0  0  0  0
  151.8299  142.6471  162.3636 H   0  0  0  0  0  0  0  0  0  0  0  0
  154.7432  142.5213  161.5777 H   0  0  0  0  0  0  0  0  0  0  0  0
  153.9318  141.5995  162.8425 H   0  0  0  0  0  0  0  0  0  0  0  0
  152.9316  140.1280  161.2367 H   0  0  0  0  0  0  0  0  0  0  0  0
  154.4115  140.5330  160.3613 H   0  0  0  0  0  0  0  0  0  0  0  0
  152.2324  139.8098  155.8785 H   0  0  0  0  0  0  0  0  0  0  0  0
  1  2  1  0  0  0  0
  1 18  1  0  0  0  0
  1 19  1  0  0  0  0
  2  3  2  0  0  0  0
  2  4  1  0  0  0  0
  4  5  1  0  0  0  0
  4 20  1  0  0  0  0
  4 21  1  0  0  0  0
  5 17  1  0  0  0  0
  5  6  1  0  0  0  0
  6  7  2  0  0  0  0
  6 22  1  0  0  0  0
  7  8  1  0  0  0  0
  7 16  1  0  0  0  0
  8  9  1  0  0  0  0
  8 23  1  0  0  0  0
  9 10  2  0  0  0  0
  9 11  1  0  0  0  0
 11 15  1  0  0  0  0
 11 12  1  0  0  0  0
 12 13  1  0  0  0  0
 12 24  1  0  0  0  0
 12 25  1  0  0  0  0
 13 14  1  0  0  0  0
 13 26  1  0  0  0  0
 13 27  1  0  0  0  0
 14 15  1  0  0  0  0
 14 28  1  0  0  0  0
 14 29  1  0  0  0  0
 15 30  1  0  0  0  0
 15 31  1  0  0  0  0
 16 17  2  0  0  0  0
 16 32  1  0  0  0  0
M  END
> <s_m_source_file>
AV-unprocessed.smi

> <i_m_source_file_index>
1500

> <i_lp_mmshare_version>
43012

> <i_f3d_flags>
0

> <s_epik_input>
W05IMl1DKD1PKVtDSDJdbjFbY0hdYyhbY0hdbjEpW05IXUMoPU8pTjJbQ0gyXVtDSDJdW0NIMl1bQ0gyXTI=

> <s_epik_cmdline>
J2VwaWtfcHl0aG9uJywgJy1waCcsICc3LjAnLCAnLXRuJywgJzgnLCAnLW1hJywgJzIwMCcsICctbWV0YWxfYmluZGluZycsICctaW1hZScsICc8aW5maWxlLm1hZT4nLCAnLW9tYWUnLCAnPG91dGZpbGUubWFlPic=

> <r_lp_tautomer_probability>
1

> <r_epik_Ionization_Penalty>
4.95516e-05

> <r_epik_Ionization_Penalty_Charging>
0

> <r_epik_Ionization_Penalty_Neutral>
4.95516e-05

> <r_epik_State_Penalty>
-0

> <r_epik_Charging_Adjusted_Penalty>
0

> <i_epik_Tot_Q>
0

> <i_epik_Tot_abs_Q>
0

> <r_epik_Metal_State_Penalty>
-0

> <b_epik_Metal_Only>
0

> <s_lp_Force_Field>
OPLS_2005

> <r_lp_Energy>
39.2894

> <b_lp_Chiralities_Consistent>
1

> <s_lp_Variant>
AV-unprocessed.smi:1500-1

> <Gold.Version>
5.8.1

> <Gold.Id.Protein>
6NUR|6NUR_protein|mol2

> <Gold.PLP.Fitness>
48.0692

> <Gold.PLP.PLP>
-37.5018

> <Gold.PLP.part.hbond>
-3.5358

> <Gold.PLP.part.metal>
0.0000

> <Gold.PLP.part.buried>
-2.0742

> <Gold.PLP.part.nonpolar>
-31.3623

> <Gold.PLP.part.repulsive>
0.3433

> <Gold.PLP.ligand.clash>
0.0000

> <Gold.PLP.ligand.torsion>
0.5310

> <Gold.PLP.Chemscore.Hbond>
3.1216

> <Gold.PLP.Chemscore.CHOScore>
0.7520

> <Gold.PLP.Chemscore.Metal>
0.0000

> <Gold.Chemscore.Hbonds>
donor molecule, donor type, donor heavy atom, donor atom, acceptor molecule, acceptor atom, score
      L1  H     1    18       P1  7948  0.39
      L1  H     1    19       P1  7957  0.77
      P1  H  7989  7998       L1    17  1.00
      P1  H  7997  8009       L1    10  1.00
      L1  C     6    22       P1  8028  0.68

> <Gold.PLP.Chemscore.Internal.Correction>
0.0083

> <Gold.Rescore>
     Score         DG    S(hbond)    S(metal)    S(lipo)     H(rot)  DE(clash)    DE(int)     intcor
     18.39     -20.33       3.19        0.00      69.79       1.54       0.12       1.82       ----

> <Gold.Chemscore.Fitness>
18.3924

> <Gold.Chemscore.DG>
-20.3342

> <Gold.Chemscore.ZeroCoef>
-5.4800

> <Gold.Chemscore.Hbond>
3.1859

> <Gold.Chemscore.Metal>
0.0000

> <Gold.Chemscore.Lipo>
69.7934

> <Gold.Chemscore.Internal_Hbond>
0.0000

> <Gold.Chemscore.DEClash>
0.1241

> <Gold.Chemscore.DEInternal>
1.8176

> <Gold.Chemscore.Rot>
1.5440

> <Gold.Chemscore.Internal.Correction>
   9.000000E+99

> <Gold.Chemscore.Hbonds>
donor molecule, donor type, donor heavy atom, donor atom, acceptor molecule, acceptor atom, score
      L1  H     1    18       P1  7948  0.40
      L1  H     1    19       P1  7957  0.72
      P1  H  7989  7998       L1    17  0.22
      P1  H  7997  8009       L1    10  0.95

> <Gold.Chemscore.Hbond.Weighted>
-10.6410

> <Gold.Chemscore.Metal.Weighted>
-0.0000

> <Gold.Chemscore.Lipo.Weighted>
-8.1658

> <Gold.Chemscore.Internal_Hbond.Weighted>
0.0000

> <Gold.Chemscore.DEClash.Weighted>
0.1241

> <Gold.Chemscore.DEInternal.Weighted>
1.8176

> <Gold.Chemscore.Rot.Weighted>
3.9526

> <Gold.Chemscore.Internal.Correction.Weighted>
   9.000000E+99

> <Gold.Protein.RotatedTorsions>
[ 6907 6896 6895 6894 ] final   85.81 input  -60.11 | X-H torsion
[ 7974 7965 7964 7962 ] final -145.58 input  175.53 | X-H torsion
[ 8008 7997 7996 7995 ] final  162.05 input   59.86 | X-H torsion
[ 10167 10162 10161 10158 ] final  132.16 input  -65.29 | X-H torsion
[ 10718 10713 10712 10709 ] final  -35.92 input   66.30 | X-H torsion
[ 10763 10752 10751 10750 ] final   51.33 input  -60.55 | X-H torsion
[ 11005 11000 10999 10996 ] final   -4.65 input  -57.11 | X-H torsion

> <Gold.Protein.ActiveResidues>
 VAL166  LYS551  ARG553  GLY616  TRP617  ASP618  TYR619  PRO620  LYS621  CYS622 
 ASP623  PHE694  ASN695  SER759  ASP760  ASP761  ALA762  ILE779  LEU786  VAL792 
 PHE793  MET794  SER795  GLU796  ALA797  LYS798  CYS799  TRP800  GLU811  SER814 

> <Gold.Protein.RotatedAtoms>
  152.5382  134.2529  159.8905 H   0  0  0  0  0  0  0  0  0  0  0  0  # atno 6907 bound_to 6896
  151.2491  133.4352  159.2618 H   0  0  0  0  0  0  0  0  0  0  0  0  # atno 6908 bound_to 6896
  151.0555  134.9716  159.8290 H   0  0  0  0  0  0  0  0  0  0  0  0  # atno 6909 bound_to 6896
  144.8217  140.5565  143.5574 H   0  0  0  0  0  0  0  0  0  0  0  0  # atno 7974 bound_to 7965
  156.2059  140.1761  156.7800 H   0  0  0  0  0  0  0  0  0  0  0  0  # atno 8008 bound_to 7997
  154.5655  140.0692  156.8915 H   0  0  0  0  0  0  0  0  0  0  0  0  # atno 8009 bound_to 7997
  155.2769  140.3346  155.4263 H   0  0  0  0  0  0  0  0  0  0  0  0  # atno 8010 bound_to 7997
  139.5352  144.6674  151.4811 H   0  0  0  0  0  0  0  0  0  0  0  0  # atno 10167 bound_to 10162
  156.3330  130.4282  149.7855 H   0  0  0  0  0  0  0  0  0  0  0  0  # atno 10718 bound_to 10713
  152.9785  135.5849  154.4398 H   0  0  0  0  0  0  0  0  0  0  0  0  # atno 10763 bound_to 10752
  154.4001  135.2768  155.2104 H   0  0  0  0  0  0  0  0  0  0  0  0  # atno 10764 bound_to 10752
  154.3939  135.6119  153.5913 H   0  0  0  0  0  0  0  0  0  0  0  0  # atno 10765 bound_to 10752
  140.6826  133.9141  155.8565 H   0  0  0  0  0  0  0  0  0  0  0  0  # atno 11005 bound_to 11000
  145.5089  139.1480  143.3615 LP  0  0  0  0  0  0  0  0  0  0  0  0  # atno 17320 bound_to 7965
  146.2523  140.5230  142.8888 LP  0  0  0  0  0  0  0  0  0  0  0  0  # atno 17321 bound_to 7965
  140.6554  143.8610  150.6829 LP  0  0  0  0  0  0  0  0  0  0  0  0  # atno 17342 bound_to 10162
  140.1988  143.3976  152.1807 LP  0  0  0  0  0  0  0  0  0  0  0  0  # atno 17343 bound_to 10162
  156.5121  130.8176  151.3172 LP  0  0  0  0  0  0  0  0  0  0  0  0  # atno 17370 bound_to 10713
  157.7434  130.9910  150.2587 LP  0  0  0  0  0  0  0  0  0  0  0  0  # atno 17371 bound_to 10713
  141.0306  134.0762  157.4019 LP  0  0  0  0  0  0  0  0  0  0  0  0  # atno 17394 bound_to 11000
  139.8947  135.0137  156.6965 LP  0  0  0  0  0  0  0  0  0  0  0  0  # atno 17395 bound_to 11000

$$$$
