AV-unprocessed.smi:396|AV-procd|sdf|2487|dock8
  -GOLD-   2262022433D 1   1.00000     0.00000
 Structure written by MMmdl.
 40 42  0  0  0  0  0  0  0  0  1 V2000
  151.1332  135.6755  154.4610 N   0  0  0  0  0  0  0  0  0  0  0  0
  150.6847  136.7081  154.7301 C   0  0  0  0  0  0  0  0  0  0  0  0
  150.1088  137.9652  155.0753 C   0  0  0  0  0  0  0  0  0  0  0  0
  149.4266  138.7051  154.1772 C   0  0  0  0  0  0  0  0  0  0  0  0
  148.8532  139.9162  154.4977 N   0  0  0  0  0  0  0  0  0  0  0  0
  148.2489  140.7483  153.4958 C   0  0  0  0  0  0  0  0  0  0  0  0
  146.9064  141.4043  153.7551 C   0  0  0  0  0  0  0  0  0  0  0  0
  147.0087  140.2553  152.7824 C   0  0  0  0  0  0  0  0  0  0  0  0
  149.0391  140.4722  155.7822 C   0  0  0  0  0  0  0  0  0  0  0  0
  148.6031  141.5917  156.0625 O   0  0  0  0  0  0  0  0  0  0  0  0
  149.7426  139.7034  156.7412 N   0  0  0  0  0  0  0  0  0  0  0  0
  149.8840  140.2413  158.1123 C   0  0  0  0  0  0  0  0  0  0  0  0
  151.1239  141.1297  158.2946 C   0  0  0  0  0  0  0  0  0  0  0  0
  152.2560  140.6442  158.3275 O   0  0  0  0  0  0  0  0  0  0  0  0
  150.8888  142.4456  158.4050 N   0  0  0  0  0  0  0  0  0  0  0  0
  151.9171  143.4676  158.5806 C   0  0  0  0  0  0  0  0  0  0  0  0
  152.6826  143.2464  159.8979 C   0  0  0  0  0  0  0  0  0  0  0  0
  152.2355  144.3667  160.8374 C   0  0  0  0  0  0  0  0  0  0  0  0
  151.9361  145.5358  159.9047 C   0  0  0  0  0  0  0  0  0  0  0  0
  151.3090  144.8830  158.6718 C   0  0  0  0  0  0  0  0  0  0  0  0
  150.2891  138.4275  156.4496 C   0  0  0  0  0  0  0  0  0  0  0  0
  150.8714  137.7725  157.3159 O   0  0  0  0  0  0  0  0  0  0  0  0
  149.3162  138.3323  153.1690 H   0  0  0  0  0  0  0  0  0  0  0  0
  148.9462  141.3225  152.8880 H   0  0  0  0  0  0  0  0  0  0  0  0
  146.4116  141.2080  154.7045 H   0  0  0  0  0  0  0  0  0  0  0  0
  146.7485  142.3996  153.3452 H   0  0  0  0  0  0  0  0  0  0  0  0
  146.9166  140.4836  151.7226 H   0  0  0  0  0  0  0  0  0  0  0  0
  146.5826  139.3028  153.0920 H   0  0  0  0  0  0  0  0  0  0  0  0
  149.0039  140.8170  158.4032 H   0  0  0  0  0  0  0  0  0  0  0  0
  149.9224  139.4330  158.8445 H   0  0  0  0  0  0  0  0  0  0  0  0
  149.9310  142.7629  158.3663 H   0  0  0  0  0  0  0  0  0  0  0  0
  152.6240  143.4132  157.7503 H   0  0  0  0  0  0  0  0  0  0  0  0
  152.5241  142.2583  160.3323 H   0  0  0  0  0  0  0  0  0  0  0  0
  153.7530  143.3439  159.7107 H   0  0  0  0  0  0  0  0  0  0  0  0
  151.3243  144.0694  161.3584 H   0  0  0  0  0  0  0  0  0  0  0  0
  152.9870  144.6096  161.5892 H   0  0  0  0  0  0  0  0  0  0  0  0
  151.2860  146.2831  160.3607 H   0  0  0  0  0  0  0  0  0  0  0  0
  152.8679  146.0296  159.6256 H   0  0  0  0  0  0  0  0  0  0  0  0
  151.4871  145.4652  157.7673 H   0  0  0  0  0  0  0  0  0  0  0  0
  150.2277  144.8297  158.8112 H   0  0  0  0  0  0  0  0  0  0  0  0
  1  2  3  0  0  0  0
  2  3  1  0  0  0  0
  3 21  1  0  0  0  0
  3  4  2  0  0  0  0
  4  5  1  0  0  0  0
  4 23  1  0  0  0  0
  5  6  1  0  0  0  0
  5  9  1  0  0  0  0
  6  8  1  0  0  0  0
  6  7  1  0  0  0  0
  6 24  1  0  0  0  0
  7  8  1  0  0  0  0
  7 25  1  0  0  0  0
  7 26  1  0  0  0  0
  8 27  1  0  0  0  0
  8 28  1  0  0  0  0
  9 10  2  0  0  0  0
  9 11  1  0  0  0  0
 11 12  1  0  0  0  0
 11 21  1  0  0  0  0
 12 13  1  0  0  0  0
 12 29  1  0  0  0  0
 12 30  1  0  0  0  0
 13 14  2  0  0  0  0
 13 15  1  0  0  0  0
 15 16  1  0  0  0  0
 15 31  1  0  0  0  0
 16 20  1  0  0  0  0
 16 17  1  0  0  0  0
 16 32  1  0  0  0  0
 17 18  1  0  0  0  0
 17 33  1  0  0  0  0
 17 34  1  0  0  0  0
 18 19  1  0  0  0  0
 18 35  1  0  0  0  0
 18 36  1  0  0  0  0
 19 20  1  0  0  0  0
 19 37  1  0  0  0  0
 19 38  1  0  0  0  0
 20 39  1  0  0  0  0
 20 40  1  0  0  0  0
 21 22  2  0  0  0  0
M  END
> <s_m_source_file>
AV-unprocessed.smi

> <i_m_source_file_index>
396

> <i_lp_mmshare_version>
43012

> <i_f3d_flags>
0

> <s_epik_input>
TiNDYzFbY0hdbihbQ0hdMltDSDJdW0NIMl0yKWMoPU8pbihjMT1PKVtDSDJdQyg9TylbTkhdW0NIXTNbQ0gyXVtDSDJdW0NIMl1bQ0gyXTM=

> <s_epik_cmdline>
J2VwaWtfcHl0aG9uJywgJy1waCcsICc3LjAnLCAnLXRuJywgJzgnLCAnLW1hJywgJzIwMCcsICctbWV0YWxfYmluZGluZycsICctaW1hZScsICc8aW5maWxlLm1hZT4nLCAnLW9tYWUnLCAnPG91dGZpbGUubWFlPic=

> <r_lp_tautomer_probability>
1

> <r_epik_Ionization_Penalty>
1.93885e-08

> <r_epik_Ionization_Penalty_Charging>
8.67893e-11

> <r_epik_Ionization_Penalty_Neutral>
1.93017e-08

> <r_epik_State_Penalty>
-0

> <r_epik_Charging_Adjusted_Penalty>
8.67893e-11

> <i_epik_Tot_Q>
0

> <i_epik_Tot_abs_Q>
0

> <r_epik_Metal_State_Penalty>
-0

> <b_epik_Metal_Only>
0

> <s_lp_Force_Field>
OPLS_2005

> <r_lp_Energy>
43.3866

> <b_lp_Chiralities_Consistent>
1

> <s_lp_Variant>
AV-unprocessed.smi:396-1

> <Gold.Version>
5.8.1

> <Gold.Id.Protein>
6NUR|6NUR_protein|mol2

> <Gold.PLP.Fitness>
44.8637

> <Gold.PLP.PLP>
-38.3671

> <Gold.PLP.part.hbond>
-1.0000

> <Gold.PLP.part.metal>
0.0000

> <Gold.PLP.part.buried>
-2.4631

> <Gold.PLP.part.nonpolar>
-36.6502

> <Gold.PLP.part.repulsive>
2.5670

> <Gold.PLP.ligand.clash>
0.0000

> <Gold.PLP.ligand.torsion>
0.6535

> <Gold.PLP.Chemscore.Hbond>
1.0000

> <Gold.PLP.Chemscore.CHOScore>
1.5348

> <Gold.PLP.Chemscore.Metal>
0.0000

> <Gold.Chemscore.Hbonds>
donor molecule, donor type, donor heavy atom, donor atom, acceptor molecule, acceptor atom, score
      P1  H 10752 10765       L1     1  1.00
      L1  C     4    23       P1  7948  1.00
      L1  C     4    23       P1  7957  0.57

> <Gold.PLP.Chemscore.Internal.Correction>
0.1992

> <Gold.Rescore>
     Score         DG    S(hbond)    S(metal)    S(lipo)     H(rot)  DE(clash)    DE(int)     intcor
     14.38     -15.63       0.99        0.00      97.01       1.76       0.57       0.68       ----

> <Gold.Chemscore.Fitness>
14.3847

> <Gold.Chemscore.DG>
-15.6344

> <Gold.Chemscore.ZeroCoef>
-5.4800

> <Gold.Chemscore.Hbond>
0.9930

> <Gold.Chemscore.Metal>
0.0000

> <Gold.Chemscore.Lipo>
97.0115

> <Gold.Chemscore.Internal_Hbond>
0.0000

> <Gold.Chemscore.DEClash>
0.5674

> <Gold.Chemscore.DEInternal>
0.6823

> <Gold.Chemscore.Rot>
1.7627

> <Gold.Chemscore.Internal.Correction>
   9.000000E+99

> <Gold.Chemscore.Hbonds>
donor molecule, donor type, donor heavy atom, donor atom, acceptor molecule, acceptor atom, score
      P1  H 10752 10765       L1     1  0.88

> <Gold.Chemscore.Hbond.Weighted>
-3.3166

> <Gold.Chemscore.Metal.Weighted>
-0.0000

> <Gold.Chemscore.Lipo.Weighted>
-11.3503

> <Gold.Chemscore.Internal_Hbond.Weighted>
0.0000

> <Gold.Chemscore.DEClash.Weighted>
0.5674

> <Gold.Chemscore.DEInternal.Weighted>
0.6823

> <Gold.Chemscore.Rot.Weighted>
4.5126

> <Gold.Chemscore.Internal.Correction.Weighted>
   9.000000E+99

> <Gold.Protein.RotatedTorsions>
[ 6907 6896 6895 6894 ] final  117.01 input  -60.11 | X-H torsion
[ 7974 7965 7964 7962 ] final  150.69 input  175.53 | X-H torsion
[ 8008 7997 7996 7995 ] final  -35.65 input   59.86 | X-H torsion
[ 10167 10162 10161 10158 ] final   83.35 input  -65.29 | X-H torsion
[ 10718 10713 10712 10709 ] final -170.51 input   66.30 | X-H torsion
[ 10763 10752 10751 10750 ] final  179.67 input  -60.55 | X-H torsion
[ 11005 11000 10999 10996 ] final  -24.93 input  -57.11 | X-H torsion

> <Gold.Protein.ActiveResidues>
 VAL166  LYS551  ARG553  GLY616  TRP617  ASP618  TYR619  PRO620  LYS621  CYS622 
 ASP623  PHE694  ASN695  SER759  ASP760  ASP761  ALA762  ILE779  LEU786  VAL792 
 PHE793  MET794  SER795  GLU796  ALA797  LYS798  CYS799  TRP800  GLU811  SER814 

> <Gold.Protein.RotatedAtoms>
  152.4640  133.7883  159.6887 H   0  0  0  0  0  0  0  0  0  0  0  0  # atno 6907 bound_to 6896
  150.8596  133.7653  159.3003 H   0  0  0  0  0  0  0  0  0  0  0  0  # atno 6908 bound_to 6896
  151.5223  135.1070  159.9933 H   0  0  0  0  0  0  0  0  0  0  0  0  # atno 6909 bound_to 6896
  144.8346  139.6440  143.6043 H   0  0  0  0  0  0  0  0  0  0  0  0  # atno 7974 bound_to 7965
  154.4090  140.1651  156.2247 H   0  0  0  0  0  0  0  0  0  0  0  0  # atno 8008 bound_to 7997
  155.9334  140.3413  155.6244 H   0  0  0  0  0  0  0  0  0  0  0  0  # atno 8009 bound_to 7997
  155.7078  140.0753  157.2374 H   0  0  0  0  0  0  0  0  0  0  0  0  # atno 8010 bound_to 7997
  139.9193  144.6223  150.8456 H   0  0  0  0  0  0  0  0  0  0  0  0  # atno 10167 bound_to 10162
  156.7273  130.9293  151.3102 H   0  0  0  0  0  0  0  0  0  0  0  0  # atno 10718 bound_to 10713
  154.5237  135.2795  155.1241 H   0  0  0  0  0  0  0  0  0  0  0  0  # atno 10763 bound_to 10752
  154.2788  135.6289  153.5342 H   0  0  0  0  0  0  0  0  0  0  0  0  # atno 10764 bound_to 10752
  152.9942  135.5646  154.5732 H   0  0  0  0  0  0  0  0  0  0  0  0  # atno 10765 bound_to 10752
  140.8891  133.7601  156.0398 H   0  0  0  0  0  0  0  0  0  0  0  0  # atno 11005 bound_to 11000
  146.2646  139.6490  142.9338 LP  0  0  0  0  0  0  0  0  0  0  0  0  # atno 17320 bound_to 7965
  145.4822  141.0438  143.2639 LP  0  0  0  0  0  0  0  0  0  0  0  0  # atno 17321 bound_to 7965
  140.7666  143.3308  151.2414 LP  0  0  0  0  0  0  0  0  0  0  0  0  # atno 17342 bound_to 10162
  139.6875  143.9748  152.2842 LP  0  0  0  0  0  0  0  0  0  0  0  0  # atno 17343 bound_to 10162
  157.6873  130.9198  150.0421 LP  0  0  0  0  0  0  0  0  0  0  0  0  # atno 17370 bound_to 10713
  156.1553  130.3643  149.9378 LP  0  0  0  0  0  0  0  0  0  0  0  0  # atno 17371 bound_to 10713
  140.8369  134.3112  157.5328 LP  0  0  0  0  0  0  0  0  0  0  0  0  # atno 17394 bound_to 11000
  139.8727  134.9394  156.3742 LP  0  0  0  0  0  0  0  0  0  0  0  0  # atno 17395 bound_to 11000

$$$$
