#       Name:                AV-unprocessed.smi:1387
#       Creating user name   scv26
#       Creation time:       Fri Mar 27 05:25:53 2020


#       File generated by GOLD software.
#

@<TRIPOS>MOLECULE
AV-unprocessed.smi:1387
    39    40     1
SMALL
NO_CHARGES


@<TRIPOS>ATOM
      1 ****        -0.9373   3.7002   0.0140 C.3            1 S1                 0.0000
      2 ****        -0.2288   2.4663   0.0380 O.3            1 S1                 0.0000
      3 ****         1.1521   2.4977  -0.0065 C.ar           1 S1                 0.0000
      4 ****         1.7705   3.7042  -0.0606 N.ar           1 S1                 0.0000
      5 ****         3.1186   3.7336  -0.1018 C.ar           1 S1                 0.0000
      6 ****         3.9161   2.5743  -0.0841 C.ar           1 S1                 0.0000
      7 ****         3.2769   1.3219  -0.0281 C.ar           1 S1                 0.0000
      8 ****         1.8627   1.2754  -0.0006 C.ar           1 S1                 0.0000
      9 ****         1.1202   0.0669   0.0757 N.am           1 S1                 0.0000
     10 ****         1.4591  -1.1547  -0.3784 C.2            1 S1                 0.0000
     11 ****         2.5219  -1.4240  -0.9344 O.2            1 S1                 0.0000
     12 ****         0.5026  -2.0860  -0.2101 N.am           1 S1                 0.0000
     13 ****         0.5448  -3.5014  -0.5878 C.3            1 S1                 0.0000
     14 ****        -0.8705  -4.1092  -0.5783 C.3            1 S1                 0.0000
     15 ****        -0.7447  -5.4582   0.1304 C.3            1 S1                 0.0000
     16 ****         0.3842  -5.2494   1.1340 C.3            1 S1                 0.0000
     17 ****         1.3767  -4.3442   0.4033 C.3            1 S1                 0.0000
     18 ****        -2.0082   3.5011   0.0482 H              1 S1                 0.0000
     19 ****        -0.7338   4.2592  -0.9005 H              1 S1                 0.0000
     20 ****        -0.6884   4.3200   0.8765 H              1 S1                 0.0000
     21 ****         3.5757   4.7111  -0.1438 H              1 S1                 0.0000
     22 ****         4.9934   2.6446  -0.1083 H              1 S1                 0.0000
     23 ****         3.8781   0.4264   0.0073 H              1 S1                 0.0000
     24 ****         0.1776   0.1607   0.4252 H              1 S1                 0.0000
     25 ****        -0.3728  -1.7635   0.1765 H              1 S1                 0.0000
     26 ****         0.9642  -3.6009  -1.5905 H              1 S1                 0.0000
     27 ****        -1.5559  -3.4777  -0.0106 H              1 S1                 0.0000
     28 ****        -1.2835  -4.2107  -1.5825 H              1 S1                 0.0000
     29 ****        -1.6754  -5.7733   0.6031 H              1 S1                 0.0000
     30 ****        -0.4590  -6.2269  -0.5888 H              1 S1                 0.0000
     31 ****         0.0001  -4.7361   2.0165 H              1 S1                 0.0000
     32 ****         0.8342  -6.1867   1.4625 H              1 S1                 0.0000
     33 ****         2.0830  -4.9592  -0.1562 H              1 S1                 0.0000
     34 ****         1.9619  -3.7448   1.1020 H              1 S1                 0.0000
     35 ****        -0.5375   1.9334  -0.7498 LP             1 S1                 0.0000
     36 ****        -0.4863   1.9945   0.8813 LP             1 S1                 0.0000
     37 ****         1.2395   4.5516  -0.0697 LP             1 S1                 0.0000
     38 ****         3.2070  -0.7095  -1.0763 LP             1 S1                 0.0000
     39 ****         2.7013  -2.3575  -1.2447 LP             1 S1                 0.0000
@<TRIPOS>BOND
    1    1    2 1     
    2    1   18 1     
    3    1   19 1     
    4    1   20 1     
    5    2    3 1     
    6    3    8 ar    
    7    3    4 ar    
    8    4    5 ar    
    9    5    6 ar    
   10    5   21 1     
   11    6    7 ar    
   12    6   22 1     
   13    7    8 ar    
   14    7   23 1     
   15    8    9 1     
   16    9   10 am    
   17    9   24 1     
   18   10   11 2     
   19   10   12 am    
   20   12   13 1     
   21   12   25 1     
   22   13   17 1     
   23   13   14 1     
   24   13   26 1     
   25   14   15 1     
   26   14   27 1     
   27   14   28 1     
   28   15   16 1     
   29   15   29 1     
   30   15   30 1     
   31   16   17 1     
   32   16   31 1     
   33   16   32 1     
   34   17   33 1     
   35   17   34 1     
   36    2   35 1     
   37    2   36 1     
   38    4   37 1     
   39   11   38 1     
   40   11   39 1     
@<TRIPOS>SUBSTRUCTURE
      1 S1             1
@<TRIPOS>SET
LONE_PAIRS      STATIC     ATOMS    <user>   **** ""
5 35 36 37 38 39
DONOR_HYDROGENS      STATIC     ATOMS    <user>   **** ""
2 24 25
ATOM$BLUE        STATIC     ATOMS    COLORGROUP SYSTEM
5 35 36 37 38 39
ATOM$RED        STATIC     ATOMS    COLORGROUP SYSTEM
2 24 25
