AV-unprocessed.smi:3278|AV-procd|sdf|12545|dock3
  -GOLD-   2272018463D 1   1.00000     0.00000
 Structure written by MMmdl.
 38 39  0  0  0  0  0  0  0  0  1 V2000
  151.8324  136.0850  156.6824 C   0  0  0  0  0  0  0  0  0  0  0  0
  151.3531  137.1541  155.8328 N   0  0  0  0  0  0  0  0  0  0  0  0
  150.7597  138.3423  156.1995 C   0  0  0  0  0  0  0  0  0  0  0  0
  150.4775  139.0356  155.0545 C   0  0  0  0  0  0  0  0  0  0  0  0
  149.8192  140.3901  154.8935 C   0  0  2  0  0  0  0  0  0  0  0  0
  148.3583  140.3174  155.3686 C   0  0  0  0  0  0  0  0  0  0  0  0
  149.7572  140.7977  153.5393 O   0  0  0  0  0  0  0  0  0  0  0  0
  150.5730  141.4911  155.6728 C   0  0  0  0  0  0  0  0  0  0  0  0
  150.6359  141.2072  157.1095 N   0  0  0  0  0  0  0  0  0  0  0  0
  151.6778  141.9198  157.8539 C   0  0  2  0  0  0  0  0  0  0  0  0
  151.7795  141.4304  159.3175 C   0  0  0  0  0  0  0  0  0  0  0  0
  152.8968  142.1335  160.1062 C   0  0  0  0  0  0  0  0  0  0  0  0
  152.6961  143.6522  160.1895 C   0  0  0  0  0  0  0  0  0  0  0  0
  152.7265  144.4019  158.5406 S   0  0  0  0  0  0  0  0  0  0  0  0
  151.3937  143.4315  157.7857 C   0  0  0  0  0  0  0  0  0  0  0  0
  150.9505  138.1674  154.0270 C   0  0  0  0  0  0  0  0  0  0  0  0
  151.4724  137.0455  154.4945 N   0  0  0  0  0  0  0  0  0  0  0  0
  151.4672  136.2252  157.7001 H   0  0  0  0  0  0  0  0  0  0  0  0
  152.9226  136.0853  156.6930 H   0  0  0  0  0  0  0  0  0  0  0  0
  151.4767  135.1242  156.3089 H   0  0  0  0  0  0  0  0  0  0  0  0
  150.5862  138.5946  157.2354 H   0  0  0  0  0  0  0  0  0  0  0  0
  148.2965  140.0384  156.4210 H   0  0  0  0  0  0  0  0  0  0  0  0
  147.7921  139.5781  154.8002 H   0  0  0  0  0  0  0  0  0  0  0  0
  147.8529  141.2774  155.2561 H   0  0  0  0  0  0  0  0  0  0  0  0
  149.5516  140.0435  153.0086 H   0  0  0  0  0  0  0  0  0  0  0  0
  151.5722  141.6159  155.2561 H   0  0  0  0  0  0  0  0  0  0  0  0
  150.0560  142.4397  155.5227 H   0  0  0  0  0  0  0  0  0  0  0  0
  149.7301  141.3942  157.5284 H   0  0  0  0  0  0  0  0  0  0  0  0
  152.6363  141.7422  157.3640 H   0  0  0  0  0  0  0  0  0  0  0  0
  150.8251  141.5781  159.8248 H   0  0  0  0  0  0  0  0  0  0  0  0
  151.9791  140.3598  159.3486 H   0  0  0  0  0  0  0  0  0  0  0  0
  152.9361  141.7221  161.1152 H   0  0  0  0  0  0  0  0  0  0  0  0
  153.8635  141.9151  159.6509 H   0  0  0  0  0  0  0  0  0  0  0  0
  151.7464  143.8863  160.6713 H   0  0  0  0  0  0  0  0  0  0  0  0
  153.4826  144.1046  160.7939 H   0  0  0  0  0  0  0  0  0  0  0  0
  151.2900  143.7523  156.7484 H   0  0  0  0  0  0  0  0  0  0  0  0
  150.4546  143.6691  158.2875 H   0  0  0  0  0  0  0  0  0  0  0  0
  150.9265  138.3200  152.9580 H   0  0  0  0  0  0  0  0  0  0  0  0
  1  2  1  0  0  0  0
  1 18  1  0  0  0  0
  1 19  1  0  0  0  0
  1 20  1  0  0  0  0
  2 17  1  0  0  0  0
  2  3  1  0  0  0  0
  3  4  2  0  0  0  0
  3 21  1  0  0  0  0
  4  5  1  0  0  0  0
  4 16  1  0  0  0  0
  5  6  1  0  0  0  0
  5  7  1  0  0  0  0
  5  8  1  0  0  0  0
  6 22  1  0  0  0  0
  6 23  1  0  0  0  0
  6 24  1  0  0  0  0
  7 25  1  0  0  0  0
  8  9  1  0  0  0  0
  8 26  1  0  0  0  0
  8 27  1  0  0  0  0
  9 10  1  0  0  0  0
  9 28  1  0  0  0  0
 10 15  1  0  0  0  0
 10 11  1  0  0  0  0
 10 29  1  0  0  0  0
 11 12  1  0  0  0  0
 11 30  1  0  0  0  0
 11 31  1  0  0  0  0
 12 13  1  0  0  0  0
 12 32  1  0  0  0  0
 12 33  1  0  0  0  0
 13 14  1  0  0  0  0
 13 34  1  0  0  0  0
 13 35  1  0  0  0  0
 14 15  1  0  0  0  0
 15 36  1  0  0  0  0
 15 37  1  0  0  0  0
 16 17  2  0  0  0  0
 16 38  1  0  0  0  0
M  END
> <s_m_source_file>
AV-unprocessed.smi

> <i_m_source_file_index>
3278

> <i_lp_mmshare_version>
43012

> <i_f3d_flags>
0

> <s_epik_input>
W0NIM11uMVtjSF1jKFtjSF1uMSlbQ0BAXShbQ0gzXSkoW09IXSlbQ0gyXVtOSF1bQ0BASF0yW0NIMl1bQ0gyXVtDSDJdU1tDSDJdMg==

> <s_epik_cmdline>
J2VwaWtfcHl0aG9uJywgJy1waCcsICc3LjAnLCAnLXRuJywgJzgnLCAnLW1hJywgJzIwMCcsICctbWV0YWxfYmluZGluZycsICctaW1hZScsICc8aW5maWxlLm1hZT4nLCAnLW9tYWUnLCAnPG91dGZpbGUubWFlPic=

> <r_lp_tautomer_probability>
1

> <r_epik_Ionization_Penalty>
2.06123

> <r_epik_Ionization_Penalty_Charging>
0

> <r_epik_Ionization_Penalty_Neutral>
2.06123

> <r_epik_State_Penalty>
2.1944

> <r_epik_Charging_Adjusted_Penalty>
2.1944

> <i_epik_Tot_Q>
0

> <i_epik_Tot_abs_Q>
0

> <r_epik_Metal_State_Penalty>
2.19434

> <b_epik_Metal_Only>
0

> <s_lp_Force_Field>
OPLS_2005

> <r_lp_Energy>
11.3172

> <b_lp_Chiralities_Consistent>
1

> <s_lp_Variant>
AV-unprocessed.smi:3278-6

> <Gold.Version>
5.8.1

> <Gold.Id.Protein>
6NUR|6NUR_protein|mol2

> <Gold.PLP.Fitness>
45.7167

> <Gold.PLP.PLP>
-36.8366

> <Gold.PLP.part.hbond>
-3.7349

> <Gold.PLP.part.metal>
0.0000

> <Gold.PLP.part.buried>
-3.5824

> <Gold.PLP.part.nonpolar>
-28.7053

> <Gold.PLP.part.repulsive>
0.1561

> <Gold.PLP.ligand.clash>
0.0000

> <Gold.PLP.ligand.torsion>
0.1644

> <Gold.PLP.Chemscore.Hbond>
2.6344

> <Gold.PLP.Chemscore.CHOScore>
0.4220

> <Gold.PLP.Chemscore.Metal>
0.0000

> <Gold.Chemscore.Hbonds>
donor molecule, donor type, donor heavy atom, donor atom, acceptor molecule, acceptor atom, score
      L1  H     7    25       P1  7957  0.48
      P1  H  7989  7998       L1     7  0.20
      P1  H  8011  8017       L1     7  1.00
      P1  H 10752 10765       L1    17  1.00
      L1  C    16    38       P1  7949  0.29
      L1  C    16    38       P1  7957  0.23

> <Gold.PLP.Chemscore.Internal.Correction>
0.0396

> <Gold.Rescore>
     Score         DG    S(hbond)    S(metal)    S(lipo)     H(rot)  DE(clash)    DE(int)     intcor
     19.33     -19.65       1.93        0.00     108.14       1.93       0.09       0.22       ----

> <Gold.Chemscore.Fitness>
19.3298

> <Gold.Chemscore.DG>
-19.6457

> <Gold.Chemscore.ZeroCoef>
-5.4800

> <Gold.Chemscore.Hbond>
1.9346

> <Gold.Chemscore.Metal>
0.0000

> <Gold.Chemscore.Lipo>
108.1412

> <Gold.Chemscore.Internal_Hbond>
0.0000

> <Gold.Chemscore.DEClash>
0.0937

> <Gold.Chemscore.DEInternal>
0.2222

> <Gold.Chemscore.Rot>
1.9329

> <Gold.Chemscore.Internal.Correction>
   9.000000E+99

> <Gold.Chemscore.Hbonds>
donor molecule, donor type, donor heavy atom, donor atom, acceptor molecule, acceptor atom, score
      L1  H     7    25       P1  7957  0.48
      P1  H  7989  7998       L1     7  0.01
      P1  H  8011  8017       L1     7  0.61
      P1  H 10752 10765       L1    17  0.37

> <Gold.Chemscore.Hbond.Weighted>
-6.4614

> <Gold.Chemscore.Metal.Weighted>
-0.0000

> <Gold.Chemscore.Lipo.Weighted>
-12.6525

> <Gold.Chemscore.Internal_Hbond.Weighted>
0.0000

> <Gold.Chemscore.DEClash.Weighted>
0.0937

> <Gold.Chemscore.DEInternal.Weighted>
0.2222

> <Gold.Chemscore.Rot.Weighted>
4.9483

> <Gold.Chemscore.Internal.Correction.Weighted>
   9.000000E+99

> <Gold.Protein.RotatedTorsions>
[ 6907 6896 6895 6894 ] final   98.79 input  -60.11 | X-H torsion
[ 7974 7965 7964 7962 ] final -110.03 input  175.53 | X-H torsion
[ 8008 7997 7996 7995 ] final  118.98 input   59.86 | X-H torsion
[ 10167 10162 10161 10158 ] final   16.38 input  -65.29 | X-H torsion
[ 10718 10713 10712 10709 ] final  -21.38 input   66.30 | X-H torsion
[ 10763 10752 10751 10750 ] final  160.24 input  -60.55 | X-H torsion
[ 11005 11000 10999 10996 ] final   92.36 input  -57.11 | X-H torsion

> <Gold.Protein.ActiveResidues>
 VAL166  LYS551  ARG553  GLY616  TRP617  ASP618  TYR619  PRO620  LYS621  CYS622 
 ASP623  PHE694  ASN695  SER759  ASP760  ASP761  ALA762  ILE779  LEU786  VAL792 
 PHE793  MET794  SER795  GLU796  ALA797  LYS798  CYS799  TRP800  GLU811  SER814 

> <Gold.Protein.RotatedAtoms>
  152.5403  134.0527  159.8116 H   0  0  0  0  0  0  0  0  0  0  0  0  # atno 6907 bound_to 6896
  151.0666  133.5492  159.2637 H   0  0  0  0  0  0  0  0  0  0  0  0  # atno 6908 bound_to 6896
  151.2371  135.0583  159.9064 H   0  0  0  0  0  0  0  0  0  0  0  0  # atno 6909 bound_to 6896
  145.1732  140.8936  143.3523 H   0  0  0  0  0  0  0  0  0  0  0  0  # atno 7974 bound_to 7965
  156.2574  140.2863  156.0920 H   0  0  0  0  0  0  0  0  0  0  0  0  # atno 8008 bound_to 7997
  155.1452  140.0396  157.2825 H   0  0  0  0  0  0  0  0  0  0  0  0  # atno 8009 bound_to 7997
  154.6500  140.2542  155.7230 H   0  0  0  0  0  0  0  0  0  0  0  0  # atno 8010 bound_to 7997
  140.5801  143.8996  150.6783 H   0  0  0  0  0  0  0  0  0  0  0  0  # atno 10167 bound_to 10162
  156.5189  130.4627  149.6607 H   0  0  0  0  0  0  0  0  0  0  0  0  # atno 10718 bound_to 10713
  154.2443  135.2773  155.2841 H   0  0  0  0  0  0  0  0  0  0  0  0  # atno 10763 bound_to 10752
  154.5519  135.5672  153.6933 H   0  0  0  0  0  0  0  0  0  0  0  0  # atno 10764 bound_to 10752
  152.9993  135.6276  154.2588 H   0  0  0  0  0  0  0  0  0  0  0  0  # atno 10765 bound_to 10752
  139.8824  134.8728  156.3562 H   0  0  0  0  0  0  0  0  0  0  0  0  # atno 11005 bound_to 11000
  145.0211  139.3423  143.6072 LP  0  0  0  0  0  0  0  0  0  0  0  0  # atno 17320 bound_to 7965
  146.3465  139.9512  142.8728 LP  0  0  0  0  0  0  0  0  0  0  0  0  # atno 17321 bound_to 7965
  140.2493  143.3605  152.1419 LP  0  0  0  0  0  0  0  0  0  0  0  0  # atno 17342 bound_to 10162
  139.5165  144.6978  151.5579 LP  0  0  0  0  0  0  0  0  0  0  0  0  # atno 17343 bound_to 10162
  156.3169  130.7259  151.2163 LP  0  0  0  0  0  0  0  0  0  0  0  0  # atno 17370 bound_to 10713
  157.7440  131.0466  150.4903 LP  0  0  0  0  0  0  0  0  0  0  0  0  # atno 17371 bound_to 10713
  140.9561  133.7419  156.0337 LP  0  0  0  0  0  0  0  0  0  0  0  0  # atno 17394 bound_to 11000
  140.8047  134.3468  157.5429 LP  0  0  0  0  0  0  0  0  0  0  0  0  # atno 17395 bound_to 11000

$$$$
