AV-unprocessed.smi:2889|AV-procd|sdf|11112|dock2
  -GOLD-   2272015583D 1   1.00000     0.00000
 Structure written by MMmdl.
 35 36  0  0  0  0  0  0  0  0  2 V2000
  154.2052  141.2848  161.7597 C   0  0  0  0  0  0  0  0  0  0  0  0
  153.4259  140.3861  160.3922 S   0  0  0  0  0  0  0  0  0  0  0  0
  152.9636  141.7675  159.2964 C   0  0  2  0  0  0  0  0  0  0  0  0
  152.4983  142.9844  160.1450 C   0  0  0  0  0  0  0  0  0  0  0  0
  152.0568  144.1914  159.2926 C   0  0  0  0  0  0  0  0  0  0  0  0
  150.9763  143.7423  158.2909 C   0  0  0  0  0  0  0  0  0  0  0  0
  151.4398  142.5466  157.4246 C   0  0  0  0  0  0  0  0  0  0  0  0
  151.8984  141.3192  158.2539 C   0  0  1  0  0  0  0  0  0  0  0  0
  152.4515  140.3059  157.3635 N   0  5  0  0  0  0  0  0  0  0  0  0
  151.4914  139.5810  156.2765 S   0  0  0  0  0  0  0  0  0  0  0  0
  150.1627  139.2561  156.8203 O   0  0  0  0  0  0  0  0  0  0  0  0
  151.5296  140.2383  154.9596 O   0  0  0  0  0  0  0  0  0  0  0  0
  152.3672  137.9710  156.0715 C   0  0  0  0  0  0  0  0  0  0  0  0
  151.3909  136.8316  156.1668 C   0  0  0  0  0  0  0  0  0  0  0  0
  150.5699  136.4574  157.2670 C   0  0  0  0  0  0  0  0  0  0  0  0
  149.8893  135.3692  156.8029 C   0  0  0  0  0  0  0  0  0  0  0  0
  150.2451  135.0969  155.5223 O   0  0  0  0  0  0  0  0  0  0  0  0
  151.2015  136.0377  155.1237 N   0  0  0  0  0  0  0  0  0  0  0  0
  154.5776  140.5810  162.5038 H   0  0  0  0  0  0  0  0  0  0  0  0
  153.4915  141.9499  162.2444 H   0  0  0  0  0  0  0  0  0  0  0  0
  155.0446  141.8774  161.3958 H   0  0  0  0  0  0  0  0  0  0  0  0
  153.8618  142.0624  158.7513 H   0  0  0  0  0  0  0  0  0  0  0  0
  151.6765  142.6906  160.8013 H   0  0  0  0  0  0  0  0  0  0  0  0
  153.3032  143.3026  160.8069 H   0  0  0  0  0  0  0  0  0  0  0  0
  151.6775  144.9904  159.9300 H   0  0  0  0  0  0  0  0  0  0  0  0
  152.9144  144.5960  158.7539 H   0  0  0  0  0  0  0  0  0  0  0  0
  150.0627  143.4848  158.8307 H   0  0  0  0  0  0  0  0  0  0  0  0
  150.7131  144.5788  157.6430 H   0  0  0  0  0  0  0  0  0  0  0  0
  150.6296  142.2593  156.7540 H   0  0  0  0  0  0  0  0  0  0  0  0
  152.2583  142.8792  156.7844 H   0  0  0  0  0  0  0  0  0  0  0  0
  151.0347  140.9433  158.8042 H   0  0  0  0  0  0  0  0  0  0  0  0
  152.8679  137.9753  155.1038 H   0  0  0  0  0  0  0  0  0  0  0  0
  153.1355  137.9034  156.8425 H   0  0  0  0  0  0  0  0  0  0  0  0
  150.5003  136.9123  158.2439 H   0  0  0  0  0  0  0  0  0  0  0  0
  149.1515  134.7132  157.2407 H   0  0  0  0  0  0  0  0  0  0  0  0
  1  2  1  0  0  0  0
  1 19  1  0  0  0  0
  1 20  1  0  0  0  0
  1 21  1  0  0  0  0
  2  3  1  0  0  0  0
  3  8  1  0  0  0  0
  3  4  1  0  0  0  0
  3 22  1  0  0  0  0
  4  5  1  0  0  0  0
  4 23  1  0  0  0  0
  4 24  1  0  0  0  0
  5  6  1  0  0  0  0
  5 25  1  0  0  0  0
  5 26  1  0  0  0  0
  6  7  1  0  0  0  0
  6 27  1  0  0  0  0
  6 28  1  0  0  0  0
  7  8  1  0  0  0  0
  7 29  1  0  0  0  0
  7 30  1  0  0  0  0
  8  9  1  0  0  0  0
  8 31  1  0  0  0  0
  9 10  1  0  0  0  0
 10 11  2  0  0  0  0
 10 12  2  0  0  0  0
 10 13  1  0  0  0  0
 13 14  1  0  0  0  0
 13 32  1  0  0  0  0
 13 33  1  0  0  0  0
 14 18  2  0  0  0  0
 14 15  1  0  0  0  0
 15 16  2  0  0  0  0
 15 34  1  0  0  0  0
 16 17  1  0  0  0  0
 16 35  1  0  0  0  0
 17 18  1  0  0  0  0
M  CHG  1   9  -1
M  END
> <s_m_source_file>
AV-unprocessed.smi

> <i_m_source_file_index>
2889

> <i_lp_mmshare_version>
43012

> <i_f3d_flags>
0

> <s_epik_input>
W0NIM11TW0NAQEhdMVtDSDJdW0NIMl1bQ0gyXVtDSDJdW0NASF0xW05IXVMoPU8pKD1PKVtDSDJdYzJbY0hdW2NIXW9uMg==

> <s_epik_cmdline>
J2VwaWtfcHl0aG9uJywgJy1waCcsICc3LjAnLCAnLXRuJywgJzgnLCAnLW1hJywgJzIwMCcsICctbWV0YWxfYmluZGluZycsICctaW1hZScsICc8aW5maWxlLm1hZT4nLCAnLW9tYWUnLCAnPG91dGZpbGUubWFlPic=

> <r_lp_tautomer_probability>
1

> <r_epik_Ionization_Penalty>
4.65467

> <r_epik_Ionization_Penalty_Charging>
4.65467

> <r_epik_Ionization_Penalty_Neutral>
2.71476e-10

> <r_epik_State_Penalty>
4.65444

> <r_epik_Charging_Adjusted_Penalty>
9.30911

> <i_epik_Tot_Q>
-1

> <i_epik_Tot_abs_Q>
1

> <r_epik_Metal_State_Penalty>
0.901484

> <b_epik_Metal_Only>
1

> <s_lp_Force_Field>
OPLS_2005

> <r_lp_Energy>
8.40565

> <b_lp_Chiralities_Consistent>
1

> <s_lp_Variant>
AV-unprocessed.smi:2889-5

> <Gold.Version>
5.8.1

> <Gold.Id.Protein>
6NUR|6NUR_protein|mol2

> <Gold.PLP.Fitness>
42.3386

> <Gold.PLP.PLP>
-31.4265

> <Gold.PLP.part.hbond>
-3.0000

> <Gold.PLP.part.metal>
0.0000

> <Gold.PLP.part.buried>
-2.5721

> <Gold.PLP.part.nonpolar>
-25.5051

> <Gold.PLP.part.repulsive>
0.2558

> <Gold.PLP.ligand.clash>
0.0000

> <Gold.PLP.ligand.torsion>
1.0302

> <Gold.PLP.Chemscore.Hbond>
3.9840

> <Gold.PLP.Chemscore.CHOScore>
0.0000

> <Gold.PLP.Chemscore.Metal>
0.0000

> <Gold.Chemscore.Hbonds>
donor molecule, donor type, donor heavy atom, donor atom, acceptor molecule, acceptor atom, score
      P1  H  7989  7998       L1    12  1.00
      P1  H  7997  8008       L1     9  1.81
      P1  H 10752 10763       L1    18  1.00

> <Gold.PLP.Chemscore.Internal.Correction>
1.0205

> <Gold.Rescore>
     Score         DG    S(hbond)    S(metal)    S(lipo)     H(rot)  DE(clash)    DE(int)     intcor
     18.54     -21.29       2.49        0.00      97.50       1.53       0.25       2.50       ----

> <Gold.Chemscore.Fitness>
18.5402

> <Gold.Chemscore.DG>
-21.2901

> <Gold.Chemscore.ZeroCoef>
-5.4800

> <Gold.Chemscore.Hbond>
2.4921

> <Gold.Chemscore.Metal>
0.0000

> <Gold.Chemscore.Lipo>
97.4970

> <Gold.Chemscore.Internal_Hbond>
0.0000

> <Gold.Chemscore.DEClash>
0.2519

> <Gold.Chemscore.DEInternal>
2.4980

> <Gold.Chemscore.Rot>
1.5314

> <Gold.Chemscore.Internal.Correction>
   9.000000E+99

> <Gold.Chemscore.Hbonds>
donor molecule, donor type, donor heavy atom, donor atom, acceptor molecule, acceptor atom, score
      P1  H  7989  7998       L1    12  0.93
      P1  H  7997  8008       L1     9  0.50
      P1  H 10752 10763       L1    18  0.44

> <Gold.Chemscore.Hbond.Weighted>
-8.3234

> <Gold.Chemscore.Metal.Weighted>
-0.0000

> <Gold.Chemscore.Lipo.Weighted>
-11.4072

> <Gold.Chemscore.Internal_Hbond.Weighted>
0.0000

> <Gold.Chemscore.DEClash.Weighted>
0.2519

> <Gold.Chemscore.DEInternal.Weighted>
2.4980

> <Gold.Chemscore.Rot.Weighted>
3.9205

> <Gold.Chemscore.Internal.Correction.Weighted>
   9.000000E+99

> <Gold.Protein.RotatedTorsions>
[ 6907 6896 6895 6894 ] final   73.37 input  -60.11 | X-H torsion
[ 7974 7965 7964 7962 ] final  168.78 input  175.53 | X-H torsion
[ 8008 7997 7996 7995 ] final  -62.92 input   59.86 | X-H torsion
[ 10167 10162 10161 10158 ] final  -88.92 input  -65.29 | X-H torsion
[ 10718 10713 10712 10709 ] final   -5.46 input   66.30 | X-H torsion
[ 10763 10752 10751 10750 ] final   60.59 input  -60.55 | X-H torsion
[ 11005 11000 10999 10996 ] final   42.09 input  -57.11 | X-H torsion

> <Gold.Protein.ActiveResidues>
 VAL166  LYS551  ARG553  GLY616  TRP617  ASP618  TYR619  PRO620  LYS621  CYS622 
 ASP623  PHE694  ASN695  SER759  ASP760  ASP761  ALA762  ILE779  LEU786  VAL792 
 PHE793  MET794  SER795  GLU796  ALA797  LYS798  CYS799  TRP800  GLU811  SER814 

> <Gold.Protein.RotatedAtoms>
  152.4919  134.4432  159.9550 H   0  0  0  0  0  0  0  0  0  0  0  0  # atno 6907 bound_to 6896
  151.4418  133.3635  159.2790 H   0  0  0  0  0  0  0  0  0  0  0  0  # atno 6908 bound_to 6896
  150.9082  134.8522  159.7467 H   0  0  0  0  0  0  0  0  0  0  0  0  # atno 6909 bound_to 6896
  144.7377  139.8957  143.6406 H   0  0  0  0  0  0  0  0  0  0  0  0  # atno 7974 bound_to 7965
  154.4526  140.0986  156.6662 H   0  0  0  0  0  0  0  0  0  0  0  0  # atno 8008 bound_to 7997
  155.5238  140.3479  155.4394 H   0  0  0  0  0  0  0  0  0  0  0  0  # atno 8009 bound_to 7997
  156.0712  140.1350  156.9816 H   0  0  0  0  0  0  0  0  0  0  0  0  # atno 8010 bound_to 7997
  140.3699  143.2799  151.9513 H   0  0  0  0  0  0  0  0  0  0  0  0  # atno 10167 bound_to 10162
  156.7463  130.5225  149.5813 H   0  0  0  0  0  0  0  0  0  0  0  0  # atno 10718 bound_to 10713
  152.9925  135.5531  154.5898 H   0  0  0  0  0  0  0  0  0  0  0  0  # atno 10763 bound_to 10752
  154.5262  135.2810  155.1222 H   0  0  0  0  0  0  0  0  0  0  0  0  # atno 10764 bound_to 10752
  154.2556  135.6391  153.5308 H   0  0  0  0  0  0  0  0  0  0  0  0  # atno 10765 bound_to 10752
  140.1772  134.4148  155.8221 H   0  0  0  0  0  0  0  0  0  0  0  0  # atno 11005 bound_to 11000
  146.1109  139.4114  143.0288 LP  0  0  0  0  0  0  0  0  0  0  0  0  # atno 17320 bound_to 7965
  145.7444  140.9996  143.1283 LP  0  0  0  0  0  0  0  0  0  0  0  0  # atno 17321 bound_to 7965
  139.4805  144.5916  151.7761 LP  0  0  0  0  0  0  0  0  0  0  0  0  # atno 17342 bound_to 10162
  140.5043  144.1121  150.5979 LP  0  0  0  0  0  0  0  0  0  0  0  0  # atno 17343 bound_to 10162
  156.1431  130.6258  151.0494 LP  0  0  0  0  0  0  0  0  0  0  0  0  # atno 17370 bound_to 10713
  157.6797  131.0841  150.7403 LP  0  0  0  0  0  0  0  0  0  0  0  0  # atno 17371 bound_to 10713
  141.2221  133.6983  156.7867 LP  0  0  0  0  0  0  0  0  0  0  0  0  # atno 17394 bound_to 11000
  140.2309  134.8686  157.3475 LP  0  0  0  0  0  0  0  0  0  0  0  0  # atno 17395 bound_to 11000

$$$$
