#       Name:                AV-unprocessed.smi:119
#       Creating user name   scv26
#       Creation time:       Thu Mar 26 18:26:39 2020


#       File generated by GOLD software.
#

@<TRIPOS>MOLECULE
AV-unprocessed.smi:119
    59    62     1
SMALL
NO_CHARGES


@<TRIPOS>ATOM
      1 ****        -0.4731  -4.5469  -4.1936 C.3            1 S1                 0.0000
      2 ****        -0.9356  -4.0281  -2.8259 C.3            1 S1                 0.0000
      3 ****         0.2534  -3.5030  -2.0005 C.3            1 S1                 0.0000
      4 ****        -0.0747  -3.2118  -0.5244 C.3            1 S1                 0.0000
      5 ****        -0.9154  -2.0199  -0.3502 N.am           1 S1                 0.0000
      6 ****        -0.4178  -0.7611  -0.2283 C.2            1 S1                 0.0000
      7 ****        -1.1537   0.2241  -0.1253 O.2            1 S1                 0.0000
      8 ****         1.1130  -0.5506  -0.2177 C.3            1 S1                 0.0000
      9 ****         1.5155   0.8736  -0.2001 N.am           1 S1                 0.0000
     10 ****         1.6577   1.5515  -1.4354 C.2            1 S1                 0.0000
     11 ****         1.4589   0.9760  -2.5065 O.2            1 S1                 0.0000
     12 ****         2.0446   2.9537  -1.3413 C.2            1 S1                 0.0000
     13 ****         2.2202   3.6712  -2.4641 F              1 S1                 0.0000
     14 ****         2.2363   3.5455  -0.1440 C.2            1 S1                 0.0000
     15 ****         2.0831   2.8759   1.0588 N.am           1 S1                 0.0000
     16 ****         2.2559   3.5438   2.4092 C.3            1 S1                 0.0000
     17 ****         2.7307   4.9992   2.3770 C.3            1 S1                 0.0000
     18 ****         2.2725   5.4492   3.7445 C.3            1 S1                 0.0000
     19 ****         0.9190   4.7476   3.8571 C.3            1 S1                 0.0000
     20 ****         1.0154   3.5746   3.0497 O.3            1 S1                 0.0000
     21 ****         1.7116   1.5124   1.0476 C.2            1 S1                 0.0000
     22 ****         1.5588   0.8948   2.1041 O.2            1 S1                 0.0000
     23 ****        -2.3207  -2.2342  -0.3240 C.ar           1 S1                 0.0000
     24 ****        -3.0192  -2.0884   0.8960 C.ar           1 S1                 0.0000
     25 ****        -4.4107  -2.2950   0.9477 C.ar           1 S1                 0.0000
     26 ****        -5.1131  -2.6491  -0.2194 C.ar           1 S1                 0.0000
     27 ****        -4.4238  -2.7964  -1.4379 C.ar           1 S1                 0.0000
     28 ****        -3.0302  -2.5952  -1.4955 C.ar           1 S1                 0.0000
     29 ****        -2.2177  -2.7637  -3.0557 S.3            1 S1                 0.0000
     30 ****         0.2513  -5.3546  -4.0846 H              1 S1                 0.0000
     31 ****        -0.0055  -3.7553  -4.7800 H              1 S1                 0.0000
     32 ****        -1.3133  -4.9364  -4.7692 H              1 S1                 0.0000
     33 ****        -1.3953  -4.8615  -2.2934 H              1 S1                 0.0000
     34 ****         1.0417  -4.2563  -2.0177 H              1 S1                 0.0000
     35 ****         0.6776  -2.6225  -2.4835 H              1 S1                 0.0000
     36 ****        -0.5850  -4.0746  -0.0934 H              1 S1                 0.0000
     37 ****         0.8471  -3.1314   0.0507 H              1 S1                 0.0000
     38 ****         1.5312  -1.0747   0.6423 H              1 S1                 0.0000
     39 ****         1.5581  -1.0496  -1.0780 H              1 S1                 0.0000
     40 ****         2.5345   4.5805  -0.1645 H              1 S1                 0.0000
     41 ****         2.9512   2.9081   2.9618 H              1 S1                 0.0000
     42 ****         3.8058   5.0731   2.2118 H              1 S1                 0.0000
     43 ****         2.1894   5.5779   1.6293 H              1 S1                 0.0000
     44 ****         2.9562   5.0815   4.5110 H              1 S1                 0.0000
     45 ****         2.2006   6.5330   3.8399 H              1 S1                 0.0000
     46 ****         0.6689   4.5000   4.8891 H              1 S1                 0.0000
     47 ****         0.1237   5.3780   3.4575 H              1 S1                 0.0000
     48 ****        -2.4877  -1.8157   1.7963 H              1 S1                 0.0000
     49 ****        -4.9391  -2.1796   1.8826 H              1 S1                 0.0000
     50 ****        -6.1809  -2.8053  -0.1807 H              1 S1                 0.0000
     51 ****        -4.9693  -3.0636  -2.3313 H              1 S1                 0.0000
     52 ****        -2.1471   0.1089  -0.1300 LP             1 S1                 0.0000
     53 ****        -0.7568   1.1377  -0.0370 LP             1 S1                 0.0000
     54 ****         1.1918   0.0124  -2.5143 LP             1 S1                 0.0000
     55 ****         1.5646   1.4725  -3.3680 LP             1 S1                 0.0000
     56 ****         0.9198   2.7644   3.6280 LP             1 S1                 0.0000
     57 ****         0.2875   3.5824   2.3641 LP             1 S1                 0.0000
     58 ****         1.2932  -0.0691   2.0859 LP             1 S1                 0.0000
     59 ****         1.7004   1.3579   2.9790 LP             1 S1                 0.0000
@<TRIPOS>BOND
    1    1    2 1     
    2    1   30 1     
    3    1   31 1     
    4    1   32 1     
    5    2   29 1     
    6    2    3 1     
    7    2   33 1     
    8    3    4 1     
    9    3   34 1     
   10    3   35 1     
   11    4    5 1     
   12    4   36 1     
   13    4   37 1     
   14    5    6 am    
   15    5   23 1     
   16    6    7 2     
   17    6    8 1     
   18    8    9 1     
   19    8   38 1     
   20    8   39 1     
   21    9   21 am    
   22    9   10 am    
   23   10   11 2     
   24   10   12 1     
   25   12   13 1     
   26   12   14 2     
   27   14   15 1     
   28   14   40 1     
   29   15   16 1     
   30   15   21 am    
   31   16   20 1     
   32   16   17 1     
   33   16   41 1     
   34   17   18 1     
   35   17   42 1     
   36   17   43 1     
   37   18   19 1     
   38   18   44 1     
   39   18   45 1     
   40   19   20 1     
   41   19   46 1     
   42   19   47 1     
   43   21   22 2     
   44   23   28 ar    
   45   23   24 ar    
   46   24   25 ar    
   47   24   48 1     
   48   25   26 ar    
   49   25   49 1     
   50   26   27 ar    
   51   26   50 1     
   52   27   28 ar    
   53   27   51 1     
   54   28   29 1     
   55    7   52 1     
   56    7   53 1     
   57   11   54 1     
   58   11   55 1     
   59   20   56 1     
   60   20   57 1     
   61   22   58 1     
   62   22   59 1     
@<TRIPOS>SUBSTRUCTURE
      1 S1             1
@<TRIPOS>SET
LONE_PAIRS      STATIC     ATOMS    <user>   **** ""
8 52 53 54 55 56 57 58 59
ATOM$BLUE        STATIC     ATOMS    COLORGROUP SYSTEM
8 52 53 54 55 56 57 58 59
