AV-unprocessed.smi:1254|AV-procd|sdf|5270|dock6
  -GOLD-   22720 4383D 1   1.00000     0.00000
 Structure written by MMmdl.
 46 47  0  0  0  0  0  0  0  0  2 V2000
  148.5709  141.5853  154.7900 C   0  0  0  0  0  0  0  0  0  0  0  0
  149.3355  140.3166  154.6273 C   0  0  0  0  0  0  0  0  0  0  0  0
  148.9557  139.0230  154.4025 C   0  0  0  0  0  0  0  0  0  0  0  0
  150.1940  138.3289  154.3601 C   0  0  0  0  0  0  0  0  0  0  0  0
  150.2364  136.9272  154.1472 N   0  0  0  0  0  0  0  0  0  0  0  0
  149.7757  135.9623  154.9613 C   0  0  0  0  0  0  0  0  0  0  0  0
  149.2589  136.1501  156.0628 O   0  0  0  0  0  0  0  0  0  0  0  0
  149.9422  134.7466  154.4205 N   0  0  0  0  0  0  0  0  0  0  0  0
  149.5251  133.4905  155.0363 C   0  0  0  0  0  0  0  0  0  0  0  0
  148.2542  132.9260  154.3761 C   0  0  1  0  0  0  0  0  0  0  0  0
  148.4834  132.5910  152.8870 C   0  0  0  0  0  0  0  0  0  0  0  0
  147.2721  131.9921  152.2739 N   0  3  2  0  0  0  0  0  0  0  0  0
  146.2113  132.9856  151.9537 C   0  0  0  0  0  0  0  0  0  0  0  0
  145.0446  132.3792  151.1445 C   0  0  0  0  0  0  0  0  0  0  0  0
  145.4963  131.9079  149.7521 C   0  0  0  0  0  0  0  0  0  0  0  0
  143.8922  133.3869  151.0198 C   0  0  0  0  0  0  0  0  0  0  0  0
  146.8115  130.8248  153.0688 C   0  0  0  0  0  0  0  0  0  0  0  0
  146.6626  131.1800  154.5603 C   0  0  0  0  0  0  0  0  0  0  0  0
  147.8816  131.7258  155.0462 O   0  0  0  0  0  0  0  0  0  0  0  0
  151.2355  139.1267  154.5402 N   0  0  0  0  0  0  0  0  0  0  0  0
  150.6906  140.4046  154.7120 O   0  0  0  0  0  0  0  0  0  0  0  0
  147.4999  141.4115  154.6829 H   0  0  0  0  0  0  0  0  0  0  0  0
  148.8719  142.3172  154.0404 H   0  0  0  0  0  0  0  0  0  0  0  0
  148.7461  142.0177  155.7752 H   0  0  0  0  0  0  0  0  0  0  0  0
  147.9527  138.6388  154.2901 H   0  0  0  0  0  0  0  0  0  0  0  0
  150.6438  136.6295  153.2733 H   0  0  0  0  0  0  0  0  0  0  0  0
  150.3815  134.6850  153.5135 H   0  0  0  0  0  0  0  0  0  0  0  0
  150.3454  132.7829  154.9151 H   0  0  0  0  0  0  0  0  0  0  0  0
  149.3815  133.6123  156.1116 H   0  0  0  0  0  0  0  0  0  0  0  0
  147.4542  133.6623  154.4713 H   0  0  0  0  0  0  0  0  0  0  0  0
  148.7933  133.4760  152.3301 H   0  0  0  0  0  0  0  0  0  0  0  0
  149.3009  131.8741  152.7973 H   0  0  0  0  0  0  0  0  0  0  0  0
  145.8406  133.4421  152.8714 H   0  0  0  0  0  0  0  0  0  0  0  0
  146.6408  133.8000  151.3682 H   0  0  0  0  0  0  0  0  0  0  0  0
  144.6494  131.5152  151.6780 H   0  0  0  0  0  0  0  0  0  0  0  0
  145.8924  132.7350  149.1619 H   0  0  0  0  0  0  0  0  0  0  0  0
  144.6639  131.4739  149.1971 H   0  0  0  0  0  0  0  0  0  0  0  0
  146.2720  131.1448  149.8190 H   0  0  0  0  0  0  0  0  0  0  0  0
  144.2056  134.2868  150.4895 H   0  0  0  0  0  0  0  0  0  0  0  0
  143.5258  133.6899  152.0013 H   0  0  0  0  0  0  0  0  0  0  0  0
  143.0508  132.9567  150.4756 H   0  0  0  0  0  0  0  0  0  0  0  0
  145.8798  130.4188  152.6772 H   0  0  0  0  0  0  0  0  0  0  0  0
  147.5536  130.0322  152.9654 H   0  0  0  0  0  0  0  0  0  0  0  0
  145.8434  131.8800  154.7273 H   0  0  0  0  0  0  0  0  0  0  0  0
  146.4293  130.2833  155.1345 H   0  0  0  0  0  0  0  0  0  0  0  0
  147.5685  131.6320  151.3777 H   0  0  0  0  0  0  0  0  0  0  0  0
  1  2  1  0  0  0  0
  1 22  1  0  0  0  0
  1 23  1  0  0  0  0
  1 24  1  0  0  0  0
  2 21  1  0  0  0  0
  2  3  2  0  0  0  0
  3  4  1  0  0  0  0
  3 25  1  0  0  0  0
  4  5  1  0  0  0  0
  4 20  2  0  0  0  0
  5  6  1  0  0  0  0
  5 26  1  0  0  0  0
  6  7  2  0  0  0  0
  6  8  1  0  0  0  0
  8  9  1  0  0  0  0
  8 27  1  0  0  0  0
  9 10  1  0  0  0  0
  9 28  1  0  0  0  0
  9 29  1  0  0  0  0
 10 19  1  0  0  0  0
 10 11  1  0  0  0  0
 10 30  1  0  0  0  0
 11 12  1  0  0  0  0
 11 31  1  0  0  0  0
 11 32  1  0  0  0  0
 12 13  1  0  0  0  0
 12 17  1  0  0  0  0
 12 46  1  0  0  0  0
 13 14  1  0  0  0  0
 13 33  1  0  0  0  0
 13 34  1  0  0  0  0
 14 15  1  0  0  0  0
 14 16  1  0  0  0  0
 14 35  1  0  0  0  0
 15 36  1  0  0  0  0
 15 37  1  0  0  0  0
 15 38  1  0  0  0  0
 16 39  1  0  0  0  0
 16 40  1  0  0  0  0
 16 41  1  0  0  0  0
 17 18  1  0  0  0  0
 17 42  1  0  0  0  0
 17 43  1  0  0  0  0
 18 19  1  0  0  0  0
 18 44  1  0  0  0  0
 18 45  1  0  0  0  0
 20 21  1  0  0  0  0
M  CHG  1  12   1
M  END
> <s_m_source_file>
AV-unprocessed.smi

> <i_m_source_file_index>
1254

> <i_lp_mmshare_version>
43012

> <i_f3d_flags>
0

> <s_epik_input>
W0NIM11jMVtjSF1jKG5vMSlbTkhdQyg9TylbTkhdW0NIMl1bQ0BASF0yW0NIMl1OKFtDSDJdW0NIMl1PMilbQ0gyXVtDSF0oW0NIM10pW0NIM10=

> <s_epik_cmdline>
J2VwaWtfcHl0aG9uJywgJy1waCcsICc3LjAnLCAnLXRuJywgJzgnLCAnLW1hJywgJzIwMCcsICctbWV0YWxfYmluZGluZycsICctaW1hZScsICc8aW5maWxlLm1hZT4nLCAnLW9tYWUnLCAnPG91dGZpbGUubWFlPic=

> <r_epik_Ionization_Penalty>
0.0986825

> <r_epik_Ionization_Penalty_Charging>
0.0986478

> <r_epik_Ionization_Penalty_Neutral>
3.46838e-05

> <r_epik_State_Penalty>
0.0887259

> <r_epik_Charging_Adjusted_Penalty>
0.187374

> <i_epik_Tot_Q>
1

> <i_epik_Tot_abs_Q>
1

> <r_epik_Metal_State_Penalty>
0.103424

> <b_epik_Metal_Only>
0

> <s_lp_Force_Field>
OPLS_2005

> <r_lp_Energy>
18.2179

> <b_lp_Chiralities_Consistent>
1

> <s_lp_Variant>
AV-unprocessed.smi:1254-2

> <Gold.Version>
5.8.1

> <Gold.Id.Protein>
6NUR|6NUR_protein|mol2

> <Gold.PLP.Fitness>
45.2317

> <Gold.PLP.PLP>
-37.7297

> <Gold.PLP.part.hbond>
-4.5331

> <Gold.PLP.part.metal>
0.0000

> <Gold.PLP.part.buried>
-3.6824

> <Gold.PLP.part.nonpolar>
-30.2736

> <Gold.PLP.part.repulsive>
0.3305

> <Gold.PLP.ligand.clash>
0.0000

> <Gold.PLP.ligand.torsion>
0.7649

> <Gold.PLP.Chemscore.Hbond>
3.0000

> <Gold.PLP.Chemscore.CHOScore>
0.0000

> <Gold.PLP.Chemscore.Metal>
0.0000

> <Gold.Chemscore.Hbonds>
donor molecule, donor type, donor heavy atom, donor atom, acceptor molecule, acceptor atom, score
      L1  H     5    26       P1  7949  0.50
      L1  H    12    46       P1 10747  0.98
      P1  H  7989  7998       L1    21  0.35

> <Gold.PLP.Chemscore.Internal.Correction>
0.0317

> <Gold.Rescore>
     Score         DG    S(hbond)    S(metal)    S(lipo)     H(rot)  DE(clash)    DE(int)     intcor
     14.63     -15.58       1.65        0.00      77.17       1.73       0.08       0.87       ----

> <Gold.Chemscore.Fitness>
14.6316

> <Gold.Chemscore.DG>
-15.5819

> <Gold.Chemscore.ZeroCoef>
-5.4800

> <Gold.Chemscore.Hbond>
1.6465

> <Gold.Chemscore.Metal>
0.0000

> <Gold.Chemscore.Lipo>
77.1708

> <Gold.Chemscore.Internal_Hbond>
0.0000

> <Gold.Chemscore.DEClash>
0.0764

> <Gold.Chemscore.DEInternal>
0.8739

> <Gold.Chemscore.Rot>
1.7291

> <Gold.Chemscore.Internal.Correction>
   9.000000E+99

> <Gold.Chemscore.Hbonds>
donor molecule, donor type, donor heavy atom, donor atom, acceptor molecule, acceptor atom, score
      L1  H     5    26       P1  7949  0.02
      L1  H    12    46       P1 10747  0.92
      P1  H  7989  7998       L1    21  0.01

> <Gold.Chemscore.Hbond.Weighted>
-5.4994

> <Gold.Chemscore.Metal.Weighted>
-0.0000

> <Gold.Chemscore.Lipo.Weighted>
-9.0290

> <Gold.Chemscore.Internal_Hbond.Weighted>
0.0000

> <Gold.Chemscore.DEClash.Weighted>
0.0764

> <Gold.Chemscore.DEInternal.Weighted>
0.8739

> <Gold.Chemscore.Rot.Weighted>
4.4265

> <Gold.Chemscore.Internal.Correction.Weighted>
   9.000000E+99

> <Gold.Protein.RotatedTorsions>
[ 6907 6896 6895 6894 ] final -161.87 input  -60.11 | X-H torsion
[ 7974 7965 7964 7962 ] final  -10.32 input  175.53 | X-H torsion
[ 8008 7997 7996 7995 ] final  -17.30 input   59.86 | X-H torsion
[ 10167 10162 10161 10158 ] final   -8.97 input  -65.29 | X-H torsion
[ 10718 10713 10712 10709 ] final  105.32 input   66.30 | X-H torsion
[ 10763 10752 10751 10750 ] final   95.48 input  -60.55 | X-H torsion
[ 11005 11000 10999 10996 ] final  138.80 input  -57.11 | X-H torsion

> <Gold.Protein.ActiveResidues>
 VAL166  LYS551  ARG553  GLY616  TRP617  ASP618  TYR619  PRO620  LYS621  CYS622 
 ASP623  PHE694  ASN695  SER759  ASP760  ASP761  ALA762  ILE779  LEU786  VAL792 
 PHE793  MET794  SER795  GLU796  ALA797  LYS798  CYS799  TRP800  GLU811  SER814 

> <Gold.Protein.RotatedAtoms>
  151.3715  133.3853  159.2699 H   0  0  0  0  0  0  0  0  0  0  0  0  # atno 6907 bound_to 6896
  150.9648  134.9031  159.7762 H   0  0  0  0  0  0  0  0  0  0  0  0  # atno 6908 bound_to 6896
  152.5163  134.3675  159.9358 H   0  0  0  0  0  0  0  0  0  0  0  0  # atno 6909 bound_to 6896
  146.2224  140.2746  142.8358 H   0  0  0  0  0  0  0  0  0  0  0  0  # atno 7974 bound_to 7965
  154.4989  140.2146  155.9389 H   0  0  0  0  0  0  0  0  0  0  0  0  # atno 8008 bound_to 7997
  156.1407  140.3180  155.8459 H   0  0  0  0  0  0  0  0  0  0  0  0  # atno 8009 bound_to 7997
  155.4125  140.0491  157.3021 H   0  0  0  0  0  0  0  0  0  0  0  0  # atno 8010 bound_to 7997
  140.7074  143.5910  150.8894 H   0  0  0  0  0  0  0  0  0  0  0  0  # atno 10167 bound_to 10162
  157.6709  131.0825  150.5839 H   0  0  0  0  0  0  0  0  0  0  0  0  # atno 10718 bound_to 10713
  153.2537  135.4252  155.0823 H   0  0  0  0  0  0  0  0  0  0  0  0  # atno 10763 bound_to 10752
  154.8392  135.3432  154.6477 H   0  0  0  0  0  0  0  0  0  0  0  0  # atno 10764 bound_to 10752
  153.6897  135.7034  153.5150 H   0  0  0  0  0  0  0  0  0  0  0  0  # atno 10765 bound_to 10752
  140.0209  134.9397  157.0472 H   0  0  0  0  0  0  0  0  0  0  0  0  # atno 11005 bound_to 11000
  144.9242  140.7902  143.5729 LP  0  0  0  0  0  0  0  0  0  0  0  0  # atno 17320 bound_to 7965
  145.2685  139.1964  143.4854 LP  0  0  0  0  0  0  0  0  0  0  0  0  # atno 17321 bound_to 7965
  139.9635  143.6136  152.2995 LP  0  0  0  0  0  0  0  0  0  0  0  0  # atno 17342 bound_to 10162
  139.6698  144.7661  151.1805 LP  0  0  0  0  0  0  0  0  0  0  0  0  # atno 17343 bound_to 10162
  156.6140  130.4387  149.5848 LP  0  0  0  0  0  0  0  0  0  0  0  0  # atno 17370 bound_to 10713
  156.2408  130.6850  151.1554 LP  0  0  0  0  0  0  0  0  0  0  0  0  # atno 17371 bound_to 10713
  140.4389  134.1702  155.7172 LP  0  0  0  0  0  0  0  0  0  0  0  0  # atno 17394 bound_to 11000
  141.1773  133.8487  157.1378 LP  0  0  0  0  0  0  0  0  0  0  0  0  # atno 17395 bound_to 11000

$$$$
