#       Name:                AV-unprocessed.smi:1575
#       Creating user name   scv26
#       Creation time:       Fri Mar 27 06:56:05 2020


#       File generated by GOLD software.
#

@<TRIPOS>MOLECULE
AV-unprocessed.smi:1575
    49    49     1
SMALL
NO_CHARGES


@<TRIPOS>ATOM
      1 ****        -0.4257  -4.0900  -2.0112 C.3            1 S1                 0.0000
      2 ****        -0.0798  -3.1625  -0.9454 N.am           1 S1                 0.0000
      3 ****         0.4981  -1.9690  -1.1429 C.2            1 S1                 0.0000
      4 ****         0.8090  -1.5497  -2.2590 O.2            1 S1                 0.0000
      5 ****         0.7872  -1.1349   0.1166 C.3            1 S1                 0.0000
      6 ****         2.3050  -1.2224   0.4050 C.3            1 S1                 0.0000
      7 ****         2.7809  -0.4654   1.6664 C.3            1 S1                 0.0000
      8 ****         4.3150  -0.4635   1.7469 C.3            1 S1                 0.0000
      9 ****         2.1781  -1.0384   2.9600 C.3            1 S1                 0.0000
     10 ****         0.4330   0.2632  -0.1269 N.am           1 S1                 0.0000
     11 ****        -0.7883   0.7936   0.0398 C.2            1 S1                 0.0000
     12 ****        -1.7505   0.1513   0.4629 O.2            1 S1                 0.0000
     13 ****        -0.9278   2.2833  -0.3002 C.3            1 S1                 0.0000
     14 ****        -2.2648   2.6336  -0.8059 N.am           1 S1                 0.0000
     15 ****        -3.1788   3.2032   0.0979 C.2            1 S1                 0.0000
     16 ****        -4.4243   3.5522  -0.2765 C.2            1 S1                 0.0000
     17 ****        -4.8179   3.3256  -1.6615 C.2            1 S1                 0.0000
     18 ****        -5.9495   3.6433  -2.0225 O.2            1 S1                 0.0000
     19 ****        -3.8972   2.7651  -2.4991 N.pl3          1 S1                -1.0000
     20 ****        -2.6343   2.4132  -2.1039 C.2            1 S1                 0.0000
     21 ****        -1.8194   1.9071  -2.8762 O.2            1 S1                 0.0000
     22 ****        -0.8886  -4.9828  -1.5916 H              1 S1                 0.0000
     23 ****         0.4629  -4.3943  -2.5651 H              1 S1                 0.0000
     24 ****        -1.1314  -3.6349  -2.7072 H              1 S1                 0.0000
     25 ****        -0.3019  -3.4386   0.0000 H              1 S1                 0.0000
     26 ****         0.2165  -1.5336   0.9567 H              1 S1                 0.0000
     27 ****         2.5967  -2.2700   0.4984 H              1 S1                 0.0000
     28 ****         2.8543  -0.8400  -0.4576 H              1 S1                 0.0000
     29 ****         2.4684   0.5763   1.5874 H              1 S1                 0.0000
     30 ****         4.7081  -1.4769   1.8350 H              1 S1                 0.0000
     31 ****         4.6638   0.1051   2.6096 H              1 S1                 0.0000
     32 ****         4.7561  -0.0111   0.8582 H              1 S1                 0.0000
     33 ****         2.4167  -2.0960   3.0746 H              1 S1                 0.0000
     34 ****         1.0936  -0.9347   2.9789 H              1 S1                 0.0000
     35 ****         2.5628  -0.5151   3.8359 H              1 S1                 0.0000
     36 ****         1.1636   0.8621  -0.4829 H              1 S1                 0.0000
     37 ****        -0.6949   2.8582   0.5970 H              1 S1                 0.0000
     38 ****        -0.1676   2.5696  -1.0294 H              1 S1                 0.0000
     39 ****        -2.8109   3.3317   1.1053 H              1 S1                 0.0000
     40 ****        -5.1157   3.9858   0.4308 H              1 S1                 0.0000
     41 ****         0.6320  -2.1075  -3.0698 LP             1 S1                 0.0000
     42 ****         1.2383  -0.6516  -2.3539 LP             1 S1                 0.0000
     43 ****        -1.6418  -0.8139   0.7007 LP             1 S1                 0.0000
     44 ****        -2.6404   0.5951   0.5686 LP             1 S1                 0.0000
     45 ****        -6.5867   4.0516  -1.3688 LP             1 S1                 0.0000
     46 ****        -6.2327   3.4934  -2.9697 LP             1 S1                 0.0000
     47 ****        -4.1586   2.6031  -3.4506 LP             1 S1                 0.0000
     48 ****        -0.9055   1.6649  -2.5504 LP             1 S1                 0.0000
     49 ****        -2.0716   1.7384  -3.8290 LP             1 S1                 0.0000
@<TRIPOS>BOND
    1    1    2 1     
    2    1   22 1     
    3    1   23 1     
    4    1   24 1     
    5    2    3 am    
    6    2   25 1     
    7    3    4 2     
    8    3    5 1     
    9    5    6 1     
   10    5   10 1     
   11    5   26 1     
   12    6    7 1     
   13    6   27 1     
   14    6   28 1     
   15    7    8 1     
   16    7    9 1     
   17    7   29 1     
   18    8   30 1     
   19    8   31 1     
   20    8   32 1     
   21    9   33 1     
   22    9   34 1     
   23    9   35 1     
   24   10   11 am    
   25   10   36 1     
   26   11   12 2     
   27   11   13 1     
   28   13   14 1     
   29   13   37 1     
   30   13   38 1     
   31   14   20 am    
   32   14   15 1     
   33   15   16 2     
   34   15   39 1     
   35   16   17 1     
   36   16   40 1     
   37   17   18 2     
   38   17   19 1     
   39   19   20 1     
   40   20   21 2     
   41    4   41 1     
   42    4   42 1     
   43   12   43 1     
   44   12   44 1     
   45   18   45 1     
   46   18   46 1     
   47   19   47 1     
   48   21   48 1     
   49   21   49 1     
@<TRIPOS>SUBSTRUCTURE
      1 S1             1
@<TRIPOS>SET
LONE_PAIRS      STATIC     ATOMS    <user>   **** ""
9 41 42 43 44 45 46 47 48 49
DONOR_HYDROGENS      STATIC     ATOMS    <user>   **** ""
2 25 36
ATOM$BLUE        STATIC     ATOMS    COLORGROUP SYSTEM
9 41 42 43 44 45 46 47 48 49
ATOM$RED        STATIC     ATOMS    COLORGROUP SYSTEM
2 25 36
