#       Name:                AV-unprocessed.smi:54
#       Creating user name   scv26
#       Creation time:       Thu Mar 26 16:46:20 2020


#       File generated by GOLD software.
#

@<TRIPOS>MOLECULE
AV-unprocessed.smi:54
    58    60     1
SMALL
NO_CHARGES


@<TRIPOS>ATOM
      1 ****        -1.1241   4.5273   1.3875 C.3            1 S1                 0.0000
      2 ****        -1.2326   3.8949  -0.0097 C.3            1 S1                 0.0000
      3 ****        -1.8495   4.8758  -1.0204 C.3            1 S1                 0.0000
      4 ****        -2.0404   2.5905   0.0453 C.2            1 S1                 0.0000
      5 ****        -3.2219   2.6302   0.3953 O.2            1 S1                 0.0000
      6 ****        -1.3566   1.4752  -0.2929 N.am           1 S1                 0.0000
      7 ****        -1.7932   0.1461  -0.3195 C.2            1 S1                 0.0000
      8 ****        -0.8080  -0.7172  -0.2879 N.2            1 S1                 0.0000
      9 ****        -1.2429  -2.0279  -0.3261 C.2            1 S1                 0.0000
     10 ****        -2.5335  -2.4758  -0.4038 C.2            1 S1                 0.0000
     11 ****        -2.5902  -3.8639  -0.4244 N.2            1 S1                 0.0000
     12 ****        -1.3023  -4.1960  -0.3558 C.2            1 S1                 0.0000
     13 ****        -0.4378  -3.1642  -0.2918 N.pl3          1 S1                 0.0000
     14 ****         1.0529  -3.2647  -0.2058 C.3            1 S1                 0.0000
     15 ****         1.6020  -2.3288  -1.0840 O.3            1 S1                 0.0000
     16 ****         2.6339  -1.5943  -0.4365 C.3            1 S1                 0.0000
     17 ****         2.7621  -0.2138  -1.1004 C.3            1 S1                 0.0000
     18 ****         3.8880   0.4781  -0.6029 O.3            1 S1                 0.0000
     19 ****         2.1917  -1.5657   1.0287 C.3            1 S1                 0.0000
     20 ****         3.2642  -1.3303   1.9220 O.3            1 S1                 0.0000
     21 ****         1.5389  -2.9336   1.2148 C.3            1 S1                 0.0000
     22 ****         2.4550  -3.9133   1.6699 O.3            1 S1                 0.0000
     23 ****        -3.5995  -1.4472  -0.4514 C.2            1 S1                 0.0000
     24 ****        -4.7736  -1.8048  -0.5241 O.2            1 S1                 0.0000
     25 ****        -3.1672  -0.1514  -0.4100 N.pl3          1 S1                -1.0000
     26 ****         1.2818  -4.2825  -0.5253 H              1 S1                 0.0000
     27 ****         3.5592  -2.1639  -0.5438 H              1 S1                 0.0000
     28 ****         1.4439  -0.7865   1.1754 H              1 S1                 0.0000
     29 ****         0.7040  -2.8903   1.9160 H              1 S1                 0.0000
     30 ****        -0.6961   3.8277   2.1066 H              1 S1                 0.0000
     31 ****        -2.0993   4.8379   1.7645 H              1 S1                 0.0000
     32 ****        -0.4822   5.4082   1.3671 H              1 S1                 0.0000
     33 ****        -0.2219   3.6602  -0.3482 H              1 S1                 0.0000
     34 ****        -1.9338   4.4243  -2.0097 H              1 S1                 0.0000
     35 ****        -1.2340   5.7700  -1.1210 H              1 S1                 0.0000
     36 ****        -2.8465   5.1945  -0.7137 H              1 S1                 0.0000
     37 ****        -0.3777   1.6237  -0.4873 H              1 S1                 0.0000
     38 ****        -0.9763  -5.2257  -0.3490 H              1 S1                 0.0000
     39 ****         2.8830  -0.3292  -2.1776 H              1 S1                 0.0000
     40 ****         1.8643   0.3841  -0.9404 H              1 S1                 0.0000
     41 ****         3.9492   1.3096  -1.0479 H              1 S1                 0.0000
     42 ****         3.6507  -0.4951   1.7065 H              1 S1                 0.0000
     43 ****         3.2173  -3.8905   1.1118 H              1 S1                 0.0000
     44 ****        -3.6422   3.5043   0.6388 LP             1 S1                 0.0000
     45 ****        -3.7600   1.7882   0.4357 LP             1 S1                 0.0000
     46 ****         0.1559  -0.4553  -0.2411 LP             1 S1                 0.0000
     47 ****        -3.3915  -4.4599  -0.4771 LP             1 S1                 0.0000
     48 ****         0.8864  -1.6983  -1.3846 LP             1 S1                 0.0000
     49 ****         1.9825  -2.8039  -1.8774 LP             1 S1                 0.0000
     50 ****         4.7153  -0.0573  -0.7729 LP             1 S1                 0.0000
     51 ****         3.7844   0.6283   0.3803 LP             1 S1                 0.0000
     52 ****         3.9479  -2.0540   1.8280 LP             1 S1                 0.0000
     53 ****         2.9240  -1.3133   2.8622 LP             1 S1                 0.0000
     54 ****         2.0313  -4.8181   1.6263 LP             1 S1                 0.0000
     55 ****         2.7209  -3.7149   2.6132 LP             1 S1                 0.0000
     56 ****        -4.9990  -2.7788  -0.5504 LP             1 S1                 0.0000
     57 ****        -5.5032  -1.1218  -0.5570 LP             1 S1                 0.0000
     58 ****        -3.8334   0.5936  -0.4443 LP             1 S1                 0.0000
@<TRIPOS>BOND
    1    1    2 1     
    2    1   30 1     
    3    1   31 1     
    4    1   32 1     
    5    2    3 1     
    6    2    4 1     
    7    2   33 1     
    8    3   34 1     
    9    3   35 1     
   10    3   36 1     
   11    4    5 2     
   12    4    6 am    
   13    6   37 1     
   14    6    7 1     
   15    7   25 1     
   16    7    8 2     
   17    8    9 1     
   18    9   13 1     
   19    9   10 2     
   20   10   11 1     
   21   10   23 1     
   22   11   12 2     
   23   12   13 1     
   24   12   38 1     
   25   13   14 1     
   26   14   26 1     
   27   14   21 1     
   28   14   15 1     
   29   15   16 1     
   30   16   27 1     
   31   16   17 1     
   32   16   19 1     
   33   17   18 1     
   34   17   39 1     
   35   17   40 1     
   36   18   41 1     
   37   19   28 1     
   38   19   20 1     
   39   19   21 1     
   40   20   42 1     
   41   21   29 1     
   42   21   22 1     
   43   22   43 1     
   44   23   24 2     
   45   23   25 1     
   46    5   44 1     
   47    5   45 1     
   48    8   46 1     
   49   11   47 1     
   50   15   48 1     
   51   15   49 1     
   52   18   50 1     
   53   18   51 1     
   54   20   52 1     
   55   20   53 1     
   56   22   54 1     
   57   22   55 1     
   58   24   56 1     
   59   24   57 1     
   60   25   58 1     
@<TRIPOS>SUBSTRUCTURE
      1 S1             1
@<TRIPOS>SET
LONE_PAIRS      STATIC     ATOMS    <user>   **** ""
15 44 45 46 47 48 49 50 51 52 53 54 55 56 57 58
DONOR_HYDROGENS      STATIC     ATOMS    <user>   **** ""
4 37 41 42 43
ATOM$BLUE        STATIC     ATOMS    COLORGROUP SYSTEM
15 44 45 46 47 48 49 50 51 52 53 54 55 56 57 58
ATOM$RED        STATIC     ATOMS    COLORGROUP SYSTEM
4 37 41 42 43
