AV-unprocessed.smi:3245|AV-procd|sdf|12406|dock8
  -GOLD-   2272018283D 1   1.00000     0.00000
 Structure written by MMmdl.
 35 36  0  0  0  0  0  0  0  0  3 V2000
  147.3977  140.7730  153.6176 C   0  0  0  0  0  0  0  0  0  0  0  0
  147.4032  139.3151  153.1386 C   0  0  2  0  0  0  0  0  0  0  0  0
  146.4414  138.4573  153.9899 C   0  0  0  0  0  0  0  0  0  0  0  0
  145.9356  137.2973  153.2777 N   0  0  0  0  0  0  0  0  0  0  0  0
  145.0532  137.2574  152.2187 C   0  0  0  0  0  0  0  0  0  0  0  0
  144.8998  135.9466  151.8681 C   0  0  0  0  0  0  0  0  0  0  0  0
  145.7363  135.2501  152.7845 C   0  0  0  0  0  0  0  0  0  0  0  0
  146.3527  136.0613  153.6293 N   0  0  0  0  0  0  0  0  0  0  0  0
  148.7847  138.7847  153.1919 N   0  3  0  0  0  0  0  0  0  0  0  0
  149.2700  138.4527  154.5466 C   0  0  0  0  0  0  0  0  0  0  0  0
  150.5458  137.6029  154.4789 C   0  0  0  0  0  0  0  0  0  0  0  0
  151.5508  138.0980  155.4221 N   0  0  0  0  0  0  0  0  0  0  0  0
  152.2329  137.3202  156.2682 C   0  0  0  0  0  0  0  0  0  0  0  0
  152.1400  136.1012  156.4152 O   0  0  0  0  0  0  0  0  0  0  0  0
  153.1884  138.2077  157.0310 C   0  0  0  0  0  0  0  0  0  0  0  0
  152.9229  139.5089  156.4594 N   0  5  0  0  0  0  0  0  0  0  0  0
  151.9573  139.3775  155.5208 C   0  0  0  0  0  0  0  0  0  0  0  0
  151.4863  140.2705  154.8174 O   0  0  0  0  0  0  0  0  0  0  0  0
  146.3968  141.2017  153.5594 H   0  0  0  0  0  0  0  0  0  0  0  0
  148.0546  141.3907  153.0043 H   0  0  0  0  0  0  0  0  0  0  0  0
  147.7340  140.8537  154.6520 H   0  0  0  0  0  0  0  0  0  0  0  0
  147.0594  139.3137  152.1026 H   0  0  0  0  0  0  0  0  0  0  0  0
  146.9334  138.1241  154.9054 H   0  0  0  0  0  0  0  0  0  0  0  0
  145.5847  139.0561  154.3016 H   0  0  0  0  0  0  0  0  0  0  0  0
  144.6184  138.1544  151.8028 H   0  0  0  0  0  0  0  0  0  0  0  0
  144.2855  135.5454  151.0757 H   0  0  0  0  0  0  0  0  0  0  0  0
  145.9147  134.1872  152.8588 H   0  0  0  0  0  0  0  0  0  0  0  0
  148.8288  137.9414  152.6379 H   0  0  0  0  0  0  0  0  0  0  0  0
  149.4725  139.3658  155.1058 H   0  0  0  0  0  0  0  0  0  0  0  0
  148.4841  137.9210  155.0843 H   0  0  0  0  0  0  0  0  0  0  0  0
  150.3151  136.5570  154.6883 H   0  0  0  0  0  0  0  0  0  0  0  0
  150.9508  137.6200  153.4653 H   0  0  0  0  0  0  0  0  0  0  0  0
  152.9734  138.1538  158.0988 H   0  0  0  0  0  0  0  0  0  0  0  0
  154.2136  137.8701  156.8755 H   0  0  0  0  0  0  0  0  0  0  0  0
  149.4027  139.4713  152.7829 H   0  0  0  0  0  0  0  0  0  0  0  0
  1  2  1  0  0  0  0
  1 19  1  0  0  0  0
  1 20  1  0  0  0  0
  1 21  1  0  0  0  0
  2  3  1  0  0  0  0
  2  9  1  0  0  0  0
  2 22  1  0  0  0  0
  3  4  1  0  0  0  0
  3 23  1  0  0  0  0
  3 24  1  0  0  0  0
  4  8  1  0  0  0  0
  4  5  1  0  0  0  0
  5  6  2  0  0  0  0
  5 25  1  0  0  0  0
  6  7  1  0  0  0  0
  6 26  1  0  0  0  0
  7  8  2  0  0  0  0
  7 27  1  0  0  0  0
  9 10  1  0  0  0  0
  9 28  1  0  0  0  0
  9 35  1  0  0  0  0
 10 11  1  0  0  0  0
 10 29  1  0  0  0  0
 10 30  1  0  0  0  0
 11 12  1  0  0  0  0
 11 31  1  0  0  0  0
 11 32  1  0  0  0  0
 12 17  1  0  0  0  0
 12 13  1  0  0  0  0
 13 14  2  0  0  0  0
 13 15  1  0  0  0  0
 15 16  1  0  0  0  0
 15 33  1  0  0  0  0
 15 34  1  0  0  0  0
 16 17  1  0  0  0  0
 17 18  2  0  0  0  0
M  CHG  1   9   1
M  CHG  1  16  -1
M  END
> <s_m_source_file>
AV-unprocessed.smi

> <i_m_source_file_index>
3245

> <i_lp_mmshare_version>
43012

> <i_f3d_flags>
0

> <s_epik_input>
bjFbY0hdW2NIXVtjSF1uMVtDSDJdW0NAQEhdKFtDSDNdKVtOSF1bQ0gyXVtDSDJdTjJDKD1PKVtDSDJdW05IXUMyPU8=

> <s_epik_cmdline>
J2VwaWtfcHl0aG9uJywgJy1waCcsICc3LjAnLCAnLXRuJywgJzgnLCAnLW1hJywgJzIwMCcsICctbWV0YWxfYmluZGluZycsICctaW1hZScsICc8aW5maWxlLm1hZT4nLCAnLW9tYWUnLCAnPG91dGZpbGUubWFlPic=

> <r_lp_tautomer_probability>
1

> <r_epik_Ionization_Penalty>
5.1873

> <r_epik_Ionization_Penalty_Charging>
5.18729

> <r_epik_Ionization_Penalty_Neutral>
3.83745e-06

> <r_epik_State_Penalty>
5.18822

> <r_epik_Charging_Adjusted_Penalty>
10.3755

> <i_epik_Tot_Q>
0

> <i_epik_Tot_abs_Q>
2

> <r_epik_Metal_State_Penalty>
1.25934

> <b_epik_Metal_Only>
1

> <s_lp_Force_Field>
OPLS_2005

> <r_lp_Energy>
10.3219

> <b_lp_Chiralities_Consistent>
1

> <s_lp_Variant>
AV-unprocessed.smi:3245-5

> <Gold.Version>
5.8.1

> <Gold.Id.Protein>
6NUR|6NUR_protein|mol2

> <Gold.PLP.Fitness>
49.1278

> <Gold.PLP.PLP>
-25.1532

> <Gold.PLP.part.hbond>
-4.9758

> <Gold.PLP.part.metal>
0.0000

> <Gold.PLP.part.buried>
-1.5484

> <Gold.PLP.part.nonpolar>
-19.8769

> <Gold.PLP.part.repulsive>
0.2357

> <Gold.PLP.ligand.clash>
0.0000

> <Gold.PLP.ligand.torsion>
0.9587

> <Gold.PLP.Chemscore.Hbond>
6.6080

> <Gold.PLP.Chemscore.CHOScore>
2.0000

> <Gold.PLP.Chemscore.Metal>
0.0000

> <Gold.Chemscore.Hbonds>
donor molecule, donor type, donor heavy atom, donor atom, acceptor molecule, acceptor atom, score
      L1  H     9    28       P1  7948  2.00
      L1  H     9    35       P1  7957  0.64
      P1  H  7989  7998       L1    18  0.80
      P1  H  7997  8010       L1    16  1.50
      P1  H 10752 10764       L1    14  1.00
      L1  C     5    25       P1 10171  1.00
      L1  C     5    25       P1 10175  0.93

> <Gold.PLP.Chemscore.Internal.Correction>
0.0680

> <Gold.Rescore>
     Score         DG    S(hbond)    S(metal)    S(lipo)     H(rot)  DE(clash)    DE(int)     intcor
     14.47     -16.70       3.79        0.00      45.97       2.66       0.09       2.13       ----

> <Gold.Chemscore.Fitness>
14.4745

> <Gold.Chemscore.DG>
-16.6956

> <Gold.Chemscore.ZeroCoef>
-5.4800

> <Gold.Chemscore.Hbond>
3.7865

> <Gold.Chemscore.Metal>
0.0000

> <Gold.Chemscore.Lipo>
45.9699

> <Gold.Chemscore.Internal_Hbond>
0.0000

> <Gold.Chemscore.DEClash>
0.0903

> <Gold.Chemscore.DEInternal>
2.1308

> <Gold.Chemscore.Rot>
2.6601

> <Gold.Chemscore.Internal.Correction>
   9.000000E+99

> <Gold.Chemscore.Hbonds>
donor molecule, donor type, donor heavy atom, donor atom, acceptor molecule, acceptor atom, score
      L1  H     9    28       P1  7948  1.00
      L1  H     9    35       P1  7957  0.64
      P1  H  7989  7998       L1    18  0.76
      P1  H  7997  8010       L1    16  0.09
      P1  H 10752 10764       L1    14  0.45

> <Gold.Chemscore.Hbond.Weighted>
-12.6469

> <Gold.Chemscore.Metal.Weighted>
-0.0000

> <Gold.Chemscore.Lipo.Weighted>
-5.3785

> <Gold.Chemscore.Internal_Hbond.Weighted>
0.0000

> <Gold.Chemscore.DEClash.Weighted>
0.0903

> <Gold.Chemscore.DEInternal.Weighted>
2.1308

> <Gold.Chemscore.Rot.Weighted>
6.8098

> <Gold.Chemscore.Internal.Correction.Weighted>
   9.000000E+99

> <Gold.Protein.RotatedTorsions>
[ 6907 6896 6895 6894 ] final -170.14 input  -60.11 | X-H torsion
[ 7974 7965 7964 7962 ] final   74.37 input  175.53 | X-H torsion
[ 8008 7997 7996 7995 ] final   56.03 input   59.86 | X-H torsion
[ 10167 10162 10161 10158 ] final   91.22 input  -65.29 | X-H torsion
[ 10718 10713 10712 10709 ] final  -52.21 input   66.30 | X-H torsion
[ 10763 10752 10751 10750 ] final  -14.35 input  -60.55 | X-H torsion
[ 11005 11000 10999 10996 ] final -128.36 input  -57.11 | X-H torsion

> <Gold.Protein.ActiveResidues>
 VAL166  LYS551  ARG553  GLY616  TRP617  ASP618  TYR619  PRO620  LYS621  CYS622 
 ASP623  PHE694  ASN695  SER759  ASP760  ASP761  ALA762  ILE779  LEU786  VAL792 
 PHE793  MET794  SER795  GLU796  ALA797  LYS798  CYS799  TRP800  GLU811  SER814 

> <Gold.Protein.RotatedAtoms>
  151.5030  133.3500  159.2871 H   0  0  0  0  0  0  0  0  0  0  0  0  # atno 6907 bound_to 6896
  150.8761  134.8146  159.7201 H   0  0  0  0  0  0  0  0  0  0  0  0  # atno 6908 bound_to 6896
  152.4731  134.4921  159.9750 H   0  0  0  0  0  0  0  0  0  0  0  0  # atno 6909 bound_to 6896
  145.7291  139.2677  143.1552 H   0  0  0  0  0  0  0  0  0  0  0  0  # atno 7974 bound_to 7965
  155.5108  140.3477  155.4388 H   0  0  0  0  0  0  0  0  0  0  0  0  # atno 8008 bound_to 7997
  156.0851  140.1396  156.9691 H   0  0  0  0  0  0  0  0  0  0  0  0  # atno 8009 bound_to 7997
  154.4602  140.0938  156.6847 H   0  0  0  0  0  0  0  0  0  0  0  0  # atno 8010 bound_to 7997
  139.8396  144.6648  150.9300 H   0  0  0  0  0  0  0  0  0  0  0  0  # atno 10167 bound_to 10162
  156.1642  130.4149  149.9746 H   0  0  0  0  0  0  0  0  0  0  0  0  # atno 10718 bound_to 10713
  153.5270  135.7015  153.5702 H   0  0  0  0  0  0  0  0  0  0  0  0  # atno 10763 bound_to 10752
  153.3726  135.3941  155.1799 H   0  0  0  0  0  0  0  0  0  0  0  0  # atno 10764 bound_to 10752
  154.8689  135.3815  154.4764 H   0  0  0  0  0  0  0  0  0  0  0  0  # atno 10765 bound_to 10752
  140.9522  134.1050  157.4051 H   0  0  0  0  0  0  0  0  0  0  0  0  # atno 11005 bound_to 11000
  146.0554  140.8026  142.9761 LP  0  0  0  0  0  0  0  0  0  0  0  0  # atno 17320 bound_to 7965
  144.6897  140.3117  143.7247 LP  0  0  0  0  0  0  0  0  0  0  0  0  # atno 17321 bound_to 7965
  140.7799  143.3925  151.1286 LP  0  0  0  0  0  0  0  0  0  0  0  0  # atno 17342 bound_to 10162
  139.7572  143.8689  152.3091 LP  0  0  0  0  0  0  0  0  0  0  0  0  # atno 17343 bound_to 10162
  156.7566  130.9135  151.3640 LP  0  0  0  0  0  0  0  0  0  0  0  0  # atno 17370 bound_to 10713
  157.6755  130.9090  150.0140 LP  0  0  0  0  0  0  0  0  0  0  0  0  # atno 17371 bound_to 10713
  139.8851  135.0069  156.6413 LP  0  0  0  0  0  0  0  0  0  0  0  0  # atno 17394 bound_to 11000
  140.7586  133.8836  155.8401 LP  0  0  0  0  0  0  0  0  0  0  0  0  # atno 17395 bound_to 11000

$$$$
