AV-unprocessed.smi:2442|AV-procd|sdf|9625|dock9
  -GOLD-   2272013253D 1   1.00000     0.00000
 Structure written by MMmdl.
 46 47  0  0  0  0  0  0  0  0  1 V2000
  146.8748  141.6490  153.6670 C   0  0  0  0  0  0  0  0  0  0  0  0
  147.8658  140.6407  153.7861 O   0  0  0  0  0  0  0  0  0  0  0  0
  147.9841  140.0841  155.0925 C   0  0  2  0  0  0  0  0  0  0  0  0
  148.6625  141.0853  156.0519 C   0  0  0  0  0  0  0  0  0  0  0  0
  150.1181  141.3679  155.6452 C   0  0  0  0  0  0  0  0  0  0  0  0
  150.9314  140.0681  155.5512 C   0  0  0  0  0  0  0  0  0  0  0  0
  150.2696  139.0632  154.5950 C   0  0  0  0  0  0  0  0  0  0  0  0
  148.8090  138.7783  154.9972 C   0  0  2  0  0  0  0  0  0  0  0  0
  148.2063  137.8420  154.0515 N   0  0  0  0  0  0  0  0  0  0  0  0
  146.9178  137.4738  154.0414 C   0  0  0  0  0  0  0  0  0  0  0  0
  146.0804  137.8634  154.8556 O   0  0  0  0  0  0  0  0  0  0  0  0
  146.6475  136.6400  153.0294 N   0  0  0  0  0  0  0  0  0  0  0  0
  145.3244  136.1069  152.7367 C   0  0  0  0  0  0  0  0  0  0  0  0
  145.2148  134.6495  153.2056 C   0  0  0  0  0  0  0  0  0  0  0  0
  145.0040  133.6868  152.0474 C   0  0  0  0  0  0  0  0  0  0  0  0
  143.7874  133.7175  151.3339 C   0  0  0  0  0  0  0  0  0  0  0  0
  143.6074  132.8232  150.2609 C   0  0  0  0  0  0  0  0  0  0  0  0
  144.5432  131.9312  149.8754 N   0  0  0  0  0  0  0  0  0  0  0  0
  145.7071  131.9048  150.5582 C   0  0  0  0  0  0  0  0  0  0  0  0
  145.9945  132.7554  151.6479 C   0  0  0  0  0  0  0  0  0  0  0  0
  147.3362  132.6513  152.3510 C   0  0  0  0  0  0  0  0  0  0  0  0
  146.8435  142.0054  152.6376 H   0  0  0  0  0  0  0  0  0  0  0  0
  147.0848  142.5048  154.3078 H   0  0  0  0  0  0  0  0  0  0  0  0
  145.8865  141.2597  153.9145 H   0  0  0  0  0  0  0  0  0  0  0  0
  146.9915  139.8406  155.4761 H   0  0  0  0  0  0  0  0  0  0  0  0
  148.1020  142.0180  156.1027 H   0  0  0  0  0  0  0  0  0  0  0  0
  148.6487  140.6748  157.0623 H   0  0  0  0  0  0  0  0  0  0  0  0
  150.1366  141.8827  154.6836 H   0  0  0  0  0  0  0  0  0  0  0  0
  150.5803  142.0440  156.3648 H   0  0  0  0  0  0  0  0  0  0  0  0
  151.9453  140.2879  155.2158 H   0  0  0  0  0  0  0  0  0  0  0  0
  151.0239  139.6224  156.5426 H   0  0  0  0  0  0  0  0  0  0  0  0
  150.3061  139.4552  153.5774 H   0  0  0  0  0  0  0  0  0  0  0  0
  150.8427  138.1352  154.5877 H   0  0  0  0  0  0  0  0  0  0  0  0
  148.8232  138.3065  155.9819 H   0  0  0  0  0  0  0  0  0  0  0  0
  148.8129  137.4696  153.3360 H   0  0  0  0  0  0  0  0  0  0  0  0
  147.3998  136.3733  152.4114 H   0  0  0  0  0  0  0  0  0  0  0  0
  144.5697  136.7200  153.2317 H   0  0  0  0  0  0  0  0  0  0  0  0
  145.1381  136.1714  151.6636 H   0  0  0  0  0  0  0  0  0  0  0  0
  146.1024  134.3647  153.7708 H   0  0  0  0  0  0  0  0  0  0  0  0
  144.3788  134.5496  153.8996 H   0  0  0  0  0  0  0  0  0  0  0  0
  143.0054  134.4133  151.6000 H   0  0  0  0  0  0  0  0  0  0  0  0
  142.6865  132.8246  149.6967 H   0  0  0  0  0  0  0  0  0  0  0  0
  146.4327  131.1791  150.2208 H   0  0  0  0  0  0  0  0  0  0  0  0
  148.0016  131.9614  151.8314 H   0  0  0  0  0  0  0  0  0  0  0  0
  147.2051  132.2874  153.3702 H   0  0  0  0  0  0  0  0  0  0  0  0
  147.8288  133.6227  152.3898 H   0  0  0  0  0  0  0  0  0  0  0  0
  1  2  1  0  0  0  0
  1 22  1  0  0  0  0
  1 23  1  0  0  0  0
  1 24  1  0  0  0  0
  2  3  1  0  0  0  0
  3  8  1  0  0  0  0
  3  4  1  0  0  0  0
  3 25  1  0  0  0  0
  4  5  1  0  0  0  0
  4 26  1  0  0  0  0
  4 27  1  0  0  0  0
  5  6  1  0  0  0  0
  5 28  1  0  0  0  0
  5 29  1  0  0  0  0
  6  7  1  0  0  0  0
  6 30  1  0  0  0  0
  6 31  1  0  0  0  0
  7  8  1  0  0  0  0
  7 32  1  0  0  0  0
  7 33  1  0  0  0  0
  8  9  1  0  0  0  0
  8 34  1  0  0  0  0
  9 10  1  0  0  0  0
  9 35  1  0  0  0  0
 10 11  2  0  0  0  0
 10 12  1  0  0  0  0
 12 13  1  0  0  0  0
 12 36  1  0  0  0  0
 13 14  1  0  0  0  0
 13 37  1  0  0  0  0
 13 38  1  0  0  0  0
 14 15  1  0  0  0  0
 14 39  1  0  0  0  0
 14 40  1  0  0  0  0
 15 20  1  0  0  0  0
 15 16  2  0  0  0  0
 16 17  1  0  0  0  0
 16 41  1  0  0  0  0
 17 18  2  0  0  0  0
 17 42  1  0  0  0  0
 18 19  1  0  0  0  0
 19 20  2  0  0  0  0
 19 43  1  0  0  0  0
 20 21  1  0  0  0  0
 21 44  1  0  0  0  0
 21 45  1  0  0  0  0
 21 46  1  0  0  0  0
M  END
> <s_m_source_file>
AV-unprocessed.smi

> <i_m_source_file_index>
2442

> <i_lp_mmshare_version>
43012

> <i_f3d_flags>
0

> <s_epik_input>
W0NIM11PW0NAQEhdMVtDSDJdW0NIMl1bQ0gyXVtDSDJdW0NASF0xW05IXUMoPU8pW05IXVtDSDJdW0NIMl1jMltjSF1bY0hdbltjSF1jMltDSDNd

> <s_epik_cmdline>
J2VwaWtfcHl0aG9uJywgJy1waCcsICc3LjAnLCAnLXRuJywgJzgnLCAnLW1hJywgJzIwMCcsICctbWV0YWxfYmluZGluZycsICctaW1hZScsICc8aW5maWxlLm1hZT4nLCAnLW9tYWUnLCAnPG91dGZpbGUubWFlPic=

> <r_epik_Ionization_Penalty>
0.106136

> <r_epik_Ionization_Penalty_Charging>
0

> <r_epik_Ionization_Penalty_Neutral>
0.106136

> <r_epik_State_Penalty>
0.0959393

> <r_epik_Charging_Adjusted_Penalty>
0.0959393

> <i_epik_Tot_Q>
0

> <i_epik_Tot_abs_Q>
0

> <r_epik_Metal_State_Penalty>
0.0812517

> <b_epik_Metal_Only>
0

> <s_lp_Force_Field>
OPLS_2005

> <r_lp_Energy>
9.91993

> <b_lp_Chiralities_Consistent>
1

> <s_lp_Variant>
AV-unprocessed.smi:2442-3

> <Gold.Version>
5.8.1

> <Gold.Id.Protein>
6NUR|6NUR_protein|mol2

> <Gold.PLP.Fitness>
42.5380

> <Gold.PLP.PLP>
-32.3247

> <Gold.PLP.part.hbond>
-2.0509

> <Gold.PLP.part.metal>
0.0000

> <Gold.PLP.part.buried>
-4.7419

> <Gold.PLP.part.nonpolar>
-25.9028

> <Gold.PLP.part.repulsive>
0.3666

> <Gold.PLP.ligand.clash>
0.0000

> <Gold.PLP.ligand.torsion>
0.7094

> <Gold.PLP.Chemscore.Hbond>
1.8640

> <Gold.PLP.Chemscore.CHOScore>
2.0000

> <Gold.PLP.Chemscore.Metal>
0.0000

> <Gold.Chemscore.Hbonds>
donor molecule, donor type, donor heavy atom, donor atom, acceptor molecule, acceptor atom, score
      L1  H     9    35       P1  7948  0.93
      L1  H    12    36       P1  7948  1.00
      L1  C    17    42       P1 10186  1.00
      L1  C    19    43       P1 10747  0.94

> <Gold.PLP.Chemscore.Internal.Correction>
0.0401

> <Gold.Rescore>
     Score         DG    S(hbond)    S(metal)    S(lipo)     H(rot)  DE(clash)    DE(int)     intcor
     15.41     -17.63       1.92        0.00      84.99       1.64       0.04       2.19       ----

> <Gold.Chemscore.Fitness>
15.4051

> <Gold.Chemscore.DG>
-17.6338

> <Gold.Chemscore.ZeroCoef>
-5.4800

> <Gold.Chemscore.Hbond>
1.9171

> <Gold.Chemscore.Metal>
0.0000

> <Gold.Chemscore.Lipo>
84.9918

> <Gold.Chemscore.Internal_Hbond>
0.0000

> <Gold.Chemscore.DEClash>
0.0408

> <Gold.Chemscore.DEInternal>
2.1879

> <Gold.Chemscore.Rot>
1.6380

> <Gold.Chemscore.Internal.Correction>
   9.000000E+99

> <Gold.Chemscore.Hbonds>
donor molecule, donor type, donor heavy atom, donor atom, acceptor molecule, acceptor atom, score
      L1  H     9    35       P1  7948  0.91
      L1  H    12    36       P1  7948  0.99

> <Gold.Chemscore.Hbond.Weighted>
-6.4032

> <Gold.Chemscore.Metal.Weighted>
-0.0000

> <Gold.Chemscore.Lipo.Weighted>
-9.9440

> <Gold.Chemscore.Internal_Hbond.Weighted>
0.0000

> <Gold.Chemscore.DEClash.Weighted>
0.0408

> <Gold.Chemscore.DEInternal.Weighted>
2.1879

> <Gold.Chemscore.Rot.Weighted>
4.1934

> <Gold.Chemscore.Internal.Correction.Weighted>
   9.000000E+99

> <Gold.Protein.RotatedTorsions>
[ 6907 6896 6895 6894 ] final -116.34 input  -60.11 | X-H torsion
[ 7974 7965 7964 7962 ] final  -63.67 input  175.53 | X-H torsion
[ 8008 7997 7996 7995 ] final  158.87 input   59.86 | X-H torsion
[ 10167 10162 10161 10158 ] final -119.84 input  -65.29 | X-H torsion
[ 10718 10713 10712 10709 ] final  -44.71 input   66.30 | X-H torsion
[ 10763 10752 10751 10750 ] final   63.03 input  -60.55 | X-H torsion
[ 11005 11000 10999 10996 ] final -139.32 input  -57.11 | X-H torsion

> <Gold.Protein.ActiveResidues>
 VAL166  LYS551  ARG553  GLY616  TRP617  ASP618  TYR619  PRO620  LYS621  CYS622 
 ASP623  PHE694  ASN695  SER759  ASP760  ASP761  ALA762  ILE779  LEU786  VAL792 
 PHE793  MET794  SER795  GLU796  ALA797  LYS798  CYS799  TRP800  GLU811  SER814 

> <Gold.Protein.RotatedAtoms>
  150.8049  133.8530  159.3210 H   0  0  0  0  0  0  0  0  0  0  0  0  # atno 6907 bound_to 6896
  151.6332  135.1019  160.0135 H   0  0  0  0  0  0  0  0  0  0  0  0  # atno 6908 bound_to 6896
  152.4138  133.6966  159.6456 H   0  0  0  0  0  0  0  0  0  0  0  0  # atno 6909 bound_to 6896
  145.7761  140.8787  143.0354 H   0  0  0  0  0  0  0  0  0  0  0  0  # atno 7974 bound_to 7965
  156.2275  140.1846  156.7326 H   0  0  0  0  0  0  0  0  0  0  0  0  # atno 8008 bound_to 7997
  154.5966  140.0642  156.9340 H   0  0  0  0  0  0  0  0  0  0  0  0  # atno 8009 bound_to 7997
  155.2245  140.3310  155.4314 H   0  0  0  0  0  0  0  0  0  0  0  0  # atno 8010 bound_to 7997
  140.0423  143.5141  152.2124 H   0  0  0  0  0  0  0  0  0  0  0  0  # atno 10167 bound_to 10162
  156.2357  130.4176  149.8820 H   0  0  0  0  0  0  0  0  0  0  0  0  # atno 10718 bound_to 10713
  153.0003  135.5444  154.6287 H   0  0  0  0  0  0  0  0  0  0  0  0  # atno 10763 bound_to 10752
  154.5569  135.2831  155.0958 H   0  0  0  0  0  0  0  0  0  0  0  0  # atno 10764 bound_to 10752
  154.2175  135.6456  153.5187 H   0  0  0  0  0  0  0  0  0  0  0  0  # atno 10765 bound_to 10752
  140.8531  134.2261  157.4749 H   0  0  0  0  0  0  0  0  0  0  0  0  # atno 11005 bound_to 11000
  144.6804  139.9924  143.7484 LP  0  0  0  0  0  0  0  0  0  0  0  0  # atno 17320 bound_to 7965
  146.0121  139.3178  143.0864 LP  0  0  0  0  0  0  0  0  0  0  0  0  # atno 17321 bound_to 7965
  139.6006  144.7581  151.3182 LP  0  0  0  0  0  0  0  0  0  0  0  0  # atno 17342 bound_to 10162
  140.7254  143.7018  150.7839 LP  0  0  0  0  0  0  0  0  0  0  0  0  # atno 17343 bound_to 10162
  156.6419  130.8708  151.3515 LP  0  0  0  0  0  0  0  0  0  0  0  0  # atno 17370 bound_to 10713
  157.7153  130.9490  150.1234 LP  0  0  0  0  0  0  0  0  0  0  0  0  # atno 17371 bound_to 10713
  139.8704  134.9693  156.4661 LP  0  0  0  0  0  0  0  0  0  0  0  0  # atno 17394 bound_to 11000
  140.8768  133.7947  155.9423 LP  0  0  0  0  0  0  0  0  0  0  0  0  # atno 17395 bound_to 11000

$$$$
