AV-unprocessed.smi:1554|AV-procd|sdf|6240|dock1
  -GOLD-   22720 6423D 1   1.00000     0.00000
 Structure written by MMmdl.
 47 49  0  0  0  0  0  0  0  0  1 V2000
  152.5846  143.1809  160.4857 C   0  0  0  0  0  0  0  0  0  0  0  0
  152.1196  142.5082  159.2062 C   0  0  0  0  0  0  0  0  0  0  0  0
  152.2501  141.1068  159.0797 C   0  0  0  0  0  0  0  0  0  0  0  0
  151.8300  140.4432  157.9061 C   0  0  0  0  0  0  0  0  0  0  0  0
  151.8644  139.1001  157.5724 N   0  0  0  0  0  0  0  0  0  0  0  0
  151.3346  139.1139  156.3528 C   0  0  0  0  0  0  0  0  0  0  0  0
  150.9599  140.3082  155.8561 N   0  0  0  0  0  0  0  0  0  0  0  0
  150.3627  140.5641  154.5571 C   0  0  0  0  0  0  0  0  0  0  0  0
  148.9774  139.9079  154.4032 C   0  0  2  0  0  0  0  0  0  0  0  0
  149.0896  138.7687  153.5726 O   0  0  0  0  0  0  0  0  0  0  0  0
  147.9616  140.8766  153.7654 C   0  0  0  0  0  0  0  0  0  0  0  0
  147.2905  141.7906  154.6922 N   0  0  0  0  0  0  0  0  0  0  0  0
  146.1818  142.5143  154.0725 C   0  0  0  0  0  0  0  0  0  0  0  0
  145.4752  143.4447  155.0726 C   0  0  0  0  0  0  0  0  0  0  0  0
  145.0287  142.6909  156.1947 O   0  0  0  0  0  0  0  0  0  0  0  0
  146.0861  142.0067  156.8609 C   0  0  1  0  0  0  0  0  0  0  0  0
  145.4924  141.2420  158.0486 C   0  0  0  0  0  0  0  0  0  0  0  0
  146.7887  141.0709  155.8580 C   0  0  0  0  0  0  0  0  0  0  0  0
  151.2703  141.2259  156.8541 C   0  0  0  0  0  0  0  0  0  0  0  0
  151.1362  142.6210  156.9678 C   0  0  0  0  0  0  0  0  0  0  0  0
  151.5611  143.2682  158.1471 C   0  0  0  0  0  0  0  0  0  0  0  0
  151.4106  144.7748  158.2604 C   0  0  0  0  0  0  0  0  0  0  0  0
  152.9808  142.4547  161.1961 H   0  0  0  0  0  0  0  0  0  0  0  0
  151.7562  143.7017  160.9666 H   0  0  0  0  0  0  0  0  0  0  0  0
  153.3723  143.9039  160.2725 H   0  0  0  0  0  0  0  0  0  0  0  0
  152.6761  140.5277  159.8856 H   0  0  0  0  0  0  0  0  0  0  0  0
  151.2110  138.2026  155.7861 H   0  0  0  0  0  0  0  0  0  0  0  0
  150.2817  141.6442  154.4284 H   0  0  0  0  0  0  0  0  0  0  0  0
  151.0444  140.2101  153.7825 H   0  0  0  0  0  0  0  0  0  0  0  0
  148.6408  139.5854  155.3877 H   0  0  0  0  0  0  0  0  0  0  0  0
  149.0851  139.0565  152.6723 H   0  0  0  0  0  0  0  0  0  0  0  0
  148.4616  141.4612  152.9915 H   0  0  0  0  0  0  0  0  0  0  0  0
  147.2119  140.2796  153.2436 H   0  0  0  0  0  0  0  0  0  0  0  0
  146.5361  143.1150  153.2361 H   0  0  0  0  0  0  0  0  0  0  0  0
  145.4579  141.8064  153.6659 H   0  0  0  0  0  0  0  0  0  0  0  0
  146.1473  144.2382  155.4029 H   0  0  0  0  0  0  0  0  0  0  0  0
  144.6176  143.9259  154.6025 H   0  0  0  0  0  0  0  0  0  0  0  0
  146.8000  142.7414  157.2377 H   0  0  0  0  0  0  0  0  0  0  0  0
  146.2676  140.7084  158.5991 H   0  0  0  0  0  0  0  0  0  0  0  0
  144.7535  140.5116  157.7178 H   0  0  0  0  0  0  0  0  0  0  0  0
  145.0001  141.9227  158.7434 H   0  0  0  0  0  0  0  0  0  0  0  0
  146.0929  140.2929  155.5389 H   0  0  0  0  0  0  0  0  0  0  0  0
  147.6136  140.5631  156.3595 H   0  0  0  0  0  0  0  0  0  0  0  0
  150.7125  143.1874  156.1517 H   0  0  0  0  0  0  0  0  0  0  0  0
  150.9924  145.2025  157.3487 H   0  0  0  0  0  0  0  0  0  0  0  0
  152.3786  145.2447  158.4359 H   0  0  0  0  0  0  0  0  0  0  0  0
  150.7459  145.0302  159.0859 H   0  0  0  0  0  0  0  0  0  0  0  0
  1  2  1  0  0  0  0
  1 23  1  0  0  0  0
  1 24  1  0  0  0  0
  1 25  1  0  0  0  0
  2 21  1  0  0  0  0
  2  3  2  0  0  0  0
  3  4  1  0  0  0  0
  3 26  1  0  0  0  0
  4 19  2  0  0  0  0
  4  5  1  0  0  0  0
  5  6  2  0  0  0  0
  6  7  1  0  0  0  0
  6 27  1  0  0  0  0
  7  8  1  0  0  0  0
  7 19  1  0  0  0  0
  8  9  1  0  0  0  0
  8 28  1  0  0  0  0
  8 29  1  0  0  0  0
  9 10  1  0  0  0  0
  9 11  1  0  0  0  0
  9 30  1  0  0  0  0
 10 31  1  0  0  0  0
 11 12  1  0  0  0  0
 11 32  1  0  0  0  0
 11 33  1  0  0  0  0
 12 18  1  0  0  0  0
 12 13  1  0  0  0  0
 13 14  1  0  0  0  0
 13 34  1  0  0  0  0
 13 35  1  0  0  0  0
 14 15  1  0  0  0  0
 14 36  1  0  0  0  0
 14 37  1  0  0  0  0
 15 16  1  0  0  0  0
 16 17  1  0  0  0  0
 16 18  1  0  0  0  0
 16 38  1  0  0  0  0
 17 39  1  0  0  0  0
 17 40  1  0  0  0  0
 17 41  1  0  0  0  0
 18 42  1  0  0  0  0
 18 43  1  0  0  0  0
 19 20  1  0  0  0  0
 20 21  2  0  0  0  0
 20 44  1  0  0  0  0
 21 22  1  0  0  0  0
 22 45  1  0  0  0  0
 22 46  1  0  0  0  0
 22 47  1  0  0  0  0
M  END
> <s_m_source_file>
AV-unprocessed.smi

> <i_m_source_file_index>
1554

> <i_lp_mmshare_version>
43012

> <i_f3d_flags>
0

> <s_epik_input>
W0NIM11jKFtjSF0xKWMoW0NIM10pW2NIXWMoYzEyKW4oW2NIXW4yKVtDSDJdW0NASF0oW09IXSlbQ0gyXU4zW0NIMl1bQ0gyXU9bQ0BASF0oW0NIM10pW0NIMl0z

> <s_epik_cmdline>
J2VwaWtfcHl0aG9uJywgJy1waCcsICc3LjAnLCAnLXRuJywgJzgnLCAnLW1hJywgJzIwMCcsICctbWV0YWxfYmluZGluZycsICctaW1hZScsICc8aW5maWxlLm1hZT4nLCAnLW9tYWUnLCAnPG91dGZpbGUubWFlPic=

> <r_epik_Ionization_Penalty>
0.345108

> <r_epik_Ionization_Penalty_Charging>
0

> <r_epik_Ionization_Penalty_Neutral>
0.345108

> <r_epik_State_Penalty>
0.314544

> <r_epik_Charging_Adjusted_Penalty>
0.314544

> <i_epik_Tot_Q>
0

> <i_epik_Tot_abs_Q>
0

> <r_epik_Metal_State_Penalty>
0.239719

> <b_epik_Metal_Only>
0

> <s_lp_Force_Field>
OPLS_2005

> <r_lp_Energy>
29.4167

> <b_lp_Chiralities_Consistent>
1

> <s_lp_Variant>
AV-unprocessed.smi:1554-1

> <Gold.Version>
5.8.1

> <Gold.Id.Protein>
6NUR|6NUR_protein|mol2

> <Gold.PLP.Fitness>
42.3259

> <Gold.PLP.PLP>
-41.1693

> <Gold.PLP.part.hbond>
-2.0000

> <Gold.PLP.part.metal>
0.0000

> <Gold.PLP.part.buried>
-2.3866

> <Gold.PLP.part.nonpolar>
-36.3217

> <Gold.PLP.part.repulsive>
0.2381

> <Gold.PLP.ligand.clash>
0.0000

> <Gold.PLP.ligand.torsion>
0.9961

> <Gold.PLP.Chemscore.Hbond>
1.0000

> <Gold.PLP.Chemscore.CHOScore>
0.0000

> <Gold.PLP.Chemscore.Metal>
0.0000

> <Gold.Chemscore.Hbonds>
donor molecule, donor type, donor heavy atom, donor atom, acceptor molecule, acceptor atom, score
      L1  H    10    31       P1  7957  1.00

> <Gold.PLP.Chemscore.Internal.Correction>
0.1489

> <Gold.Rescore>
     Score         DG    S(hbond)    S(metal)    S(lipo)     H(rot)  DE(clash)    DE(int)     intcor
     14.67     -17.39       0.99        0.00     116.80       1.98       1.72       1.00       ----

> <Gold.Chemscore.Fitness>
14.6732

> <Gold.Chemscore.DG>
-17.3880

> <Gold.Chemscore.ZeroCoef>
-5.4800

> <Gold.Chemscore.Hbond>
0.9949

> <Gold.Chemscore.Metal>
0.0000

> <Gold.Chemscore.Lipo>
116.8049

> <Gold.Chemscore.Internal_Hbond>
0.0000

> <Gold.Chemscore.DEClash>
1.7184

> <Gold.Chemscore.DEInternal>
0.9964

> <Gold.Chemscore.Rot>
1.9848

> <Gold.Chemscore.Internal.Correction>
   9.000000E+99

> <Gold.Chemscore.Hbonds>
donor molecule, donor type, donor heavy atom, donor atom, acceptor molecule, acceptor atom, score
      L1  H    10    31       P1  7957  0.99

> <Gold.Chemscore.Hbond.Weighted>
-3.3229

> <Gold.Chemscore.Metal.Weighted>
-0.0000

> <Gold.Chemscore.Lipo.Weighted>
-13.6662

> <Gold.Chemscore.Internal_Hbond.Weighted>
0.0000

> <Gold.Chemscore.DEClash.Weighted>
1.7184

> <Gold.Chemscore.DEInternal.Weighted>
0.9964

> <Gold.Chemscore.Rot.Weighted>
5.0810

> <Gold.Chemscore.Internal.Correction.Weighted>
   9.000000E+99

> <Gold.Protein.RotatedTorsions>
[ 6907 6896 6895 6894 ] final -131.21 input  -60.11 | X-H torsion
[ 7974 7965 7964 7962 ] final  144.78 input  175.53 | X-H torsion
[ 8008 7997 7996 7995 ] final -148.54 input   59.86 | X-H torsion
[ 10167 10162 10161 10158 ] final  -74.71 input  -65.29 | X-H torsion
[ 10718 10713 10712 10709 ] final -175.60 input   66.30 | X-H torsion
[ 10763 10752 10751 10750 ] final  -11.23 input  -60.55 | X-H torsion
[ 11005 11000 10999 10996 ] final -165.71 input  -57.11 | X-H torsion

> <Gold.Protein.ActiveResidues>
 VAL166  LYS551  ARG553  GLY616  TRP617  ASP618  TYR619  PRO620  LYS621  CYS622 
 ASP623  PHE694  ASN695  SER759  ASP760  ASP761  ALA762  ILE779  LEU786  VAL792 
 PHE793  MET794  SER795  GLU796  ALA797  LYS798  CYS799  TRP800  GLU811  SER814 

> <Gold.Protein.RotatedAtoms>
  150.9484  133.6577  159.2776 H   0  0  0  0  0  0  0  0  0  0  0  0  # atno 6907 bound_to 6896
  151.3941  135.0959  159.9545 H   0  0  0  0  0  0  0  0  0  0  0  0  # atno 6908 bound_to 6896
  152.5099  133.8992  159.7487 H   0  0  0  0  0  0  0  0  0  0  0  0  # atno 6909 bound_to 6896
  144.8807  139.5703  143.5844 H   0  0  0  0  0  0  0  0  0  0  0  0  # atno 7974 bound_to 7965
  155.5932  140.0654  157.2753 H   0  0  0  0  0  0  0  0  0  0  0  0  # atno 8008 bound_to 7997
  154.4299  140.1831  156.1143 H   0  0  0  0  0  0  0  0  0  0  0  0  # atno 8009 bound_to 7997
  156.0216  140.3316  155.7048 H   0  0  0  0  0  0  0  0  0  0  0  0  # atno 8010 bound_to 7997
  140.5004  143.2362  151.7761 H   0  0  0  0  0  0  0  0  0  0  0  0  # atno 10167 bound_to 10162
  156.8023  130.9556  151.3118 H   0  0  0  0  0  0  0  0  0  0  0  0  # atno 10718 bound_to 10713
  153.4808  135.7017  153.5939 H   0  0  0  0  0  0  0  0  0  0  0  0  # atno 10763 bound_to 10752
  153.4154  135.3838  155.2077 H   0  0  0  0  0  0  0  0  0  0  0  0  # atno 10764 bound_to 10752
  154.8721  135.3914  154.4257 H   0  0  0  0  0  0  0  0  0  0  0  0  # atno 10765 bound_to 10752
  140.5726  134.5222  157.5164 H   0  0  0  0  0  0  0  0  0  0  0  0  # atno 11005 bound_to 11000
  146.2992  139.7374  142.9103 LP  0  0  0  0  0  0  0  0  0  0  0  0  # atno 17320 bound_to 7965
  145.3959  141.0379  143.3097 LP  0  0  0  0  0  0  0  0  0  0  0  0  # atno 17321 bound_to 7965
  139.4871  144.4529  151.9632 LP  0  0  0  0  0  0  0  0  0  0  0  0  # atno 17342 bound_to 10162
  140.3618  144.2963  150.5932 LP  0  0  0  0  0  0  0  0  0  0  0  0  # atno 17343 bound_to 10162
  157.6547  130.8914  149.9705 LP  0  0  0  0  0  0  0  0  0  0  0  0  # atno 17370 bound_to 10713
  156.1094  130.3651  150.0076 LP  0  0  0  0  0  0  0  0  0  0  0  0  # atno 17371 bound_to 10713
  139.9354  134.7884  156.0816 LP  0  0  0  0  0  0  0  0  0  0  0  0  # atno 17394 bound_to 11000
  141.1046  133.6664  156.2834 LP  0  0  0  0  0  0  0  0  0  0  0  0  # atno 17395 bound_to 11000

$$$$
