AV-unprocessed.smi:726|AV-procd|sdf|3514|dock5
  -GOLD-   22720 0513D 1   1.00000     0.00000
 Structure written by MMmdl.
 24 24  0  0  0  0  0  0  0  0  2 V2000
  152.2547  143.8753  158.3653 C   0  0  0  0  0  0  0  0  0  0  0  0
  152.6476  142.5159  158.9291 C   0  0  0  0  0  0  0  0  0  0  0  0
  153.6424  142.4504  159.8443 C   0  0  0  0  0  0  0  0  0  0  0  0
  154.0007  141.1724  160.4802 C   0  0  0  0  0  0  0  0  0  0  0  0
  154.9477  141.0709  161.2580 O   0  0  0  0  0  0  0  0  0  0  0  0
  153.1417  140.0309  160.1417 C   0  0  0  0  0  0  0  0  0  0  0  0
  152.1761  140.1896  159.2162 C   0  0  0  0  0  0  0  0  0  0  0  0
  151.3346  139.1881  158.9224 O   0  0  0  0  0  0  0  0  0  0  0  0
  151.9227  141.3798  158.4979 N   0  0  0  0  0  0  0  0  0  0  0  0
  151.0894  141.4248  157.2728 C   0  0  2  0  0  0  0  0  0  0  0  0
  149.5784  141.3657  157.5800 C   0  0  0  0  0  0  0  0  0  0  0  0
  151.5585  140.4525  156.1726 C   0  0  0  0  0  0  0  0  0  0  0  0
  152.4782  139.6486  156.4442 O   0  0  0  0  0  0  0  0  0  0  0  0
  150.9764  140.5325  155.0684 O   0  5  0  0  0  0  0  0  0  0  0  0
  152.5841  144.6787  159.0250 H   0  0  0  0  0  0  0  0  0  0  0  0
  151.1736  143.9754  158.2655 H   0  0  0  0  0  0  0  0  0  0  0  0
  152.7196  144.0328  157.3918 H   0  0  0  0  0  0  0  0  0  0  0  0
  154.1738  143.3381  160.1553 H   0  0  0  0  0  0  0  0  0  0  0  0
  153.2857  139.0946  160.6611 H   0  0  0  0  0  0  0  0  0  0  0  0
  151.2335  142.3806  156.7760 H   0  0  0  0  0  0  0  0  0  0  0  0
  148.9887  141.4931  156.6717 H   0  0  0  0  0  0  0  0  0  0  0  0
  149.2927  142.1633  158.2658 H   0  0  0  0  0  0  0  0  0  0  0  0
  149.2803  140.4208  158.0327 H   0  0  0  0  0  0  0  0  0  0  0  0
  151.2873  139.1218  157.9814 H   0  0  0  0  0  0  0  0  0  0  0  0
  1  2  1  0  0  0  0
  1 15  1  0  0  0  0
  1 16  1  0  0  0  0
  1 17  1  0  0  0  0
  2  9  1  0  0  0  0
  2  3  2  0  0  0  0
  3  4  1  0  0  0  0
  3 18  1  0  0  0  0
  4  5  2  0  0  0  0
  4  6  1  0  0  0  0
  6  7  2  0  0  0  0
  6 19  1  0  0  0  0
  7  8  1  0  0  0  0
  7  9  1  0  0  0  0
  8 24  1  0  0  0  0
  9 10  1  0  0  0  0
 10 11  1  0  0  0  0
 10 12  1  0  0  0  0
 10 20  1  0  0  0  0
 11 21  1  0  0  0  0
 11 22  1  0  0  0  0
 11 23  1  0  0  0  0
 12 13  2  0  0  0  0
 12 14  1  0  0  0  0
M  CHG  1  14  -1
M  END
> <s_m_source_file>
AV-unprocessed.smi

> <i_m_source_file_index>
726

> <i_lp_mmshare_version>
43012

> <i_f3d_flags>
0

> <s_epik_input>
W0NIM11jMVtjSF1jKFtPSF0pW2NIXWMoPU8pbjFbQ0BIXShbQ0gzXSlDKD1PKVtPSF0=

> <s_epik_cmdline>
J2VwaWtfcHl0aG9uJywgJy1waCcsICc3LjAnLCAnLXRuJywgJzgnLCAnLW1hJywgJzIwMCcsICctbWV0YWxfYmluZGluZycsICctaW1hZScsICc8aW5maWxlLm1hZT4nLCAnLW9tYWUnLCAnPG91dGZpbGUubWFlPic=

> <r_epik_Ionization_Penalty>
0.000857085

> <r_epik_Ionization_Penalty_Charging>
0.000857085

> <r_epik_Ionization_Penalty_Neutral>
0

> <r_epik_State_Penalty>
1.45659

> <r_epik_Charging_Adjusted_Penalty>
1.45745

> <i_epik_Tot_Q>
-1

> <i_epik_Tot_abs_Q>
1

> <r_epik_Metal_State_Penalty>
1.45659

> <b_epik_Metal_Only>
0

> <s_lp_Force_Field>
OPLS_2005

> <r_lp_Energy>
4.32013

> <b_lp_Chiralities_Consistent>
1

> <s_lp_Variant>
AV-unprocessed.smi:726-5

> <Gold.Version>
5.8.1

> <Gold.Id.Protein>
6NUR|6NUR_protein|mol2

> <Gold.PLP.Fitness>
39.5469

> <Gold.PLP.PLP>
-30.7080

> <Gold.PLP.part.hbond>
-3.0000

> <Gold.PLP.part.metal>
0.0000

> <Gold.PLP.part.buried>
-3.4983

> <Gold.PLP.part.nonpolar>
-23.4710

> <Gold.PLP.part.repulsive>
0.0578

> <Gold.PLP.ligand.clash>
0.0000

> <Gold.PLP.ligand.torsion>
0.2448

> <Gold.PLP.Chemscore.Hbond>
3.0000

> <Gold.PLP.Chemscore.CHOScore>
0.0000

> <Gold.PLP.Chemscore.Metal>
0.0000

> <Gold.Chemscore.Hbonds>
donor molecule, donor type, donor heavy atom, donor atom, acceptor molecule, acceptor atom, score
      P1  H  7989  7998       L1    14  0.99
      P1  H  7997  8010       L1    13  2.00

> <Gold.PLP.Chemscore.Internal.Correction>
0.3286

> <Gold.Rescore>
     Score         DG    S(hbond)    S(metal)    S(lipo)     H(rot)  DE(clash)    DE(int)     intcor
      9.88     -12.30       1.97        0.00      48.33       2.11       0.00       2.42       ----

> <Gold.Chemscore.Fitness>
9.8786

> <Gold.Chemscore.DG>
-12.3017

> <Gold.Chemscore.ZeroCoef>
-5.4800

> <Gold.Chemscore.Hbond>
1.9685

> <Gold.Chemscore.Metal>
0.0000

> <Gold.Chemscore.Lipo>
48.3304

> <Gold.Chemscore.Internal_Hbond>
0.0000

> <Gold.Chemscore.DEClash>
0.0000

> <Gold.Chemscore.DEInternal>
2.4231

> <Gold.Chemscore.Rot>
2.1124

> <Gold.Chemscore.Internal.Correction>
   9.000000E+99

> <Gold.Chemscore.Hbonds>
donor molecule, donor type, donor heavy atom, donor atom, acceptor molecule, acceptor atom, score
      P1  H  7989  7998       L1    14  0.93
      P1  H  7997  8010       L1    13  0.94

> <Gold.Chemscore.Hbond.Weighted>
-6.5748

> <Gold.Chemscore.Metal.Weighted>
-0.0000

> <Gold.Chemscore.Lipo.Weighted>
-5.6547

> <Gold.Chemscore.Internal_Hbond.Weighted>
0.0000

> <Gold.Chemscore.DEClash.Weighted>
0.0000

> <Gold.Chemscore.DEInternal.Weighted>
2.4231

> <Gold.Chemscore.Rot.Weighted>
5.4078

> <Gold.Chemscore.Internal.Correction.Weighted>
   9.000000E+99

> <Gold.Protein.RotatedTorsions>
[ 6907 6896 6895 6894 ] final    4.14 input  -60.11 | X-H torsion
[ 7974 7965 7964 7962 ] final -101.40 input  175.53 | X-H torsion
[ 8008 7997 7996 7995 ] final   89.74 input   59.86 | X-H torsion
[ 10167 10162 10161 10158 ] final  -60.20 input  -65.29 | X-H torsion
[ 10718 10713 10712 10709 ] final    8.92 input   66.30 | X-H torsion
[ 10763 10752 10751 10750 ] final -139.38 input  -60.55 | X-H torsion
[ 11005 11000 10999 10996 ] final  165.16 input  -57.11 | X-H torsion

> <Gold.Protein.ActiveResidues>
 VAL166  LYS551  ARG553  GLY616  TRP617  ASP618  TYR619  PRO620  LYS621  CYS622 
 ASP623  PHE694  ASN695  SER759  ASP760  ASP761  ALA762  ILE779  LEU786  VAL792 
 PHE793  MET794  SER795  GLU796  ALA797  LYS798  CYS799  TRP800  GLU811  SER814 

> <Gold.Protein.RotatedAtoms>
  151.6364  135.1017  160.0132 H   0  0  0  0  0  0  0  0  0  0  0  0  # atno 6907 bound_to 6896
  152.4078  133.6912  159.6380 H   0  0  0  0  0  0  0  0  0  0  0  0  # atno 6908 bound_to 6896
  150.7971  133.8595  159.3269 H   0  0  0  0  0  0  0  0  0  0  0  0  # atno 6909 bound_to 6896
  145.2822  140.9329  143.2926 H   0  0  0  0  0  0  0  0  0  0  0  0  # atno 7974 bound_to 7965
  156.0036  140.3357  155.6870 H   0  0  0  0  0  0  0  0  0  0  0  0  # atno 8008 bound_to 7997
  155.6256  140.0679  157.2682 H   0  0  0  0  0  0  0  0  0  0  0  0  # atno 8009 bound_to 7997
  154.4257  140.1769  156.1405 H   0  0  0  0  0  0  0  0  0  0  0  0  # atno 8010 bound_to 7997
  140.6087  143.2380  151.5761 H   0  0  0  0  0  0  0  0  0  0  0  0  # atno 10167 bound_to 10162
  156.9587  130.5924  149.5661 H   0  0  0  0  0  0  0  0  0  0  0  0  # atno 10718 bound_to 10713
  154.8611  135.3584  154.5536 H   0  0  0  0  0  0  0  0  0  0  0  0  # atno 10763 bound_to 10752
  153.6154  135.7008  153.5335 H   0  0  0  0  0  0  0  0  0  0  0  0  # atno 10764 bound_to 10752
  153.3174  135.4161  155.1348 H   0  0  0  0  0  0  0  0  0  0  0  0  # atno 10765 bound_to 10752
  140.2533  134.7960  157.3522 H   0  0  0  0  0  0  0  0  0  0  0  0  # atno 11005 bound_to 11000
  144.9244  139.4373  143.6525 LP  0  0  0  0  0  0  0  0  0  0  0  0  # atno 17320 bound_to 7965
  146.3213  139.8121  142.8943 LP  0  0  0  0  0  0  0  0  0  0  0  0  # atno 17321 bound_to 7965
  139.5344  144.2823  152.1219 LP  0  0  0  0  0  0  0  0  0  0  0  0  # atno 17342 bound_to 10162
  140.2017  144.4651  150.6428 LP  0  0  0  0  0  0  0  0  0  0  0  0  # atno 17343 bound_to 10162
  156.0331  130.5421  150.8586 LP  0  0  0  0  0  0  0  0  0  0  0  0  # atno 17370 bound_to 10713
  157.5673  131.0946  150.9471 LP  0  0  0  0  0  0  0  0  0  0  0  0  # atno 17371 bound_to 10713
  140.1536  134.4818  155.7943 LP  0  0  0  0  0  0  0  0  0  0  0  0  # atno 17394 bound_to 11000
  141.2199  133.6872  156.7422 LP  0  0  0  0  0  0  0  0  0  0  0  0  # atno 17395 bound_to 11000

$$$$
