AV-unprocessed.smi:907|AV-procd|sdf|4108|dock9
  -GOLD-   22720 2 03D 1   1.00000     0.00000
 Structure written by MMmdl.
 53 56  0  0  0  0  0  0  0  0  2 V2000
  151.1723  136.6947  159.2866 O   0  0  0  0  0  0  0  0  0  0  0  0
  150.5149  137.5167  158.6475 C   0  0  0  0  0  0  0  0  0  0  0  0
  149.1902  137.3882  158.4706 N   0  0  0  0  0  0  0  0  0  0  0  0
  148.3814  136.3079  159.0180 C   0  0  0  0  0  0  0  0  0  0  0  0
  148.5431  136.2335  160.5427 C   0  0  0  0  0  0  0  0  0  0  0  0
  147.2098  136.2626  161.2655 C   0  0  0  0  0  0  0  0  0  0  0  0
  146.8009  135.1761  162.0679 C   0  0  0  0  0  0  0  0  0  0  0  0
  145.5569  135.2572  162.7228 C   0  0  0  0  0  0  0  0  0  0  0  0
  144.7741  136.4152  162.5516 C   0  0  0  0  0  0  0  0  0  0  0  0
  145.2724  137.4453  161.7291 C   0  0  0  0  0  0  0  0  0  0  0  0
  146.4637  137.3775  161.0965 N   0  0  0  0  0  0  0  0  0  0  0  0
  151.0659  138.6012  158.0461 N   0  0  0  0  0  0  0  0  0  0  0  0
  150.3731  139.5737  157.1922 C   0  0  0  0  0  0  0  0  0  0  0  0
  150.1937  140.8809  157.9826 C   0  0  0  0  0  0  0  0  0  0  0  0
  151.4954  141.4237  158.4746 N   0  3  0  0  0  0  0  0  0  0  0  0
  151.3085  142.6971  159.2364 C   0  0  2  0  0  0  0  0  0  0  0  0
  150.7421  143.8289  158.3371 C   0  0  0  0  0  0  0  0  0  0  0  0
  151.7409  144.9815  158.5289 C   0  0  1  0  0  0  0  0  0  0  0  0
  151.6052  145.5484  159.9514 C   0  0  0  0  0  0  0  0  0  0  0  0
  152.2251  144.4346  160.8126 C   0  0  0  0  0  0  0  0  0  0  0  0
  152.6081  143.3625  159.7723 C   0  0  2  0  0  0  0  0  0  0  0  0
  153.0618  144.2277  158.6023 C   0  0  0  0  0  0  0  0  0  0  0  0
  152.2982  140.3868  159.1889 C   0  0  0  0  0  0  0  0  0  0  0  0
  152.4079  139.0804  158.3796 C   0  0  0  0  0  0  0  0  0  0  0  0
  148.7106  138.0868  157.9220 H   0  0  0  0  0  0  0  0  0  0  0  0
  147.3351  136.4753  158.7580 H   0  0  0  0  0  0  0  0  0  0  0  0
  148.6806  135.3614  158.5643 H   0  0  0  0  0  0  0  0  0  0  0  0
  149.0729  135.3201  160.8181 H   0  0  0  0  0  0  0  0  0  0  0  0
  149.1591  137.0628  160.8934 H   0  0  0  0  0  0  0  0  0  0  0  0
  147.4247  134.3018  162.1822 H   0  0  0  0  0  0  0  0  0  0  0  0
  145.2098  134.4465  163.3464 H   0  0  0  0  0  0  0  0  0  0  0  0
  143.8155  136.5123  163.0390 H   0  0  0  0  0  0  0  0  0  0  0  0
  144.6994  138.3477  161.5762 H   0  0  0  0  0  0  0  0  0  0  0  0
  150.9720  139.7574  156.2989 H   0  0  0  0  0  0  0  0  0  0  0  0
  149.4057  139.2313  156.8250 H   0  0  0  0  0  0  0  0  0  0  0  0
  149.6871  141.6061  157.3471 H   0  0  0  0  0  0  0  0  0  0  0  0
  149.5351  140.7022  158.8342 H   0  0  0  0  0  0  0  0  0  0  0  0
  150.6343  142.4931  160.0702 H   0  0  0  0  0  0  0  0  0  0  0  0
  150.7319  143.5469  157.2835 H   0  0  0  0  0  0  0  0  0  0  0  0
  149.7248  144.1087  158.6134 H   0  0  0  0  0  0  0  0  0  0  0  0
  151.6865  145.7409  157.7482 H   0  0  0  0  0  0  0  0  0  0  0  0
  152.1700  146.4754  160.0574 H   0  0  0  0  0  0  0  0  0  0  0  0
  150.5679  145.7546  160.2178 H   0  0  0  0  0  0  0  0  0  0  0  0
  153.1116  144.8042  161.3299 H   0  0  0  0  0  0  0  0  0  0  0  0
  151.5346  144.0580  161.5682 H   0  0  0  0  0  0  0  0  0  0  0  0
  153.3670  142.6923  160.1691 H   0  0  0  0  0  0  0  0  0  0  0  0
  153.2870  143.6546  157.7011 H   0  0  0  0  0  0  0  0  0  0  0  0
  153.9125  144.8685  158.8415 H   0  0  0  0  0  0  0  0  0  0  0  0
  153.3125  140.7377  159.3658 H   0  0  0  0  0  0  0  0  0  0  0  0
  151.8485  140.1865  160.1630 H   0  0  0  0  0  0  0  0  0  0  0  0
  152.9925  138.3463  158.9363 H   0  0  0  0  0  0  0  0  0  0  0  0
  152.9642  139.2581  157.4582 H   0  0  0  0  0  0  0  0  0  0  0  0
  152.0315  141.6622  157.6525 H   0  0  0  0  0  0  0  0  0  0  0  0
  1  2  2  0  0  0  0
  2  3  1  0  0  0  0
  2 12  1  0  0  0  0
  3  4  1  0  0  0  0
  3 25  1  0  0  0  0
  4  5  1  0  0  0  0
  4 26  1  0  0  0  0
  4 27  1  0  0  0  0
  5  6  1  0  0  0  0
  5 28  1  0  0  0  0
  5 29  1  0  0  0  0
  6 11  1  0  0  0  0
  6  7  2  0  0  0  0
  7  8  1  0  0  0  0
  7 30  1  0  0  0  0
  8  9  2  0  0  0  0
  8 31  1  0  0  0  0
  9 10  1  0  0  0  0
  9 32  1  0  0  0  0
 10 11  2  0  0  0  0
 10 33  1  0  0  0  0
 12 24  1  0  0  0  0
 12 13  1  0  0  0  0
 13 14  1  0  0  0  0
 13 34  1  0  0  0  0
 13 35  1  0  0  0  0
 14 15  1  0  0  0  0
 14 36  1  0  0  0  0
 14 37  1  0  0  0  0
 15 16  1  0  0  0  0
 15 23  1  0  0  0  0
 15 53  1  0  0  0  0
 16 21  1  0  0  0  0
 16 17  1  0  0  0  0
 16 38  1  0  0  0  0
 17 18  1  0  0  0  0
 17 39  1  0  0  0  0
 17 40  1  0  0  0  0
 18 22  1  0  0  0  0
 18 19  1  0  0  0  0
 18 41  1  0  0  0  0
 19 20  1  0  0  0  0
 19 42  1  0  0  0  0
 19 43  1  0  0  0  0
 20 21  1  0  0  0  0
 20 44  1  0  0  0  0
 20 45  1  0  0  0  0
 21 22  1  0  0  0  0
 21 46  1  0  0  0  0
 22 47  1  0  0  0  0
 22 48  1  0  0  0  0
 23 24  1  0  0  0  0
 23 49  1  0  0  0  0
 23 50  1  0  0  0  0
 24 51  1  0  0  0  0
 24 52  1  0  0  0  0
M  CHG  1  15   1
M  END
> <s_m_source_file>
AV-unprocessed.smi

> <i_m_source_file_index>
907

> <i_lp_mmshare_version>
43012

> <i_f3d_flags>
0

> <s_epik_input>
W0NIMl0xW0NIMl1bQ0BASF0oW0NIMl0yKVtDQEBIXShbQ0gyXVtDQEhdMTIpTihbQ0gyXVtDSDJdMylbQ0gyXVtDSDJdTjNDKD1PKVtOSF1bQ0gyXVtDSDJdYzRbY0hdW2NIXVtjSF1bY0hdbjQ=

> <s_epik_cmdline>
J2VwaWtfcHl0aG9uJywgJy1waCcsICc3LjAnLCAnLXRuJywgJzgnLCAnLW1hJywgJzIwMCcsICctbWV0YWxfYmluZGluZycsICctaW1hZScsICc8aW5maWxlLm1hZT4nLCAnLW9tYWUnLCAnPG91dGZpbGUubWFlPic=

> <r_epik_Ionization_Penalty>
0.0419258

> <r_epik_Ionization_Penalty_Charging>
0.00262064

> <r_epik_Ionization_Penalty_Neutral>
0.0393052

> <r_epik_State_Penalty>
0.0329887

> <r_epik_Charging_Adjusted_Penalty>
0.0356093

> <i_epik_Tot_Q>
1

> <i_epik_Tot_abs_Q>
1

> <r_epik_Metal_State_Penalty>
0.0309172

> <b_epik_Metal_Only>
0

> <s_lp_Force_Field>
OPLS_2005

> <r_lp_Energy>
96.3886

> <b_lp_Chiralities_Consistent>
1

> <s_lp_Variant>
AV-unprocessed.smi:907-3

> <Gold.Version>
5.8.1

> <Gold.Id.Protein>
6NUR|6NUR_protein|mol2

> <Gold.PLP.Fitness>
55.4020

> <Gold.PLP.PLP>
-50.2818

> <Gold.PLP.part.hbond>
-2.0000

> <Gold.PLP.part.metal>
0.0000

> <Gold.PLP.part.buried>
-8.3931

> <Gold.PLP.part.nonpolar>
-39.8537

> <Gold.PLP.part.repulsive>
0.2360

> <Gold.PLP.ligand.clash>
0.0000

> <Gold.PLP.ligand.torsion>
0.4882

> <Gold.PLP.Chemscore.Hbond>
2.0000

> <Gold.PLP.Chemscore.CHOScore>
0.0000

> <Gold.PLP.Chemscore.Metal>
0.0000

> <Gold.Chemscore.Hbonds>
donor molecule, donor type, donor heavy atom, donor atom, acceptor molecule, acceptor atom, score
      P1  H  6896  6909       L1     1  1.00
      P1  H  6934  6947       L1    11  1.00

> <Gold.PLP.Chemscore.Internal.Correction>
0.0966

> <Gold.Rescore>
     Score         DG    S(hbond)    S(metal)    S(lipo)     H(rot)  DE(clash)    DE(int)     intcor
     23.11     -24.86       1.90        0.00     141.51       1.37       0.03       1.73       ----

> <Gold.Chemscore.Fitness>
23.1080

> <Gold.Chemscore.DG>
-24.8645

> <Gold.Chemscore.ZeroCoef>
-5.4800

> <Gold.Chemscore.Hbond>
1.8991

> <Gold.Chemscore.Metal>
0.0000

> <Gold.Chemscore.Lipo>
141.5113

> <Gold.Chemscore.Internal_Hbond>
0.0000

> <Gold.Chemscore.DEClash>
0.0256

> <Gold.Chemscore.DEInternal>
1.7308

> <Gold.Chemscore.Rot>
1.3731

> <Gold.Chemscore.Internal.Correction>
   9.000000E+99

> <Gold.Chemscore.Hbonds>
donor molecule, donor type, donor heavy atom, donor atom, acceptor molecule, acceptor atom, score
      P1  H  6896  6909       L1     1  0.98
      P1  H  6934  6947       L1    11  0.74

> <Gold.Chemscore.Hbond.Weighted>
-6.3429

> <Gold.Chemscore.Metal.Weighted>
-0.0000

> <Gold.Chemscore.Lipo.Weighted>
-16.5568

> <Gold.Chemscore.Internal_Hbond.Weighted>
0.0000

> <Gold.Chemscore.DEClash.Weighted>
0.0256

> <Gold.Chemscore.DEInternal.Weighted>
1.7308

> <Gold.Chemscore.Rot.Weighted>
3.5152

> <Gold.Chemscore.Internal.Correction.Weighted>
   9.000000E+99

> <Gold.Protein.RotatedTorsions>
[ 6907 6896 6895 6894 ] final   97.16 input  -60.11 | X-H torsion
[ 7974 7965 7964 7962 ] final  104.20 input  175.53 | X-H torsion
[ 8008 7997 7996 7995 ] final  103.89 input   59.86 | X-H torsion
[ 10167 10162 10161 10158 ] final  139.58 input  -65.29 | X-H torsion
[ 10718 10713 10712 10709 ] final  116.50 input   66.30 | X-H torsion
[ 10763 10752 10751 10750 ] final -170.52 input  -60.55 | X-H torsion
[ 11005 11000 10999 10996 ] final   94.14 input  -57.11 | X-H torsion

> <Gold.Protein.ActiveResidues>
 VAL166  LYS551  ARG553  GLY616  TRP617  ASP618  TYR619  PRO620  LYS621  CYS622 
 ASP623  PHE694  ASN695  SER759  ASP760  ASP761  ALA762  ILE779  LEU786  VAL792 
 PHE793  MET794  SER795  GLU796  ALA797  LYS798  CYS799  TRP800  GLU811  SER814 

> <Gold.Protein.RotatedAtoms>
  152.5427  134.0775  159.8220 H   0  0  0  0  0  0  0  0  0  0  0  0  # atno 6907 bound_to 6896
  151.0881  133.5330  159.2624 H   0  0  0  0  0  0  0  0  0  0  0  0  # atno 6908 bound_to 6896
  151.2131  135.0498  159.8973 H   0  0  0  0  0  0  0  0  0  0  0  0  # atno 6909 bound_to 6896
  145.3359  139.2474  143.3635 H   0  0  0  0  0  0  0  0  0  0  0  0  # atno 7974 bound_to 7965
  156.1524  140.3157  155.8670 H   0  0  0  0  0  0  0  0  0  0  0  0  # atno 8008 bound_to 7997
  155.3945  140.0495  157.3056 H   0  0  0  0  0  0  0  0  0  0  0  0  # atno 8009 bound_to 7997
  154.5070  140.2150  155.9242 H   0  0  0  0  0  0  0  0  0  0  0  0  # atno 8010 bound_to 7997
  139.5074  144.6286  151.5875 H   0  0  0  0  0  0  0  0  0  0  0  0  # atno 10167 bound_to 10162
  157.6156  131.1026  150.7482 H   0  0  0  0  0  0  0  0  0  0  0  0  # atno 10718 bound_to 10713
  154.6406  135.2898  155.0108 H   0  0  0  0  0  0  0  0  0  0  0  0  # atno 10763 bound_to 10752
  154.1236  135.6544  153.4912 H   0  0  0  0  0  0  0  0  0  0  0  0  # atno 10764 bound_to 10752
  153.0324  135.5293  154.7271 H   0  0  0  0  0  0  0  0  0  0  0  0  # atno 10765 bound_to 10752
  139.8802  134.8829  156.3820 H   0  0  0  0  0  0  0  0  0  0  0  0  # atno 11005 bound_to 11000
  146.3027  140.3947  142.8698 LP  0  0  0  0  0  0  0  0  0  0  0  0  # atno 17320 bound_to 7965
  144.8828  140.7422  143.5976 LP  0  0  0  0  0  0  0  0  0  0  0  0  # atno 17321 bound_to 7965
  140.6011  143.9608  150.6387 LP  0  0  0  0  0  0  0  0  0  0  0  0  # atno 17342 bound_to 10162
  140.2820  143.3383  152.1142 LP  0  0  0  0  0  0  0  0  0  0  0  0  # atno 17343 bound_to 10162
  156.7850  130.4871  149.5394 LP  0  0  0  0  0  0  0  0  0  0  0  0  # atno 17370 bound_to 10713
  156.1277  130.6156  151.0288 LP  0  0  0  0  0  0  0  0  0  0  0  0  # atno 17371 bound_to 10713
  140.9392  133.7526  156.0124 LP  0  0  0  0  0  0  0  0  0  0  0  0  # atno 17394 bound_to 11000
  140.8239  134.3256  157.5372 LP  0  0  0  0  0  0  0  0  0  0  0  0  # atno 17395 bound_to 11000

$$$$
