#       Name:                AV-unprocessed.smi:1064
#       Creating user name   scv26
#       Creation time:       Fri Mar 27 03:17:44 2020


#       File generated by GOLD software.
#

@<TRIPOS>MOLECULE
AV-unprocessed.smi:1064
    38    39     1
SMALL
NO_CHARGES


@<TRIPOS>ATOM
      1 ****        -1.4057   0.4006   1.4196 O.2            1 S1                 0.0000
      2 ****        -0.9621   1.1134   0.5179 C.2            1 S1                 0.0000
      3 ****        -0.3505   0.5960  -0.5617 N.am           1 S1                 0.0000
      4 ****        -0.1461  -0.8255  -0.8129 C.3            1 S1                 0.0000
      5 ****         1.0257  -1.3833   0.0154 C.3            1 S1                 0.0000
      6 ****         1.3195  -2.8331  -0.2338 C.2            1 S1                 0.0000
      7 ****         0.4864  -3.7247  -0.7859 N.pl3          1 S1                 1.0000
      8 ****         1.0744  -4.9582  -0.8445 C.2            1 S1                 0.0000
      9 ****         2.3199  -4.8187  -0.2914 C.2            1 S1                 0.0000
     10 ****         2.4392  -3.5054   0.0859 N.pl3          1 S1                 0.0000
     11 ****         3.6080  -2.8913   0.7244 C.3            1 S1                 0.0000
     12 ****         4.1924  -2.0323  -0.1103 F              1 S1                 0.0000
     13 ****         3.2560  -2.2755   1.8532 F              1 S1                 0.0000
     14 ****        -1.0280   2.4690   0.5403 N.am           1 S1                 0.0000
     15 ****        -0.6927   3.3701  -0.5750 C.3            1 S1                 0.0000
     16 ****        -1.9840   3.7591  -1.3140 C.3            1 S1                 0.0000
     17 ****        -3.1111   4.6749  -0.2169 S.3            1 S1                 0.0000
     18 ****        -3.1149   3.5587   1.2211 C.3            1 S1                 0.0000
     19 ****        -1.6815   3.1895   1.6395 C.3            1 S1                 0.0000
     20 ****        -0.0058   1.2384  -1.2603 H              1 S1                 0.0000
     21 ****        -1.0667  -1.3723  -0.6014 H              1 S1                 0.0000
     22 ****         0.0566  -0.9519  -1.8768 H              1 S1                 0.0000
     23 ****         1.9374  -0.8274  -0.2034 H              1 S1                 0.0000
     24 ****         0.8290  -1.2895   1.0838 H              1 S1                 0.0000
     25 ****         0.5749  -5.8201  -1.2623 H              1 S1                 0.0000
     26 ****         3.1090  -5.5406  -0.1384 H              1 S1                 0.0000
     27 ****         4.3342  -3.6650   0.9760 H              1 S1                 0.0000
     28 ****        -0.2007   4.2657  -0.1930 H              1 S1                 0.0000
     29 ****         0.0217   2.9381  -1.2758 H              1 S1                 0.0000
     30 ****        -1.7548   4.3834  -2.1778 H              1 S1                 0.0000
     31 ****        -2.4931   2.8698  -1.6875 H              1 S1                 0.0000
     32 ****        -3.6370   4.0489   2.0429 H              1 S1                 0.0000
     33 ****        -3.6818   2.6605   0.9732 H              1 S1                 0.0000
     34 ****        -1.7025   2.6007   2.5577 H              1 S1                 0.0000
     35 ****        -1.1172   4.0895   1.8880 H              1 S1                 0.0000
     36 ****        -0.4470  -3.5119  -1.1147 H              1 S1                 0.0000
     37 ****        -1.3158  -0.5936   1.3610 LP             1 S1                 0.0000
     38 ****        -1.8557   0.8163   2.2100 LP             1 S1                 0.0000
@<TRIPOS>BOND
    1    1    2 2     
    2    2    3 am    
    3    2   14 am    
    4    3    4 1     
    5    3   20 1     
    6    4    5 1     
    7    4   21 1     
    8    4   22 1     
    9    5    6 1     
   10    5   23 1     
   11    5   24 1     
   12    6   10 1     
   13    6    7 2     
   14    7    8 1     
   15    7   36 1     
   16    8    9 2     
   17    8   25 1     
   18    9   10 1     
   19    9   26 1     
   20   10   11 1     
   21   11   12 1     
   22   11   13 1     
   23   11   27 1     
   24   14   19 1     
   25   14   15 1     
   26   15   16 1     
   27   15   28 1     
   28   15   29 1     
   29   16   17 1     
   30   16   30 1     
   31   16   31 1     
   32   17   18 1     
   33   18   19 1     
   34   18   32 1     
   35   18   33 1     
   36   19   34 1     
   37   19   35 1     
   38    1   37 1     
   39    1   38 1     
@<TRIPOS>SUBSTRUCTURE
      1 S1             1
@<TRIPOS>SET
LONE_PAIRS      STATIC     ATOMS    <user>   **** ""
2 37 38
DONOR_HYDROGENS      STATIC     ATOMS    <user>   **** ""
2 20 36
ATOM$BLUE        STATIC     ATOMS    COLORGROUP SYSTEM
2 37 38
ATOM$RED        STATIC     ATOMS    COLORGROUP SYSTEM
2 20 36
