AV-unprocessed.smi:529|AV-procd|sdf|2839|dock1
  -GOLD-   2262023333D 1   1.00000     0.00000
 Structure written by MMmdl.
 31 32  0  0  0  0  0  0  0  0  2 V2000
  145.4987  141.1842  154.7022 N   0  0  0  0  0  0  0  0  0  0  0  0
  146.6380  140.5665  154.3810 C   0  0  0  0  0  0  0  0  0  0  0  0
  146.8167  139.4491  153.0615 S   0  0  0  0  0  0  0  0  0  0  0  0
  148.4932  139.2290  153.4624 C   0  0  0  0  0  0  0  0  0  0  0  0
  148.8524  139.9839  154.5477 C   0  0  0  0  0  0  0  0  0  0  0  0
  147.7948  140.7360  155.0554 N   0  3  0  0  0  0  0  0  0  0  0  0
  147.9323  141.6218  156.2265 C   0  0  0  0  0  0  0  0  0  0  0  0
  149.3310  141.5321  156.8429 C   0  0  0  0  0  0  0  0  0  0  0  0
  149.7516  140.4550  157.2650 O   0  0  0  0  0  0  0  0  0  0  0  0
  150.0334  142.6739  156.8986 N   0  0  0  0  0  0  0  0  0  0  0  0
  151.3676  142.8107  157.4763 C   0  0  0  0  0  0  0  0  0  0  0  0
  151.3771  142.3501  158.9463 C   0  0  0  0  0  0  0  0  0  0  0  0
  152.1185  143.4383  159.7241 C   0  0  0  0  0  0  0  0  0  0  0  0
  151.8263  144.7190  158.9486 C   0  0  0  0  0  0  0  0  0  0  0  0
  151.8346  144.2802  157.4835 C   0  0  0  0  0  0  0  0  0  0  0  0
  145.4317  141.8248  155.4798 H   0  0  0  0  0  0  0  0  0  0  0  0
  149.1083  138.5588  152.8800 H   0  0  0  0  0  0  0  0  0  0  0  0
  149.8159  140.0535  155.0325 H   0  0  0  0  0  0  0  0  0  0  0  0
  147.7491  142.6481  155.9056 H   0  0  0  0  0  0  0  0  0  0  0  0
  147.1555  141.3765  156.9528 H   0  0  0  0  0  0  0  0  0  0  0  0
  149.6160  143.5104  156.5168 H   0  0  0  0  0  0  0  0  0  0  0  0
  152.0778  142.2085  156.9065 H   0  0  0  0  0  0  0  0  0  0  0  0
  150.3594  142.2725  159.3324 H   0  0  0  0  0  0  0  0  0  0  0  0
  151.8425  141.3716  159.0693 H   0  0  0  0  0  0  0  0  0  0  0  0
  151.8057  143.4966  160.7670 H   0  0  0  0  0  0  0  0  0  0  0  0
  153.1907  143.2370  159.7080 H   0  0  0  0  0  0  0  0  0  0  0  0
  150.8369  145.0925  159.2160 H   0  0  0  0  0  0  0  0  0  0  0  0
  152.5485  145.5095  159.1547 H   0  0  0  0  0  0  0  0  0  0  0  0
  152.8537  144.3327  157.0981 H   0  0  0  0  0  0  0  0  0  0  0  0
  151.2246  144.9347  156.8592 H   0  0  0  0  0  0  0  0  0  0  0  0
  144.6360  141.0200  154.2031 H   0  0  0  0  0  0  0  0  0  0  0  0
  1  2  1  0  0  0  0
  1 16  1  0  0  0  0
  1 31  1  0  0  0  0
  2  6  2  0  0  0  0
  2  3  1  0  0  0  0
  3  4  1  0  0  0  0
  4  5  2  0  0  0  0
  4 17  1  0  0  0  0
  5  6  1  0  0  0  0
  5 18  1  0  0  0  0
  6  7  1  0  0  0  0
  7  8  1  0  0  0  0
  7 19  1  0  0  0  0
  7 20  1  0  0  0  0
  8  9  2  0  0  0  0
  8 10  1  0  0  0  0
 10 11  1  0  0  0  0
 10 21  1  0  0  0  0
 11 15  1  0  0  0  0
 11 12  1  0  0  0  0
 11 22  1  0  0  0  0
 12 13  1  0  0  0  0
 12 23  1  0  0  0  0
 12 24  1  0  0  0  0
 13 14  1  0  0  0  0
 13 25  1  0  0  0  0
 13 26  1  0  0  0  0
 14 15  1  0  0  0  0
 14 27  1  0  0  0  0
 14 28  1  0  0  0  0
 15 29  1  0  0  0  0
 15 30  1  0  0  0  0
M  CHG  1   6   1
M  END
> <s_m_source_file>
AV-unprocessed.smi

> <i_m_source_file_index>
529

> <i_lp_mmshare_version>
43012

> <i_f3d_flags>
0

> <s_epik_input>
W0hdL049YzFcc1tjSF1bY0hdbjFbQ0gyXUMoPU8pW05IXVtDSF0yW0NIMl1bQ0gyXVtDSDJdW0NIMl0y

> <s_epik_cmdline>
J2VwaWtfcHl0aG9uJywgJy1waCcsICc3LjAnLCAnLXRuJywgJzgnLCAnLW1hJywgJzIwMCcsICctbWV0YWxfYmluZGluZycsICctaW1hZScsICc8aW5maWxlLm1hZT4nLCAnLW9tYWUnLCAnPG91dGZpbGUubWFlPic=

> <r_lp_tautomer_probability>
1

> <r_epik_Ionization_Penalty>
0.0151346

> <r_epik_Ionization_Penalty_Charging>
0

> <r_epik_Ionization_Penalty_Neutral>
0.0151346

> <r_epik_State_Penalty>
0.0235202

> <r_epik_Charging_Adjusted_Penalty>
0.0235202

> <i_epik_Tot_Q>
1

> <i_epik_Tot_abs_Q>
1

> <r_epik_Metal_State_Penalty>
0.0235202

> <b_epik_Metal_Only>
0

> <s_lp_Force_Field>
OPLS_2005

> <r_lp_Energy>
21.8229

> <b_lp_Chiralities_Consistent>
1

> <s_lp_Variant>
AV-unprocessed.smi:529-1

> <Gold.Version>
5.8.1

> <Gold.Id.Protein>
6NUR|6NUR_protein|mol2

> <Gold.PLP.Fitness>
40.9728

> <Gold.PLP.PLP>
-28.0040

> <Gold.PLP.part.hbond>
-2.0000

> <Gold.PLP.part.metal>
0.0000

> <Gold.PLP.part.buried>
-0.5665

> <Gold.PLP.part.nonpolar>
-26.0510

> <Gold.PLP.part.repulsive>
0.0489

> <Gold.PLP.ligand.clash>
0.0000

> <Gold.PLP.ligand.torsion>
0.0307

> <Gold.PLP.Chemscore.Hbond>
3.0000

> <Gold.PLP.Chemscore.CHOScore>
1.3411

> <Gold.PLP.Chemscore.Metal>
0.0000

> <Gold.Chemscore.Hbonds>
donor molecule, donor type, donor heavy atom, donor atom, acceptor molecule, acceptor atom, score
      L1  H     1    31       P1 10175  2.00
      L1  H    10    21       P1  8028  1.00
      L1  C     4    17       P1  7948  1.00
      L1  C     4    17       P1  7957  0.36

> <Gold.PLP.Chemscore.Internal.Correction>
0.0068

> <Gold.Rescore>
     Score         DG    S(hbond)    S(metal)    S(lipo)     H(rot)  DE(clash)    DE(int)     intcor
     14.39     -17.20       1.96        0.00      79.49       1.61       0.26       2.54       ----

> <Gold.Chemscore.Fitness>
14.3933

> <Gold.Chemscore.DG>
-17.1964

> <Gold.Chemscore.ZeroCoef>
-5.4800

> <Gold.Chemscore.Hbond>
1.9567

> <Gold.Chemscore.Metal>
0.0000

> <Gold.Chemscore.Lipo>
79.4867

> <Gold.Chemscore.Internal_Hbond>
0.0000

> <Gold.Chemscore.DEClash>
0.2623

> <Gold.Chemscore.DEInternal>
2.5408

> <Gold.Chemscore.Rot>
1.6089

> <Gold.Chemscore.Internal.Correction>
   9.000000E+99

> <Gold.Chemscore.Hbonds>
donor molecule, donor type, donor heavy atom, donor atom, acceptor molecule, acceptor atom, score
      L1  H     1    31       P1 10175  0.78
      L1  H    10    21       P1  8028  1.00

> <Gold.Chemscore.Hbond.Weighted>
-6.5352

> <Gold.Chemscore.Metal.Weighted>
-0.0000

> <Gold.Chemscore.Lipo.Weighted>
-9.2999

> <Gold.Chemscore.Internal_Hbond.Weighted>
0.0000

> <Gold.Chemscore.DEClash.Weighted>
0.2623

> <Gold.Chemscore.DEInternal.Weighted>
2.5408

> <Gold.Chemscore.Rot.Weighted>
4.1188

> <Gold.Chemscore.Internal.Correction.Weighted>
   9.000000E+99

> <Gold.Protein.RotatedTorsions>
[ 6907 6896 6895 6894 ] final  -20.86 input  -60.11 | X-H torsion
[ 7974 7965 7964 7962 ] final -136.42 input  175.53 | X-H torsion
[ 8008 7997 7996 7995 ] final  165.04 input   59.86 | X-H torsion
[ 10167 10162 10161 10158 ] final  -15.60 input  -65.29 | X-H torsion
[ 10718 10713 10712 10709 ] final  138.16 input   66.30 | X-H torsion
[ 10763 10752 10751 10750 ] final -155.40 input  -60.55 | X-H torsion
[ 11005 11000 10999 10996 ] final  128.74 input  -57.11 | X-H torsion

> <Gold.Protein.ActiveResidues>
 VAL166  LYS551  ARG553  GLY616  TRP617  ASP618  TYR619  PRO620  LYS621  CYS622 
 ASP623  PHE694  ASN695  SER759  ASP760  ASP761  ALA762  ILE779  LEU786  VAL792 
 PHE793  MET794  SER795  GLU796  ALA797  LYS798  CYS799  TRP800  GLU811  SER814 

> <Gold.Protein.RotatedAtoms>
  151.2418  135.0591  159.9027 H   0  0  0  0  0  0  0  0  0  0  0  0  # atno 6907 bound_to 6896
  152.5392  134.0426  159.8084 H   0  0  0  0  0  0  0  0  0  0  0  0  # atno 6908 bound_to 6896
  151.0621  133.5487  159.2665 H   0  0  0  0  0  0  0  0  0  0  0  0  # atno 6909 bound_to 6896
  144.8928  140.6666  143.5134 H   0  0  0  0  0  0  0  0  0  0  0  0  # atno 7974 bound_to 7965
  156.1832  140.1681  156.8234 H   0  0  0  0  0  0  0  0  0  0  0  0  # atno 8008 bound_to 7997
  154.5384  140.0742  156.8501 H   0  0  0  0  0  0  0  0  0  0  0  0  # atno 8009 bound_to 7997
  155.3264  140.3376  155.4242 H   0  0  0  0  0  0  0  0  0  0  0  0  # atno 8010 bound_to 7997
  140.7221  143.5202  150.9643 H   0  0  0  0  0  0  0  0  0  0  0  0  # atno 10167 bound_to 10162
  157.4284  131.1046  151.0277 H   0  0  0  0  0  0  0  0  0  0  0  0  # atno 10718 bound_to 10713
  154.7789  135.3168  154.8032 H   0  0  0  0  0  0  0  0  0  0  0  0  # atno 10763 bound_to 10752
  153.8748  135.6841  153.4776 H   0  0  0  0  0  0  0  0  0  0  0  0  # atno 10764 bound_to 10752
  153.1420  135.4735  154.9447 H   0  0  0  0  0  0  0  0  0  0  0  0  # atno 10765 bound_to 10752
  139.9577  134.9609  156.9046 H   0  0  0  0  0  0  0  0  0  0  0  0  # atno 11005 bound_to 11000
  145.3752  139.1649  143.4310 LP  0  0  0  0  0  0  0  0  0  0  0  0  # atno 17320 bound_to 7965
  146.3064  140.3828  142.8686 LP  0  0  0  0  0  0  0  0  0  0  0  0  # atno 17321 bound_to 7965
  139.8919  143.6943  152.3144 LP  0  0  0  0  0  0  0  0  0  0  0  0  # atno 17342 bound_to 10162
  139.7261  144.7592  151.0876 LP  0  0  0  0  0  0  0  0  0  0  0  0  # atno 17343 bound_to 10162
  157.1183  130.6051  149.5498 LP  0  0  0  0  0  0  0  0  0  0  0  0  # atno 17370 bound_to 10713
  155.9904  130.4955  150.7257 LP  0  0  0  0  0  0  0  0  0  0  0  0  # atno 17371 bound_to 10713
  140.5571  134.0571  155.7387 LP  0  0  0  0  0  0  0  0  0  0  0  0  # atno 17394 bound_to 11000
  141.1251  133.9397  157.2652 LP  0  0  0  0  0  0  0  0  0  0  0  0  # atno 17395 bound_to 11000

$$$$
