AV-unprocessed.smi:290|AV-procd|sdf|2237|dock5
  -GOLD-   2262022103D 1   1.00000     0.00000
 Structure written by MMmdl.
 59 62  0  0  0  0  0  0  0  0  2 V2000
  153.5143  143.7073  158.8862 C   0  0  0  0  0  0  0  0  0  0  0  0
  152.1160  143.8915  158.2742 C   0  0  2  0  0  0  0  0  0  0  0  0
  151.5292  145.1135  158.7204 O   0  0  0  0  0  0  0  0  0  0  0  0
  150.2983  144.8514  159.3782 C   0  0  0  0  0  0  0  0  0  0  0  0
  149.7992  143.5636  158.7369 C   0  0  0  0  0  0  0  0  0  0  0  0
  151.0850  142.7703  158.5493 C   0  0  2  0  0  0  0  0  0  0  0  0
  151.3763  142.1036  159.7675 O   0  0  0  0  0  0  0  0  0  0  0  0
  151.0148  141.7180  157.4169 C   0  0  0  0  0  0  0  0  0  0  0  0
  150.2014  140.5596  157.7541 N   0  0  0  0  0  0  0  0  0  0  0  0
  148.8584  140.3931  157.5001 C   0  0  0  0  0  0  0  0  0  0  0  0
  148.3504  139.2619  157.9077 N   0  0  0  0  0  0  0  0  0  0  0  0
  149.4264  138.5945  158.4801 C   0  0  0  0  0  0  0  0  0  0  0  0
  149.5918  137.3320  159.1167 C   0  0  0  0  0  0  0  0  0  0  0  0
  148.6076  136.4283  159.3120 N   0  0  0  0  0  0  0  0  0  0  0  0
  148.8237  135.1133  158.7169 C   0  0  0  0  0  0  0  0  0  0  0  0
  148.2891  134.0952  159.7255 C   0  0  0  0  0  0  0  0  0  0  0  0
  148.4808  134.8158  161.0639 C   0  0  2  0  0  0  0  0  0  0  0  0
  147.7140  134.2591  162.2177 N   0  3  1  0  0  0  0  0  0  0  0  0
  147.6999  135.1708  163.3903 C   0  0  0  0  0  0  0  0  0  0  0  0
  146.3415  133.8302  161.8284 C   0  0  0  0  0  0  0  0  0  0  0  0
  145.4454  133.4867  163.0328 C   0  0  0  0  0  0  0  0  0  0  0  0
  144.1543  133.1192  162.5970 O   0  0  0  0  0  0  0  0  0  0  0  0
  148.1387  136.2761  160.6868 C   0  0  2  0  0  0  0  0  0  0  0  0
  146.6378  136.6174  160.7527 C   0  0  0  0  0  0  0  0  0  0  0  0
  150.8274  136.9996  159.5616 N   0  0  0  0  0  0  0  0  0  0  0  0
  151.8461  137.8502  159.4010 C   0  0  0  0  0  0  0  0  0  0  0  0
  151.8431  139.0590  158.8342 N   0  0  0  0  0  0  0  0  0  0  0  0
  150.6000  139.3939  158.3844 C   0  0  0  0  0  0  0  0  0  0  0  0
  149.5404  134.7568  161.3165 H   0  0  0  0  0  0  0  0  0  0  0  0
  148.6732  136.9609  161.3476 H   0  0  0  0  0  0  0  0  0  0  0  0
  153.9654  142.7706  158.5574 H   0  0  0  0  0  0  0  0  0  0  0  0
  153.4799  143.7025  159.9761 H   0  0  0  0  0  0  0  0  0  0  0  0
  154.1773  144.5185  158.5852 H   0  0  0  0  0  0  0  0  0  0  0  0
  152.2336  144.0053  157.1959 H   0  0  0  0  0  0  0  0  0  0  0  0
  150.4858  144.7051  160.4429 H   0  0  0  0  0  0  0  0  0  0  0  0
  149.5983  145.6793  159.2649 H   0  0  0  0  0  0  0  0  0  0  0  0
  149.0470  143.0495  159.3368 H   0  0  0  0  0  0  0  0  0  0  0  0
  149.3541  143.7955  157.7682 H   0  0  0  0  0  0  0  0  0  0  0  0
  151.0067  142.6027  160.4796 H   0  0  0  0  0  0  0  0  0  0  0  0
  150.5984  142.1656  156.5136 H   0  0  0  0  0  0  0  0  0  0  0  0
  152.0167  141.3762  157.1533 H   0  0  0  0  0  0  0  0  0  0  0  0
  148.2620  141.1453  157.0043 H   0  0  0  0  0  0  0  0  0  0  0  0
  148.3048  135.0338  157.7613 H   0  0  0  0  0  0  0  0  0  0  0  0
  149.8840  134.9367  158.5304 H   0  0  0  0  0  0  0  0  0  0  0  0
  147.2310  133.9074  159.5382 H   0  0  0  0  0  0  0  0  0  0  0  0
  148.8202  133.1447  159.6654 H   0  0  0  0  0  0  0  0  0  0  0  0
  147.2444  136.1279  163.1330 H   0  0  0  0  0  0  0  0  0  0  0  0
  148.7068  135.3604  163.7609 H   0  0  0  0  0  0  0  0  0  0  0  0
  147.1465  134.7487  164.2272 H   0  0  0  0  0  0  0  0  0  0  0  0
  145.8772  134.6153  161.2299 H   0  0  0  0  0  0  0  0  0  0  0  0
  146.3844  132.9519  161.1849 H   0  0  0  0  0  0  0  0  0  0  0  0
  145.8624  132.6953  163.6539 H   0  0  0  0  0  0  0  0  0  0  0  0
  145.3475  134.3628  163.6743 H   0  0  0  0  0  0  0  0  0  0  0  0
  143.8925  133.7039  161.9015 H   0  0  0  0  0  0  0  0  0  0  0  0
  146.2577  136.5685  161.7718 H   0  0  0  0  0  0  0  0  0  0  0  0
  146.0398  135.9424  160.1397 H   0  0  0  0  0  0  0  0  0  0  0  0
  146.4577  137.6314  160.3943 H   0  0  0  0  0  0  0  0  0  0  0  0
  152.7995  137.5159  159.7830 H   0  0  0  0  0  0  0  0  0  0  0  0
  148.2046  133.4235  162.5043 H   0  0  0  0  0  0  0  0  0  0  0  0
  1  2  1  0  0  0  0
  1 31  1  0  0  0  0
  1 32  1  0  0  0  0
  1 33  1  0  0  0  0
  2  6  1  0  0  0  0
  2  3  1  0  0  0  0
  2 34  1  0  0  0  0
  3  4  1  0  0  0  0
  4  5  1  0  0  0  0
  4 35  1  0  0  0  0
  4 36  1  0  0  0  0
  5  6  1  0  0  0  0
  5 37  1  0  0  0  0
  5 38  1  0  0  0  0
  6  7  1  0  0  0  0
  6  8  1  0  0  0  0
  7 39  1  0  0  0  0
  8  9  1  0  0  0  0
  8 40  1  0  0  0  0
  8 41  1  0  0  0  0
  9 28  1  0  0  0  0
  9 10  1  0  0  0  0
 10 11  2  0  0  0  0
 10 42  1  0  0  0  0
 11 12  1  0  0  0  0
 12 28  2  0  0  0  0
 12 13  1  0  0  0  0
 13 14  1  0  0  0  0
 13 25  2  0  0  0  0
 14 23  1  0  0  0  0
 14 15  1  0  0  0  0
 15 16  1  0  0  0  0
 15 43  1  0  0  0  0
 15 44  1  0  0  0  0
 16 17  1  0  0  0  0
 16 45  1  0  0  0  0
 16 46  1  0  0  0  0
 17 29  1  0  0  0  0
 17 18  1  0  0  0  0
 17 23  1  0  0  0  0
 18 19  1  0  0  0  0
 18 20  1  0  0  0  0
 18 59  1  0  0  0  0
 19 47  1  0  0  0  0
 19 48  1  0  0  0  0
 19 49  1  0  0  0  0
 20 21  1  0  0  0  0
 20 50  1  0  0  0  0
 20 51  1  0  0  0  0
 21 22  1  0  0  0  0
 21 52  1  0  0  0  0
 21 53  1  0  0  0  0
 22 54  1  0  0  0  0
 23 30  1  0  0  0  0
 23 24  1  0  0  0  0
 24 55  1  0  0  0  0
 24 56  1  0  0  0  0
 24 57  1  0  0  0  0
 25 26  1  0  0  0  0
 26 27  2  0  0  0  0
 26 58  1  0  0  0  0
 27 28  1  0  0  0  0
M  CHG  1  18   1
M  END
> <s_m_source_file>
AV-unprocessed.smi

> <i_m_source_file_index>
290

> <i_lp_mmshare_version>
43012

> <i_f3d_flags>
0

> <s_epik_input>
W0NIMl0xW0NIMl1PW0NAQEhdKFtDSDNdKVtDQEBdMShbT0hdKVtDSDJdbihbY0hdbjIpYyhjMjMpbltjSF1uYzNONFtDSDJdW0NIMl1bQ0BIXShbQ0BIXTRbQ0gzXSlOKFtDSDNdKVtDSDJdW0NIMl1bT0hd

> <s_epik_cmdline>
J2VwaWtfcHl0aG9uJywgJy1waCcsICc3LjAnLCAnLXRuJywgJzgnLCAnLW1hJywgJzIwMCcsICctbWV0YWxfYmluZGluZycsICctaW1hZScsICc8aW5maWxlLm1hZT4nLCAnLW9tYWUnLCAnPG91dGZpbGUubWFlPic=

> <r_lp_tautomer_probability>
1

> <r_epik_Ionization_Penalty>
0.0036983

> <r_epik_Ionization_Penalty_Charging>
0.0032725

> <r_epik_Ionization_Penalty_Neutral>
0.000425798

> <r_epik_State_Penalty>
-0

> <r_epik_Charging_Adjusted_Penalty>
0.0032725

> <i_epik_Tot_Q>
1

> <i_epik_Tot_abs_Q>
1

> <r_epik_Metal_State_Penalty>
-0

> <b_epik_Metal_Only>
0

> <s_lp_Force_Field>
OPLS_2005

> <r_lp_Energy>
65.7953

> <b_lp_Chiralities_Consistent>
1

> <s_lp_Variant>
AV-unprocessed.smi:290-23

> <Gold.Version>
5.8.1

> <Gold.Id.Protein>
6NUR|6NUR_protein|mol2

> <Gold.PLP.Fitness>
43.4999

> <Gold.PLP.PLP>
-42.0991

> <Gold.PLP.part.hbond>
-2.6658

> <Gold.PLP.part.metal>
0.0000

> <Gold.PLP.part.buried>
-9.6104

> <Gold.PLP.part.nonpolar>
-29.7814

> <Gold.PLP.part.repulsive>
0.1687

> <Gold.PLP.ligand.clash>
0.0000

> <Gold.PLP.ligand.torsion>
0.9686

> <Gold.PLP.Chemscore.Hbond>
1.0000

> <Gold.PLP.Chemscore.CHOScore>
0.0000

> <Gold.PLP.Chemscore.Metal>
0.0000

> <Gold.Chemscore.Hbonds>
donor molecule, donor type, donor heavy atom, donor atom, acceptor molecule, acceptor atom, score
      P1  H  6896  6909       L1    25  1.00

> <Gold.PLP.Chemscore.Internal.Correction>
0.3381

> <Gold.Rescore>
     Score         DG    S(hbond)    S(metal)    S(lipo)     H(rot)  DE(clash)    DE(int)     intcor
      8.80     -10.73       0.81        0.00     102.03       3.67       0.01       1.92       ----

> <Gold.Chemscore.Fitness>
8.8029

> <Gold.Chemscore.DG>
-10.7338

> <Gold.Chemscore.ZeroCoef>
-5.4800

> <Gold.Chemscore.Hbond>
0.8086

> <Gold.Chemscore.Metal>
0.0000

> <Gold.Chemscore.Lipo>
102.0311

> <Gold.Chemscore.Internal_Hbond>
0.0000

> <Gold.Chemscore.DEClash>
0.0126

> <Gold.Chemscore.DEInternal>
1.9184

> <Gold.Chemscore.Rot>
3.6658

> <Gold.Chemscore.Internal.Correction>
   9.000000E+99

> <Gold.Chemscore.Hbonds>
donor molecule, donor type, donor heavy atom, donor atom, acceptor molecule, acceptor atom, score
      P1  H  6896  6909       L1    25  0.90

> <Gold.Chemscore.Hbond.Weighted>
-2.7006

> <Gold.Chemscore.Metal.Weighted>
-0.0000

> <Gold.Chemscore.Lipo.Weighted>
-11.9376

> <Gold.Chemscore.Internal_Hbond.Weighted>
0.0000

> <Gold.Chemscore.DEClash.Weighted>
0.0126

> <Gold.Chemscore.DEInternal.Weighted>
1.9184

> <Gold.Chemscore.Rot.Weighted>
9.3844

> <Gold.Chemscore.Internal.Correction.Weighted>
   9.000000E+99

> <Gold.Protein.RotatedTorsions>
[ 6907 6896 6895 6894 ] final   92.24 input  -60.11 | X-H torsion
[ 7974 7965 7964 7962 ] final  -11.08 input  175.53 | X-H torsion
[ 8008 7997 7996 7995 ] final    1.88 input   59.86 | X-H torsion
[ 10167 10162 10161 10158 ] final   37.34 input  -65.29 | X-H torsion
[ 10718 10713 10712 10709 ] final -102.77 input   66.30 | X-H torsion
[ 10763 10752 10751 10750 ] final -118.86 input  -60.55 | X-H torsion
[ 11005 11000 10999 10996 ] final  106.36 input  -57.11 | X-H torsion

> <Gold.Protein.ActiveResidues>
 VAL166  LYS551  ARG553  GLY616  TRP617  ASP618  TYR619  PRO620  LYS621  CYS622 
 ASP623  PHE694  ASN695  SER759  ASP760  ASP761  ALA762  ILE779  LEU786  VAL792 
 PHE793  MET794  SER795  GLU796  ALA797  LYS798  CYS799  TRP800  GLU811  SER814 

> <Gold.Protein.RotatedAtoms>
  152.5452  134.1532  159.8526 H   0  0  0  0  0  0  0  0  0  0  0  0  # atno 6907 bound_to 6896
  151.1557  133.4871  159.2602 H   0  0  0  0  0  0  0  0  0  0  0  0  # atno 6908 bound_to 6896
  151.1425  135.0198  159.8687 H   0  0  0  0  0  0  0  0  0  0  0  0  # atno 6909 bound_to 6896
  146.2200  140.2858  142.8365 H   0  0  0  0  0  0  0  0  0  0  0  0  # atno 7974 bound_to 7965
  154.6850  140.2641  155.6869 H   0  0  0  0  0  0  0  0  0  0  0  0  # atno 8008 bound_to 7997
  156.2711  140.2802  156.1331 H   0  0  0  0  0  0  0  0  0  0  0  0  # atno 8009 bound_to 7997
  155.0977  140.0374  157.2678 H   0  0  0  0  0  0  0  0  0  0  0  0  # atno 8010 bound_to 7997
  140.4042  144.1682  150.6135 H   0  0  0  0  0  0  0  0  0  0  0  0  # atno 10167 bound_to 10162
  156.0241  130.5436  150.7156 H   0  0  0  0  0  0  0  0  0  0  0  0  # atno 10718 bound_to 10713
  154.8600  135.4259  154.2206 H   0  0  0  0  0  0  0  0  0  0  0  0  # atno 10763 bound_to 10752
  153.3212  135.6982  153.7035 H   0  0  0  0  0  0  0  0  0  0  0  0  # atno 10764 bound_to 10752
  153.6089  135.3523  155.2945 H   0  0  0  0  0  0  0  0  0  0  0  0  # atno 10765 bound_to 10752
  139.8813  134.9367  156.5655 H   0  0  0  0  0  0  0  0  0  0  0  0  # atno 11005 bound_to 11000
  144.9163  140.7817  143.5776 LP  0  0  0  0  0  0  0  0  0  0  0  0  # atno 17320 bound_to 7965
  145.2791  139.1925  143.4800 LP  0  0  0  0  0  0  0  0  0  0  0  0  # atno 17321 bound_to 7965
  140.4708  143.2414  151.9092 LP  0  0  0  0  0  0  0  0  0  0  0  0  # atno 17342 bound_to 10162
  139.4784  144.5372  151.8581 LP  0  0  0  0  0  0  0  0  0  0  0  0  # atno 17343 bound_to 10162
  157.4784  131.0900  151.0564 LP  0  0  0  0  0  0  0  0  0  0  0  0  # atno 17370 bound_to 10713
  157.1004  130.5979  149.5459 LP  0  0  0  0  0  0  0  0  0  0  0  0  # atno 17371 bound_to 10713
  140.8137  133.8408  155.8833 LP  0  0  0  0  0  0  0  0  0  0  0  0  # atno 17394 bound_to 11000
  140.9482  134.1812  157.4747 LP  0  0  0  0  0  0  0  0  0  0  0  0  # atno 17395 bound_to 11000

$$$$
