AV-unprocessed.smi:672|AV-procd|sdf|3295|dock1
  -GOLD-   22720 0253D 1   1.00000     0.00000
 Structure written by MMmdl.
 35 36  0  0  0  0  0  0  0  0  2 V2000
  150.9197  141.8639  156.0075 C   0  0  0  0  0  0  0  0  0  0  0  0
  151.7768  140.8275  156.7418 C   0  0  0  0  0  0  0  0  0  0  0  0
  151.4400  139.4268  156.3532 C   0  0  0  0  0  0  0  0  0  0  0  0
  150.8961  138.5494  157.2007 N   0  0  0  0  0  0  0  0  0  0  0  0
  150.7023  137.3073  156.6142 N   0  0  0  0  0  0  0  0  0  0  0  0
  151.1284  137.2536  155.3442 C   0  0  0  0  0  0  0  0  0  0  0  0
  151.0372  136.1410  154.5973 N   0  5  0  0  0  0  0  0  0  0  0  0
  150.1843  135.1550  154.9576 C   0  0  0  0  0  0  0  0  0  0  0  0
  150.2300  134.4933  155.9974 O   0  0  0  0  0  0  0  0  0  0  0  0
  149.2215  134.9173  154.0554 N   0  0  0  0  0  0  0  0  0  0  0  0
  148.1592  133.9212  154.1790 C   0  0  2  0  0  0  0  0  0  0  0  0
  148.2491  132.8473  153.0752 C   0  0  0  0  0  0  0  0  0  0  0  0
  147.0619  133.0982  152.1457 C   0  0  0  0  0  0  0  0  0  0  0  0
  145.9881  133.6796  153.0615 C   0  0  2  0  0  0  0  0  0  0  0  0
  144.6959  134.5656  152.1425 S   0  0  0  0  0  0  0  0  0  0  0  0
  143.9966  133.2019  151.1755 C   0  0  0  0  0  0  0  0  0  0  0  0
  146.7739  134.5771  154.0232 C   0  0  0  0  0  0  0  0  0  0  0  0
  151.7913  138.7790  154.7598 S   0  0  0  0  0  0  0  0  0  0  0  0
  151.1875  142.8758  156.3115 H   0  0  0  0  0  0  0  0  0  0  0  0
  149.8604  141.7204  156.2227 H   0  0  0  0  0  0  0  0  0  0  0  0
  151.0546  141.7927  154.9279 H   0  0  0  0  0  0  0  0  0  0  0  0
  152.8331  141.0063  156.5377 H   0  0  0  0  0  0  0  0  0  0  0  0
  151.6451  140.9317  157.8191 H   0  0  0  0  0  0  0  0  0  0  0  0
  149.2243  135.4798  153.2174 H   0  0  0  0  0  0  0  0  0  0  0  0
  148.2244  133.4423  155.1577 H   0  0  0  0  0  0  0  0  0  0  0  0
  149.1964  132.8553  152.5346 H   0  0  0  0  0  0  0  0  0  0  0  0
  148.1498  131.8602  153.5285 H   0  0  0  0  0  0  0  0  0  0  0  0
  147.3438  133.8299  151.3869 H   0  0  0  0  0  0  0  0  0  0  0  0
  146.7335  132.1940  151.6324 H   0  0  0  0  0  0  0  0  0  0  0  0
  145.5274  132.8651  153.6222 H   0  0  0  0  0  0  0  0  0  0  0  0
  143.2148  133.5749  150.5140 H   0  0  0  0  0  0  0  0  0  0  0  0
  143.5602  132.4496  151.8323 H   0  0  0  0  0  0  0  0  0  0  0  0
  144.7683  132.7298  150.5676 H   0  0  0  0  0  0  0  0  0  0  0  0
  146.2669  134.6915  154.9819 H   0  0  0  0  0  0  0  0  0  0  0  0
  146.8720  135.5746  153.5908 H   0  0  0  0  0  0  0  0  0  0  0  0
  1  2  1  0  0  0  0
  1 19  1  0  0  0  0
  1 20  1  0  0  0  0
  1 21  1  0  0  0  0
  2  3  1  0  0  0  0
  2 22  1  0  0  0  0
  2 23  1  0  0  0  0
  3 18  1  0  0  0  0
  3  4  2  0  0  0  0
  4  5  1  0  0  0  0
  5  6  2  0  0  0  0
  6  7  1  0  0  0  0
  6 18  1  0  0  0  0
  7  8  1  0  0  0  0
  8  9  2  0  0  0  0
  8 10  1  0  0  0  0
 10 11  1  0  0  0  0
 10 24  1  0  0  0  0
 11 17  1  0  0  0  0
 11 12  1  0  0  0  0
 11 25  1  0  0  0  0
 12 13  1  0  0  0  0
 12 26  1  0  0  0  0
 12 27  1  0  0  0  0
 13 14  1  0  0  0  0
 13 28  1  0  0  0  0
 13 29  1  0  0  0  0
 14 15  1  0  0  0  0
 14 17  1  0  0  0  0
 14 30  1  0  0  0  0
 15 16  1  0  0  0  0
 16 31  1  0  0  0  0
 16 32  1  0  0  0  0
 16 33  1  0  0  0  0
 17 34  1  0  0  0  0
 17 35  1  0  0  0  0
M  CHG  1   7  -1
M  END
> <s_m_source_file>
AV-unprocessed.smi

> <i_m_source_file_index>
672

> <i_lp_mmshare_version>
43012

> <i_f3d_flags>
0

> <s_epik_input>
W0NIM11bQ0gyXWMxbm5jKHMxKVtOSF1DKD1PKVtOSF1bQ0BASF0yW0NIMl1bQ0gyXVtDQEhdKFtDSDJdMilTW0NIM10=

> <s_epik_cmdline>
J2VwaWtfcHl0aG9uJywgJy1waCcsICc3LjAnLCAnLXRuJywgJzgnLCAnLW1hJywgJzIwMCcsICctbWV0YWxfYmluZGluZycsICctaW1hZScsICc8aW5maWxlLm1hZT4nLCAnLW9tYWUnLCAnPG91dGZpbGUubWFlPic=

> <r_lp_tautomer_probability>
1

> <r_epik_Ionization_Penalty>
4.49964

> <r_epik_Ionization_Penalty_Charging>
4.32991

> <r_epik_Ionization_Penalty_Neutral>
0.169727

> <r_epik_State_Penalty>
4.32952

> <r_epik_Charging_Adjusted_Penalty>
8.65943

> <i_epik_Tot_Q>
-1

> <i_epik_Tot_abs_Q>
1

> <r_epik_Metal_State_Penalty>
0.740482

> <b_epik_Metal_Only>
1

> <s_lp_Force_Field>
OPLS_2005

> <r_lp_Energy>
9.98036

> <b_lp_Chiralities_Consistent>
1

> <s_lp_Variant>
AV-unprocessed.smi:672-7

> <Gold.Version>
5.8.1

> <Gold.Id.Protein>
6NUR|6NUR_protein|mol2

> <Gold.PLP.Fitness>
35.8528

> <Gold.PLP.PLP>
-28.3014

> <Gold.PLP.part.hbond>
-2.0000

> <Gold.PLP.part.metal>
0.0000

> <Gold.PLP.part.buried>
-4.0840

> <Gold.PLP.part.nonpolar>
-23.2051

> <Gold.PLP.part.repulsive>
0.2089

> <Gold.PLP.ligand.clash>
0.0000

> <Gold.PLP.ligand.torsion>
0.7449

> <Gold.PLP.Chemscore.Hbond>
3.0000

> <Gold.PLP.Chemscore.CHOScore>
0.0000

> <Gold.PLP.Chemscore.Metal>
0.0000

> <Gold.Chemscore.Hbonds>
donor molecule, donor type, donor heavy atom, donor atom, acceptor molecule, acceptor atom, score
      L1  H    10    24       P1  7948  1.00
      P1  H 10752 10765       L1     7  2.00

> <Gold.PLP.Chemscore.Internal.Correction>
0.0413

> <Gold.Rescore>
     Score         DG    S(hbond)    S(metal)    S(lipo)     H(rot)  DE(clash)    DE(int)     intcor
     10.69     -12.53       0.97        0.00      61.97       1.34       0.02       1.82       ----

> <Gold.Chemscore.Fitness>
10.6914

> <Gold.Chemscore.DG>
-12.5258

> <Gold.Chemscore.ZeroCoef>
-5.4800

> <Gold.Chemscore.Hbond>
0.9665

> <Gold.Chemscore.Metal>
0.0000

> <Gold.Chemscore.Lipo>
61.9718

> <Gold.Chemscore.Internal_Hbond>
0.0000

> <Gold.Chemscore.DEClash>
0.0154

> <Gold.Chemscore.DEInternal>
1.8189

> <Gold.Chemscore.Rot>
1.3410

> <Gold.Chemscore.Internal.Correction>
   9.000000E+99

> <Gold.Chemscore.Hbonds>
donor molecule, donor type, donor heavy atom, donor atom, acceptor molecule, acceptor atom, score
      L1  H    10    24       P1  7948  0.24
      P1  H 10752 10765       L1     7  0.32

> <Gold.Chemscore.Hbond.Weighted>
-3.2280

> <Gold.Chemscore.Metal.Weighted>
-0.0000

> <Gold.Chemscore.Lipo.Weighted>
-7.2507

> <Gold.Chemscore.Internal_Hbond.Weighted>
0.0000

> <Gold.Chemscore.DEClash.Weighted>
0.0154

> <Gold.Chemscore.DEInternal.Weighted>
1.8189

> <Gold.Chemscore.Rot.Weighted>
3.4329

> <Gold.Chemscore.Internal.Correction.Weighted>
   9.000000E+99

> <Gold.Protein.RotatedTorsions>
[ 6907 6896 6895 6894 ] final -134.62 input  -60.11 | X-H torsion
[ 7974 7965 7964 7962 ] final   -5.52 input  175.53 | X-H torsion
[ 8008 7997 7996 7995 ] final -122.71 input   59.86 | X-H torsion
[ 10167 10162 10161 10158 ] final  101.67 input  -65.29 | X-H torsion
[ 10718 10713 10712 10709 ] final  160.00 input   66.30 | X-H torsion
[ 10763 10752 10751 10750 ] final  170.54 input  -60.55 | X-H torsion
[ 11005 11000 10999 10996 ] final   84.22 input  -57.11 | X-H torsion

> <Gold.Protein.ActiveResidues>
 VAL166  LYS551  ARG553  GLY616  TRP617  ASP618  TYR619  PRO620  LYS621  CYS622 
 ASP623  PHE694  ASN695  SER759  ASP760  ASP761  ALA762  ILE779  LEU786  VAL792 
 PHE793  MET794  SER795  GLU796  ALA797  LYS798  CYS799  TRP800  GLU811  SER814 

> <Gold.Protein.RotatedAtoms>
  150.9880  133.6178  159.2712 H   0  0  0  0  0  0  0  0  0  0  0  0  # atno 6907 bound_to 6896
  151.3408  135.0862  159.9380 H   0  0  0  0  0  0  0  0  0  0  0  0  # atno 6908 bound_to 6896
  152.5237  133.9492  159.7718 H   0  0  0  0  0  0  0  0  0  0  0  0  # atno 6909 bound_to 6896
  146.2351  140.2033  142.8334 H   0  0  0  0  0  0  0  0  0  0  0  0  # atno 7974 bound_to 7965
  155.1687  140.0407  157.2858 H   0  0  0  0  0  0  0  0  0  0  0  0  # atno 8008 bound_to 7997
  154.6285  140.2518  155.7435 H   0  0  0  0  0  0  0  0  0  0  0  0  # atno 8009 bound_to 7997
  156.2472  140.2880  156.0626 H   0  0  0  0  0  0  0  0  0  0  0  0  # atno 8010 bound_to 7997
  139.7417  144.7009  151.0565 H   0  0  0  0  0  0  0  0  0  0  0  0  # atno 10167 bound_to 10162
  157.1564  131.0576  151.2254 H   0  0  0  0  0  0  0  0  0  0  0  0  # atno 10718 bound_to 10713
  154.3991  135.2755  155.2108 H   0  0  0  0  0  0  0  0  0  0  0  0  # atno 10763 bound_to 10752
  154.4141  135.6015  153.5974 H   0  0  0  0  0  0  0  0  0  0  0  0  # atno 10764 bound_to 10752
  152.9831  135.5956  154.4256 H   0  0  0  0  0  0  0  0  0  0  0  0  # atno 10765 bound_to 10752
  139.9007  134.8201  156.2415 H   0  0  0  0  0  0  0  0  0  0  0  0  # atno 11005 bound_to 11000
  144.9764  140.8418  143.5424 LP  0  0  0  0  0  0  0  0  0  0  0  0  # atno 17320 bound_to 7965
  145.2021  139.2247  143.5187 LP  0  0  0  0  0  0  0  0  0  0  0  0  # atno 17321 bound_to 7965
  140.7787  143.4916  150.9886 LP  0  0  0  0  0  0  0  0  0  0  0  0  # atno 17342 bound_to 10162
  139.8604  143.7322  152.3173 LP  0  0  0  0  0  0  0  0  0  0  0  0  # atno 17343 bound_to 10162
  157.4173  130.7418  149.6885 LP  0  0  0  0  0  0  0  0  0  0  0  0  # atno 17370 bound_to 10713
  155.9761  130.4079  150.3800 LP  0  0  0  0  0  0  0  0  0  0  0  0  # atno 17371 bound_to 10713
  141.0282  133.7003  156.1384 LP  0  0  0  0  0  0  0  0  0  0  0  0  # atno 17394 bound_to 11000
  140.7136  134.4435  157.5580 LP  0  0  0  0  0  0  0  0  0  0  0  0  # atno 17395 bound_to 11000

$$$$
