AV-unprocessed.smi:2453|AV-procd|sdf|9690|dock3
  -GOLD-   2272013323D 1   1.00000     0.00000
 Structure written by MMmdl.
 40 41  0  0  0  0  0  0  0  0  1 V2000
  141.0853  139.0213  153.7936 C   0  0  0  0  0  0  0  0  0  0  0  0
  141.4889  137.5602  153.7015 C   0  0  0  0  0  0  0  0  0  0  0  0
  140.4960  136.5588  153.6363 C   0  0  0  0  0  0  0  0  0  0  0  0
  140.7697  135.2407  153.5500 N   0  0  0  0  0  0  0  0  0  0  0  0
  142.0659  134.8694  153.5205 C   0  0  0  0  0  0  0  0  0  0  0  0
  143.1363  135.7828  153.5787 C   0  0  0  0  0  0  0  0  0  0  0  0
  142.8488  137.1655  153.6833 C   0  0  0  0  0  0  0  0  0  0  0  0
  143.8544  138.1730  153.7225 N   0  0  0  0  0  0  0  0  0  0  0  0
  145.0427  138.1563  154.3509 C   0  0  0  0  0  0  0  0  0  0  0  0
  145.4566  137.2485  155.0717 O   0  0  0  0  0  0  0  0  0  0  0  0
  145.7325  139.2802  154.1071 N   0  0  0  0  0  0  0  0  0  0  0  0
  147.0583  139.5914  154.6392 C   0  0  1  0  0  0  0  0  0  0  0  0
  147.9855  138.3679  154.4735 C   0  0  0  0  0  0  0  0  0  0  0  0
  149.4122  138.6650  154.9565 C   0  0  0  0  0  0  0  0  0  0  0  0
  149.9967  139.8838  154.2302 C   0  0  0  0  0  0  0  0  0  0  0  0
  149.0936  141.1136  154.4066 C   0  0  0  0  0  0  0  0  0  0  0  0
  147.6492  140.8403  153.9331 C   0  0  2  0  0  0  0  0  0  0  0  0
  146.7647  142.1019  154.0533 C   0  0  0  0  0  0  0  0  0  0  0  0
  146.8034  142.6475  155.3562 O   0  0  0  0  0  0  0  0  0  0  0  0
  140.0010  139.1326  153.8221 H   0  0  0  0  0  0  0  0  0  0  0  0
  141.4590  139.5736  152.9310 H   0  0  0  0  0  0  0  0  0  0  0  0
  141.4943  139.4727  154.6979 H   0  0  0  0  0  0  0  0  0  0  0  0
  139.4484  136.8215  153.6505 H   0  0  0  0  0  0  0  0  0  0  0  0
  142.2578  133.8098  153.4398 H   0  0  0  0  0  0  0  0  0  0  0  0
  144.1461  135.4066  153.5280 H   0  0  0  0  0  0  0  0  0  0  0  0
  143.6208  139.0305  153.2445 H   0  0  0  0  0  0  0  0  0  0  0  0
  145.3117  139.9743  153.5071 H   0  0  0  0  0  0  0  0  0  0  0  0
  146.9690  139.8127  155.7046 H   0  0  0  0  0  0  0  0  0  0  0  0
  147.5872  137.5158  155.0259 H   0  0  0  0  0  0  0  0  0  0  0  0
  148.0159  138.0671  153.4254 H   0  0  0  0  0  0  0  0  0  0  0  0
  149.4044  138.8477  156.0319 H   0  0  0  0  0  0  0  0  0  0  0  0
  150.0484  137.7945  154.7947 H   0  0  0  0  0  0  0  0  0  0  0  0
  150.9955  140.0991  154.6109 H   0  0  0  0  0  0  0  0  0  0  0  0
  150.1107  139.6597  153.1688 H   0  0  0  0  0  0  0  0  0  0  0  0
  149.0912  141.4067  155.4572 H   0  0  0  0  0  0  0  0  0  0  0  0
  149.5145  141.9544  153.8544 H   0  0  0  0  0  0  0  0  0  0  0  0
  147.7089  140.6081  152.8683 H   0  0  0  0  0  0  0  0  0  0  0  0
  147.0995  142.8640  153.3490 H   0  0  0  0  0  0  0  0  0  0  0  0
  145.7286  141.8783  153.7984 H   0  0  0  0  0  0  0  0  0  0  0  0
  147.6170  143.1167  155.4628 H   0  0  0  0  0  0  0  0  0  0  0  0
  1  2  1  0  0  0  0
  1 20  1  0  0  0  0
  1 21  1  0  0  0  0
  1 22  1  0  0  0  0
  2  7  1  0  0  0  0
  2  3  2  0  0  0  0
  3  4  1  0  0  0  0
  3 23  1  0  0  0  0
  4  5  2  0  0  0  0
  5  6  1  0  0  0  0
  5 24  1  0  0  0  0
  6  7  2  0  0  0  0
  6 25  1  0  0  0  0
  7  8  1  0  0  0  0
  8  9  1  0  0  0  0
  8 26  1  0  0  0  0
  9 10  2  0  0  0  0
  9 11  1  0  0  0  0
 11 12  1  0  0  0  0
 11 27  1  0  0  0  0
 12 17  1  0  0  0  0
 12 13  1  0  0  0  0
 12 28  1  0  0  0  0
 13 14  1  0  0  0  0
 13 29  1  0  0  0  0
 13 30  1  0  0  0  0
 14 15  1  0  0  0  0
 14 31  1  0  0  0  0
 14 32  1  0  0  0  0
 15 16  1  0  0  0  0
 15 33  1  0  0  0  0
 15 34  1  0  0  0  0
 16 17  1  0  0  0  0
 16 35  1  0  0  0  0
 16 36  1  0  0  0  0
 17 18  1  0  0  0  0
 17 37  1  0  0  0  0
 18 19  1  0  0  0  0
 18 38  1  0  0  0  0
 18 39  1  0  0  0  0
 19 40  1  0  0  0  0
M  END
> <s_m_source_file>
AV-unprocessed.smi

> <i_m_source_file_index>
2453

> <i_lp_mmshare_version>
43012

> <i_f3d_flags>
0

> <s_epik_input>
W0NIM11jMVtjSF1uW2NIXVtjSF1jMVtOSF1DKD1PKVtOSF1bQ0BASF0yW0NIMl1bQ0gyXVtDSDJdW0NIMl1bQ0BIXTJbQ0gyXVtPSF0=

> <s_epik_cmdline>
J2VwaWtfcHl0aG9uJywgJy1waCcsICc3LjAnLCAnLXRuJywgJzgnLCAnLW1hJywgJzIwMCcsICctbWV0YWxfYmluZGluZycsICctaW1hZScsICc8aW5maWxlLm1hZT4nLCAnLW9tYWUnLCAnPG91dGZpbGUubWFlPic=

> <r_epik_Ionization_Penalty>
0.210691

> <r_epik_Ionization_Penalty_Charging>
0

> <r_epik_Ionization_Penalty_Neutral>
0.210691

> <r_epik_State_Penalty>
0.200732

> <r_epik_Charging_Adjusted_Penalty>
0.200732

> <i_epik_Tot_Q>
0

> <i_epik_Tot_abs_Q>
0

> <r_epik_Metal_State_Penalty>
0.147519

> <b_epik_Metal_Only>
0

> <s_lp_Force_Field>
OPLS_2005

> <r_lp_Energy>
20.8004

> <b_lp_Chiralities_Consistent>
1

> <s_lp_Variant>
AV-unprocessed.smi:2453-4

> <Gold.Version>
5.8.1

> <Gold.Id.Protein>
6NUR|6NUR_protein|mol2

> <Gold.PLP.Fitness>
40.7083

> <Gold.PLP.PLP>
-29.9011

> <Gold.PLP.part.hbond>
-3.0000

> <Gold.PLP.part.metal>
0.0000

> <Gold.PLP.part.buried>
-1.8129

> <Gold.PLP.part.nonpolar>
-24.5933

> <Gold.PLP.part.repulsive>
0.2253

> <Gold.PLP.ligand.clash>
0.0000

> <Gold.PLP.ligand.torsion>
0.4733

> <Gold.PLP.Chemscore.Hbond>
2.9120

> <Gold.PLP.Chemscore.CHOScore>
1.0000

> <Gold.PLP.Chemscore.Metal>
0.0000

> <Gold.Chemscore.Hbonds>
donor molecule, donor type, donor heavy atom, donor atom, acceptor molecule, acceptor atom, score
      L1  H     8    26       P1 10175  1.00
      L1  H    11    27       P1 10175  0.91
      L1  H    19    40       P1  8028  1.00
      L1  C     5    24       P1 10957  1.00

> <Gold.PLP.Chemscore.Internal.Correction>
0.0177

> <Gold.Rescore>
     Score         DG    S(hbond)    S(metal)    S(lipo)     H(rot)  DE(clash)    DE(int)     intcor
     14.67     -17.59       2.51        0.00      70.02       1.75       1.10       1.81       ----

> <Gold.Chemscore.Fitness>
14.6732

> <Gold.Chemscore.DG>
-17.5875

> <Gold.Chemscore.ZeroCoef>
-5.4800

> <Gold.Chemscore.Hbond>
2.5131

> <Gold.Chemscore.Metal>
0.0000

> <Gold.Chemscore.Lipo>
70.0174

> <Gold.Chemscore.Internal_Hbond>
0.0000

> <Gold.Chemscore.DEClash>
1.1020

> <Gold.Chemscore.DEInternal>
1.8122

> <Gold.Chemscore.Rot>
1.7493

> <Gold.Chemscore.Internal.Correction>
   9.000000E+99

> <Gold.Chemscore.Hbonds>
donor molecule, donor type, donor heavy atom, donor atom, acceptor molecule, acceptor atom, score
      L1  H     8    26       P1 10175  0.99
      L1  H    11    27       P1 10175  0.85
      L1  H    19    40       P1  8028  0.32

> <Gold.Chemscore.Hbond.Weighted>
-8.3936

> <Gold.Chemscore.Metal.Weighted>
-0.0000

> <Gold.Chemscore.Lipo.Weighted>
-8.1920

> <Gold.Chemscore.Internal_Hbond.Weighted>
0.0000

> <Gold.Chemscore.DEClash.Weighted>
1.1020

> <Gold.Chemscore.DEInternal.Weighted>
1.8122

> <Gold.Chemscore.Rot.Weighted>
4.4782

> <Gold.Chemscore.Internal.Correction.Weighted>
   9.000000E+99

> <Gold.Protein.RotatedTorsions>
[ 6907 6896 6895 6894 ] final  -72.84 input  -60.11 | X-H torsion
[ 7974 7965 7964 7962 ] final   92.58 input  175.53 | X-H torsion
[ 8008 7997 7996 7995 ] final  -46.32 input   59.86 | X-H torsion
[ 10167 10162 10161 10158 ] final -159.34 input  -65.29 | X-H torsion
[ 10718 10713 10712 10709 ] final  160.66 input   66.30 | X-H torsion
[ 10763 10752 10751 10750 ] final -166.54 input  -60.55 | X-H torsion
[ 11005 11000 10999 10996 ] final   73.91 input  -57.11 | X-H torsion

> <Gold.Protein.ActiveResidues>
 VAL166  LYS551  ARG553  GLY616  TRP617  ASP618  TYR619  PRO620  LYS621  CYS622 
 ASP623  PHE694  ASN695  SER759  ASP760  ASP761  ALA762  ILE779  LEU786  VAL792 
 PHE793  MET794  SER795  GLU796  ALA797  LYS798  CYS799  TRP800  GLU811  SER814 

> <Gold.Protein.RotatedAtoms>
  150.7153  134.5104  159.5604 H   0  0  0  0  0  0  0  0  0  0  0  0  # atno 6907 bound_to 6896
  152.2681  134.7959  160.0428 H   0  0  0  0  0  0  0  0  0  0  0  0  # atno 6908 bound_to 6896
  151.8648  133.3429  159.3752 H   0  0  0  0  0  0  0  0  0  0  0  0  # atno 6909 bound_to 6896
  145.4904  139.2276  143.2833 H   0  0  0  0  0  0  0  0  0  0  0  0  # atno 7974 bound_to 7965
  154.4006  140.1374  156.3993 H   0  0  0  0  0  0  0  0  0  0  0  0  # atno 8008 bound_to 7997
  155.7840  140.3480  155.5292 H   0  0  0  0  0  0  0  0  0  0  0  0  # atno 8009 bound_to 7997
  155.8646  140.0962  157.1581 H   0  0  0  0  0  0  0  0  0  0  0  0  # atno 8010 bound_to 7997
  139.6623  143.9891  152.2233 H   0  0  0  0  0  0  0  0  0  0  0  0  # atno 10167 bound_to 10162
  157.1473  131.0555  151.2297 H   0  0  0  0  0  0  0  0  0  0  0  0  # atno 10718 bound_to 10713
  154.6822  135.2956  154.9597 H   0  0  0  0  0  0  0  0  0  0  0  0  # atno 10763 bound_to 10752
  154.0588  135.6634  153.4813 H   0  0  0  0  0  0  0  0  0  0  0  0  # atno 10764 bound_to 10752
  153.0555  135.5147  154.7871 H   0  0  0  0  0  0  0  0  0  0  0  0  # atno 10765 bound_to 10752
  139.9416  134.7388  156.1084 H   0  0  0  0  0  0  0  0  0  0  0  0  # atno 11005 bound_to 11000
  146.2287  140.5698  142.8985 LP  0  0  0  0  0  0  0  0  0  0  0  0  # atno 17320 bound_to 7965
  144.7837  140.5892  143.6588 LP  0  0  0  0  0  0  0  0  0  0  0  0  # atno 17321 bound_to 7965
  139.9633  144.6543  150.8058 LP  0  0  0  0  0  0  0  0  0  0  0  0  # atno 17342 bound_to 10162
  140.7585  143.3108  151.2849 LP  0  0  0  0  0  0  0  0  0  0  0  0  # atno 17343 bound_to 10162
  157.4252  130.7460  149.6945 LP  0  0  0  0  0  0  0  0  0  0  0  0  # atno 17370 bound_to 10713
  155.9777  130.4060  150.3695 LP  0  0  0  0  0  0  0  0  0  0  0  0  # atno 17371 bound_to 10713
  141.1053  133.6662  156.2849 LP  0  0  0  0  0  0  0  0  0  0  0  0  # atno 17394 bound_to 11000
  140.5937  134.5625  157.5504 LP  0  0  0  0  0  0  0  0  0  0  0  0  # atno 17395 bound_to 11000

$$$$
