AV-unprocessed.smi:297|AV-procd|sdf|2260|dock7
  -GOLD-   2262022143D 1   1.00000     0.00000
 Structure written by MMmdl.
 29 30  0  0  0  0  0  0  0  0  1 V2000
  152.0672  146.2236  159.7829 N   0  0  0  0  0  0  0  0  0  0  0  0
  152.1505  145.0748  159.6697 C   0  0  0  0  0  0  0  0  0  0  0  0
  152.2555  143.6304  159.5274 C   0  0  0  0  0  0  0  0  0  0  0  0
  151.8110  143.1019  158.3657 N   0  0  0  0  0  0  0  0  0  0  0  0
  151.8830  141.7627  158.1669 C   0  0  0  0  0  0  0  0  0  0  0  0
  151.4130  141.2414  156.9419 N   0  0  0  0  0  0  0  0  0  0  0  0
  150.1145  141.7393  156.4974 C   0  0  0  0  0  0  0  0  0  0  0  0
  149.8725  141.3561  155.0289 C   0  0  0  0  0  0  0  0  0  0  0  0
  150.0031  139.9476  154.8733 O   0  0  0  0  0  0  0  0  0  0  0  0
  151.3136  139.4848  155.2013 C   0  0  2  0  0  0  0  0  0  0  0  0
  151.3957  137.9787  154.9121 C   0  0  0  0  0  0  0  0  0  0  0  0
  150.8498  137.5429  153.7732 N   0  0  0  0  0  0  0  0  0  0  0  0
  151.9596  137.2143  155.6933 O   0  0  0  0  0  0  0  0  0  0  0  0
  151.6113  139.8163  156.6810 C   0  0  0  0  0  0  0  0  0  0  0  0
  152.4065  140.8973  159.1553 C   0  0  0  0  0  0  0  0  0  0  0  0
  152.8703  141.4428  160.3666 C   0  0  0  0  0  0  0  0  0  0  0  0
  152.7990  142.8344  160.5639 C   0  0  0  0  0  0  0  0  0  0  0  0
  153.3676  143.5114  162.0518 Cl  0  0  0  0  0  0  0  0  0  0  0  0
  149.3370  141.3067  157.1286 H   0  0  0  0  0  0  0  0  0  0  0  0
  150.0383  142.8210  156.5979 H   0  0  0  0  0  0  0  0  0  0  0  0
  148.8694  141.6544  154.7242 H   0  0  0  0  0  0  0  0  0  0  0  0
  150.5725  141.8734  154.3705 H   0  0  0  0  0  0  0  0  0  0  0  0
  152.0410  139.9826  154.5576 H   0  0  0  0  0  0  0  0  0  0  0  0
  150.8888  136.5605  153.5425 H   0  0  0  0  0  0  0  0  0  0  0  0
  150.4070  138.1976  153.1448 H   0  0  0  0  0  0  0  0  0  0  0  0
  152.6406  139.5402  156.9153 H   0  0  0  0  0  0  0  0  0  0  0  0
  150.9600  139.2376  157.3385 H   0  0  0  0  0  0  0  0  0  0  0  0
  152.4442  139.8285  159.0067 H   0  0  0  0  0  0  0  0  0  0  0  0
  153.2726  140.7995  161.1351 H   0  0  0  0  0  0  0  0  0  0  0  0
  1  2  3  0  0  0  0
  2  3  1  0  0  0  0
  3 17  1  0  0  0  0
  3  4  2  0  0  0  0
  4  5  1  0  0  0  0
  5  6  1  0  0  0  0
  5 15  2  0  0  0  0
  6 14  1  0  0  0  0
  6  7  1  0  0  0  0
  7  8  1  0  0  0  0
  7 19  1  0  0  0  0
  7 20  1  0  0  0  0
  8  9  1  0  0  0  0
  8 21  1  0  0  0  0
  8 22  1  0  0  0  0
  9 10  1  0  0  0  0
 10 11  1  0  0  0  0
 10 14  1  0  0  0  0
 10 23  1  0  0  0  0
 11 12  1  0  0  0  0
 11 13  2  0  0  0  0
 12 24  1  0  0  0  0
 12 25  1  0  0  0  0
 14 26  1  0  0  0  0
 14 27  1  0  0  0  0
 15 16  1  0  0  0  0
 15 28  1  0  0  0  0
 16 17  2  0  0  0  0
 16 29  1  0  0  0  0
 17 18  1  0  0  0  0
M  END
> <s_m_source_file>
AV-unprocessed.smi

> <i_m_source_file_index>
297

> <i_lp_mmshare_version>
43012

> <i_f3d_flags>
0

> <s_epik_input>
TiNDYzFuYyhbY0hdW2NIXWMxQ2wpTjJbQ0gyXVtDSDJdT1tDQEhdKFtDSDJdMilDKD1PKVtOSDJd

> <s_epik_cmdline>
J2VwaWtfcHl0aG9uJywgJy1waCcsICc3LjAnLCAnLXRuJywgJzgnLCAnLW1hJywgJzIwMCcsICctbWV0YWxfYmluZGluZycsICctaW1hZScsICc8aW5maWxlLm1hZT4nLCAnLW9tYWUnLCAnPG91dGZpbGUubWFlPic=

> <r_lp_tautomer_probability>
1

> <r_epik_Ionization_Penalty>
8.82403e-08

> <r_epik_Ionization_Penalty_Charging>
0

> <r_epik_Ionization_Penalty_Neutral>
8.82403e-08

> <r_epik_State_Penalty>
-0

> <r_epik_Charging_Adjusted_Penalty>
0

> <i_epik_Tot_Q>
0

> <i_epik_Tot_abs_Q>
0

> <r_epik_Metal_State_Penalty>
-0

> <b_epik_Metal_Only>
0

> <s_lp_Force_Field>
OPLS_2005

> <r_lp_Energy>
18.7144

> <b_lp_Chiralities_Consistent>
1

> <s_lp_Variant>
AV-unprocessed.smi:297-2

> <Gold.Version>
5.8.1

> <Gold.Id.Protein>
6NUR|6NUR_protein|mol2

> <Gold.PLP.Fitness>
42.5716

> <Gold.PLP.PLP>
-39.6347

> <Gold.PLP.part.hbond>
-5.3003

> <Gold.PLP.part.metal>
0.0000

> <Gold.PLP.part.buried>
-2.6933

> <Gold.PLP.part.nonpolar>
-31.2307

> <Gold.PLP.part.repulsive>
0.5331

> <Gold.PLP.ligand.clash>
0.0000

> <Gold.PLP.ligand.torsion>
0.6374

> <Gold.PLP.Chemscore.Hbond>
1.2865

> <Gold.PLP.Chemscore.CHOScore>
0.0000

> <Gold.PLP.Chemscore.Metal>
0.0000

> <Gold.Chemscore.Hbonds>
donor molecule, donor type, donor heavy atom, donor atom, acceptor molecule, acceptor atom, score
      L1  H    12    24       P1  7949  0.23
      P1  H 10752 10765       L1    13  0.56

> <Gold.PLP.Chemscore.Internal.Correction>
0.3522

> <Gold.Rescore>
     Score         DG    S(hbond)    S(metal)    S(lipo)     H(rot)  DE(clash)    DE(int)     intcor
     12.97     -14.17       1.07        0.00      76.68       1.50       0.98       0.22       ----

> <Gold.Chemscore.Fitness>
12.9711

> <Gold.Chemscore.DG>
-14.1727

> <Gold.Chemscore.ZeroCoef>
-5.4800

> <Gold.Chemscore.Hbond>
1.0665

> <Gold.Chemscore.Metal>
0.0000

> <Gold.Chemscore.Lipo>
76.6846

> <Gold.Chemscore.Internal_Hbond>
0.0000

> <Gold.Chemscore.DEClash>
0.9779

> <Gold.Chemscore.DEInternal>
0.2237

> <Gold.Chemscore.Rot>
1.5006

> <Gold.Chemscore.Internal.Correction>
   9.000000E+99

> <Gold.Chemscore.Hbonds>
donor molecule, donor type, donor heavy atom, donor atom, acceptor molecule, acceptor atom, score
      L1  H    12    24       P1  7949  0.04
      P1  H 10752 10765       L1    13  0.40

> <Gold.Chemscore.Hbond.Weighted>
-3.5622

> <Gold.Chemscore.Metal.Weighted>
-0.0000

> <Gold.Chemscore.Lipo.Weighted>
-8.9721

> <Gold.Chemscore.Internal_Hbond.Weighted>
0.0000

> <Gold.Chemscore.DEClash.Weighted>
0.9779

> <Gold.Chemscore.DEInternal.Weighted>
0.2237

> <Gold.Chemscore.Rot.Weighted>
3.8416

> <Gold.Chemscore.Internal.Correction.Weighted>
   9.000000E+99

> <Gold.Protein.RotatedTorsions>
[ 6907 6896 6895 6894 ] final -120.97 input  -60.11 | X-H torsion
[ 7974 7965 7964 7962 ] final   -0.27 input  175.53 | X-H torsion
[ 8008 7997 7996 7995 ] final  145.33 input   59.86 | X-H torsion
[ 10167 10162 10161 10158 ] final   69.39 input  -65.29 | X-H torsion
[ 10718 10713 10712 10709 ] final  133.32 input   66.30 | X-H torsion
[ 10763 10752 10751 10750 ] final  179.18 input  -60.55 | X-H torsion
[ 11005 11000 10999 10996 ] final  131.66 input  -57.11 | X-H torsion

> <Gold.Protein.ActiveResidues>
 VAL166  LYS551  ARG553  GLY616  TRP617  ASP618  TYR619  PRO620  LYS621  CYS622 
 ASP623  PHE694  ASN695  SER759  ASP760  ASP761  ALA762  ILE779  LEU786  VAL792 
 PHE793  MET794  SER795  GLU796  ALA797  LYS798  CYS799  TRP800  GLU811  SER814 

> <Gold.Protein.RotatedAtoms>
  150.8441  133.7889  159.3049 H   0  0  0  0  0  0  0  0  0  0  0  0  # atno 6907 bound_to 6896
  151.5581  135.1064  159.9975 H   0  0  0  0  0  0  0  0  0  0  0  0  # atno 6908 bound_to 6896
  152.4499  133.7566  159.6779 H   0  0  0  0  0  0  0  0  0  0  0  0  # atno 6909 bound_to 6896
  146.2428  140.1245  142.8339 H   0  0  0  0  0  0  0  0  0  0  0  0  # atno 7974 bound_to 7965
  156.2886  140.2212  156.5197 H   0  0  0  0  0  0  0  0  0  0  0  0  # atno 8008 bound_to 7997
  154.7539  140.0478  157.0938 H   0  0  0  0  0  0  0  0  0  0  0  0  # atno 8009 bound_to 7997
  155.0075  140.3109  155.4846 H   0  0  0  0  0  0  0  0  0  0  0  0  # atno 8010 bound_to 7997
  140.0683  144.5174  150.7245 H   0  0  0  0  0  0  0  0  0  0  0  0  # atno 10167 bound_to 10162
  157.4785  131.1084  150.9712 H   0  0  0  0  0  0  0  0  0  0  0  0  # atno 10718 bound_to 10713
  154.5173  135.2792  155.1292 H   0  0  0  0  0  0  0  0  0  0  0  0  # atno 10763 bound_to 10752
  154.2864  135.6275  153.5371 H   0  0  0  0  0  0  0  0  0  0  0  0  # atno 10764 bound_to 10752
  152.9930  135.5663  154.5653 H   0  0  0  0  0  0  0  0  0  0  0  0  # atno 10765 bound_to 10752
  139.9743  134.9568  156.9470 H   0  0  0  0  0  0  0  0  0  0  0  0  # atno 11005 bound_to 11000
  145.0378  140.8922  143.5070 LP  0  0  0  0  0  0  0  0  0  0  0  0  # atno 17320 bound_to 7965
  145.1320  139.2626  143.5534 LP  0  0  0  0  0  0  0  0  0  0  0  0  # atno 17321 bound_to 7965
  140.7138  143.2527  151.4499 LP  0  0  0  0  0  0  0  0  0  0  0  0  # atno 17342 bound_to 10162
  139.5851  144.1622  152.2019 LP  0  0  0  0  0  0  0  0  0  0  0  0  # atno 17343 bound_to 10162
  157.0453  130.5765  149.5362 LP  0  0  0  0  0  0  0  0  0  0  0  0  # atno 17370 bound_to 10713
  156.0109  130.5200  150.7985 LP  0  0  0  0  0  0  0  0  0  0  0  0  # atno 17371 bound_to 10713
  140.5227  134.0892  155.7296 LP  0  0  0  0  0  0  0  0  0  0  0  0  # atno 17394 bound_to 11000
  141.1421  133.9119  157.2301 LP  0  0  0  0  0  0  0  0  0  0  0  0  # atno 17395 bound_to 11000

$$$$
