AV-unprocessed.smi:3237|AV-procd|sdf|12366|dock9
  -GOLD-   2272018223D 1   1.00000     0.00000
 Structure written by MMmdl.
 37 39  0  0  0  0  0  0  0  0  2 V2000
  137.4815  137.2269  154.6730 C   0  0  0  0  0  0  0  0  0  0  0  0
  138.7710  137.8199  154.2186 C   0  0  0  0  0  0  0  0  0  0  0  0
  139.9730  137.2740  153.8663 C   0  0  0  0  0  0  0  0  0  0  0  0
  140.7593  138.4174  153.5413 C   0  0  0  0  0  0  0  0  0  0  0  0
  142.1076  138.4107  153.1006 N   0  0  0  0  0  0  0  0  0  0  0  0
  142.9749  137.3848  153.0906 C   0  0  0  0  0  0  0  0  0  0  0  0
  142.7328  136.2401  153.4730 O   0  0  0  0  0  0  0  0  0  0  0  0
  144.1708  137.7632  152.6169 N   0  0  0  0  0  0  0  0  0  0  0  0
  145.3342  136.8896  152.5034 C   0  0  1  0  0  0  0  0  0  0  0  0
  145.4761  135.9072  153.6656 C   0  0  0  0  0  0  0  0  0  0  0  0
  146.1951  134.6904  153.0569 C   0  0  0  0  0  0  0  0  0  0  0  0
  146.2303  134.8986  151.5898 N   0  3  1  0  0  0  0  0  0  0  0  0
  146.0399  133.6671  150.7949 C   0  0  0  0  0  0  0  0  0  0  0  0
  144.6003  133.4043  150.4225 C   0  0  0  0  0  0  0  0  0  0  0  0
  145.2598  132.5961  151.5189 C   0  0  0  0  0  0  0  0  0  0  0  0
  145.2573  135.9629  151.2903 C   0  0  0  0  0  0  0  0  0  0  0  0
  140.0918  139.5487  153.6726 N   0  0  0  0  0  0  0  0  0  0  0  0
  138.8168  139.1753  154.1131 O   0  0  0  0  0  0  0  0  0  0  0  0
  137.5312  136.1379  154.6719 H   0  0  0  0  0  0  0  0  0  0  0  0
  136.6650  137.5286  154.0168 H   0  0  0  0  0  0  0  0  0  0  0  0
  137.2421  137.5535  155.6851 H   0  0  0  0  0  0  0  0  0  0  0  0
  140.2292  136.2254  153.8478 H   0  0  0  0  0  0  0  0  0  0  0  0
  142.4599  139.3014  152.7821 H   0  0  0  0  0  0  0  0  0  0  0  0
  144.2855  138.7219  152.3210 H   0  0  0  0  0  0  0  0  0  0  0  0
  146.2430  137.4923  152.4409 H   0  0  0  0  0  0  0  0  0  0  0  0
  146.0215  136.3375  154.5065 H   0  0  0  0  0  0  0  0  0  0  0  0
  144.4935  135.6028  154.0295 H   0  0  0  0  0  0  0  0  0  0  0  0
  147.2157  134.6002  153.4305 H   0  0  0  0  0  0  0  0  0  0  0  0
  145.6651  133.7724  153.3158 H   0  0  0  0  0  0  0  0  0  0  0  0
  146.8451  133.3990  150.1129 H   0  0  0  0  0  0  0  0  0  0  0  0
  143.8497  134.1347  150.7189 H   0  0  0  0  0  0  0  0  0  0  0  0
  144.4103  132.9003  149.4772 H   0  0  0  0  0  0  0  0  0  0  0  0
  145.5025  131.5593  151.2948 H   0  0  0  0  0  0  0  0  0  0  0  0
  144.9472  132.7896  152.5434 H   0  0  0  0  0  0  0  0  0  0  0  0
  144.2568  135.5350  151.1985 H   0  0  0  0  0  0  0  0  0  0  0  0
  145.4978  136.4706  150.3555 H   0  0  0  0  0  0  0  0  0  0  0  0
  147.1432  135.2722  151.3720 H   0  0  0  0  0  0  0  0  0  0  0  0
  1  2  1  0  0  0  0
  1 19  1  0  0  0  0
  1 20  1  0  0  0  0
  1 21  1  0  0  0  0
  2 18  1  0  0  0  0
  2  3  2  0  0  0  0
  3  4  1  0  0  0  0
  3 22  1  0  0  0  0
  4  5  1  0  0  0  0
  4 17  2  0  0  0  0
  5  6  1  0  0  0  0
  5 23  1  0  0  0  0
  6  7  2  0  0  0  0
  6  8  1  0  0  0  0
  8  9  1  0  0  0  0
  8 24  1  0  0  0  0
  9 16  1  0  0  0  0
  9 10  1  0  0  0  0
  9 25  1  0  0  0  0
 10 11  1  0  0  0  0
 10 26  1  0  0  0  0
 10 27  1  0  0  0  0
 11 12  1  0  0  0  0
 11 28  1  0  0  0  0
 11 29  1  0  0  0  0
 12 13  1  0  0  0  0
 12 16  1  0  0  0  0
 12 37  1  0  0  0  0
 13 15  1  0  0  0  0
 13 14  1  0  0  0  0
 13 30  1  0  0  0  0
 14 15  1  0  0  0  0
 14 31  1  0  0  0  0
 14 32  1  0  0  0  0
 15 33  1  0  0  0  0
 15 34  1  0  0  0  0
 16 35  1  0  0  0  0
 16 36  1  0  0  0  0
 17 18  1  0  0  0  0
M  CHG  1  12   1
M  END
> <s_m_source_file>
AV-unprocessed.smi

> <i_m_source_file_index>
3237

> <i_lp_mmshare_version>
43012

> <i_f3d_flags>
0

> <s_epik_input>
W0NIM11jMVtjSF1jKG5vMSlbTkhdQyg9TylbTkhdW0NAQEhdMltDSDJdW0NIMl1OKFtDSDJdMilbQ0hdM1tDSDJdW0NIMl0z

> <s_epik_cmdline>
J2VwaWtfcHl0aG9uJywgJy1waCcsICc3LjAnLCAnLXRuJywgJzgnLCAnLW1hJywgJzIwMCcsICctbWV0YWxfYmluZGluZycsICctaW1hZScsICc8aW5maWxlLm1hZT4nLCAnLW9tYWUnLCAnPG91dGZpbGUubWFlPic=

> <r_epik_Ionization_Penalty>
0.000720579

> <r_epik_Ionization_Penalty_Charging>
0.000680516

> <r_epik_Ionization_Penalty_Neutral>
4.00628e-05

> <r_epik_State_Penalty>
0.000432256

> <r_epik_Charging_Adjusted_Penalty>
0.00111277

> <i_epik_Tot_Q>
1

> <i_epik_Tot_abs_Q>
1

> <r_epik_Metal_State_Penalty>
0.0255091

> <b_epik_Metal_Only>
0

> <s_lp_Force_Field>
OPLS_2005

> <r_lp_Energy>
35.1178

> <b_lp_Chiralities_Consistent>
1

> <s_lp_Variant>
AV-unprocessed.smi:3237-4

> <Gold.Version>
5.8.1

> <Gold.Id.Protein>
6NUR|6NUR_protein|mol2

> <Gold.PLP.Fitness>
41.0696

> <Gold.PLP.PLP>
-30.3775

> <Gold.PLP.part.hbond>
-4.0000

> <Gold.PLP.part.metal>
0.0000

> <Gold.PLP.part.buried>
-5.7324

> <Gold.PLP.part.nonpolar>
-22.1221

> <Gold.PLP.part.repulsive>
2.1030

> <Gold.PLP.ligand.clash>
0.0000

> <Gold.PLP.ligand.torsion>
1.1774

> <Gold.PLP.Chemscore.Hbond>
3.9280

> <Gold.PLP.Chemscore.CHOScore>
0.0000

> <Gold.PLP.Chemscore.Metal>
0.0000

> <Gold.Chemscore.Hbonds>
donor molecule, donor type, donor heavy atom, donor atom, acceptor molecule, acceptor atom, score
      L1  H     5    23       P1 10175  1.00
      L1  H     8    24       P1 10175  0.93
      L1  H    12    37       P1  7948  1.89

> <Gold.PLP.Chemscore.Internal.Correction>
1.2630

> <Gold.Rescore>
     Score         DG    S(hbond)    S(metal)    S(lipo)     H(rot)  DE(clash)    DE(int)     intcor
     14.94     -18.77       2.92        0.00      57.66       1.26       0.09       3.74       ----

> <Gold.Chemscore.Fitness>
14.9415

> <Gold.Chemscore.DG>
-18.7695

> <Gold.Chemscore.ZeroCoef>
-5.4800

> <Gold.Chemscore.Hbond>
2.9244

> <Gold.Chemscore.Metal>
0.0000

> <Gold.Chemscore.Lipo>
57.6563

> <Gold.Chemscore.Internal_Hbond>
0.0000

> <Gold.Chemscore.DEClash>
0.0853

> <Gold.Chemscore.DEInternal>
3.7426

> <Gold.Chemscore.Rot>
1.2593

> <Gold.Chemscore.Internal.Correction>
   9.000000E+99

> <Gold.Chemscore.Hbonds>
donor molecule, donor type, donor heavy atom, donor atom, acceptor molecule, acceptor atom, score
      L1  H     5    23       P1 10175  0.96
      L1  H     8    24       P1 10175  0.90
      L1  H    12    37       P1  7948  0.78

> <Gold.Chemscore.Hbond.Weighted>
-9.7674

> <Gold.Chemscore.Metal.Weighted>
-0.0000

> <Gold.Chemscore.Lipo.Weighted>
-6.7458

> <Gold.Chemscore.Internal_Hbond.Weighted>
0.0000

> <Gold.Chemscore.DEClash.Weighted>
0.0853

> <Gold.Chemscore.DEInternal.Weighted>
3.7426

> <Gold.Chemscore.Rot.Weighted>
3.2237

> <Gold.Chemscore.Internal.Correction.Weighted>
   9.000000E+99

> <Gold.Protein.RotatedTorsions>
[ 6907 6896 6895 6894 ] final  179.56 input  -60.11 | X-H torsion
[ 7974 7965 7964 7962 ] final  160.90 input  175.53 | X-H torsion
[ 8008 7997 7996 7995 ] final   32.81 input   59.86 | X-H torsion
[ 10167 10162 10161 10158 ] final -168.07 input  -65.29 | X-H torsion
[ 10718 10713 10712 10709 ] final -157.14 input   66.30 | X-H torsion
[ 10763 10752 10751 10750 ] final  -15.92 input  -60.55 | X-H torsion
[ 11005 11000 10999 10996 ] final  -95.78 input  -57.11 | X-H torsion

> <Gold.Protein.ActiveResidues>
 VAL166  LYS551  ARG553  GLY616  TRP617  ASP618  TYR619  PRO620  LYS621  CYS622 
 ASP623  PHE694  ASN695  SER759  ASP760  ASP761  ALA762  ILE779  LEU786  VAL792 
 PHE793  MET794  SER795  GLU796  ALA797  LYS798  CYS799  TRP800  GLU811  SER814 

> <Gold.Protein.RotatedAtoms>
  151.6696  133.3314  159.3193 H   0  0  0  0  0  0  0  0  0  0  0  0  # atno 6907 bound_to 6896
  150.7874  134.6874  159.6487 H   0  0  0  0  0  0  0  0  0  0  0  0  # atno 6908 bound_to 6896
  152.3947  134.6389  160.0146 H   0  0  0  0  0  0  0  0  0  0  0  0  # atno 6909 bound_to 6896
  144.7713  139.7822  143.6296 H   0  0  0  0  0  0  0  0  0  0  0  0  # atno 7974 bound_to 7965
  155.1285  140.3255  155.4480 H   0  0  0  0  0  0  0  0  0  0  0  0  # atno 8008 bound_to 7997
  156.2641  140.2014  156.6354 H   0  0  0  0  0  0  0  0  0  0  0  0  # atno 8009 bound_to 7997
  154.6630  140.0545  157.0070 H   0  0  0  0  0  0  0  0  0  0  0  0  # atno 8010 bound_to 7997
  139.6008  144.1014  152.1741 H   0  0  0  0  0  0  0  0  0  0  0  0  # atno 10167 bound_to 10162
  156.5361  130.8543  151.2733 H   0  0  0  0  0  0  0  0  0  0  0  0  # atno 10718 bound_to 10713
  153.5506  135.7011  153.5593 H   0  0  0  0  0  0  0  0  0  0  0  0  # atno 10763 bound_to 10752
  153.3518  135.3993  155.1652 H   0  0  0  0  0  0  0  0  0  0  0  0  # atno 10764 bound_to 10752
  154.8662  135.3767  154.5017 H   0  0  0  0  0  0  0  0  0  0  0  0  # atno 10765 bound_to 10752
  141.1431  133.8050  157.0481 H   0  0  0  0  0  0  0  0  0  0  0  0  # atno 11005 bound_to 11000
  146.1861  139.5077  142.9835 LP  0  0  0  0  0  0  0  0  0  0  0  0  # atno 17320 bound_to 7965
  145.6316  141.0303  143.1860 LP  0  0  0  0  0  0  0  0  0  0  0  0  # atno 17321 bound_to 7965
  140.0610  144.5856  150.7263 LP  0  0  0  0  0  0  0  0  0  0  0  0  # atno 17342 bound_to 10162
  140.7248  143.2625  151.4157 LP  0  0  0  0  0  0  0  0  0  0  0  0  # atno 17343 bound_to 10162
  157.7413  130.9868  150.2438 LP  0  0  0  0  0  0  0  0  0  0  0  0  # atno 17370 bound_to 10713
  156.3014  130.3759  149.7747 LP  0  0  0  0  0  0  0  0  0  0  0  0  # atno 17371 bound_to 10713
  140.0649  134.9734  157.1369 LP  0  0  0  0  0  0  0  0  0  0  0  0  # atno 17394 bound_to 11000
  140.3794  134.2303  155.7172 LP  0  0  0  0  0  0  0  0  0  0  0  0  # atno 17395 bound_to 11000

$$$$
