AV-unprocessed.smi:774|AV-procd|sdf|3691|dock4
  -GOLD-   22720 1113D 1   1.00000     0.00000
 Structure written by MMmdl.
 37 38  0  0  0  0  0  0  0  0  1 V2000
  145.5503  131.1250  151.0976 C   0  0  0  0  0  0  0  0  0  0  0  0
  144.1787  131.4349  150.4921 C   0  0  0  0  0  0  0  0  0  0  0  0
  144.1514  133.0754  149.7207 S   0  0  0  0  0  0  0  0  0  0  0  0
  144.8717  134.0744  151.0551 C   0  0  2  0  0  0  0  0  0  0  0  0
  144.0332  134.0330  152.3298 C   0  0  0  0  0  0  0  0  0  0  0  0
  144.4856  135.2622  153.1191 C   0  0  0  0  0  0  0  0  0  0  0  0
  144.9031  136.3088  152.0688 C   0  0  1  0  0  0  0  0  0  0  0  0
  146.2060  136.8855  152.3969 N   0  0  0  0  0  0  0  0  0  0  0  0
  146.4104  138.0654  153.0002 C   0  0  0  0  0  0  0  0  0  0  0  0
  145.5018  138.8147  153.3567 O   0  0  0  0  0  0  0  0  0  0  0  0
  147.7236  138.2985  153.1711 N   0  0  0  0  0  0  0  0  0  0  0  0
  148.3576  139.4143  153.7833 C   0  0  0  0  0  0  0  0  0  0  0  0
  147.6289  140.6187  153.8705 C   0  0  0  0  0  0  0  0  0  0  0  0
  148.2238  141.7399  154.4791 C   0  0  0  0  0  0  0  0  0  0  0  0
  149.5302  141.6107  154.9882 C   0  0  0  0  0  0  0  0  0  0  0  0
  150.2364  140.4622  154.9287 N   0  0  0  0  0  0  0  0  0  0  0  0
  149.6602  139.3907  154.3421 C   0  0  0  0  0  0  0  0  0  0  0  0
  144.9544  135.5672  150.7194 C   0  0  0  0  0  0  0  0  0  0  0  0
  145.5587  130.1355  151.5548 H   0  0  0  0  0  0  0  0  0  0  0  0
  145.8128  131.8504  151.8681 H   0  0  0  0  0  0  0  0  0  0  0  0
  146.3308  131.1475  150.3364 H   0  0  0  0  0  0  0  0  0  0  0  0
  143.9259  130.6865  149.7409 H   0  0  0  0  0  0  0  0  0  0  0  0
  143.4111  131.3897  151.2647 H   0  0  0  0  0  0  0  0  0  0  0  0
  145.8703  133.6974  151.2804 H   0  0  0  0  0  0  0  0  0  0  0  0
  142.9745  134.1279  152.0843 H   0  0  0  0  0  0  0  0  0  0  0  0
  144.1636  133.1055  152.8881 H   0  0  0  0  0  0  0  0  0  0  0  0
  143.7015  135.6326  153.7802 H   0  0  0  0  0  0  0  0  0  0  0  0
  145.3335  134.9875  153.7487 H   0  0  0  0  0  0  0  0  0  0  0  0
  144.1353  137.0827  152.0148 H   0  0  0  0  0  0  0  0  0  0  0  0
  147.0163  136.3390  152.1448 H   0  0  0  0  0  0  0  0  0  0  0  0
  148.3441  137.5571  152.8811 H   0  0  0  0  0  0  0  0  0  0  0  0
  146.6270  140.6873  153.4724 H   0  0  0  0  0  0  0  0  0  0  0  0
  147.6917  142.6767  154.5535 H   0  0  0  0  0  0  0  0  0  0  0  0
  150.0189  142.4502  155.4601 H   0  0  0  0  0  0  0  0  0  0  0  0
  150.2667  138.4991  154.3488 H   0  0  0  0  0  0  0  0  0  0  0  0
  145.8413  135.8064  150.1311 H   0  0  0  0  0  0  0  0  0  0  0  0
  144.0889  135.8588  150.1226 H   0  0  0  0  0  0  0  0  0  0  0  0
  1  2  1  0  0  0  0
  1 19  1  0  0  0  0
  1 20  1  0  0  0  0
  1 21  1  0  0  0  0
  2  3  1  0  0  0  0
  2 22  1  0  0  0  0
  2 23  1  0  0  0  0
  3  4  1  0  0  0  0
  4 18  1  0  0  0  0
  4  5  1  0  0  0  0
  4 24  1  0  0  0  0
  5  6  1  0  0  0  0
  5 25  1  0  0  0  0
  5 26  1  0  0  0  0
  6  7  1  0  0  0  0
  6 27  1  0  0  0  0
  6 28  1  0  0  0  0
  7  8  1  0  0  0  0
  7 18  1  0  0  0  0
  7 29  1  0  0  0  0
  8  9  1  0  0  0  0
  8 30  1  0  0  0  0
  9 10  2  0  0  0  0
  9 11  1  0  0  0  0
 11 12  1  0  0  0  0
 11 31  1  0  0  0  0
 12 17  1  0  0  0  0
 12 13  2  0  0  0  0
 13 14  1  0  0  0  0
 13 32  1  0  0  0  0
 14 15  2  0  0  0  0
 14 33  1  0  0  0  0
 15 16  1  0  0  0  0
 15 34  1  0  0  0  0
 16 17  2  0  0  0  0
 17 35  1  0  0  0  0
 18 36  1  0  0  0  0
 18 37  1  0  0  0  0
M  END
> <s_m_source_file>
AV-unprocessed.smi

> <i_m_source_file_index>
774

> <i_lp_mmshare_version>
43012

> <i_f3d_flags>
0

> <s_epik_input>
W0NIM11bQ0gyXVNbQ0BASF0xW0NIMl1bQ0gyXVtDQEhdKFtDSDJdMSlbTkhdQyg9TylbTkhdYzJbY0hdW2NIXVtjSF1uW2NIXTI=

> <s_epik_cmdline>
J2VwaWtfcHl0aG9uJywgJy1waCcsICc3LjAnLCAnLXRuJywgJzgnLCAnLW1hJywgJzIwMCcsICctbWV0YWxfYmluZGluZycsICctaW1hZScsICc8aW5maWxlLm1hZT4nLCAnLW9tYWUnLCAnPG91dGZpbGUubWFlPic=

> <r_epik_Ionization_Penalty>
0.00485718

> <r_epik_Ionization_Penalty_Charging>
0

> <r_epik_Ionization_Penalty_Neutral>
0.00485718

> <r_epik_State_Penalty>
0.00349461

> <r_epik_Charging_Adjusted_Penalty>
0.00349461

> <i_epik_Tot_Q>
0

> <i_epik_Tot_abs_Q>
0

> <r_epik_Metal_State_Penalty>
-0

> <b_epik_Metal_Only>
0

> <s_lp_Force_Field>
OPLS_2005

> <r_lp_Energy>
20.878

> <b_lp_Chiralities_Consistent>
1

> <s_lp_Variant>
AV-unprocessed.smi:774-1

> <Gold.Version>
5.8.1

> <Gold.Id.Protein>
6NUR|6NUR_protein|mol2

> <Gold.PLP.Fitness>
41.4879

> <Gold.PLP.PLP>
-31.0564

> <Gold.PLP.part.hbond>
-3.3981

> <Gold.PLP.part.metal>
0.0000

> <Gold.PLP.part.buried>
-1.7356

> <Gold.PLP.part.nonpolar>
-30.6756

> <Gold.PLP.part.repulsive>
3.5748

> <Gold.PLP.ligand.clash>
0.0000

> <Gold.PLP.ligand.torsion>
0.4487

> <Gold.PLP.Chemscore.Hbond>
2.9840

> <Gold.PLP.Chemscore.CHOScore>
0.7903

> <Gold.PLP.Chemscore.Metal>
0.0000

> <Gold.Chemscore.Hbonds>
donor molecule, donor type, donor heavy atom, donor atom, acceptor molecule, acceptor atom, score
      L1  H     8    30       P1  7948  0.99
      L1  H    11    31       P1  7948  1.00
      P1  H  7989  7998       L1    16  0.93
      L1  C    15    34       P1  8028  0.81

> <Gold.PLP.Chemscore.Internal.Correction>
0.0060

> <Gold.Rescore>
     Score         DG    S(hbond)    S(metal)    S(lipo)     H(rot)  DE(clash)    DE(int)     intcor
     16.14     -19.24       2.00        0.00      89.08       1.30       1.24       1.86       ----

> <Gold.Chemscore.Fitness>
16.1365

> <Gold.Chemscore.DG>
-19.2375

> <Gold.Chemscore.ZeroCoef>
-5.4800

> <Gold.Chemscore.Hbond>
1.9980

> <Gold.Chemscore.Metal>
0.0000

> <Gold.Chemscore.Lipo>
89.0816

> <Gold.Chemscore.Internal_Hbond>
0.0000

> <Gold.Chemscore.DEClash>
1.2376

> <Gold.Chemscore.DEInternal>
1.8634

> <Gold.Chemscore.Rot>
1.3041

> <Gold.Chemscore.Internal.Correction>
   9.000000E+99

> <Gold.Chemscore.Hbonds>
donor molecule, donor type, donor heavy atom, donor atom, acceptor molecule, acceptor atom, score
      L1  H     8    30       P1  7948  0.94
      L1  H    11    31       P1  7948  0.99
      P1  H  7989  7998       L1    16  0.06

> <Gold.Chemscore.Hbond.Weighted>
-6.6734

> <Gold.Chemscore.Metal.Weighted>
-0.0000

> <Gold.Chemscore.Lipo.Weighted>
-10.4225

> <Gold.Chemscore.Internal_Hbond.Weighted>
0.0000

> <Gold.Chemscore.DEClash.Weighted>
1.2376

> <Gold.Chemscore.DEInternal.Weighted>
1.8634

> <Gold.Chemscore.Rot.Weighted>
3.3384

> <Gold.Chemscore.Internal.Correction.Weighted>
   9.000000E+99

> <Gold.Protein.RotatedTorsions>
[ 6907 6896 6895 6894 ] final  125.38 input  -60.11 | X-H torsion
[ 7974 7965 7964 7962 ] final   70.03 input  175.53 | X-H torsion
[ 8008 7997 7996 7995 ] final    2.47 input   59.86 | X-H torsion
[ 10167 10162 10161 10158 ] final    9.94 input  -65.29 | X-H torsion
[ 10718 10713 10712 10709 ] final -179.65 input   66.30 | X-H torsion
[ 10763 10752 10751 10750 ] final   22.08 input  -60.55 | X-H torsion
[ 11005 11000 10999 10996 ] final -148.50 input  -57.11 | X-H torsion

> <Gold.Protein.ActiveResidues>
 VAL166  LYS551  ARG553  GLY616  TRP617  ASP618  TYR619  PRO620  LYS621  CYS622 
 ASP623  PHE694  ASN695  SER759  ASP760  ASP761  ALA762  ILE779  LEU786  VAL792 
 PHE793  MET794  SER795  GLU796  ALA797  LYS798  CYS799  TRP800  GLU811  SER814 

> <Gold.Protein.RotatedAtoms>
  152.3997  133.6799  159.6305 H   0  0  0  0  0  0  0  0  0  0  0  0  # atno 6907 bound_to 6896
  150.7890  133.8813  159.3295 H   0  0  0  0  0  0  0  0  0  0  0  0  # atno 6908 bound_to 6896
  151.6581  135.0994  160.0225 H   0  0  0  0  0  0  0  0  0  0  0  0  # atno 6909 bound_to 6896
  145.7832  139.2897  143.1254 H   0  0  0  0  0  0  0  0  0  0  0  0  # atno 7974 bound_to 7965
  154.6919  140.2655  155.6804 H   0  0  0  0  0  0  0  0  0  0  0  0  # atno 8008 bound_to 7997
  156.2735  140.2789  156.1424 H   0  0  0  0  0  0  0  0  0  0  0  0  # atno 8009 bound_to 7997
  155.0884  140.0373  157.2651 H   0  0  0  0  0  0  0  0  0  0  0  0  # atno 8010 bound_to 7997
  140.6224  143.8174  150.7192 H   0  0  0  0  0  0  0  0  0  0  0  0  # atno 10167 bound_to 10162
  156.8623  130.9756  151.3082 H   0  0  0  0  0  0  0  0  0  0  0  0  # atno 10718 bound_to 10713
  153.0944  135.6655  153.9792 H   0  0  0  0  0  0  0  0  0  0  0  0  # atno 10763 bound_to 10752
  153.9380  135.2997  155.3445 H   0  0  0  0  0  0  0  0  0  0  0  0  # atno 10764 bound_to 10752
  154.7361  135.5101  153.9118 H   0  0  0  0  0  0  0  0  0  0  0  0  # atno 10765 bound_to 10752
  140.7605  134.3303  157.5103 H   0  0  0  0  0  0  0  0  0  0  0  0  # atno 11005 bound_to 11000
  146.0053  140.8484  142.9998 LP  0  0  0  0  0  0  0  0  0  0  0  0  # atno 17320 bound_to 7965
  144.6793  140.2411  143.7343 LP  0  0  0  0  0  0  0  0  0  0  0  0  # atno 17321 bound_to 7965
  140.1767  143.4149  152.1962 LP  0  0  0  0  0  0  0  0  0  0  0  0  # atno 17342 bound_to 10162
  139.5450  144.7291  151.4611 LP  0  0  0  0  0  0  0  0  0  0  0  0  # atno 17343 bound_to 10162
  157.6243  130.8679  149.9162 LP  0  0  0  0  0  0  0  0  0  0  0  0  # atno 17370 bound_to 10713
  156.0770  130.3677  150.0657 LP  0  0  0  0  0  0  0  0  0  0  0  0  # atno 17371 bound_to 10713
  139.8771  134.9199  156.3238 LP  0  0  0  0  0  0  0  0  0  0  0  0  # atno 17394 bound_to 11000
  140.9667  133.7353  156.0477 LP  0  0  0  0  0  0  0  0  0  0  0  0  # atno 17395 bound_to 11000

$$$$
