AV-unprocessed.smi:3287|AV-procd|sdf|12602|dock2
  -GOLD-   2272018523D 1   1.00000     0.00000
 Structure written by MMmdl.
 43 44  0  0  0  0  0  0  0  0  2 V2000
  152.6680  143.7987  162.2028 C   0  0  0  0  0  0  0  0  0  0  0  0
  151.9649  143.4016  160.8943 C   0  0  2  0  0  0  0  0  0  0  0  0
  152.9517  142.8092  159.8694 C   0  0  0  0  0  0  0  0  0  0  0  0
  152.2254  142.3356  158.6008 C   0  0  0  0  0  0  0  0  0  0  0  0
  151.3994  143.4651  157.9606 C   0  0  1  0  0  0  0  0  0  0  0  0
  150.6914  142.9498  156.7681 N   0  3  0  0  0  0  0  0  0  0  0  0
  150.0283  141.6391  156.9429 C   0  0  0  0  0  0  0  0  0  0  0  0
  149.6361  141.0226  155.5889 C   0  0  1  0  0  0  0  0  0  0  0  0
  149.6060  142.0466  154.6137 O   0  0  0  0  0  0  0  0  0  0  0  0
  150.5881  139.9025  155.1991 C   0  0  0  0  0  0  0  0  0  0  0  0
  151.9409  139.9194  155.6029 C   0  0  0  0  0  0  0  0  0  0  0  0
  152.7730  138.8496  155.2167 C   0  0  0  0  0  0  0  0  0  0  0  0
  152.3417  137.8044  154.4791 N   0  0  0  0  0  0  0  0  0  0  0  0
  151.0472  137.7925  154.0967 C   0  0  0  0  0  0  0  0  0  0  0  0
  150.1323  138.8115  154.4299 C   0  0  0  0  0  0  0  0  0  0  0  0
  150.4147  144.0573  158.9941 C   0  0  0  0  0  0  0  0  0  0  0  0
  151.1215  144.5464  160.2764 C   0  0  2  0  0  0  0  0  0  0  0  0
  151.9082  145.8499  160.0299 C   0  0  0  0  0  0  0  0  0  0  0  0
  153.4541  144.5345  162.0334 H   0  0  0  0  0  0  0  0  0  0  0  0
  153.1316  142.9314  162.6738 H   0  0  0  0  0  0  0  0  0  0  0  0
  151.9606  144.2199  162.9178 H   0  0  0  0  0  0  0  0  0  0  0  0
  151.2663  142.6051  161.1567 H   0  0  0  0  0  0  0  0  0  0  0  0
  153.7111  143.5461  159.6061 H   0  0  0  0  0  0  0  0  0  0  0  0
  153.4864  141.9686  160.3132 H   0  0  0  0  0  0  0  0  0  0  0  0
  152.9545  141.9541  157.8850 H   0  0  0  0  0  0  0  0  0  0  0  0
  151.5737  141.4973  158.8520 H   0  0  0  0  0  0  0  0  0  0  0  0
  152.0905  144.2410  157.6289 H   0  0  0  0  0  0  0  0  0  0  0  0
  149.9748  143.6180  156.5238 H   0  0  0  0  0  0  0  0  0  0  0  0
  150.6792  140.9564  157.4896 H   0  0  0  0  0  0  0  0  0  0  0  0
  149.1334  141.7821  157.5501 H   0  0  0  0  0  0  0  0  0  0  0  0
  148.6286  140.6101  155.6594 H   0  0  0  0  0  0  0  0  0  0  0  0
  149.3319  142.8496  155.0312 H   0  0  0  0  0  0  0  0  0  0  0  0
  152.3371  140.7307  156.1960 H   0  0  0  0  0  0  0  0  0  0  0  0
  153.8123  138.8328  155.5097 H   0  0  0  0  0  0  0  0  0  0  0  0
  150.7297  136.9443  153.5081 H   0  0  0  0  0  0  0  0  0  0  0  0
  149.1058  138.7511  154.0991 H   0  0  0  0  0  0  0  0  0  0  0  0
  149.8469  144.8813  158.5619 H   0  0  0  0  0  0  0  0  0  0  0  0
  149.6798  143.2971  159.2635 H   0  0  0  0  0  0  0  0  0  0  0  0
  150.3374  144.7956  160.9930 H   0  0  0  0  0  0  0  0  0  0  0  0
  152.7626  145.6988  159.3710 H   0  0  0  0  0  0  0  0  0  0  0  0
  152.2814  146.2733  160.9622 H   0  0  0  0  0  0  0  0  0  0  0  0
  151.2716  146.6076  159.5725 H   0  0  0  0  0  0  0  0  0  0  0  0
  151.3442  142.8879  155.9994 H   0  0  0  0  0  0  0  0  0  0  0  0
  1  2  1  0  0  0  0
  1 19  1  0  0  0  0
  1 20  1  0  0  0  0
  1 21  1  0  0  0  0
  2 17  1  0  0  0  0
  2  3  1  0  0  0  0
  2 22  1  0  0  0  0
  3  4  1  0  0  0  0
  3 23  1  0  0  0  0
  3 24  1  0  0  0  0
  4  5  1  0  0  0  0
  4 25  1  0  0  0  0
  4 26  1  0  0  0  0
  5  6  1  0  0  0  0
  5 16  1  0  0  0  0
  5 27  1  0  0  0  0
  6  7  1  0  0  0  0
  6 28  1  0  0  0  0
  6 43  1  0  0  0  0
  7  8  1  0  0  0  0
  7 29  1  0  0  0  0
  7 30  1  0  0  0  0
  8  9  1  0  0  0  0
  8 10  1  0  0  0  0
  8 31  1  0  0  0  0
  9 32  1  0  0  0  0
 10 15  1  0  0  0  0
 10 11  2  0  0  0  0
 11 12  1  0  0  0  0
 11 33  1  0  0  0  0
 12 13  2  0  0  0  0
 12 34  1  0  0  0  0
 13 14  1  0  0  0  0
 14 15  2  0  0  0  0
 14 35  1  0  0  0  0
 15 36  1  0  0  0  0
 16 17  1  0  0  0  0
 16 37  1  0  0  0  0
 16 38  1  0  0  0  0
 17 18  1  0  0  0  0
 17 39  1  0  0  0  0
 18 40  1  0  0  0  0
 18 41  1  0  0  0  0
 18 42  1  0  0  0  0
M  CHG  1   6   1
M  END
> <s_m_source_file>
AV-unprocessed.smi

> <i_m_source_file_index>
3287

> <i_lp_mmshare_version>
43012

> <i_f3d_flags>
0

> <s_epik_input>
W0NIM11bQ0BASF0xW0NIMl1bQ0gyXVtDQEhdKFtDSDJdW0NASF0xW0NIM10pW05IXVtDSDJdW0NASF0oW09IXSljMltjSF1bY0hdbltjSF1bY0hdMg==

> <s_epik_cmdline>
J2VwaWtfcHl0aG9uJywgJy1waCcsICc3LjAnLCAnLXRuJywgJzgnLCAnLW1hJywgJzIwMCcsICctbWV0YWxfYmluZGluZycsICctaW1hZScsICc8aW5maWxlLm1hZT4nLCAnLW9tYWUnLCAnPG91dGZpbGUubWFlPic=

> <r_lp_tautomer_probability>
1

> <r_epik_Ionization_Penalty>
0.00537262

> <r_epik_Ionization_Penalty_Charging>
0.00321624

> <r_epik_Ionization_Penalty_Neutral>
0.00215638

> <r_epik_State_Penalty>
-0

> <r_epik_Charging_Adjusted_Penalty>
0.00321624

> <i_epik_Tot_Q>
1

> <i_epik_Tot_abs_Q>
1

> <r_epik_Metal_State_Penalty>
-0

> <b_epik_Metal_Only>
0

> <s_lp_Force_Field>
OPLS_2005

> <r_lp_Energy>
17.6896

> <b_lp_Chiralities_Consistent>
1

> <s_lp_Variant>
AV-unprocessed.smi:3287-13

> <Gold.Version>
5.8.1

> <Gold.Id.Protein>
6NUR|6NUR_protein|mol2

> <Gold.PLP.Fitness>
57.9678

> <Gold.PLP.PLP>
-47.6497

> <Gold.PLP.part.hbond>
-5.0000

> <Gold.PLP.part.metal>
0.0000

> <Gold.PLP.part.buried>
-1.0652

> <Gold.PLP.part.nonpolar>
-40.5671

> <Gold.PLP.part.repulsive>
0.1450

> <Gold.PLP.ligand.clash>
0.0000

> <Gold.PLP.ligand.torsion>
1.5274

> <Gold.PLP.Chemscore.Hbond>
3.4501

> <Gold.PLP.Chemscore.CHOScore>
0.9920

> <Gold.PLP.Chemscore.Metal>
0.0000

> <Gold.Chemscore.Hbonds>
donor molecule, donor type, donor heavy atom, donor atom, acceptor molecule, acceptor atom, score
      L1  H     6    28       P1  8028  2.00
      L1  H     9    32       P1  8028  1.00
      P1  H  8011  8017       L1     9  0.09
      P1  H 10752 10764       L1    13  0.34
      L1  C    14    35       P1  7948  0.28
      L1  C    14    35       P1  7949  0.72

> <Gold.PLP.Chemscore.Internal.Correction>
0.0466

> <Gold.Rescore>
     Score         DG    S(hbond)    S(metal)    S(lipo)     H(rot)  DE(clash)    DE(int)     intcor
     22.27     -25.00       2.50        0.00     137.07       1.90       1.21       1.53       ----

> <Gold.Chemscore.Fitness>
22.2661

> <Gold.Chemscore.DG>
-25.0027

> <Gold.Chemscore.ZeroCoef>
-5.4800

> <Gold.Chemscore.Hbond>
2.5026

> <Gold.Chemscore.Metal>
0.0000

> <Gold.Chemscore.Lipo>
137.0670

> <Gold.Chemscore.Internal_Hbond>
0.0000

> <Gold.Chemscore.DEClash>
1.2079

> <Gold.Chemscore.DEInternal>
1.5287

> <Gold.Chemscore.Rot>
1.9035

> <Gold.Chemscore.Internal.Correction>
   9.000000E+99

> <Gold.Chemscore.Hbonds>
donor molecule, donor type, donor heavy atom, donor atom, acceptor molecule, acceptor atom, score
      L1  H     6    28       P1  8028  1.00
      L1  H     9    32       P1  8028  0.95
      P1  H  8011  8017       L1     9  0.06
      P1  H 10752 10764       L1    13  0.15

> <Gold.Chemscore.Hbond.Weighted>
-8.3587

> <Gold.Chemscore.Metal.Weighted>
-0.0000

> <Gold.Chemscore.Lipo.Weighted>
-16.0368

> <Gold.Chemscore.Internal_Hbond.Weighted>
0.0000

> <Gold.Chemscore.DEClash.Weighted>
1.2079

> <Gold.Chemscore.DEInternal.Weighted>
1.5287

> <Gold.Chemscore.Rot.Weighted>
4.8729

> <Gold.Chemscore.Internal.Correction.Weighted>
   9.000000E+99

> <Gold.Protein.RotatedTorsions>
[ 6907 6896 6895 6894 ] final   56.14 input  -60.11 | X-H torsion
[ 7974 7965 7964 7962 ] final -116.72 input  175.53 | X-H torsion
[ 8008 7997 7996 7995 ] final  103.54 input   59.86 | X-H torsion
[ 10167 10162 10161 10158 ] final   -5.42 input  -65.29 | X-H torsion
[ 10718 10713 10712 10709 ] final   41.76 input   66.30 | X-H torsion
[ 10763 10752 10751 10750 ] final  -83.01 input  -60.55 | X-H torsion
[ 11005 11000 10999 10996 ] final  115.44 input  -57.11 | X-H torsion

> <Gold.Protein.ActiveResidues>
 VAL166  LYS551  ARG553  GLY616  TRP617  ASP618  TYR619  PRO620  LYS621  CYS622 
 ASP623  PHE694  ASN695  SER759  ASP760  ASP761  ALA762  ILE779  LEU786  VAL792 
 PHE793  MET794  SER795  GLU796  ALA797  LYS798  CYS799  TRP800  GLU811  SER814 

> <Gold.Protein.RotatedAtoms>
  152.3607  134.6876  160.0207 H   0  0  0  0  0  0  0  0  0  0  0  0  # atno 6907 bound_to 6896
  151.7201  133.3309  159.3321 H   0  0  0  0  0  0  0  0  0  0  0  0  # atno 6908 bound_to 6896
  150.7602  134.6390  159.6271 H   0  0  0  0  0  0  0  0  0  0  0  0  # atno 6909 bound_to 6896
  145.0935  140.8505  143.3968 H   0  0  0  0  0  0  0  0  0  0  0  0  # atno 7974 bound_to 7965
  156.1493  140.3163  155.8621 H   0  0  0  0  0  0  0  0  0  0  0  0  # atno 8008 bound_to 7997
  155.4003  140.0499  157.3054 H   0  0  0  0  0  0  0  0  0  0  0  0  # atno 8009 bound_to 7997
  154.5044  140.2141  155.9293 H   0  0  0  0  0  0  0  0  0  0  0  0  # atno 8010 bound_to 7997
  140.6962  143.6310  150.8523 H   0  0  0  0  0  0  0  0  0  0  0  0  # atno 10167 bound_to 10162
  157.3972  130.7840  149.7318 H   0  0  0  0  0  0  0  0  0  0  0  0  # atno 10718 bound_to 10713
  154.5826  135.5571  153.7200 H   0  0  0  0  0  0  0  0  0  0  0  0  # atno 10763 bound_to 10752
  153.0087  135.6324  154.1961 H   0  0  0  0  0  0  0  0  0  0  0  0  # atno 10764 bound_to 10752
  154.1902  135.2883  155.3004 H   0  0  0  0  0  0  0  0  0  0  0  0  # atno 10765 bound_to 10752
  139.9010  134.9584  156.7046 H   0  0  0  0  0  0  0  0  0  0  0  0  # atno 11005 bound_to 11000
  145.1038  139.2804  143.5672 LP  0  0  0  0  0  0  0  0  0  0  0  0  # atno 17320 bound_to 7965
  146.3531  140.0613  142.8629 LP  0  0  0  0  0  0  0  0  0  0  0  0  # atno 17321 bound_to 7965
  140.0028  143.5725  152.2869 LP  0  0  0  0  0  0  0  0  0  0  0  0  # atno 17342 bound_to 10162
  139.6421  144.7655  151.2318 LP  0  0  0  0  0  0  0  0  0  0  0  0  # atno 17343 bound_to 10162
  155.9813  130.4020  150.3476 LP  0  0  0  0  0  0  0  0  0  0  0  0  # atno 17370 bound_to 10713
  157.1600  131.0342  151.2845 LP  0  0  0  0  0  0  0  0  0  0  0  0  # atno 17371 bound_to 10713
  140.7123  133.9212  155.8093 LP  0  0  0  0  0  0  0  0  0  0  0  0  # atno 17394 bound_to 11000
  141.0290  134.0782  157.4035 LP  0  0  0  0  0  0  0  0  0  0  0  0  # atno 17395 bound_to 11000

$$$$
