AV-unprocessed.smi:2768|AV-procd|sdf|10650|dock4
  -GOLD-   2272015103D 1   1.00000     0.00000
 Structure written by MMmdl.
 35 36  0  0  0  0  0  0  0  0  1 V2000
  155.5526  140.8102  160.9464 O   0  0  0  0  0  0  0  0  0  0  0  0
  154.4890  140.2453  160.6885 C   0  0  0  0  0  0  0  0  0  0  0  0
  153.3628  140.9107  160.3818 N   0  0  0  0  0  0  0  0  0  0  0  0
  153.2361  142.3605  160.2592 C   0  0  2  0  0  0  0  0  0  0  0  0
  152.4028  142.9197  161.4288 C   0  0  0  0  0  0  0  0  0  0  0  0
  152.2507  144.4455  161.3270 C   0  0  0  0  0  0  0  0  0  0  0  0
  151.6405  144.8560  159.9778 C   0  0  0  0  0  0  0  0  0  0  0  0
  152.4573  144.2988  158.7980 C   0  0  0  0  0  0  0  0  0  0  0  0
  152.6446  142.7717  158.8870 C   0  0  2  0  0  0  0  0  0  0  0  0
  151.3986  142.1371  158.6618 O   0  0  0  0  0  0  0  0  0  0  0  0
  154.3983  138.7112  160.6995 C   0  0  0  0  0  0  0  0  0  0  0  0
  153.2167  138.3335  160.2055 F   0  0  0  0  0  0  0  0  0  0  0  0
  155.3505  138.2342  159.8954 F   0  0  0  0  0  0  0  0  0  0  0  0
  154.5559  138.1639  162.1179 C   0  0  0  0  0  0  0  0  0  0  0  0
  153.7959  137.0581  162.5646 C   0  0  0  0  0  0  0  0  0  0  0  0
  153.9975  136.5849  163.8754 C   0  0  0  0  0  0  0  0  0  0  0  0
  154.9478  137.2277  164.6907 C   0  0  0  0  0  0  0  0  0  0  0  0
  155.6566  138.3214  164.1571 C   0  0  0  0  0  0  0  0  0  0  0  0
  155.4711  138.7828  162.9020 N   0  0  0  0  0  0  0  0  0  0  0  0
  154.2366  142.7906  160.3391 H   0  0  0  0  0  0  0  0  0  0  0  0
  153.3151  142.4561  158.0868 H   0  0  0  0  0  0  0  0  0  0  0  0
  152.5332  140.3678  160.1899 H   0  0  0  0  0  0  0  0  0  0  0  0
  151.4152  142.4563  161.4395 H   0  0  0  0  0  0  0  0  0  0  0  0
  152.8731  142.6631  162.3787 H   0  0  0  0  0  0  0  0  0  0  0  0
  151.6272  144.8118  162.1429 H   0  0  0  0  0  0  0  0  0  0  0  0
  153.2259  144.9189  161.4466 H   0  0  0  0  0  0  0  0  0  0  0  0
  150.6130  144.4949  159.9173 H   0  0  0  0  0  0  0  0  0  0  0  0
  151.5873  145.9428  159.9104 H   0  0  0  0  0  0  0  0  0  0  0  0
  151.9824  144.5672  157.8536 H   0  0  0  0  0  0  0  0  0  0  0  0
  153.4377  144.7767  158.7902 H   0  0  0  0  0  0  0  0  0  0  0  0
  151.5355  141.2020  158.6652 H   0  0  0  0  0  0  0  0  0  0  0  0
  153.0759  136.5750  161.9210 H   0  0  0  0  0  0  0  0  0  0  0  0
  153.4340  135.7423  164.2482 H   0  0  0  0  0  0  0  0  0  0  0  0
  155.1293  136.8908  165.7006 H   0  0  0  0  0  0  0  0  0  0  0  0
  156.3933  138.8383  164.7540 H   0  0  0  0  0  0  0  0  0  0  0  0
  1  2  2  0  0  0  0
  2  3  1  0  0  0  0
  2 11  1  0  0  0  0
  3  4  1  0  0  0  0
  3 22  1  0  0  0  0
  4 20  1  0  0  0  0
  4  9  1  0  0  0  0
  4  5  1  0  0  0  0
  5  6  1  0  0  0  0
  5 23  1  0  0  0  0
  5 24  1  0  0  0  0
  6  7  1  0  0  0  0
  6 25  1  0  0  0  0
  6 26  1  0  0  0  0
  7  8  1  0  0  0  0
  7 27  1  0  0  0  0
  7 28  1  0  0  0  0
  8  9  1  0  0  0  0
  8 29  1  0  0  0  0
  8 30  1  0  0  0  0
  9 21  1  0  0  0  0
  9 10  1  0  0  0  0
 10 31  1  0  0  0  0
 11 12  1  0  0  0  0
 11 13  1  0  0  0  0
 11 14  1  0  0  0  0
 14 19  1  0  0  0  0
 14 15  2  0  0  0  0
 15 16  1  0  0  0  0
 15 32  1  0  0  0  0
 16 17  2  0  0  0  0
 16 33  1  0  0  0  0
 17 18  1  0  0  0  0
 17 34  1  0  0  0  0
 18 19  2  0  0  0  0
 18 35  1  0  0  0  0
M  END
> <s_m_source_file>
AV-unprocessed.smi

> <i_m_source_file_index>
2768

> <i_lp_mmshare_version>
43012

> <i_f3d_flags>
0

> <s_epik_input>
bjFbY0hdW2NIXVtjSF1bY0hdYzFDKEYpKEYpQyg9TylbTkhdW0NAQEhdMltDSDJdW0NIMl1bQ0gyXVtDSDJdW0NASF0yW09IXQ==

> <s_epik_cmdline>
J2VwaWtfcHl0aG9uJywgJy1waCcsICc3LjAnLCAnLXRuJywgJzgnLCAnLW1hJywgJzIwMCcsICctbWV0YWxfYmluZGluZycsICctaW1hZScsICc8aW5maWxlLm1hZT4nLCAnLW9tYWUnLCAnPG91dGZpbGUubWFlPic=

> <r_lp_tautomer_probability>
1

> <r_epik_Ionization_Penalty>
4.19456e-05

> <r_epik_Ionization_Penalty_Charging>
0

> <r_epik_Ionization_Penalty_Neutral>
4.19456e-05

> <r_epik_State_Penalty>
-0

> <r_epik_Charging_Adjusted_Penalty>
0

> <i_epik_Tot_Q>
0

> <i_epik_Tot_abs_Q>
0

> <r_epik_Metal_State_Penalty>
0.0354684

> <b_epik_Metal_Only>
0

> <s_lp_Force_Field>
OPLS_2005

> <r_lp_Energy>
19.5253

> <b_lp_Chiralities_Consistent>
1

> <s_lp_Variant>
AV-unprocessed.smi:2768-3

> <Gold.Version>
5.8.1

> <Gold.Id.Protein>
6NUR|6NUR_protein|mol2

> <Gold.PLP.Fitness>
43.1463

> <Gold.PLP.PLP>
-45.6280

> <Gold.PLP.part.hbond>
-1.0000

> <Gold.PLP.part.metal>
0.0000

> <Gold.PLP.part.buried>
-5.9413

> <Gold.PLP.part.nonpolar>
-39.5199

> <Gold.PLP.part.repulsive>
0.0814

> <Gold.PLP.ligand.clash>
0.2324

> <Gold.PLP.ligand.torsion>
1.1359

> <Gold.PLP.Chemscore.Hbond>
0.0000

> <Gold.PLP.Chemscore.CHOScore>
0.0000

> <Gold.PLP.Chemscore.Metal>
0.0000

> <Gold.PLP.Chemscore.Internal.Correction>
0.0225

> <Gold.Rescore>
     Score         DG    S(hbond)    S(metal)    S(lipo)     H(rot)  DE(clash)    DE(int)     intcor
     11.62     -14.11       0.00        0.00     117.44       2.00       0.15       2.35       ----

> <Gold.Chemscore.Fitness>
11.6156

> <Gold.Chemscore.DG>
-14.1088

> <Gold.Chemscore.ZeroCoef>
-5.4800

> <Gold.Chemscore.Hbond>
0.0000

> <Gold.Chemscore.Metal>
0.0000

> <Gold.Chemscore.Lipo>
117.4442

> <Gold.Chemscore.Internal_Hbond>
0.0000

> <Gold.Chemscore.DEClash>
0.1470

> <Gold.Chemscore.DEInternal>
2.3461

> <Gold.Chemscore.Rot>
1.9969

> <Gold.Chemscore.Internal.Correction>
   9.000000E+99

> <Gold.Chemscore.Hbond.Weighted>
-0.0000

> <Gold.Chemscore.Metal.Weighted>
-0.0000

> <Gold.Chemscore.Lipo.Weighted>
-13.7410

> <Gold.Chemscore.Internal_Hbond.Weighted>
0.0000

> <Gold.Chemscore.DEClash.Weighted>
0.1470

> <Gold.Chemscore.DEInternal.Weighted>
2.3461

> <Gold.Chemscore.Rot.Weighted>
5.1122

> <Gold.Chemscore.Internal.Correction.Weighted>
   9.000000E+99

> <Gold.Protein.RotatedTorsions>
[ 6907 6896 6895 6894 ] final  -43.44 input  -60.11 | X-H torsion
[ 7974 7965 7964 7962 ] final   80.39 input  175.53 | X-H torsion
[ 8008 7997 7996 7995 ] final   24.90 input   59.86 | X-H torsion
[ 10167 10162 10161 10158 ] final -118.07 input  -65.29 | X-H torsion
[ 10718 10713 10712 10709 ] final  139.53 input   66.30 | X-H torsion
[ 10763 10752 10751 10750 ] final  135.98 input  -60.55 | X-H torsion
[ 11005 11000 10999 10996 ] final -151.90 input  -57.11 | X-H torsion

> <Gold.Protein.ActiveResidues>
 VAL166  LYS551  ARG553  GLY616  TRP617  ASP618  TYR619  PRO620  LYS621  CYS622 
 ASP623  PHE694  ASN695  SER759  ASP760  ASP761  ALA762  ILE779  LEU786  VAL792 
 PHE793  MET794  SER795  GLU796  ALA797  LYS798  CYS799  TRP800  GLU811  SER814 

> <Gold.Protein.RotatedAtoms>
  150.9439  134.8846  159.7629 H   0  0  0  0  0  0  0  0  0  0  0  0  # atno 6907 bound_to 6896
  152.5092  134.3902  159.9391 H   0  0  0  0  0  0  0  0  0  0  0  0  # atno 6908 bound_to 6896
  151.3922  133.3745  159.2757 H   0  0  0  0  0  0  0  0  0  0  0  0  # atno 6909 bound_to 6896
  145.6518  139.2449  143.1972 H   0  0  0  0  0  0  0  0  0  0  0  0  # atno 7974 bound_to 7965
  155.0035  140.3128  155.4858 H   0  0  0  0  0  0  0  0  0  0  0  0  # atno 8008 bound_to 7997
  156.2921  140.2227  156.5086 H   0  0  0  0  0  0  0  0  0  0  0  0  # atno 8009 bound_to 7997
  154.7598  140.0460  157.0951 H   0  0  0  0  0  0  0  0  0  0  0  0  # atno 8010 bound_to 7997
  140.0615  143.4964  152.2029 H   0  0  0  0  0  0  0  0  0  0  0  0  # atno 10167 bound_to 10162
  157.4133  131.1030  151.0431 H   0  0  0  0  0  0  0  0  0  0  0  0  # atno 10718 bound_to 10713
  153.8490  135.3081  155.3431 H   0  0  0  0  0  0  0  0  0  0  0  0  # atno 10763 bound_to 10752
  154.7899  135.4788  154.0033 H   0  0  0  0  0  0  0  0  0  0  0  0  # atno 10764 bound_to 10752
  153.1530  135.6846  153.8947 H   0  0  0  0  0  0  0  0  0  0  0  0  # atno 10765 bound_to 10752
  140.7246  134.3689  157.5177 H   0  0  0  0  0  0  0  0  0  0  0  0  # atno 11005 bound_to 11000
  146.1197  140.7324  142.9463 LP  0  0  0  0  0  0  0  0  0  0  0  0  # atno 17320 bound_to 7965
  144.7120  140.4072  143.7073 LP  0  0  0  0  0  0  0  0  0  0  0  0  # atno 17321 bound_to 7965
  139.5891  144.7543  151.3446 LP  0  0  0  0  0  0  0  0  0  0  0  0  # atno 17342 bound_to 10162
  140.7170  143.7240  150.7674 LP  0  0  0  0  0  0  0  0  0  0  0  0  # atno 17343 bound_to 10162
  157.1388  130.6134  149.5549 LP  0  0  0  0  0  0  0  0  0  0  0  0  # atno 17370 bound_to 10713
  155.9857  130.4889  150.7045 LP  0  0  0  0  0  0  0  0  0  0  0  0  # atno 17371 bound_to 10713
  139.8840  134.8978  156.2730 LP  0  0  0  0  0  0  0  0  0  0  0  0  # atno 17394 bound_to 11000
  140.9974  133.7172  156.0907 LP  0  0  0  0  0  0  0  0  0  0  0  0  # atno 17395 bound_to 11000

$$$$
