AV-unprocessed.smi:915|AV-procd|sdf|4154|dock2
  -GOLD-   22720 2 63D 1   1.00000     0.00000
 Structure written by MMmdl.
 34 35  0  0  0  0  0  0  0  0  1 V2000
  145.1689  142.8597  154.6805 C   0  0  0  0  0  0  0  0  0  0  0  0
  146.4377  142.9485  153.8254 C   0  0  0  0  0  0  0  0  0  0  0  0
  147.2615  141.6988  153.8981 C   0  0  0  0  0  0  0  0  0  0  0  0
  148.5184  141.5704  154.4368 C   0  0  0  0  0  0  0  0  0  0  0  0
  149.1224  139.9401  154.3073 S   0  0  0  0  0  0  0  0  0  0  0  0
  147.6205  139.4882  153.5165 C   0  0  0  0  0  0  0  0  0  0  0  0
  147.3733  138.1616  153.0758 N   0  0  0  0  0  0  0  0  0  0  0  0
  146.2046  137.4972  153.0568 C   0  0  0  0  0  0  0  0  0  0  0  0
  145.1233  137.9489  153.4350 O   0  0  0  0  0  0  0  0  0  0  0  0
  146.3591  136.2590  152.5653 N   0  0  0  0  0  0  0  0  0  0  0  0
  145.2956  135.2705  152.4111 C   0  0  0  0  0  0  0  0  0  0  0  0
  145.4239  134.4832  151.0943 C   0  0  2  0  0  0  0  0  0  0  0  0
  144.1968  133.6283  150.7431 C   0  0  0  0  0  0  0  0  0  0  0  0
  144.6716  132.5436  149.7765 C   0  0  0  0  0  0  0  0  0  0  0  0
  145.9658  131.9825  150.3654 C   0  0  0  0  0  0  0  0  0  0  0  0
  146.8545  133.3663  151.1237 S   0  0  0  0  0  0  0  0  0  0  0  0
  146.7599  140.5026  153.3758 N   0  0  0  0  0  0  0  0  0  0  0  0
  144.5859  143.7778  154.6072 H   0  0  0  0  0  0  0  0  0  0  0  0
  145.4121  142.7033  155.7318 H   0  0  0  0  0  0  0  0  0  0  0  0
  144.5338  142.0348  154.3565 H   0  0  0  0  0  0  0  0  0  0  0  0
  146.1587  143.1528  152.7911 H   0  0  0  0  0  0  0  0  0  0  0  0
  147.0303  143.8049  154.1490 H   0  0  0  0  0  0  0  0  0  0  0  0
  149.1246  142.3353  154.8989 H   0  0  0  0  0  0  0  0  0  0  0  0
  148.1810  137.6596  152.7381 H   0  0  0  0  0  0  0  0  0  0  0  0
  147.2843  135.9751  152.2782 H   0  0  0  0  0  0  0  0  0  0  0  0
  145.3650  134.5823  153.2538 H   0  0  0  0  0  0  0  0  0  0  0  0
  144.3119  135.7377  152.4829 H   0  0  0  0  0  0  0  0  0  0  0  0
  145.6006  135.1815  150.2751 H   0  0  0  0  0  0  0  0  0  0  0  0
  143.8017  133.1551  151.6433 H   0  0  0  0  0  0  0  0  0  0  0  0
  143.3938  134.2283  150.3140 H   0  0  0  0  0  0  0  0  0  0  0  0
  143.9206  131.7661  149.6336 H   0  0  0  0  0  0  0  0  0  0  0  0
  144.8729  132.9869  148.8004 H   0  0  0  0  0  0  0  0  0  0  0  0
  145.7366  131.2570  151.1464 H   0  0  0  0  0  0  0  0  0  0  0  0
  146.5792  131.4832  149.6151 H   0  0  0  0  0  0  0  0  0  0  0  0
  1  2  1  0  0  0  0
  1 18  1  0  0  0  0
  1 19  1  0  0  0  0
  1 20  1  0  0  0  0
  2  3  1  0  0  0  0
  2 21  1  0  0  0  0
  2 22  1  0  0  0  0
  3 17  1  0  0  0  0
  3  4  2  0  0  0  0
  4  5  1  0  0  0  0
  4 23  1  0  0  0  0
  5  6  1  0  0  0  0
  6  7  1  0  0  0  0
  6 17  2  0  0  0  0
  7  8  1  0  0  0  0
  7 24  1  0  0  0  0
  8  9  2  0  0  0  0
  8 10  1  0  0  0  0
 10 11  1  0  0  0  0
 10 25  1  0  0  0  0
 11 12  1  0  0  0  0
 11 26  1  0  0  0  0
 11 27  1  0  0  0  0
 12 16  1  0  0  0  0
 12 13  1  0  0  0  0
 12 28  1  0  0  0  0
 13 14  1  0  0  0  0
 13 29  1  0  0  0  0
 13 30  1  0  0  0  0
 14 15  1  0  0  0  0
 14 31  1  0  0  0  0
 14 32  1  0  0  0  0
 15 16  1  0  0  0  0
 15 33  1  0  0  0  0
 15 34  1  0  0  0  0
M  END
> <s_m_source_file>
AV-unprocessed.smi

> <i_m_source_file_index>
915

> <i_lp_mmshare_version>
43012

> <i_f3d_flags>
0

> <s_epik_input>
W0NIM11bQ0gyXWMxW2NIXXNjKG4xKVtOSF1DKD1PKVtOSF1bQ0gyXVtDQEBIXTJbQ0gyXVtDSDJdW0NIMl1TMg==

> <s_epik_cmdline>
J2VwaWtfcHl0aG9uJywgJy1waCcsICc3LjAnLCAnLXRuJywgJzgnLCAnLW1hJywgJzIwMCcsICctbWV0YWxfYmluZGluZycsICctaW1hZScsICc8aW5maWxlLm1hZT4nLCAnLW9tYWUnLCAnPG91dGZpbGUubWFlPic=

> <r_lp_tautomer_probability>
0.999

> <r_epik_Ionization_Penalty>
0.000460048

> <r_epik_Ionization_Penalty_Charging>
0

> <r_epik_Ionization_Penalty_Neutral>
0.000460048

> <r_epik_State_Penalty>
0.000177984

> <r_epik_Charging_Adjusted_Penalty>
0.000177984

> <i_epik_Tot_Q>
0

> <i_epik_Tot_abs_Q>
0

> <r_epik_Metal_State_Penalty>
0.00612978

> <b_epik_Metal_Only>
0

> <s_lp_Force_Field>
OPLS_2005

> <r_lp_Energy>
7.49707

> <b_lp_Chiralities_Consistent>
1

> <s_lp_Variant>
AV-unprocessed.smi:915-1

> <Gold.Version>
5.8.1

> <Gold.Id.Protein>
6NUR|6NUR_protein|mol2

> <Gold.PLP.Fitness>
42.3586

> <Gold.PLP.PLP>
-34.2940

> <Gold.PLP.part.hbond>
-2.0000

> <Gold.PLP.part.metal>
0.0000

> <Gold.PLP.part.buried>
-4.9379

> <Gold.PLP.part.nonpolar>
-28.1521

> <Gold.PLP.part.repulsive>
1.1912

> <Gold.PLP.ligand.clash>
0.0000

> <Gold.PLP.ligand.torsion>
0.4696

> <Gold.PLP.Chemscore.Hbond>
2.0000

> <Gold.PLP.Chemscore.CHOScore>
0.9990

> <Gold.PLP.Chemscore.Metal>
0.0000

> <Gold.Chemscore.Hbonds>
donor molecule, donor type, donor heavy atom, donor atom, acceptor molecule, acceptor atom, score
      L1  H     7    24       P1  7948  1.00
      L1  H    10    25       P1  7948  1.00
      L1  C     4    23       P1  8028  1.00

> <Gold.PLP.Chemscore.Internal.Correction>
0.0068

> <Gold.Rescore>
     Score         DG    S(hbond)    S(metal)    S(lipo)     H(rot)  DE(clash)    DE(int)     intcor
     16.46     -17.78       1.97        0.00      78.72       1.36       0.14       1.18       ----

> <Gold.Chemscore.Fitness>
16.4593

> <Gold.Chemscore.DG>
-17.7777

> <Gold.Chemscore.ZeroCoef>
-5.4800

> <Gold.Chemscore.Hbond>
1.9669

> <Gold.Chemscore.Metal>
0.0000

> <Gold.Chemscore.Lipo>
78.7228

> <Gold.Chemscore.Internal_Hbond>
0.0000

> <Gold.Chemscore.DEClash>
0.1401

> <Gold.Chemscore.DEInternal>
1.1782

> <Gold.Chemscore.Rot>
1.3603

> <Gold.Chemscore.Internal.Correction>
   9.000000E+99

> <Gold.Chemscore.Hbonds>
donor molecule, donor type, donor heavy atom, donor atom, acceptor molecule, acceptor atom, score
      L1  H     7    24       P1  7948  0.96
      L1  H    10    25       P1  7948  0.99

> <Gold.Chemscore.Hbond.Weighted>
-6.5695

> <Gold.Chemscore.Metal.Weighted>
-0.0000

> <Gold.Chemscore.Lipo.Weighted>
-9.2106

> <Gold.Chemscore.Internal_Hbond.Weighted>
0.0000

> <Gold.Chemscore.DEClash.Weighted>
0.1401

> <Gold.Chemscore.DEInternal.Weighted>
1.1782

> <Gold.Chemscore.Rot.Weighted>
3.4824

> <Gold.Chemscore.Internal.Correction.Weighted>
   9.000000E+99

> <Gold.Protein.RotatedTorsions>
[ 6907 6896 6895 6894 ] final  -56.11 input  -60.11 | X-H torsion
[ 7974 7965 7964 7962 ] final    0.33 input  175.53 | X-H torsion
[ 8008 7997 7996 7995 ] final -147.86 input   59.86 | X-H torsion
[ 10167 10162 10161 10158 ] final  141.77 input  -65.29 | X-H torsion
[ 10718 10713 10712 10709 ] final  -74.27 input   66.30 | X-H torsion
[ 10763 10752 10751 10750 ] final   97.95 input  -60.55 | X-H torsion
[ 11005 11000 10999 10996 ] final  -44.11 input  -57.11 | X-H torsion

> <Gold.Protein.ActiveResidues>
 VAL166  LYS551  ARG553  GLY616  TRP617  ASP618  TYR619  PRO620  LYS621  CYS622 
 ASP623  PHE694  ASN695  SER759  ASP760  ASP761  ALA762  ILE779  LEU786  VAL792 
 PHE793  MET794  SER795  GLU796  ALA797  LYS798  CYS799  TRP800  GLU811  SER814 

> <Gold.Protein.RotatedAtoms>
  150.8195  134.7394  159.6759 H   0  0  0  0  0  0  0  0  0  0  0  0  # atno 6907 bound_to 6896
  152.4311  134.5772  159.9947 H   0  0  0  0  0  0  0  0  0  0  0  0  # atno 6908 bound_to 6896
  151.5960  133.3324  159.3073 H   0  0  0  0  0  0  0  0  0  0  0  0  # atno 6909 bound_to 6896
  146.2433  140.1154  142.8342 H   0  0  0  0  0  0  0  0  0  0  0  0  # atno 7974 bound_to 7965
  155.5823  140.0644  157.2780 H   0  0  0  0  0  0  0  0  0  0  0  0  # atno 8008 bound_to 7997
  154.4329  140.1850  156.1035 H   0  0  0  0  0  0  0  0  0  0  0  0  # atno 8009 bound_to 7997
  156.0296  140.3308  155.7129 H   0  0  0  0  0  0  0  0  0  0  0  0  # atno 8010 bound_to 7997
  139.5012  144.6150  151.6184 H   0  0  0  0  0  0  0  0  0  0  0  0  # atno 10167 bound_to 10162
  156.0249  130.4413  150.2866 H   0  0  0  0  0  0  0  0  0  0  0  0  # atno 10718 bound_to 10713
  153.2831  135.4165  155.1097 H   0  0  0  0  0  0  0  0  0  0  0  0  # atno 10763 bound_to 10752
  154.8496  135.3500  154.6085 H   0  0  0  0  0  0  0  0  0  0  0  0  # atno 10764 bound_to 10752
  153.6506  135.7053  153.5268 H   0  0  0  0  0  0  0  0  0  0  0  0  # atno 10765 bound_to 10752
  141.0428  133.6773  156.2826 H   0  0  0  0  0  0  0  0  0  0  0  0  # atno 11005 bound_to 11000
  145.0451  140.8975  143.5029 LP  0  0  0  0  0  0  0  0  0  0  0  0  # atno 17320 bound_to 7965
  145.1242  139.2674  143.5573 LP  0  0  0  0  0  0  0  0  0  0  0  0  # atno 17321 bound_to 7965
  140.5835  143.9904  150.6282 LP  0  0  0  0  0  0  0  0  0  0  0  0  # atno 17342 bound_to 10162
  140.3061  143.3228  152.0925 LP  0  0  0  0  0  0  0  0  0  0  0  0  # atno 17343 bound_to 10162
  157.0970  131.0185  151.3100 LP  0  0  0  0  0  0  0  0  0  0  0  0  # atno 17370 bound_to 10713
  157.4810  130.7765  149.7414 LP  0  0  0  0  0  0  0  0  0  0  0  0  # atno 17371 bound_to 10713
  140.6202  134.5369  157.5546 LP  0  0  0  0  0  0  0  0  0  0  0  0  # atno 17394 bound_to 11000
  139.9289  134.8002  156.0988 LP  0  0  0  0  0  0  0  0  0  0  0  0  # atno 17395 bound_to 11000

$$$$
