#       Name:                AV-unprocessed.smi:2169
#       Creating user name   scv26
#       Creation time:       Fri Mar 27 12:01:43 2020


#       File generated by GOLD software.
#

@<TRIPOS>MOLECULE
AV-unprocessed.smi:2169
    47    48     1
SMALL
NO_CHARGES


@<TRIPOS>ATOM
      1 ****        -3.8259  -4.3137  -0.8075 C.3            1 S1                 0.0000
      2 ****        -5.3138  -3.2324  -0.7865 S.o2           1 S1                 0.0000
      3 ****        -5.9870  -3.3530  -2.0888 O.2            1 S1                 0.0000
      4 ****        -6.0627  -3.5073   0.4493 O.2            1 S1                 0.0000
      5 ****        -4.6665  -1.6212  -0.6691 N.pl3          1 S1                 0.0000
      6 ****        -4.1372  -1.1308   0.6194 C.3            1 S1                 0.0000
      7 ****        -2.5993  -1.1780   0.6587 C.3            1 S1                 0.0000
      8 ****        -1.9840  -0.4340  -0.5389 C.3            1 S1                 0.0000
      9 ****        -0.5287  -0.5510  -0.5358 N.am           1 S1                 0.0000
     10 ****         0.3053   0.2101   0.1861 C.2            1 S1                 0.0000
     11 ****        -0.0604   1.1008   0.9537 O.2            1 S1                 0.0000
     12 ****         1.5882  -0.1116  -0.0311 N.am           1 S1                 0.0000
     13 ****         2.7285   0.5405   0.6016 C.3            1 S1                 0.0000
     14 ****         3.0496   1.8903  -0.0617 C.3            1 S1                 0.0000
     15 ****         4.2395   2.5751   0.5815 C.ar           1 S1                 0.0000
     16 ****         5.5372   2.4228   0.0447 C.ar           1 S1                 0.0000
     17 ****         6.6236   3.0721   0.6677 C.ar           1 S1                 0.0000
     18 ****         6.3877   3.8584   1.8141 C.ar           1 S1                 0.0000
     19 ****         5.1324   3.9801   2.2993 N.pl3          1 S1                 1.0000
     20 ****         4.0659   3.3750   1.7316 C.ar           1 S1                 0.0000
     21 ****        -2.5485  -1.0171  -1.8425 C.3            1 S1                 0.0000
     22 ****        -4.0863  -0.9696  -1.8607 C.3            1 S1                 0.0000
     23 ****        -4.1431  -5.3534  -0.8828 H              1 S1                 0.0000
     24 ****        -3.2603  -4.1837   0.1134 H              1 S1                 0.0000
     25 ****        -3.2028  -4.0721  -1.6667 H              1 S1                 0.0000
     26 ****        -4.4727  -0.1026   0.7594 H              1 S1                 0.0000
     27 ****        -4.5555  -1.7051   1.4455 H              1 S1                 0.0000
     28 ****        -2.2506  -0.7374   1.5934 H              1 S1                 0.0000
     29 ****        -2.2590  -2.2130   0.6669 H              1 S1                 0.0000
     30 ****        -2.2591   0.6214  -0.4855 H              1 S1                 0.0000
     31 ****        -0.1290  -1.2575  -1.1361 H              1 S1                 0.0000
     32 ****         1.7902  -0.8595  -0.6788 H              1 S1                 0.0000
     33 ****         2.5346   0.6723   1.6676 H              1 S1                 0.0000
     34 ****         3.5871  -0.1269   0.5220 H              1 S1                 0.0000
     35 ****         3.2484   1.7471  -1.1247 H              1 S1                 0.0000
     36 ****         2.1897   2.5585   0.0018 H              1 S1                 0.0000
     37 ****         5.7006   1.8154  -0.8338 H              1 S1                 0.0000
     38 ****         7.6232   2.9681   0.2711 H              1 S1                 0.0000
     39 ****         7.1589   4.3891   2.3534 H              1 S1                 0.0000
     40 ****         3.1134   3.5468   2.2120 H              1 S1                 0.0000
     41 ****        -2.1594  -0.4618  -2.6969 H              1 S1                 0.0000
     42 ****        -2.2080  -2.0444  -1.9681 H              1 S1                 0.0000
     43 ****        -4.4693  -1.4302  -2.7709 H              1 S1                 0.0000
     44 ****        -4.4181   0.0691  -1.8795 H              1 S1                 0.0000
     45 ****         4.9834   4.5537   3.1300 H              1 S1                 0.0000
     46 ****        -1.0350   1.2933   1.0681 LP             1 S1                 0.0000
     47 ****         0.6172   1.6316   1.4627 LP             1 S1                 0.0000
@<TRIPOS>BOND
    1    1    2 1     
    2    1   23 1     
    3    1   24 1     
    4    1   25 1     
    5    2    3 2     
    6    2    4 2     
    7    2    5 1     
    8    5   22 1     
    9    5    6 1     
   10    6    7 1     
   11    6   26 1     
   12    6   27 1     
   13    7    8 1     
   14    7   28 1     
   15    7   29 1     
   16    8    9 1     
   17    8   21 1     
   18    8   30 1     
   19    9   10 am    
   20    9   31 1     
   21   10   11 2     
   22   10   12 am    
   23   12   13 1     
   24   12   32 1     
   25   13   14 1     
   26   13   33 1     
   27   13   34 1     
   28   14   15 1     
   29   14   35 1     
   30   14   36 1     
   31   15   20 ar    
   32   15   16 ar    
   33   16   17 ar    
   34   16   37 1     
   35   17   18 ar    
   36   17   38 1     
   37   18   19 ar    
   38   18   39 1     
   39   19   20 ar    
   40   19   45 1     
   41   20   40 1     
   42   21   22 1     
   43   21   41 1     
   44   21   42 1     
   45   22   43 1     
   46   22   44 1     
   47   11   46 1     
   48   11   47 1     
@<TRIPOS>SUBSTRUCTURE
      1 S1             1
@<TRIPOS>SET
LONE_PAIRS      STATIC     ATOMS    <user>   **** ""
4 3 4 46 47
DONOR_HYDROGENS      STATIC     ATOMS    <user>   **** ""
3 31 32 45
ATOM$BLUE        STATIC     ATOMS    COLORGROUP SYSTEM
4 3 4 46 47
ATOM$RED        STATIC     ATOMS    COLORGROUP SYSTEM
3 31 32 45
