#       Name:                AV-unprocessed.smi:3170
#       Creating user name   scv26
#       Creation time:       Fri Mar 27 17:54:40 2020


#       File generated by GOLD software.
#

@<TRIPOS>MOLECULE
AV-unprocessed.smi:3170
    40    41     1
SMALL
NO_CHARGES


@<TRIPOS>ATOM
      1 ****        -0.0379   1.1759   1.1314 O.2            1 S1                 0.0000
      2 ****        -0.3134  -0.0161   1.2702 C.2            1 S1                 0.0000
      3 ****         0.5976  -0.9991   1.2737 N.am           1 S1                 0.0000
      4 ****         2.0337  -0.7990   1.1212 C.3            1 S1                 0.0000
      5 ****         2.4202  -0.5720  -0.3497 C.3            1 S1                 0.0000
      6 ****         3.8571  -0.3405  -0.5008 N.pl3          1 S1                 0.0000
      7 ****         4.8348  -1.2795  -0.7059 C.2            1 S1                 0.0000
      8 ****         6.0218  -0.5968  -0.7801 C.2            1 S1                 0.0000
      9 ****         5.7181   0.7284  -0.6162 N.pl3          1 S1                 1.0000
     10 ****         4.4009   0.8820  -0.4456 C.2            1 S1                 0.0000
     11 ****        -1.5577  -0.4867   1.4307 N.am           1 S1                 0.0000
     12 ****        -2.7631   0.3347   1.4634 C.3            1 S1                 0.0000
     13 ****        -3.2143   0.7585   0.0526 C.3            1 S1                 0.0000
     14 ****        -3.5768  -0.3873  -0.8717 C.3            1 S1                 0.0000
     15 ****        -4.4055   0.3227  -1.9377 C.3            1 S1                 0.0000
     16 ****        -5.0577   1.3989  -1.2693 O.3            1 S1                 0.0000
     17 ****        -4.5076   1.5724   0.0336 C.3            1 S1                 0.0000
     18 ****         0.2764  -1.9484   1.3959 H              1 S1                 0.0000
     19 ****         2.3572   0.0416   1.7377 H              1 S1                 0.0000
     20 ****         2.5433  -1.6815   1.5086 H              1 S1                 0.0000
     21 ****         2.1534  -1.4378  -0.9572 H              1 S1                 0.0000
     22 ****         1.8941   0.2877  -0.7679 H              1 S1                 0.0000
     23 ****         4.6191  -2.3356  -0.7813 H              1 S1                 0.0000
     24 ****         7.0328  -0.9455  -0.9326 H              1 S1                 0.0000
     25 ****         3.8795   1.8103  -0.2923 H              1 S1                 0.0000
     26 ****        -1.6827  -1.4828   1.5367 H              1 S1                 0.0000
     27 ****        -3.5496  -0.2405   1.9528 H              1 S1                 0.0000
     28 ****        -2.5946   1.2153   2.0857 H              1 S1                 0.0000
     29 ****        -2.4304   1.3521  -0.4209 H              1 S1                 0.0000
     30 ****        -2.7074  -0.9000  -1.2842 H              1 S1                 0.0000
     31 ****        -4.1912  -1.1211  -0.3478 H              1 S1                 0.0000
     32 ****        -3.7564   0.7374  -2.7098 H              1 S1                 0.0000
     33 ****        -5.1231  -0.3419  -2.4192 H              1 S1                 0.0000
     34 ****        -5.2220   1.1829   0.7603 H              1 S1                 0.0000
     35 ****        -4.3398   2.6260   0.2576 H              1 S1                 0.0000
     36 ****         6.3909   1.4847  -0.6218 H              1 S1                 0.0000
     37 ****         0.9139   1.4585   1.0121 LP             1 S1                 0.0000
     38 ****        -0.7659   1.8614   1.1380 LP             1 S1                 0.0000
     39 ****        -6.0340   1.1968  -1.1918 LP             1 S1                 0.0000
     40 ****        -4.9322   2.2397  -1.7958 LP             1 S1                 0.0000
@<TRIPOS>BOND
    1    1    2 2     
    2    2    3 am    
    3    2   11 am    
    4    3    4 1     
    5    3   18 1     
    6    4    5 1     
    7    4   19 1     
    8    4   20 1     
    9    5    6 1     
   10    5   21 1     
   11    5   22 1     
   12    6   10 1     
   13    6    7 1     
   14    7    8 2     
   15    7   23 1     
   16    8    9 1     
   17    8   24 1     
   18    9   10 2     
   19    9   36 1     
   20   10   25 1     
   21   11   12 1     
   22   11   26 1     
   23   12   13 1     
   24   12   27 1     
   25   12   28 1     
   26   13   17 1     
   27   13   14 1     
   28   13   29 1     
   29   14   15 1     
   30   14   30 1     
   31   14   31 1     
   32   15   16 1     
   33   15   32 1     
   34   15   33 1     
   35   16   17 1     
   36   17   34 1     
   37   17   35 1     
   38    1   37 1     
   39    1   38 1     
   40   16   39 1     
   41   16   40 1     
@<TRIPOS>SUBSTRUCTURE
      1 S1             1
@<TRIPOS>SET
LONE_PAIRS      STATIC     ATOMS    <user>   **** ""
4 37 38 39 40
DONOR_HYDROGENS      STATIC     ATOMS    <user>   **** ""
3 18 36 26
ATOM$BLUE        STATIC     ATOMS    COLORGROUP SYSTEM
4 37 38 39 40
ATOM$RED        STATIC     ATOMS    COLORGROUP SYSTEM
3 18 36 26
