AV-unprocessed.smi:2751|AV-procd|sdf|10596|dock9
  -GOLD-   2272015 43D 1   1.00000     0.00000
 Structure written by MMmdl.
 34 35  0  0  0  0  0  0  0  0  1 V2000
  144.9525  137.6591  153.0702 O   0  0  0  0  0  0  0  0  0  0  0  0
  146.0923  137.3571  152.7150 C   0  0  0  0  0  0  0  0  0  0  0  0
  147.1715  138.1108  152.9711 N   0  0  0  0  0  0  0  0  0  0  0  0
  147.1523  139.3842  153.6821 C   0  0  0  0  0  0  0  0  0  0  0  0
  148.5190  140.0874  153.6142 C   0  0  0  0  0  0  0  0  0  0  0  0
  149.5336  139.5244  154.6219 C   0  0  1  0  0  0  0  0  0  0  0  0
  150.2972  138.3128  154.0518 C   0  0  0  0  0  0  0  0  0  0  0  0
  151.3544  137.8240  155.0482 C   0  0  0  0  0  0  0  0  0  0  0  0
  152.2536  138.9934  155.4615 C   0  0  0  0  0  0  0  0  0  0  0  0
  151.4018  140.1734  155.9549 C   0  0  0  0  0  0  0  0  0  0  0  0
  150.4674  140.5524  154.9486 O   0  0  0  0  0  0  0  0  0  0  0  0
  146.4208  136.2506  152.0272 N   0  0  0  0  0  0  0  0  0  0  0  0
  145.5506  135.2294  151.5688 C   0  0  0  0  0  0  0  0  0  0  0  0
  144.2216  135.2069  151.6829 N   0  0  0  0  0  0  0  0  0  0  0  0
  143.8392  134.0149  151.0847 C   0  0  0  0  0  0  0  0  0  0  0  0
  144.9691  133.3784  150.6392 C   0  0  0  0  0  0  0  0  0  0  0  0
  146.0665  134.1399  150.9406 O   0  0  0  0  0  0  0  0  0  0  0  0
  148.0696  137.7869  152.6431 H   0  0  0  0  0  0  0  0  0  0  0  0
  146.3667  140.0262  153.2798 H   0  0  0  0  0  0  0  0  0  0  0  0
  146.8882  139.1865  154.7213 H   0  0  0  0  0  0  0  0  0  0  0  0
  148.9203  139.9805  152.6057 H   0  0  0  0  0  0  0  0  0  0  0  0
  148.3964  141.1581  153.7835 H   0  0  0  0  0  0  0  0  0  0  0  0
  149.0011  139.2218  155.5256 H   0  0  0  0  0  0  0  0  0  0  0  0
  149.6047  137.5032  153.8189 H   0  0  0  0  0  0  0  0  0  0  0  0
  150.7804  138.5899  153.1136 H   0  0  0  0  0  0  0  0  0  0  0  0
  150.8637  137.4086  155.9292 H   0  0  0  0  0  0  0  0  0  0  0  0
  151.9484  137.0212  154.6108 H   0  0  0  0  0  0  0  0  0  0  0  0
  152.9504  138.6783  156.2388 H   0  0  0  0  0  0  0  0  0  0  0  0
  152.8563  139.3116  154.6098 H   0  0  0  0  0  0  0  0  0  0  0  0
  150.8766  139.9166  156.8764 H   0  0  0  0  0  0  0  0  0  0  0  0
  152.0411  141.0271  156.1811 H   0  0  0  0  0  0  0  0  0  0  0  0
  147.3963  136.1284  151.7995 H   0  0  0  0  0  0  0  0  0  0  0  0
  142.8032  133.7161  151.0230 H   0  0  0  0  0  0  0  0  0  0  0  0
  145.1509  132.4460  150.1254 H   0  0  0  0  0  0  0  0  0  0  0  0
  1  2  2  0  0  0  0
  2  3  1  0  0  0  0
  2 12  1  0  0  0  0
  3  4  1  0  0  0  0
  3 18  1  0  0  0  0
  4  5  1  0  0  0  0
  4 19  1  0  0  0  0
  4 20  1  0  0  0  0
  5  6  1  0  0  0  0
  5 21  1  0  0  0  0
  5 22  1  0  0  0  0
  6 11  1  0  0  0  0
  6  7  1  0  0  0  0
  6 23  1  0  0  0  0
  7  8  1  0  0  0  0
  7 24  1  0  0  0  0
  7 25  1  0  0  0  0
  8  9  1  0  0  0  0
  8 26  1  0  0  0  0
  8 27  1  0  0  0  0
  9 10  1  0  0  0  0
  9 28  1  0  0  0  0
  9 29  1  0  0  0  0
 10 11  1  0  0  0  0
 10 30  1  0  0  0  0
 10 31  1  0  0  0  0
 12 13  1  0  0  0  0
 12 32  1  0  0  0  0
 13 17  1  0  0  0  0
 13 14  2  0  0  0  0
 14 15  1  0  0  0  0
 15 16  2  0  0  0  0
 15 33  1  0  0  0  0
 16 17  1  0  0  0  0
 16 34  1  0  0  0  0
M  END
> <s_m_source_file>
AV-unprocessed.smi

> <i_m_source_file_index>
2751

> <i_lp_mmshare_version>
43012

> <i_f3d_flags>
0

> <s_epik_input>
bzFbY0hdW2NIXW5jMVtOSF1DKD1PKVtOSF1bQ0gyXVtDSDJdW0NAQEhdMltDSDJdW0NIMl1bQ0gyXVtDSDJdTzI=

> <s_epik_cmdline>
J2VwaWtfcHl0aG9uJywgJy1waCcsICc3LjAnLCAnLXRuJywgJzgnLCAnLW1hJywgJzIwMCcsICctbWV0YWxfYmluZGluZycsICctaW1hZScsICc8aW5maWxlLm1hZT4nLCAnLW9tYWUnLCAnPG91dGZpbGUubWFlPic=

> <r_lp_tautomer_probability>
0.785861

> <r_epik_Ionization_Penalty>
4.88827e-05

> <r_epik_Ionization_Penalty_Charging>
0

> <r_epik_Ionization_Penalty_Neutral>
4.88827e-05

> <r_epik_State_Penalty>
0.0434822

> <r_epik_Charging_Adjusted_Penalty>
0.0434822

> <i_epik_Tot_Q>
0

> <i_epik_Tot_abs_Q>
0

> <r_epik_Metal_State_Penalty>
0.0598982

> <b_epik_Metal_Only>
0

> <s_lp_Force_Field>
OPLS_2005

> <r_lp_Energy>
7.8545

> <b_lp_Chiralities_Consistent>
1

> <s_lp_Variant>
AV-unprocessed.smi:2751-2

> <Gold.Version>
5.8.1

> <Gold.Id.Protein>
6NUR|6NUR_protein|mol2

> <Gold.PLP.Fitness>
37.0863

> <Gold.PLP.PLP>
-26.4593

> <Gold.PLP.part.hbond>
-2.9498

> <Gold.PLP.part.metal>
0.0000

> <Gold.PLP.part.buried>
-1.4520

> <Gold.PLP.part.nonpolar>
-24.4090

> <Gold.PLP.part.repulsive>
0.7052

> <Gold.PLP.ligand.clash>
0.0000

> <Gold.PLP.ligand.torsion>
0.4472

> <Gold.PLP.Chemscore.Hbond>
2.8400

> <Gold.PLP.Chemscore.CHOScore>
0.9999

> <Gold.PLP.Chemscore.Metal>
0.0000

> <Gold.Chemscore.Hbonds>
donor molecule, donor type, donor heavy atom, donor atom, acceptor molecule, acceptor atom, score
      L1  H     3    18       P1  7948  0.86
      L1  H    12    32       P1  7948  1.00
      P1  H  7989  7998       L1    11  0.98
      L1  C    15    33       P1 10186  1.00

> <Gold.PLP.Chemscore.Internal.Correction>
0.0017

> <Gold.Rescore>
     Score         DG    S(hbond)    S(metal)    S(lipo)     H(rot)  DE(clash)    DE(int)     intcor
     14.87     -17.87       2.88        0.00      59.32       1.63       1.39       1.61       ----

> <Gold.Chemscore.Fitness>
14.8669

> <Gold.Chemscore.DG>
-17.8724

> <Gold.Chemscore.ZeroCoef>
-5.4800

> <Gold.Chemscore.Hbond>
2.8839

> <Gold.Chemscore.Metal>
0.0000

> <Gold.Chemscore.Lipo>
59.3184

> <Gold.Chemscore.Internal_Hbond>
0.0000

> <Gold.Chemscore.DEClash>
1.3946

> <Gold.Chemscore.DEInternal>
1.6110

> <Gold.Chemscore.Rot>
1.6328

> <Gold.Chemscore.Internal.Correction>
   9.000000E+99

> <Gold.Chemscore.Hbonds>
donor molecule, donor type, donor heavy atom, donor atom, acceptor molecule, acceptor atom, score
      L1  H     3    18       P1  7948  0.84
      L1  H    12    32       P1  7948  0.93
      P1  H  7989  7998       L1    11  0.22

> <Gold.Chemscore.Hbond.Weighted>
-9.6321

> <Gold.Chemscore.Metal.Weighted>
-0.0000

> <Gold.Chemscore.Lipo.Weighted>
-6.9403

> <Gold.Chemscore.Internal_Hbond.Weighted>
0.0000

> <Gold.Chemscore.DEClash.Weighted>
1.3946

> <Gold.Chemscore.DEInternal.Weighted>
1.6110

> <Gold.Chemscore.Rot.Weighted>
4.1799

> <Gold.Chemscore.Internal.Correction.Weighted>
   9.000000E+99

> <Gold.Protein.RotatedTorsions>
[ 6907 6896 6895 6894 ] final   30.10 input  -60.11 | X-H torsion
[ 7974 7965 7964 7962 ] final  -66.23 input  175.53 | X-H torsion
[ 8008 7997 7996 7995 ] final  153.58 input   59.86 | X-H torsion
[ 10167 10162 10161 10158 ] final  122.14 input  -65.29 | X-H torsion
[ 10718 10713 10712 10709 ] final  162.53 input   66.30 | X-H torsion
[ 10763 10752 10751 10750 ] final   41.78 input  -60.55 | X-H torsion
[ 11005 11000 10999 10996 ] final -178.68 input  -57.11 | X-H torsion

> <Gold.Protein.ActiveResidues>
 VAL166  LYS551  ARG553  GLY616  TRP617  ASP618  TYR619  PRO620  LYS621  CYS622 
 ASP623  PHE694  ASN695  SER759  ASP760  ASP761  ALA762  ILE779  LEU786  VAL792 
 PHE793  MET794  SER795  GLU796  ALA797  LYS798  CYS799  TRP800  GLU811  SER814 

> <Gold.Protein.RotatedAtoms>
  152.0411  134.9711  160.0573 H   0  0  0  0  0  0  0  0  0  0  0  0  # atno 6907 bound_to 6896
  152.1149  133.4316  159.4656 H   0  0  0  0  0  0  0  0  0  0  0  0  # atno 6908 bound_to 6896
  150.6845  134.2522  159.4559 H   0  0  0  0  0  0  0  0  0  0  0  0  # atno 6909 bound_to 6896
  145.7444  140.8938  143.0513 H   0  0  0  0  0  0  0  0  0  0  0  0  # atno 7974 bound_to 7965
  156.2575  140.1990  156.6512 H   0  0  0  0  0  0  0  0  0  0  0  0  # atno 8008 bound_to 7997
  154.6535  140.0569  157.0008 H   0  0  0  0  0  0  0  0  0  0  0  0  # atno 8009 bound_to 7997
  155.1382  140.3240  155.4461 H   0  0  0  0  0  0  0  0  0  0  0  0  # atno 8010 bound_to 7997
  139.5877  144.7013  151.3368 H   0  0  0  0  0  0  0  0  0  0  0  0  # atno 10167 bound_to 10162
  157.1212  131.0493  151.2414 H   0  0  0  0  0  0  0  0  0  0  0  0  # atno 10718 bound_to 10713
  152.9899  135.6151  154.2842 H   0  0  0  0  0  0  0  0  0  0  0  0  # atno 10763 bound_to 10752
  154.2570  135.2783  155.2795 H   0  0  0  0  0  0  0  0  0  0  0  0  # atno 10764 bound_to 10752
  154.5238  135.5807  153.6760 H   0  0  0  0  0  0  0  0  0  0  0  0  # atno 10765 bound_to 10752
  140.4270  134.6553  157.4693 H   0  0  0  0  0  0  0  0  0  0  0  0  # atno 11005 bound_to 11000
  144.6863  139.9504  143.7478 LP  0  0  0  0  0  0  0  0  0  0  0  0  # atno 17320 bound_to 7965
  146.0417  139.3428  143.0693 LP  0  0  0  0  0  0  0  0  0  0  0  0  # atno 17321 bound_to 7965
  140.7146  143.7301  150.7630 LP  0  0  0  0  0  0  0  0  0  0  0  0  # atno 17342 bound_to 10162
  140.0849  143.4933  152.2510 LP  0  0  0  0  0  0  0  0  0  0  0  0  # atno 17343 bound_to 10162
  157.4475  130.7579  149.7122 LP  0  0  0  0  0  0  0  0  0  0  0  0  # atno 17370 bound_to 10713
  155.9828  130.4006  150.3397 LP  0  0  0  0  0  0  0  0  0  0  0  0  # atno 17371 bound_to 10713
  140.0160  134.6618  155.9309 LP  0  0  0  0  0  0  0  0  0  0  0  0  # atno 17394 bound_to 11000
  141.1761  133.6540  156.4834 LP  0  0  0  0  0  0  0  0  0  0  0  0  # atno 17395 bound_to 11000

$$$$
