AV-unprocessed.smi:276|AV-procd|sdf|2082|dock2
  -GOLD-   2262021353D 1   1.00000     0.00000
 Structure written by MMmdl.
 57 61  0  0  0  0  0  0  0  0  1 V2000
  153.4952  141.1388  160.8095 C   0  0  0  0  0  0  0  0  0  0  0  0
  152.5912  142.1889  160.5140 O   0  0  0  0  0  0  0  0  0  0  0  0
  151.7346  141.8778  159.4269 C   0  0  2  0  0  0  0  0  0  0  0  0
  152.4169  141.1363  158.2708 C   0  0  0  0  0  0  0  0  0  0  0  0
  151.6211  142.0213  157.2910 C   0  0  1  0  0  0  0  0  0  0  0  0
  150.3629  141.3779  156.8879 N   0  0  0  0  0  0  0  0  0  0  0  0
  149.2997  141.3479  157.8888 C   0  0  0  0  0  0  0  0  0  0  0  0
  150.4620  140.1816  156.2654 C   0  0  0  0  0  0  0  0  0  0  0  0
  150.4048  140.1905  154.9103 N   0  0  0  0  0  0  0  0  0  0  0  0
  150.5049  139.0460  154.2288 C   0  0  0  0  0  0  0  0  0  0  0  0
  150.6548  137.8058  154.6979 N   0  0  0  0  0  0  0  0  0  0  0  0
  150.6924  137.7905  156.0610 C   0  0  0  0  0  0  0  0  0  0  0  0
  150.6028  138.9231  156.9188 C   0  0  0  0  0  0  0  0  0  0  0  0
  150.6828  138.5167  158.2455 N   0  0  0  0  0  0  0  0  0  0  0  0
  150.8252  137.2219  158.1757 C   0  0  0  0  0  0  0  0  0  0  0  0
  150.8178  136.6984  156.9026 N   0  0  0  0  0  0  0  0  0  0  0  0
  150.9587  135.2982  156.5405 C   0  0  0  0  0  0  0  0  0  0  0  0
  149.8105  134.3908  157.0433 C   0  0  1  0  0  0  0  0  0  0  0  0
  148.6632  134.8035  156.3284 O   0  0  0  0  0  0  0  0  0  0  0  0
  149.9870  132.8761  156.7857 C   0  0  1  0  0  0  0  0  0  0  0  0
  150.2217  132.4588  155.3313 C   0  0  0  0  0  0  0  0  0  0  0  0
  150.9760  131.1445  155.4425 C   0  0  0  0  0  0  0  0  0  0  0  0
  151.4957  131.1412  156.8799 C   0  0  0  0  0  0  0  0  0  0  0  0
  151.2020  132.4383  157.3778 O   0  0  0  0  0  0  0  0  0  0  0  0
  151.5093  143.0473  158.4517 C   0  0  0  0  0  0  0  0  0  0  0  0
  152.4554  144.2616  158.4769 C   0  0  0  0  0  0  0  0  0  0  0  0
  151.3793  145.0175  159.2608 C   0  0  0  0  0  0  0  0  0  0  0  0
  150.3560  144.0464  158.6672 C   0  0  0  0  0  0  0  0  0  0  0  0
  154.1296  141.4271  161.6476 H   0  0  0  0  0  0  0  0  0  0  0  0
  154.1409  140.9188  159.9585 H   0  0  0  0  0  0  0  0  0  0  0  0
  152.9619  140.2291  161.0886 H   0  0  0  0  0  0  0  0  0  0  0  0
  150.7919  141.4174  159.7306 H   0  0  0  0  0  0  0  0  0  0  0  0
  153.4901  141.3296  158.2251 H   0  0  0  0  0  0  0  0  0  0  0  0
  152.2110  140.0663  158.2400 H   0  0  0  0  0  0  0  0  0  0  0  0
  152.2348  142.3635  156.4578 H   0  0  0  0  0  0  0  0  0  0  0  0
  148.6473  140.4783  157.7893 H   0  0  0  0  0  0  0  0  0  0  0  0
  148.6757  142.2361  157.7913 H   0  0  0  0  0  0  0  0  0  0  0  0
  149.7183  141.3363  158.8956 H   0  0  0  0  0  0  0  0  0  0  0  0
  150.4585  139.1369  153.1536 H   0  0  0  0  0  0  0  0  0  0  0  0
  150.9256  136.6080  159.0589 H   0  0  0  0  0  0  0  0  0  0  0  0
  151.0142  135.2560  155.4516 H   0  0  0  0  0  0  0  0  0  0  0  0
  151.9175  134.9338  156.9121 H   0  0  0  0  0  0  0  0  0  0  0  0
  149.6279  134.5687  158.1030 H   0  0  0  0  0  0  0  0  0  0  0  0
  148.4549  135.6903  156.5792 H   0  0  0  0  0  0  0  0  0  0  0  0
  149.1508  132.3095  157.2007 H   0  0  0  0  0  0  0  0  0  0  0  0
  149.2964  132.3530  154.7661 H   0  0  0  0  0  0  0  0  0  0  0  0
  150.8503  133.1924  154.8247 H   0  0  0  0  0  0  0  0  0  0  0  0
  150.3175  130.2922  155.2725 H   0  0  0  0  0  0  0  0  0  0  0  0
  151.7866  131.0948  154.7150 H   0  0  0  0  0  0  0  0  0  0  0  0
  150.9687  130.3969  157.4780 H   0  0  0  0  0  0  0  0  0  0  0  0
  152.5642  130.9333  156.9389 H   0  0  0  0  0  0  0  0  0  0  0  0
  153.3955  144.1171  159.0096 H   0  0  0  0  0  0  0  0  0  0  0  0
  152.6218  144.6826  157.4838 H   0  0  0  0  0  0  0  0  0  0  0  0
  151.4886  144.9097  160.3412 H   0  0  0  0  0  0  0  0  0  0  0  0
  151.2464  146.0591  158.9671 H   0  0  0  0  0  0  0  0  0  0  0  0
  149.9276  144.4429  157.7475 H   0  0  0  0  0  0  0  0  0  0  0  0
  149.5835  143.7152  159.3614 H   0  0  0  0  0  0  0  0  0  0  0  0
  1  2  1  0  0  0  0
  1 29  1  0  0  0  0
  1 30  1  0  0  0  0
  1 31  1  0  0  0  0
  2  3  1  0  0  0  0
  3 25  1  0  0  0  0
  3  4  1  0  0  0  0
  3 32  1  0  0  0  0
  4  5  1  0  0  0  0
  4 33  1  0  0  0  0
  4 34  1  0  0  0  0
  5  6  1  0  0  0  0
  5 25  1  0  0  0  0
  5 35  1  0  0  0  0
  6  7  1  0  0  0  0
  6  8  1  0  0  0  0
  7 36  1  0  0  0  0
  7 37  1  0  0  0  0
  7 38  1  0  0  0  0
  8 13  1  0  0  0  0
  8  9  2  0  0  0  0
  9 10  1  0  0  0  0
 10 11  2  0  0  0  0
 10 39  1  0  0  0  0
 11 12  1  0  0  0  0
 12 16  1  0  0  0  0
 12 13  2  0  0  0  0
 13 14  1  0  0  0  0
 14 15  2  0  0  0  0
 15 16  1  0  0  0  0
 15 40  1  0  0  0  0
 16 17  1  0  0  0  0
 17 18  1  0  0  0  0
 17 41  1  0  0  0  0
 17 42  1  0  0  0  0
 18 19  1  0  0  0  0
 18 20  1  0  0  0  0
 18 43  1  0  0  0  0
 19 44  1  0  0  0  0
 20 24  1  0  0  0  0
 20 21  1  0  0  0  0
 20 45  1  0  0  0  0
 21 22  1  0  0  0  0
 21 46  1  0  0  0  0
 21 47  1  0  0  0  0
 22 23  1  0  0  0  0
 22 48  1  0  0  0  0
 22 49  1  0  0  0  0
 23 24  1  0  0  0  0
 23 50  1  0  0  0  0
 23 51  1  0  0  0  0
 25 28  1  0  0  0  0
 25 26  1  0  0  0  0
 26 27  1  0  0  0  0
 26 52  1  0  0  0  0
 26 53  1  0  0  0  0
 27 28  1  0  0  0  0
 27 54  1  0  0  0  0
 27 55  1  0  0  0  0
 28 56  1  0  0  0  0
 28 57  1  0  0  0  0
M  END
> <s_m_source_file>
AV-unprocessed.smi

> <i_m_source_file_index>
276

> <i_lp_mmshare_version>
43012

> <i_f3d_flags>
0

> <s_epik_input>
W0NIMl0xW0NIMl1bQ0gyXUMxMltDQEhdKE9bQ0gzXSlbQ0gyXVtDQEhdMk4oW0NIM10pYyhuW2NIXW4zKWMoYzM0KW5bY0hdbjRbQ0gyXVtDQEhdKFtPSF0pW0NAQEhdNVtDSDJdW0NIMl1bQ0gyXU81

> <s_epik_cmdline>
J2VwaWtfcHl0aG9uJywgJy1waCcsICc3LjAnLCAnLXRuJywgJzgnLCAnLW1hJywgJzIwMCcsICctbWV0YWxfYmluZGluZycsICctaW1hZScsICc8aW5maWxlLm1hZT4nLCAnLW9tYWUnLCAnPG91dGZpbGUubWFlPic=

> <r_lp_tautomer_probability>
1

> <r_epik_Ionization_Penalty>
0.00204117

> <r_epik_Ionization_Penalty_Charging>
0

> <r_epik_Ionization_Penalty_Neutral>
0.00204117

> <r_epik_State_Penalty>
0.00127401

> <r_epik_Charging_Adjusted_Penalty>
0.00127401

> <i_epik_Tot_Q>
0

> <i_epik_Tot_abs_Q>
0

> <r_epik_Metal_State_Penalty>
-0

> <b_epik_Metal_Only>
0

> <s_lp_Force_Field>
OPLS_2005

> <r_lp_Energy>
59.2093

> <b_lp_Chiralities_Consistent>
1

> <s_lp_Variant>
AV-unprocessed.smi:276-13

> <Gold.Version>
5.8.1

> <Gold.Id.Protein>
6NUR|6NUR_protein|mol2

> <Gold.PLP.Fitness>
42.9343

> <Gold.PLP.PLP>
-40.0527

> <Gold.PLP.part.hbond>
-2.0000

> <Gold.PLP.part.metal>
0.0000

> <Gold.PLP.part.buried>
-7.9857

> <Gold.PLP.part.nonpolar>
-31.0352

> <Gold.PLP.part.repulsive>
0.3113

> <Gold.PLP.ligand.clash>
2.3610

> <Gold.PLP.ligand.torsion>
1.2301

> <Gold.PLP.Chemscore.Hbond>
1.2500

> <Gold.PLP.Chemscore.CHOScore>
1.0000

> <Gold.PLP.Chemscore.Metal>
0.0000

> <Gold.Chemscore.Hbonds>
donor molecule, donor type, donor heavy atom, donor atom, acceptor molecule, acceptor atom, score
      P1  H  6896  6909       L1    24  0.93
      P1  H  7989  7998       L1     9  0.20
      L1  C    10    39       P1  7957  1.00

> <Gold.PLP.Chemscore.Internal.Correction>
0.9530

> <Gold.Rescore>
     Score         DG    S(hbond)    S(metal)    S(lipo)     H(rot)  DE(clash)    DE(int)     intcor
     12.24     -15.13       0.98        0.00     114.01       2.72       0.56       2.33       ----

> <Gold.Chemscore.Fitness>
12.2390

> <Gold.Chemscore.DG>
-15.1253

> <Gold.Chemscore.ZeroCoef>
-5.4800

> <Gold.Chemscore.Hbond>
0.9765

> <Gold.Chemscore.Metal>
0.0000

> <Gold.Chemscore.Lipo>
114.0142

> <Gold.Chemscore.Internal_Hbond>
0.0000

> <Gold.Chemscore.DEClash>
0.5569

> <Gold.Chemscore.DEInternal>
2.3294

> <Gold.Chemscore.Rot>
2.7172

> <Gold.Chemscore.Internal.Correction>
   9.000000E+99

> <Gold.Chemscore.Hbonds>
donor molecule, donor type, donor heavy atom, donor atom, acceptor molecule, acceptor atom, score
      P1  H  6896  6909       L1    24  0.65

> <Gold.Chemscore.Hbond.Weighted>
-3.2616

> <Gold.Chemscore.Metal.Weighted>
-0.0000

> <Gold.Chemscore.Lipo.Weighted>
-13.3397

> <Gold.Chemscore.Internal_Hbond.Weighted>
0.0000

> <Gold.Chemscore.DEClash.Weighted>
0.5569

> <Gold.Chemscore.DEInternal.Weighted>
2.3294

> <Gold.Chemscore.Rot.Weighted>
6.9560

> <Gold.Chemscore.Internal.Correction.Weighted>
   9.000000E+99

> <Gold.Protein.RotatedTorsions>
[ 6907 6896 6895 6894 ] final  -46.67 input  -60.11 | X-H torsion
[ 7974 7965 7964 7962 ] final -148.71 input  175.53 | X-H torsion
[ 8008 7997 7996 7995 ] final -112.88 input   59.86 | X-H torsion
[ 10167 10162 10161 10158 ] final  -22.99 input  -65.29 | X-H torsion
[ 10718 10713 10712 10709 ] final -145.44 input   66.30 | X-H torsion
[ 10763 10752 10751 10750 ] final  117.48 input  -60.55 | X-H torsion
[ 11005 11000 10999 10996 ] final  137.12 input  -57.11 | X-H torsion

> <Gold.Protein.ActiveResidues>
 VAL166  LYS551  ARG553  GLY616  TRP617  ASP618  TYR619  PRO620  LYS621  CYS622 
 ASP623  PHE694  ASN695  SER759  ASP760  ASP761  ALA762  ILE779  LEU786  VAL792 
 PHE793  MET794  SER795  GLU796  ALA797  LYS798  CYS799  TRP800  GLU811  SER814 

> <Gold.Protein.RotatedAtoms>
  150.9088  134.8504  159.7410 H   0  0  0  0  0  0  0  0  0  0  0  0  # atno 6907 bound_to 6896
  152.4933  134.4391  159.9547 H   0  0  0  0  0  0  0  0  0  0  0  0  # atno 6908 bound_to 6896
  151.4435  133.3597  159.2820 H   0  0  0  0  0  0  0  0  0  0  0  0  # atno 6909 bound_to 6896
  144.8012  140.5160  143.5706 H   0  0  0  0  0  0  0  0  0  0  0  0  # atno 7974 bound_to 7965
  155.0120  140.0393  157.2403 H   0  0  0  0  0  0  0  0  0  0  0  0  # atno 8008 bound_to 7997
  154.7452  140.2756  155.6316 H   0  0  0  0  0  0  0  0  0  0  0  0  # atno 8009 bound_to 7997
  156.2873  140.2658  156.2190 H   0  0  0  0  0  0  0  0  0  0  0  0  # atno 8010 bound_to 7997
  140.7287  143.4483  151.0553 H   0  0  0  0  0  0  0  0  0  0  0  0  # atno 10167 bound_to 10162
  156.3825  130.7844  151.2038 H   0  0  0  0  0  0  0  0  0  0  0  0  # atno 10718 bound_to 10713
  153.5531  135.3535  155.2768 H   0  0  0  0  0  0  0  0  0  0  0  0  # atno 10763 bound_to 10752
  154.8704  135.4118  154.2915 H   0  0  0  0  0  0  0  0  0  0  0  0  # atno 10764 bound_to 10752
  153.3645  135.7061  153.6755 H   0  0  0  0  0  0  0  0  0  0  0  0  # atno 10765 bound_to 10752
  140.0092  134.9446  157.0242 H   0  0  0  0  0  0  0  0  0  0  0  0  # atno 11005 bound_to 11000
  145.5548  139.1477  143.3374 LP  0  0  0  0  0  0  0  0  0  0  0  0  # atno 17320 bound_to 7965
  146.2294  140.5686  142.8982 LP  0  0  0  0  0  0  0  0  0  0  0  0  # atno 17321 bound_to 7965
  139.8157  143.7889  152.3174 LP  0  0  0  0  0  0  0  0  0  0  0  0  # atno 17342 bound_to 10162
  139.7954  144.7394  150.9898 LP  0  0  0  0  0  0  0  0  0  0  0  0  # atno 17343 bound_to 10162
  157.7493  131.0340  150.4296 LP  0  0  0  0  0  0  0  0  0  0  0  0  # atno 17370 bound_to 10713
  156.4543  130.4018  149.6616 LP  0  0  0  0  0  0  0  0  0  0  0  0  # atno 17371 bound_to 10713
  140.4585  134.1509  155.7188 LP  0  0  0  0  0  0  0  0  0  0  0  0  # atno 17394 bound_to 11000
  141.1699  133.8629  157.1602 LP  0  0  0  0  0  0  0  0  0  0  0  0  # atno 17395 bound_to 11000

$$$$
