AV-unprocessed.smi:1683|AV-procd|sdf|6752|dock10
  -GOLD-   22720 7513D 1   1.00000     0.00000
 Structure written by MMmdl.
 37 38  0  0  0  0  0  0  0  0  2 V2000
  150.2594  135.8230  156.3187 O   0  0  0  0  0  0  0  0  0  0  0  0
  149.9568  135.9414  155.1314 C   0  0  0  0  0  0  0  0  0  0  0  0
  149.3363  134.9861  154.4246 N   0  0  0  0  0  0  0  0  0  0  0  0
  148.9276  133.6850  154.9446 C   0  0  0  0  0  0  0  0  0  0  0  0
  148.6721  132.6889  153.8017 C   0  0  1  0  0  0  0  0  0  0  0  0
  148.3253  131.2681  154.2503 C   0  0  0  0  0  0  0  0  0  0  0  0
  147.5300  130.6749  153.0788 C   0  0  0  0  0  0  0  0  0  0  0  0
  147.1387  131.8083  152.2055 N   0  3  1  0  0  0  0  0  0  0  0  0
  145.7509  131.7654  151.6840 C   0  0  0  0  0  0  0  0  0  0  0  0
  145.6013  132.5016  150.3413 C   0  0  0  0  0  0  0  0  0  0  0  0
  144.3584  132.3383  149.8910 F   0  0  0  0  0  0  0  0  0  0  0  0
  145.8281  133.8045  150.5084 F   0  0  0  0  0  0  0  0  0  0  0  0
  146.4478  132.0213  149.4314 F   0  0  0  0  0  0  0  0  0  0  0  0
  147.4751  133.0523  152.9251 C   0  0  0  0  0  0  0  0  0  0  0  0
  150.1989  137.0271  154.3783 N   0  0  0  0  0  0  0  0  0  0  0  0
  150.8272  138.2323  154.7835 C   0  0  0  0  0  0  0  0  0  0  0  0
  152.2205  138.4939  154.6802 C   0  0  0  0  0  0  0  0  0  0  0  0
  152.5212  139.7017  155.1358 N   0  0  0  0  0  0  0  0  0  0  0  0
  151.3331  140.2137  155.5289 N   0  0  0  0  0  0  0  0  0  0  0  0
  150.2741  139.3548  155.3333 C   0  0  0  0  0  0  0  0  0  0  0  0
  151.2617  141.1405  155.9245 H   0  0  0  0  0  0  0  0  0  0  0  0
  149.1325  135.1732  153.4537 H   0  0  0  0  0  0  0  0  0  0  0  0
  149.7121  133.3147  155.6057 H   0  0  0  0  0  0  0  0  0  0  0  0
  148.0240  133.7705  155.5506 H   0  0  0  0  0  0  0  0  0  0  0  0
  149.5573  132.6432  153.1645 H   0  0  0  0  0  0  0  0  0  0  0  0
  149.2091  130.6783  154.4961 H   0  0  0  0  0  0  0  0  0  0  0  0
  147.6924  131.3003  155.1384 H   0  0  0  0  0  0  0  0  0  0  0  0
  148.1408  129.9812  152.5002 H   0  0  0  0  0  0  0  0  0  0  0  0
  146.6656  130.1236  153.4515 H   0  0  0  0  0  0  0  0  0  0  0  0
  145.4103  130.7321  151.6022 H   0  0  0  0  0  0  0  0  0  0  0  0
  145.0982  132.2486  152.4128 H   0  0  0  0  0  0  0  0  0  0  0  0
  146.6313  133.3548  153.5484 H   0  0  0  0  0  0  0  0  0  0  0  0
  147.6945  133.8668  152.2339 H   0  0  0  0  0  0  0  0  0  0  0  0
  149.9013  136.9900  153.4145 H   0  0  0  0  0  0  0  0  0  0  0  0
  153.0074  137.8607  154.2971 H   0  0  0  0  0  0  0  0  0  0  0  0
  149.2601  139.6179  155.5964 H   0  0  0  0  0  0  0  0  0  0  0  0
  147.7570  131.7778  151.4071 H   0  0  0  0  0  0  0  0  0  0  0  0
  1  2  2  0  0  0  0
  2  3  1  0  0  0  0
  2 15  1  0  0  0  0
  3  4  1  0  0  0  0
  3 22  1  0  0  0  0
  4  5  1  0  0  0  0
  4 23  1  0  0  0  0
  4 24  1  0  0  0  0
  5 14  1  0  0  0  0
  5  6  1  0  0  0  0
  5 25  1  0  0  0  0
  6  7  1  0  0  0  0
  6 26  1  0  0  0  0
  6 27  1  0  0  0  0
  7  8  1  0  0  0  0
  7 28  1  0  0  0  0
  7 29  1  0  0  0  0
  8  9  1  0  0  0  0
  8 14  1  0  0  0  0
  8 37  1  0  0  0  0
  9 10  1  0  0  0  0
  9 30  1  0  0  0  0
  9 31  1  0  0  0  0
 10 11  1  0  0  0  0
 10 12  1  0  0  0  0
 10 13  1  0  0  0  0
 14 32  1  0  0  0  0
 14 33  1  0  0  0  0
 15 16  1  0  0  0  0
 15 34  1  0  0  0  0
 16 20  2  0  0  0  0
 16 17  1  0  0  0  0
 17 18  2  0  0  0  0
 17 35  1  0  0  0  0
 18 19  1  0  0  0  0
 19 21  1  0  0  0  0
 19 20  1  0  0  0  0
 20 36  1  0  0  0  0
M  CHG  1   8   1
M  END
> <s_m_source_file>
AV-unprocessed.smi

> <i_m_source_file_index>
1683

> <i_lp_mmshare_version>
43012

> <i_f3d_flags>
0

> <s_epik_input>
W2NIXTFbbkhdbltjSF1jMVtOSF1DKD1PKVtOSF1bQ0gyXVtDQEBIXTJbQ0gyXVtDSDJdTihbQ0gyXTIpW0NIMl1DKEYpKEYpRg==

> <s_epik_cmdline>
J2VwaWtfcHl0aG9uJywgJy1waCcsICc3LjAnLCAnLXRuJywgJzgnLCAnLW1hJywgJzIwMCcsICctbWV0YWxfYmluZGluZycsICctaW1hZScsICc8aW5maWxlLm1hZT4nLCAnLW9tYWUnLCAnPG91dGZpbGUubWFlPic=

> <r_lp_tautomer_probability>
0.5

> <r_epik_Ionization_Penalty>
0.641865

> <r_epik_Ionization_Penalty_Charging>
0.64182

> <r_epik_Ionization_Penalty_Neutral>
4.50685e-05

> <r_epik_State_Penalty>
0.65957

> <r_epik_Charging_Adjusted_Penalty>
1.30139

> <i_epik_Tot_Q>
1

> <i_epik_Tot_abs_Q>
1

> <r_epik_Metal_State_Penalty>
0.659571

> <b_epik_Metal_Only>
0

> <s_lp_Force_Field>
OPLS_2005

> <r_lp_Energy>
31.2098

> <b_lp_Chiralities_Consistent>
1

> <s_lp_Variant>
AV-unprocessed.smi:1683-6

> <Gold.Version>
5.8.1

> <Gold.Id.Protein>
6NUR|6NUR_protein|mol2

> <Gold.PLP.Fitness>
50.1231

> <Gold.PLP.PLP>
-40.5510

> <Gold.PLP.part.hbond>
-5.8101

> <Gold.PLP.part.metal>
0.0000

> <Gold.PLP.part.buried>
-6.2106

> <Gold.PLP.part.nonpolar>
-30.4367

> <Gold.PLP.part.repulsive>
1.2869

> <Gold.PLP.ligand.clash>
0.0000

> <Gold.PLP.ligand.torsion>
1.1833

> <Gold.PLP.Chemscore.Hbond>
3.8260

> <Gold.PLP.Chemscore.CHOScore>
0.0000

> <Gold.PLP.Chemscore.Metal>
0.0000

> <Gold.Chemscore.Hbonds>
donor molecule, donor type, donor heavy atom, donor atom, acceptor molecule, acceptor atom, score
      L1  H     3    22       P1  7948  1.00
      L1  H     8    37       P1 10747  1.00
      L1  H    15    34       P1  7948  1.00
      P1  H  7997  8008       L1    18  0.73

> <Gold.PLP.Chemscore.Internal.Correction>
0.4608

> <Gold.Rescore>
     Score         DG    S(hbond)    S(metal)    S(lipo)     H(rot)  DE(clash)    DE(int)     intcor
     13.57     -15.02       2.00        0.00      64.15       1.81       0.24       1.22       ----

> <Gold.Chemscore.Fitness>
13.5665

> <Gold.Chemscore.DG>
-15.0210

> <Gold.Chemscore.ZeroCoef>
-5.4800

> <Gold.Chemscore.Hbond>
1.9981

> <Gold.Chemscore.Metal>
0.0000

> <Gold.Chemscore.Lipo>
64.1462

> <Gold.Chemscore.Internal_Hbond>
0.0000

> <Gold.Chemscore.DEClash>
0.2359

> <Gold.Chemscore.DEInternal>
1.2187

> <Gold.Chemscore.Rot>
1.8116

> <Gold.Chemscore.Internal.Correction>
   9.000000E+99

> <Gold.Chemscore.Hbonds>
donor molecule, donor type, donor heavy atom, donor atom, acceptor molecule, acceptor atom, score
      L1  H     3    22       P1  7948  0.30
      L1  H     8    37       P1 10747  0.95
      L1  H    15    34       P1  7948  0.34
      P1  H  7997  8008       L1    18  0.72

> <Gold.Chemscore.Hbond.Weighted>
-6.6737

> <Gold.Chemscore.Metal.Weighted>
-0.0000

> <Gold.Chemscore.Lipo.Weighted>
-7.5051

> <Gold.Chemscore.Internal_Hbond.Weighted>
0.0000

> <Gold.Chemscore.DEClash.Weighted>
0.2359

> <Gold.Chemscore.DEInternal.Weighted>
1.2187

> <Gold.Chemscore.Rot.Weighted>
4.6378

> <Gold.Chemscore.Internal.Correction.Weighted>
   9.000000E+99

> <Gold.Protein.RotatedTorsions>
[ 6907 6896 6895 6894 ] final  103.83 input  -60.11 | X-H torsion
[ 7974 7965 7964 7962 ] final   56.64 input  175.53 | X-H torsion
[ 8008 7997 7996 7995 ] final  -12.86 input   59.86 | X-H torsion
[ 10167 10162 10161 10158 ] final  -16.86 input  -65.29 | X-H torsion
[ 10718 10713 10712 10709 ] final -116.96 input   66.30 | X-H torsion
[ 10763 10752 10751 10750 ] final -177.52 input  -60.55 | X-H torsion
[ 11005 11000 10999 10996 ] final   32.90 input  -57.11 | X-H torsion

> <Gold.Protein.ActiveResidues>
 VAL166  LYS551  ARG553  GLY616  TRP617  ASP618  TYR619  PRO620  LYS621  CYS622 
 ASP623  PHE694  ASN695  SER759  ASP760  ASP761  ALA762  ILE779  LEU786  VAL792 
 PHE793  MET794  SER795  GLU796  ALA797  LYS798  CYS799  TRP800  GLU811  SER814 

> <Gold.Protein.RotatedAtoms>
  152.5283  133.9767  159.7787 H   0  0  0  0  0  0  0  0  0  0  0  0  # atno 6907 bound_to 6896
  151.0028  133.6031  159.2700 H   0  0  0  0  0  0  0  0  0  0  0  0  # atno 6908 bound_to 6896
  151.3134  135.0806  159.9333 H   0  0  0  0  0  0  0  0  0  0  0  0  # atno 6909 bound_to 6896
  145.9376  139.3860  143.0383 H   0  0  0  0  0  0  0  0  0  0  0  0  # atno 7974 bound_to 7965
  154.5341  140.2265  155.8753 H   0  0  0  0  0  0  0  0  0  0  0  0  # atno 8008 bound_to 7997
  156.1794  140.3104  155.9083 H   0  0  0  0  0  0  0  0  0  0  0  0  # atno 8009 bound_to 7997
  155.3390  140.0449  157.3035 H   0  0  0  0  0  0  0  0  0  0  0  0  # atno 8010 bound_to 7997
  140.7239  143.5073  150.9793 H   0  0  0  0  0  0  0  0  0  0  0  0  # atno 10167 bound_to 10162
  156.1000  130.6164  150.9103 H   0  0  0  0  0  0  0  0  0  0  0  0  # atno 10718 bound_to 10713
  154.5591  135.2819  155.0936 H   0  0  0  0  0  0  0  0  0  0  0  0  # atno 10763 bound_to 10752
  154.2352  135.6367  153.5192 H   0  0  0  0  0  0  0  0  0  0  0  0  # atno 10764 bound_to 10752
  153.0024  135.5546  154.6180 H   0  0  0  0  0  0  0  0  0  0  0  0  # atno 10765 bound_to 10752
  140.2686  134.3108  155.7835 H   0  0  0  0  0  0  0  0  0  0  0  0  # atno 11005 bound_to 11000
  145.8343  140.9614  143.0832 LP  0  0  0  0  0  0  0  0  0  0  0  0  # atno 17320 bound_to 7965
  144.6774  140.0202  143.7484 LP  0  0  0  0  0  0  0  0  0  0  0  0  # atno 17321 bound_to 7965
  139.8785  143.7102  152.3159 LP  0  0  0  0  0  0  0  0  0  0  0  0  # atno 17342 bound_to 10162
  139.7376  144.7567  151.0704 LP  0  0  0  0  0  0  0  0  0  0  0  0  # atno 17343 bound_to 10162
  157.6168  131.0932  150.8695 LP  0  0  0  0  0  0  0  0  0  0  0  0  # atno 17370 bound_to 10713
  156.8825  130.5184  149.5290 LP  0  0  0  0  0  0  0  0  0  0  0  0  # atno 17371 bound_to 10713
  141.2180  133.7453  156.9300 LP  0  0  0  0  0  0  0  0  0  0  0  0  # atno 17394 bound_to 11000
  140.1394  134.9303  157.2447 LP  0  0  0  0  0  0  0  0  0  0  0  0  # atno 17395 bound_to 11000

$$$$
