#       Name:                AV-unprocessed.smi:234
#       Creating user name   scv26
#       Creation time:       Thu Mar 26 20:34:42 2020


#       File generated by GOLD software.
#

@<TRIPOS>MOLECULE
AV-unprocessed.smi:234
    69    72     1
SMALL
NO_CHARGES


@<TRIPOS>ATOM
      1 ****        -6.6670   2.3068  -1.8645 C.3            1 S1                 0.0000
      2 ****        -6.0348   1.9987  -0.5002 C.3            1 S1                 0.0000
      3 ****        -4.6550   2.3310  -0.4872 O.3            1 S1                 0.0000
      4 ****        -3.8222   1.4037  -1.1776 C.3            1 S1                 0.0000
      5 ****        -2.6963   0.9232  -0.2614 C.3            1 S1                 0.0000
      6 ****        -1.8899   2.1267  -0.7707 C.3            1 S1                 0.0000
      7 ****        -0.4628   1.8534  -0.9744 N.3            1 S1                 0.0000
      8 ****         0.3130   2.8205  -1.7443 C.3            1 S1                 0.0000
      9 ****         0.2440   1.3465   0.0672 C.ar           1 S1                 0.0000
     10 ****        -0.1305   1.6178   1.3462 N.ar           1 S1                 0.0000
     11 ****         0.5729   1.1294   2.3718 C.ar           1 S1                 0.0000
     12 ****         1.6652   0.3634   2.3451 N.ar           1 S1                 0.0000
     13 ****         2.0476   0.0916   1.0644 C.ar           1 S1                 0.0000
     14 ****         1.4029   0.5438  -0.1211 C.ar           1 S1                 0.0000
     15 ****         2.0772   0.0684  -1.2393 N.2            1 S1                 0.0000
     16 ****         3.0633  -0.6278  -0.7428 C.2            1 S1                 0.0000
     17 ****         3.1168  -0.6735   0.6323 N.pl3          1 S1                 0.0000
     18 ****         4.0976  -1.3796   1.4420 C.3            1 S1                 0.0000
     19 ****         3.7337  -2.8632   1.6873 C.3            1 S1                 0.0000
     20 ****         3.7221  -3.5356   0.4377 O.3            1 S1                 0.0000
     21 ****         2.3848  -3.0685   2.3604 C.3            1 S1                 0.0000
     22 ****         2.5396  -4.4423   3.0003 C.3            1 S1                 0.0000
     23 ****         3.8967  -4.4981   3.4198 O.3            1 S1                 0.0000
     24 ****         4.6857  -3.5682   2.6783 C.3            1 S1                 0.0000
     25 ****         5.9212  -4.2563   2.0761 C.3            1 S1                 0.0000
     26 ****        -2.7538   2.0939  -2.0630 C.3            1 S1                 0.0000
     27 ****        -2.2594   1.2261  -3.2322 C.3            1 S1                 0.0000
     28 ****        -3.1549   3.4463  -2.6582 C.3            1 S1                 0.0000
     29 ****        -7.7353   2.0913  -1.8526 H              1 S1                 0.0000
     30 ****        -6.2199   1.7126  -2.6611 H              1 S1                 0.0000
     31 ****        -6.5421   3.3586  -2.1225 H              1 S1                 0.0000
     32 ****        -6.5283   2.5988   0.2643 H              1 S1                 0.0000
     33 ****        -6.1838   0.9546  -0.2209 H              1 S1                 0.0000
     34 ****        -4.3518   0.5887  -1.6744 H              1 S1                 0.0000
     35 ****        -2.9315   0.9465   0.8031 H              1 S1                 0.0000
     36 ****        -2.2866  -0.0429  -0.5613 H              1 S1                 0.0000
     37 ****        -2.0822   3.0205  -0.1740 H              1 S1                 0.0000
     38 ****         1.0873   3.2958  -1.1397 H              1 S1                 0.0000
     39 ****        -0.3224   3.6123  -2.1389 H              1 S1                 0.0000
     40 ****         0.7952   2.3257  -2.5873 H              1 S1                 0.0000
     41 ****         0.2083   1.3908   3.3542 H              1 S1                 0.0000
     42 ****         3.7797  -1.1389  -1.3696 H              1 S1                 0.0000
     43 ****         5.0686  -1.3045   0.9509 H              1 S1                 0.0000
     44 ****         4.1950  -0.8515   2.3915 H              1 S1                 0.0000
     45 ****         3.5259  -4.4471   0.5919 H              1 S1                 0.0000
     46 ****         2.2402  -2.3252   3.1454 H              1 S1                 0.0000
     47 ****         1.5366  -3.0042   1.6775 H              1 S1                 0.0000
     48 ****         1.8557  -4.5976   3.8348 H              1 S1                 0.0000
     49 ****         2.3636  -5.2292   2.2658 H              1 S1                 0.0000
     50 ****         5.0292  -2.8358   3.4101 H              1 S1                 0.0000
     51 ****         6.5234  -3.5506   1.5038 H              1 S1                 0.0000
     52 ****         5.6441  -5.0785   1.4160 H              1 S1                 0.0000
     53 ****         6.5532  -4.6694   2.8622 H              1 S1                 0.0000
     54 ****        -1.4258   1.6914  -3.7586 H              1 S1                 0.0000
     55 ****        -3.0508   1.0594  -3.9633 H              1 S1                 0.0000
     56 ****        -1.9201   0.2446  -2.9004 H              1 S1                 0.0000
     57 ****        -2.3509   3.8855  -3.2488 H              1 S1                 0.0000
     58 ****        -3.4112   4.1679  -1.8823 H              1 S1                 0.0000
     59 ****        -4.0238   3.3506  -3.3098 H              1 S1                 0.0000
     60 ****        -4.3524   2.3752   0.4649 LP             1 S1                 0.0000
     61 ****        -4.5449   3.2287  -0.9138 LP             1 S1                 0.0000
     62 ****        -0.5929   1.0781  -1.5923 LP             1 S1                 0.0000
     63 ****        -0.9355   2.1851   1.5197 LP             1 S1                 0.0000
     64 ****         2.1420   0.0315   3.1591 LP             1 S1                 0.0000
     65 ****         1.8576   0.2239  -2.2024 LP             1 S1                 0.0000
     66 ****         4.6177  -3.4520   0.0007 LP             1 S1                 0.0000
     67 ****         3.0233  -3.1351  -0.1550 LP             1 S1                 0.0000
     68 ****         4.2498  -5.4218   3.2712 LP             1 S1                 0.0000
     69 ****         3.9503  -4.2733   4.3928 LP             1 S1                 0.0000
@<TRIPOS>BOND
    1    1    2 1     
    2    1   29 1     
    3    1   30 1     
    4    1   31 1     
    5    2    3 1     
    6    2   32 1     
    7    2   33 1     
    8    3    4 1     
    9    4   26 1     
   10    4    5 1     
   11    4   34 1     
   12    5    6 1     
   13    5   35 1     
   14    5   36 1     
   15    6    7 1     
   16    6   26 1     
   17    6   37 1     
   18    7    8 1     
   19    7    9 1     
   20    8   38 1     
   21    8   39 1     
   22    8   40 1     
   23    9   14 ar    
   24    9   10 ar    
   25   10   11 ar    
   26   11   12 ar    
   27   11   41 1     
   28   12   13 ar    
   29   13   17 1     
   30   13   14 ar    
   31   14   15 1     
   32   15   16 2     
   33   16   17 1     
   34   16   42 1     
   35   17   18 1     
   36   18   19 1     
   37   18   43 1     
   38   18   44 1     
   39   19   24 1     
   40   19   20 1     
   41   19   21 1     
   42   20   45 1     
   43   21   22 1     
   44   21   46 1     
   45   21   47 1     
   46   22   23 1     
   47   22   48 1     
   48   22   49 1     
   49   23   24 1     
   50   24   25 1     
   51   24   50 1     
   52   25   51 1     
   53   25   52 1     
   54   25   53 1     
   55   26   27 1     
   56   26   28 1     
   57   27   54 1     
   58   27   55 1     
   59   27   56 1     
   60   28   57 1     
   61   28   58 1     
   62   28   59 1     
   63    3   60 1     
   64    3   61 1     
   65    7   62 1     
   66   10   63 1     
   67   12   64 1     
   68   15   65 1     
   69   20   66 1     
   70   20   67 1     
   71   23   68 1     
   72   23   69 1     
@<TRIPOS>SUBSTRUCTURE
      1 S1             1
@<TRIPOS>SET
LONE_PAIRS      STATIC     ATOMS    <user>   **** ""
10 60 61 62 63 64 65 66 67 68 69
DONOR_HYDROGENS      STATIC     ATOMS    <user>   **** ""
1 45
ATOM$BLUE        STATIC     ATOMS    COLORGROUP SYSTEM
10 60 61 62 63 64 65 66 67 68 69
ATOM$RED        STATIC     ATOMS    COLORGROUP SYSTEM
1 45
