AV-unprocessed.smi:558|AV-procd|sdf|2922|dock3
  -GOLD-   2262023413D 1   1.00000     0.00000
 Structure written by MMmdl.
 36 37  0  0  0  0  0  0  0  0  1 V2000
  151.6233  144.5031  158.2936 C   0  0  0  0  0  0  0  0  0  0  0  0
  152.1657  143.7633  159.4807 C   0  0  0  0  0  0  0  0  0  0  0  0
  152.2260  144.1932  160.8355 C   0  0  0  0  0  0  0  0  0  0  0  0
  152.8108  143.1497  161.4957 C   0  0  0  0  0  0  0  0  0  0  0  0
  153.1503  142.9984  162.9424 C   0  0  0  0  0  0  0  0  0  0  0  0
  153.0704  142.1714  160.5510 N   0  0  0  0  0  0  0  0  0  0  0  0
  153.7008  140.8689  160.7199 C   0  0  0  0  0  0  0  0  0  0  0  0
  153.6851  140.0592  159.4197 C   0  0  0  0  0  0  0  0  0  0  0  0
  154.7298  139.5789  158.9816 O   0  0  0  0  0  0  0  0  0  0  0  0
  152.4959  139.9158  158.8161 N   0  0  0  0  0  0  0  0  0  0  0  0
  152.2410  139.1084  157.6311 C   0  0  0  0  0  0  0  0  0  0  0  0
  151.6978  139.9882  156.4933 C   0  0  2  0  0  0  0  0  0  0  0  0
  150.3864  140.6851  156.8033 C   0  0  0  0  0  0  0  0  0  0  0  0
  149.8840  141.0449  155.4084 C   0  0  0  0  0  0  0  0  0  0  0  0
  150.3905  140.0367  154.5370 O   0  0  0  0  0  0  0  0  0  0  0  0
  151.3273  139.2157  155.2284 C   0  0  0  0  0  0  0  0  0  0  0  0
  152.6710  142.5522  159.3176 N   0  0  0  0  0  0  0  0  0  0  0  0
  151.1001  145.4091  158.5998 H   0  0  0  0  0  0  0  0  0  0  0  0
  150.9196  143.8874  157.7325 H   0  0  0  0  0  0  0  0  0  0  0  0
  152.4255  144.7964  157.6159 H   0  0  0  0  0  0  0  0  0  0  0  0
  151.8911  145.1286  161.2588 H   0  0  0  0  0  0  0  0  0  0  0  0
  152.8950  143.9007  163.4981 H   0  0  0  0  0  0  0  0  0  0  0  0
  154.2161  142.8148  163.0765 H   0  0  0  0  0  0  0  0  0  0  0  0
  152.6023  142.1666  163.3855 H   0  0  0  0  0  0  0  0  0  0  0  0
  154.7290  141.0008  161.0567 H   0  0  0  0  0  0  0  0  0  0  0  0
  153.1774  140.3226  161.5064 H   0  0  0  0  0  0  0  0  0  0  0  0
  151.6948  140.3549  159.2456 H   0  0  0  0  0  0  0  0  0  0  0  0
  153.1710  138.6280  157.3251 H   0  0  0  0  0  0  0  0  0  0  0  0
  151.5290  138.3120  157.8553 H   0  0  0  0  0  0  0  0  0  0  0  0
  152.4404  140.7445  156.2324 H   0  0  0  0  0  0  0  0  0  0  0  0
  149.6924  139.9942  157.2844 H   0  0  0  0  0  0  0  0  0  0  0  0
  150.5020  141.5560  157.4499 H   0  0  0  0  0  0  0  0  0  0  0  0
  148.7963  141.1036  155.3609 H   0  0  0  0  0  0  0  0  0  0  0  0
  150.2888  142.0079  155.0953 H   0  0  0  0  0  0  0  0  0  0  0  0
  152.1942  138.9904  154.6069 H   0  0  0  0  0  0  0  0  0  0  0  0
  150.8378  138.2737  155.4790 H   0  0  0  0  0  0  0  0  0  0  0  0
  1  2  1  0  0  0  0
  1 18  1  0  0  0  0
  1 19  1  0  0  0  0
  1 20  1  0  0  0  0
  2 17  2  0  0  0  0
  2  3  1  0  0  0  0
  3  4  2  0  0  0  0
  3 21  1  0  0  0  0
  4  5  1  0  0  0  0
  4  6  1  0  0  0  0
  5 22  1  0  0  0  0
  5 23  1  0  0  0  0
  5 24  1  0  0  0  0
  6  7  1  0  0  0  0
  6 17  1  0  0  0  0
  7  8  1  0  0  0  0
  7 25  1  0  0  0  0
  7 26  1  0  0  0  0
  8  9  2  0  0  0  0
  8 10  1  0  0  0  0
 10 11  1  0  0  0  0
 10 27  1  0  0  0  0
 11 12  1  0  0  0  0
 11 28  1  0  0  0  0
 11 29  1  0  0  0  0
 12 16  1  0  0  0  0
 12 13  1  0  0  0  0
 12 30  1  0  0  0  0
 13 14  1  0  0  0  0
 13 31  1  0  0  0  0
 13 32  1  0  0  0  0
 14 15  1  0  0  0  0
 14 33  1  0  0  0  0
 14 34  1  0  0  0  0
 15 16  1  0  0  0  0
 16 35  1  0  0  0  0
 16 36  1  0  0  0  0
M  END
> <s_m_source_file>
AV-unprocessed.smi

> <i_m_source_file_index>
558

> <i_lp_mmshare_version>
43012

> <i_f3d_flags>
0

> <s_epik_input>
W0NIM11jMVtjSF1jKFtDSDNdKW4objEpW0NIMl1DKD1PKVtOSF1bQ0gyXVtDQEBIXTJbQ0gyXVtDSDJdT1tDSDJdMg==

> <s_epik_cmdline>
J2VwaWtfcHl0aG9uJywgJy1waCcsICc3LjAnLCAnLXRuJywgJzgnLCAnLW1hJywgJzIwMCcsICctbWV0YWxfYmluZGluZycsICctaW1hZScsICc8aW5maWxlLm1hZT4nLCAnLW9tYWUnLCAnPG91dGZpbGUubWFlPic=

> <r_lp_tautomer_probability>
1

> <r_epik_Ionization_Penalty>
0.000376629

> <r_epik_Ionization_Penalty_Charging>
0

> <r_epik_Ionization_Penalty_Neutral>
0.000376629

> <r_epik_State_Penalty>
-0

> <r_epik_Charging_Adjusted_Penalty>
0

> <i_epik_Tot_Q>
0

> <i_epik_Tot_abs_Q>
0

> <r_epik_Metal_State_Penalty>
-0

> <b_epik_Metal_Only>
0

> <s_lp_Force_Field>
OPLS_2005

> <r_lp_Energy>
17.1643

> <b_lp_Chiralities_Consistent>
1

> <s_lp_Variant>
AV-unprocessed.smi:558-1

> <Gold.Version>
5.8.1

> <Gold.Id.Protein>
6NUR|6NUR_protein|mol2

> <Gold.PLP.Fitness>
50.0371

> <Gold.PLP.PLP>
-44.1946

> <Gold.PLP.part.hbond>
-2.0000

> <Gold.PLP.part.metal>
0.0000

> <Gold.PLP.part.buried>
-4.6227

> <Gold.PLP.part.nonpolar>
-37.1273

> <Gold.PLP.part.repulsive>
0.2079

> <Gold.PLP.ligand.clash>
0.0000

> <Gold.PLP.ligand.torsion>
0.0840

> <Gold.PLP.Chemscore.Hbond>
2.0000

> <Gold.PLP.Chemscore.CHOScore>
0.0000

> <Gold.PLP.Chemscore.Metal>
0.0000

> <Gold.Chemscore.Hbonds>
donor molecule, donor type, donor heavy atom, donor atom, acceptor molecule, acceptor atom, score
      P1  H  7989  7998       L1    15  0.80
      P1  H  7997  8008       L1     9  1.00

> <Gold.PLP.Chemscore.Internal.Correction>
0.0104

> <Gold.Rescore>
     Score         DG    S(hbond)    S(metal)    S(lipo)     H(rot)  DE(clash)    DE(int)     intcor
     16.14     -17.69       1.14        0.00     105.49       1.54       0.06       1.48       ----

> <Gold.Chemscore.Fitness>
16.1444

> <Gold.Chemscore.DG>
-17.6924

> <Gold.Chemscore.ZeroCoef>
-5.4800

> <Gold.Chemscore.Hbond>
1.1404

> <Gold.Chemscore.Metal>
0.0000

> <Gold.Chemscore.Lipo>
105.4917

> <Gold.Chemscore.Internal_Hbond>
0.0000

> <Gold.Chemscore.DEClash>
0.0641

> <Gold.Chemscore.DEInternal>
1.4839

> <Gold.Chemscore.Rot>
1.5387

> <Gold.Chemscore.Internal.Correction>
   9.000000E+99

> <Gold.Chemscore.Hbonds>
donor molecule, donor type, donor heavy atom, donor atom, acceptor molecule, acceptor atom, score
      P1  H  7989  7998       L1    15  0.06
      P1  H  7997  8008       L1     9  0.74

> <Gold.Chemscore.Hbond.Weighted>
-3.8090

> <Gold.Chemscore.Metal.Weighted>
-0.0000

> <Gold.Chemscore.Lipo.Weighted>
-12.3425

> <Gold.Chemscore.Internal_Hbond.Weighted>
0.0000

> <Gold.Chemscore.DEClash.Weighted>
0.0641

> <Gold.Chemscore.DEInternal.Weighted>
1.4839

> <Gold.Chemscore.Rot.Weighted>
3.9392

> <Gold.Chemscore.Internal.Correction.Weighted>
   9.000000E+99

> <Gold.Protein.RotatedTorsions>
[ 6907 6896 6895 6894 ] final -148.49 input  -60.11 | X-H torsion
[ 7974 7965 7964 7962 ] final  132.52 input  175.53 | X-H torsion
[ 8008 7997 7996 7995 ] final -107.94 input   59.86 | X-H torsion
[ 10167 10162 10161 10158 ] final  -66.94 input  -65.29 | X-H torsion
[ 10718 10713 10712 10709 ] final  -70.79 input   66.30 | X-H torsion
[ 10763 10752 10751 10750 ] final -176.75 input  -60.55 | X-H torsion
[ 11005 11000 10999 10996 ] final -168.94 input  -57.11 | X-H torsion

> <Gold.Protein.ActiveResidues>
 VAL166  LYS551  ARG553  GLY616  TRP617  ASP618  TYR619  PRO620  LYS621  CYS622 
 ASP623  PHE694  ASN695  SER759  ASP760  ASP761  ALA762  ILE779  LEU786  VAL792 
 PHE793  MET794  SER795  GLU796  ALA797  LYS798  CYS799  TRP800  GLU811  SER814 

> <Gold.Protein.RotatedAtoms>
  151.1705  133.4787  159.2593 H   0  0  0  0  0  0  0  0  0  0  0  0  # atno 6907 bound_to 6896
  151.1360  135.0155  159.8614 H   0  0  0  0  0  0  0  0  0  0  0  0  # atno 6908 bound_to 6896
  152.5461  134.1604  159.8608 H   0  0  0  0  0  0  0  0  0  0  0  0  # atno 6909 bound_to 6896
  144.9960  139.4359  143.5316 H   0  0  0  0  0  0  0  0  0  0  0  0  # atno 7974 bound_to 7965
  154.9369  140.0403  157.2077 H   0  0  0  0  0  0  0  0  0  0  0  0  # atno 8008 bound_to 7997
  154.8106  140.2867  155.5834 H   0  0  0  0  0  0  0  0  0  0  0  0  # atno 8009 bound_to 7997
  156.2971  140.2537  156.2994 H   0  0  0  0  0  0  0  0  0  0  0  0  # atno 8010 bound_to 7997
  140.5620  143.2313  151.6710 H   0  0  0  0  0  0  0  0  0  0  0  0  # atno 10167 bound_to 10162
  156.0392  130.4338  150.2347 H   0  0  0  0  0  0  0  0  0  0  0  0  # atno 10718 bound_to 10713
  154.5686  135.2826  155.0850 H   0  0  0  0  0  0  0  0  0  0  0  0  # atno 10763 bound_to 10752
  154.2231  135.6387  153.5155 H   0  0  0  0  0  0  0  0  0  0  0  0  # atno 10764 bound_to 10752
  153.0050  135.5519  154.6302 H   0  0  0  0  0  0  0  0  0  0  0  0  # atno 10765 bound_to 10752
  140.5363  134.5566  157.5088 H   0  0  0  0  0  0  0  0  0  0  0  0  # atno 11005 bound_to 11000
  146.3442  139.9320  142.8752 LP  0  0  0  0  0  0  0  0  0  0  0  0  # atno 17320 bound_to 7965
  145.2219  140.9938  143.4040 LP  0  0  0  0  0  0  0  0  0  0  0  0  # atno 17321 bound_to 7965
  139.5074  144.3646  152.0529 LP  0  0  0  0  0  0  0  0  0  0  0  0  # atno 17342 bound_to 10162
  140.2774  144.3898  150.6130 LP  0  0  0  0  0  0  0  0  0  0  0  0  # atno 17343 bound_to 10162
  157.0444  131.0044  151.3273 LP  0  0  0  0  0  0  0  0  0  0  0  0  # atno 17370 bound_to 10713
  157.5186  130.7983  149.7784 LP  0  0  0  0  0  0  0  0  0  0  0  0  # atno 17371 bound_to 10713
  139.9527  134.7588  156.0411 LP  0  0  0  0  0  0  0  0  0  0  0  0  # atno 17394 bound_to 11000
  141.1252  133.6601  156.3319 LP  0  0  0  0  0  0  0  0  0  0  0  0  # atno 17395 bound_to 11000

$$$$
