AV-unprocessed.smi:1705|AV-procd|sdf|6883|dock3
  -GOLD-   22720 8 93D 1   1.00000     0.00000
 Structure written by MMmdl.
 38 39  0  0  0  0  0  0  0  0  1 V2000
  152.6156  139.6199  155.4269 C   0  0  0  0  0  0  0  0  0  0  0  0
  151.4272  139.6796  156.3980 C   0  0  1  0  0  0  0  0  0  0  0  0
  151.8804  140.1185  157.7108 N   0  0  0  0  0  0  0  0  0  0  0  0
  152.4905  139.3525  158.7007 C   0  0  0  0  0  0  0  0  0  0  0  0
  152.7490  138.0241  158.5331 C   0  0  0  0  0  0  0  0  0  0  0  0
  152.4719  137.3048  157.3296 C   0  0  0  0  0  0  0  0  0  0  0  0
  152.2813  136.7211  156.3477 N   0  0  0  0  0  0  0  0  0  0  0  0
  153.3798  137.2195  159.5776 C   0  0  0  0  0  0  0  0  0  0  0  0
  153.6177  136.0144  159.4662 O   0  0  0  0  0  0  0  0  0  0  0  0
  153.7012  137.9239  160.7550 N   0  0  0  0  0  0  0  0  0  0  0  0
  154.3177  137.1558  161.8192 C   0  0  0  0  0  0  0  0  0  0  0  0
  153.4398  139.2944  160.9578 C   0  0  0  0  0  0  0  0  0  0  0  0
  153.7162  139.8572  162.0217 O   0  0  0  0  0  0  0  0  0  0  0  0
  152.8386  140.0035  159.8888 N   0  0  0  0  0  0  0  0  0  0  0  0
  152.6078  141.4093  160.1573 C   0  0  0  0  0  0  0  0  0  0  0  0
  150.3164  140.6121  155.8809 C   0  0  2  0  0  0  0  0  0  0  0  0
  148.9425  140.3653  156.5069 C   0  0  0  0  0  0  0  0  0  0  0  0
  147.9726  140.8900  155.4605 C   0  0  0  0  0  0  0  0  0  0  0  0
  148.8182  140.9944  154.1884 C   0  0  0  0  0  0  0  0  0  0  0  0
  150.0533  140.3689  154.5079 O   0  0  0  0  0  0  0  0  0  0  0  0
  152.3100  139.2363  154.4533 H   0  0  0  0  0  0  0  0  0  0  0  0
  153.4039  138.9676  155.8024 H   0  0  0  0  0  0  0  0  0  0  0  0
  153.0509  140.6079  155.2732 H   0  0  0  0  0  0  0  0  0  0  0  0
  150.9984  138.6819  156.4826 H   0  0  0  0  0  0  0  0  0  0  0  0
  151.3302  140.8882  158.0641 H   0  0  0  0  0  0  0  0  0  0  0  0
  154.6877  137.8021  162.6144 H   0  0  0  0  0  0  0  0  0  0  0  0
  155.1616  136.6109  161.3911 H   0  0  0  0  0  0  0  0  0  0  0  0
  153.5568  136.4741  162.2023 H   0  0  0  0  0  0  0  0  0  0  0  0
  151.8767  141.4692  160.9654 H   0  0  0  0  0  0  0  0  0  0  0  0
  152.2292  141.9151  159.2721 H   0  0  0  0  0  0  0  0  0  0  0  0
  153.5629  141.8559  160.4406 H   0  0  0  0  0  0  0  0  0  0  0  0
  150.6017  141.6586  156.0073 H   0  0  0  0  0  0  0  0  0  0  0  0
  148.7806  139.2962  156.6520 H   0  0  0  0  0  0  0  0  0  0  0  0
  148.8254  140.8552  157.4738 H   0  0  0  0  0  0  0  0  0  0  0  0
  147.1289  140.2108  155.3336 H   0  0  0  0  0  0  0  0  0  0  0  0
  147.5784  141.8679  155.7387 H   0  0  0  0  0  0  0  0  0  0  0  0
  148.3470  140.5124  153.3316 H   0  0  0  0  0  0  0  0  0  0  0  0
  148.9998  142.0396  153.9339 H   0  0  0  0  0  0  0  0  0  0  0  0
  1  2  1  0  0  0  0
  1 21  1  0  0  0  0
  1 22  1  0  0  0  0
  1 23  1  0  0  0  0
  2  3  1  0  0  0  0
  2 16  1  0  0  0  0
  2 24  1  0  0  0  0
  3  4  1  0  0  0  0
  3 25  1  0  0  0  0
  4 14  1  0  0  0  0
  4  5  2  0  0  0  0
  5  6  1  0  0  0  0
  5  8  1  0  0  0  0
  6  7  3  0  0  0  0
  8  9  2  0  0  0  0
  8 10  1  0  0  0  0
 10 11  1  0  0  0  0
 10 12  1  0  0  0  0
 11 26  1  0  0  0  0
 11 27  1  0  0  0  0
 11 28  1  0  0  0  0
 12 13  2  0  0  0  0
 12 14  1  0  0  0  0
 14 15  1  0  0  0  0
 15 29  1  0  0  0  0
 15 30  1  0  0  0  0
 15 31  1  0  0  0  0
 16 20  1  0  0  0  0
 16 17  1  0  0  0  0
 16 32  1  0  0  0  0
 17 18  1  0  0  0  0
 17 33  1  0  0  0  0
 17 34  1  0  0  0  0
 18 19  1  0  0  0  0
 18 35  1  0  0  0  0
 18 36  1  0  0  0  0
 19 20  1  0  0  0  0
 19 37  1  0  0  0  0
 19 38  1  0  0  0  0
M  END
> <s_m_source_file>
AV-unprocessed.smi

> <i_m_source_file_index>
1705

> <i_lp_mmshare_version>
43012

> <i_f3d_flags>
0

> <s_epik_input>
TzFbQ0gyXVtDSDJdW0NIMl1bQ0BIXTFbQ0BIXShbQ0gzXSlbTkhdYzJjKEMjTiljKD1PKW4oW0NIM10pYyg9TyluMltDSDNd

> <s_epik_cmdline>
J2VwaWtfcHl0aG9uJywgJy1waCcsICc3LjAnLCAnLXRuJywgJzgnLCAnLW1hJywgJzIwMCcsICctbWV0YWxfYmluZGluZycsICctaW1hZScsICc8aW5maWxlLm1hZT4nLCAnLW9tYWUnLCAnPG91dGZpbGUubWFlPic=

> <r_epik_Ionization_Penalty>
0.000446268

> <r_epik_Ionization_Penalty_Charging>
9.41922e-10

> <r_epik_Ionization_Penalty_Neutral>
0.000446267

> <r_epik_State_Penalty>
0.000275531

> <r_epik_Charging_Adjusted_Penalty>
0.000275532

> <i_epik_Tot_Q>
0

> <i_epik_Tot_abs_Q>
0

> <r_epik_Metal_State_Penalty>
-0

> <b_epik_Metal_Only>
0

> <s_lp_Force_Field>
OPLS_2005

> <r_lp_Energy>
36.9916

> <b_lp_Chiralities_Consistent>
1

> <s_lp_Variant>
AV-unprocessed.smi:1705-2

> <Gold.Version>
5.8.1

> <Gold.Id.Protein>
6NUR|6NUR_protein|mol2

> <Gold.PLP.Fitness>
38.2458

> <Gold.PLP.PLP>
-30.5086

> <Gold.PLP.part.hbond>
-3.0000

> <Gold.PLP.part.metal>
0.0000

> <Gold.PLP.part.buried>
-1.8047

> <Gold.PLP.part.nonpolar>
-25.2222

> <Gold.PLP.part.repulsive>
0.2156

> <Gold.PLP.ligand.clash>
7.7832

> <Gold.PLP.ligand.torsion>
0.5721

> <Gold.PLP.Chemscore.Hbond>
2.9513

> <Gold.PLP.Chemscore.CHOScore>
0.0000

> <Gold.PLP.Chemscore.Metal>
0.0000

> <Gold.Chemscore.Hbonds>
donor molecule, donor type, donor heavy atom, donor atom, acceptor molecule, acceptor atom, score
      P1  H  6896  6908       L1     9  1.00
      P1  H  7989  7998       L1    20  0.94
      P1  H 10752 10764       L1     7  1.00

> <Gold.PLP.Chemscore.Internal.Correction>
7.8108

> <Gold.Rescore>
     Score         DG    S(hbond)    S(metal)    S(lipo)     H(rot)  DE(clash)    DE(int)     intcor
     14.26     -17.39       2.71        0.00      52.32       1.28       0.15       2.98       ----

> <Gold.Chemscore.Fitness>
14.2629

> <Gold.Chemscore.DG>
-17.3930

> <Gold.Chemscore.ZeroCoef>
-5.4800

> <Gold.Chemscore.Hbond>
2.7136

> <Gold.Chemscore.Metal>
0.0000

> <Gold.Chemscore.Lipo>
52.3195

> <Gold.Chemscore.Internal_Hbond>
0.0000

> <Gold.Chemscore.DEClash>
0.1509

> <Gold.Chemscore.DEInternal>
2.9792

> <Gold.Chemscore.Rot>
1.2780

> <Gold.Chemscore.Internal.Correction>
   9.000000E+99

> <Gold.Chemscore.Hbonds>
donor molecule, donor type, donor heavy atom, donor atom, acceptor molecule, acceptor atom, score
      P1  H  6896  6908       L1     9  0.97
      P1  H  7989  7998       L1    20  0.61
      P1  H 10752 10764       L1     7  0.96

> <Gold.Chemscore.Hbond.Weighted>
-9.0633

> <Gold.Chemscore.Metal.Weighted>
-0.0000

> <Gold.Chemscore.Lipo.Weighted>
-6.1214

> <Gold.Chemscore.Internal_Hbond.Weighted>
0.0000

> <Gold.Chemscore.DEClash.Weighted>
0.1509

> <Gold.Chemscore.DEInternal.Weighted>
2.9792

> <Gold.Chemscore.Rot.Weighted>
3.2717

> <Gold.Chemscore.Internal.Correction.Weighted>
   9.000000E+99

> <Gold.Protein.RotatedTorsions>
[ 6907 6896 6895 6894 ] final  -57.95 input  -60.11 | X-H torsion
[ 7974 7965 7964 7962 ] final  -22.84 input  175.53 | X-H torsion
[ 8008 7997 7996 7995 ] final   93.23 input   59.86 | X-H torsion
[ 10167 10162 10161 10158 ] final  -65.24 input  -65.29 | X-H torsion
[ 10718 10713 10712 10709 ] final   18.98 input   66.30 | X-H torsion
[ 10763 10752 10751 10750 ] final  -25.30 input  -60.55 | X-H torsion
[ 11005 11000 10999 10996 ] final  103.69 input  -57.11 | X-H torsion

> <Gold.Protein.ActiveResidues>
 VAL166  LYS551  ARG553  GLY616  TRP617  ASP618  TYR619  PRO620  LYS621  CYS622 
 ASP623  PHE694  ASN695  SER759  ASP760  ASP761  ALA762  ILE779  LEU786  VAL792 
 PHE793  MET794  SER795  GLU796  ALA797  LYS798  CYS799  TRP800  GLU811  SER814 

> <Gold.Protein.RotatedAtoms>
  150.8045  134.7161  159.6631 H   0  0  0  0  0  0  0  0  0  0  0  0  # atno 6907 bound_to 6896
  152.4164  134.6031  160.0015 H   0  0  0  0  0  0  0  0  0  0  0  0  # atno 6908 bound_to 6896
  151.6259  133.3298  159.3134 H   0  0  0  0  0  0  0  0  0  0  0  0  # atno 6909 bound_to 6896
  146.1652  140.4534  142.8555 H   0  0  0  0  0  0  0  0  0  0  0  0  # atno 7974 bound_to 7965
  156.0444  140.3315  155.7280 H   0  0  0  0  0  0  0  0  0  0  0  0  # atno 8008 bound_to 7997
  155.5696  140.0626  157.2827 H   0  0  0  0  0  0  0  0  0  0  0  0  # atno 8009 bound_to 7997
  154.4407  140.1863  156.0853 H   0  0  0  0  0  0  0  0  0  0  0  0  # atno 8010 bound_to 7997
  140.5744  143.2320  151.6473 H   0  0  0  0  0  0  0  0  0  0  0  0  # atno 10167 bound_to 10162
  157.1040  130.6480  149.5880 H   0  0  0  0  0  0  0  0  0  0  0  0  # atno 10718 bound_to 10713
  153.6976  135.6958  153.5072 H   0  0  0  0  0  0  0  0  0  0  0  0  # atno 10763 bound_to 10752
  153.2366  135.4320  155.0652 H   0  0  0  0  0  0  0  0  0  0  0  0  # atno 10764 bound_to 10752
  154.8354  135.3497  154.6516 H   0  0  0  0  0  0  0  0  0  0  0  0  # atno 10765 bound_to 10752
  139.8785  134.9272  156.5248 H   0  0  0  0  0  0  0  0  0  0  0  0  # atno 11005 bound_to 11000
  144.8082  140.6338  143.6433 LP  0  0  0  0  0  0  0  0  0  0  0  0  # atno 17320 bound_to 7965
  145.4486  139.1526  143.3931 LP  0  0  0  0  0  0  0  0  0  0  0  0  # atno 17321 bound_to 7965
  139.5134  144.3443  152.0712 LP  0  0  0  0  0  0  0  0  0  0  0  0  # atno 17342 bound_to 10162
  140.2584  144.4093  150.6195 LP  0  0  0  0  0  0  0  0  0  0  0  0  # atno 17343 bound_to 10162
  155.9866  130.4902  150.7089 LP  0  0  0  0  0  0  0  0  0  0  0  0  # atno 17370 bound_to 10713
  157.4616  131.0884  151.0739 LP  0  0  0  0  0  0  0  0  0  0  0  0  # atno 17371 bound_to 10713
  140.8424  133.8195  155.9088 LP  0  0  0  0  0  0  0  0  0  0  0  0  # atno 17394 bound_to 11000
  140.9224  134.2125  157.4918 LP  0  0  0  0  0  0  0  0  0  0  0  0  # atno 17395 bound_to 11000

$$$$
