AV-unprocessed.smi:2526|AV-procd|sdf|9937|dock4
  -GOLD-   2272013583D 1   1.00000     0.00000
 Structure written by MMmdl.
 29 30  0  0  0  0  0  0  0  0  2 V2000
  153.3932  142.9783  163.3835 C   0  0  0  0  0  0  0  0  0  0  0  0
  152.8319  143.1989  162.0680 N   0  0  0  0  0  0  0  0  0  0  0  0
  152.8517  142.3620  160.9737 C   0  0  0  0  0  0  0  0  0  0  0  0
  152.1990  142.9995  159.9540 C   0  0  0  0  0  0  0  0  0  0  0  0
  151.9300  142.5254  158.5457 C   0  0  1  0  0  0  0  0  0  0  0  0
  152.5794  141.2345  158.3023 N   0  0  0  0  0  0  0  0  0  0  0  0
  152.1234  140.2353  157.5256 C   0  0  0  0  0  0  0  0  0  0  0  0
  152.7839  139.2167  157.3397 O   0  0  0  0  0  0  0  0  0  0  0  0
  150.7302  140.3570  156.8892 C   0  0  0  0  0  0  0  0  0  0  0  0
  150.1660  141.7875  156.9022 C   0  0  0  0  0  0  0  0  0  0  0  0
  150.4120  142.4615  158.2570 C   0  0  2  0  0  0  0  0  0  0  0  0
  149.7892  143.7969  158.3083 N   0  3  0  0  0  0  0  0  0  0  0  0
  151.8174  144.2416  160.5393 C   0  0  0  0  0  0  0  0  0  0  0  0
  152.1936  144.3563  161.8015 N   0  0  0  0  0  0  0  0  0  0  0  0
  153.5940  141.9166  163.5301 H   0  0  0  0  0  0  0  0  0  0  0  0
  152.6936  143.3141  164.1500 H   0  0  0  0  0  0  0  0  0  0  0  0
  154.3261  143.5341  163.4816 H   0  0  0  0  0  0  0  0  0  0  0  0
  153.3226  141.3902  161.0110 H   0  0  0  0  0  0  0  0  0  0  0  0
  152.3831  143.2184  157.8348 H   0  0  0  0  0  0  0  0  0  0  0  0
  153.4882  141.1067  158.7245 H   0  0  0  0  0  0  0  0  0  0  0  0
  150.7623  139.9769  155.8674 H   0  0  0  0  0  0  0  0  0  0  0  0
  150.0603  139.6993  157.4438 H   0  0  0  0  0  0  0  0  0  0  0  0
  150.6273  142.3718  156.1044 H   0  0  0  0  0  0  0  0  0  0  0  0
  149.0979  141.7565  156.6839 H   0  0  0  0  0  0  0  0  0  0  0  0
  149.9290  141.8596  159.0289 H   0  0  0  0  0  0  0  0  0  0  0  0
  148.9490  143.7575  158.8675 H   0  0  0  0  0  0  0  0  0  0  0  0
  149.5573  144.0945  157.3713 H   0  0  0  0  0  0  0  0  0  0  0  0
  151.2766  145.0589  160.0855 H   0  0  0  0  0  0  0  0  0  0  0  0
  150.4363  144.4549  158.7190 H   0  0  0  0  0  0  0  0  0  0  0  0
  1  2  1  0  0  0  0
  1 15  1  0  0  0  0
  1 16  1  0  0  0  0
  1 17  1  0  0  0  0
  2 14  1  0  0  0  0
  2  3  1  0  0  0  0
  3  4  2  0  0  0  0
  3 18  1  0  0  0  0
  4  5  1  0  0  0  0
  4 13  1  0  0  0  0
  5 11  1  0  0  0  0
  5  6  1  0  0  0  0
  5 19  1  0  0  0  0
  6  7  1  0  0  0  0
  6 20  1  0  0  0  0
  7  8  2  0  0  0  0
  7  9  1  0  0  0  0
  9 10  1  0  0  0  0
  9 21  1  0  0  0  0
  9 22  1  0  0  0  0
 10 11  1  0  0  0  0
 10 23  1  0  0  0  0
 10 24  1  0  0  0  0
 11 12  1  0  0  0  0
 11 25  1  0  0  0  0
 12 26  1  0  0  0  0
 12 27  1  0  0  0  0
 12 29  1  0  0  0  0
 13 14  2  0  0  0  0
 13 28  1  0  0  0  0
M  CHG  1  12   1
M  END
> <s_m_source_file>
AV-unprocessed.smi

> <i_m_source_file_index>
2526

> <i_lp_mmshare_version>
43012

> <i_f3d_flags>
0

> <s_epik_input>
W0NIM11uMVtjSF1jKFtjSF1uMSlbQ0BASF0yW05IXUMoPU8pW0NIMl1bQ0gyXVtDQEhdMltOSDJd

> <s_epik_cmdline>
J2VwaWtfcHl0aG9uJywgJy1waCcsICc3LjAnLCAnLXRuJywgJzgnLCAnLW1hJywgJzIwMCcsICctbWV0YWxfYmluZGluZycsICctaW1hZScsICc8aW5maWxlLm1hZT4nLCAnLW9tYWUnLCAnPG91dGZpbGUubWFlPic=

> <r_lp_tautomer_probability>
1

> <r_epik_Ionization_Penalty>
0.00878543

> <r_epik_Ionization_Penalty_Charging>
0.00874185

> <r_epik_Ionization_Penalty_Neutral>
4.35793e-05

> <r_epik_State_Penalty>
0.00660351

> <r_epik_Charging_Adjusted_Penalty>
0.0153454

> <i_epik_Tot_Q>
1

> <i_epik_Tot_abs_Q>
1

> <r_epik_Metal_State_Penalty>
0.00660727

> <b_epik_Metal_Only>
0

> <s_lp_Force_Field>
OPLS_2005

> <r_lp_Energy>
10.7235

> <b_lp_Chiralities_Consistent>
1

> <s_lp_Variant>
AV-unprocessed.smi:2526-4

> <Gold.Version>
5.8.1

> <Gold.Id.Protein>
6NUR|6NUR_protein|mol2

> <Gold.PLP.Fitness>
40.8864

> <Gold.PLP.PLP>
-31.9065

> <Gold.PLP.part.hbond>
-2.9876

> <Gold.PLP.part.metal>
0.0000

> <Gold.PLP.part.buried>
-3.7142

> <Gold.PLP.part.nonpolar>
-25.4252

> <Gold.PLP.part.repulsive>
0.7477

> <Gold.PLP.ligand.clash>
0.0000

> <Gold.PLP.ligand.torsion>
0.0208

> <Gold.PLP.Chemscore.Hbond>
3.0000

> <Gold.PLP.Chemscore.CHOScore>
0.0000

> <Gold.PLP.Chemscore.Metal>
0.0000

> <Gold.Chemscore.Hbonds>
donor molecule, donor type, donor heavy atom, donor atom, acceptor molecule, acceptor atom, score
      L1  H    12    27       P1  8028  2.00
      P1  H  7997  8009       L1     8  1.00

> <Gold.PLP.Chemscore.Internal.Correction>
0.0215

> <Gold.Rescore>
     Score         DG    S(hbond)    S(metal)    S(lipo)     H(rot)  DE(clash)    DE(int)     intcor
     14.49     -14.71       0.98        0.00      72.90       1.00       0.06       0.15       ----

> <Gold.Chemscore.Fitness>
14.4934

> <Gold.Chemscore.DG>
-14.7094

> <Gold.Chemscore.ZeroCoef>
-5.4800

> <Gold.Chemscore.Hbond>
0.9761

> <Gold.Chemscore.Metal>
0.0000

> <Gold.Chemscore.Lipo>
72.8998

> <Gold.Chemscore.Internal_Hbond>
0.0000

> <Gold.Chemscore.DEClash>
0.0628

> <Gold.Chemscore.DEInternal>
0.1532

> <Gold.Chemscore.Rot>
1.0000

> <Gold.Chemscore.Internal.Correction>
   9.000000E+99

> <Gold.Chemscore.Hbonds>
donor molecule, donor type, donor heavy atom, donor atom, acceptor molecule, acceptor atom, score
      L1  H    12    27       P1  8028  0.30
      P1  H  7997  8009       L1     8  0.25

> <Gold.Chemscore.Hbond.Weighted>
-3.2601

> <Gold.Chemscore.Metal.Weighted>
-0.0000

> <Gold.Chemscore.Lipo.Weighted>
-8.5293

> <Gold.Chemscore.Internal_Hbond.Weighted>
0.0000

> <Gold.Chemscore.DEClash.Weighted>
0.0628

> <Gold.Chemscore.DEInternal.Weighted>
0.1532

> <Gold.Chemscore.Rot.Weighted>
2.5600

> <Gold.Chemscore.Internal.Correction.Weighted>
   9.000000E+99

> <Gold.Protein.RotatedTorsions>
[ 6907 6896 6895 6894 ] final  -78.96 input  -60.11 | X-H torsion
[ 7974 7965 7964 7962 ] final  150.79 input  175.53 | X-H torsion
[ 8008 7997 7996 7995 ] final  156.76 input   59.86 | X-H torsion
[ 10167 10162 10161 10158 ] final  178.03 input  -65.29 | X-H torsion
[ 10718 10713 10712 10709 ] final  -38.31 input   66.30 | X-H torsion
[ 10763 10752 10751 10750 ] final   40.42 input  -60.55 | X-H torsion
[ 11005 11000 10999 10996 ] final    9.17 input  -57.11 | X-H torsion

> <Gold.Protein.ActiveResidues>
 VAL166  LYS551  ARG553  GLY616  TRP617  ASP618  TYR619  PRO620  LYS621  CYS622 
 ASP623  PHE694  ASN695  SER759  ASP760  ASP761  ALA762  ILE779  LEU786  VAL792 
 PHE793  MET794  SER795  GLU796  ALA797  LYS798  CYS799  TRP800  GLU811  SER814 

> <Gold.Protein.RotatedAtoms>
  150.6960  134.4194  159.5197 H   0  0  0  0  0  0  0  0  0  0  0  0  # atno 6907 bound_to 6896
  152.1939  134.8645  160.0524 H   0  0  0  0  0  0  0  0  0  0  0  0  # atno 6908 bound_to 6896
  151.9590  133.3654  159.4065 H   0  0  0  0  0  0  0  0  0  0  0  0  # atno 6909 bound_to 6896
  144.8338  139.6454  143.6047 H   0  0  0  0  0  0  0  0  0  0  0  0  # atno 7974 bound_to 7965
  156.2404  140.1903  156.7005 H   0  0  0  0  0  0  0  0  0  0  0  0  # atno 8008 bound_to 7997
  154.6186  140.0612  156.9612 H   0  0  0  0  0  0  0  0  0  0  0  0  # atno 8009 bound_to 7997
  155.1899  140.3283  155.4363 H   0  0  0  0  0  0  0  0  0  0  0  0  # atno 8010 bound_to 7997
  139.5277  144.2728  152.0613 H   0  0  0  0  0  0  0  0  0  0  0  0  # atno 10167 bound_to 10162
  156.3053  130.4245  149.8103 H   0  0  0  0  0  0  0  0  0  0  0  0  # atno 10718 bound_to 10713
  152.9937  135.6192  154.2623 H   0  0  0  0  0  0  0  0  0  0  0  0  # atno 10763 bound_to 10752
  154.2359  135.2790  155.2874 H   0  0  0  0  0  0  0  0  0  0  0  0  # atno 10764 bound_to 10752
  154.5411  135.5761  153.6898 H   0  0  0  0  0  0  0  0  0  0  0  0  # atno 10765 bound_to 10752
  140.5288  134.0487  155.7867 H   0  0  0  0  0  0  0  0  0  0  0  0  # atno 11005 bound_to 11000
  146.2639  139.6474  142.9343 LP  0  0  0  0  0  0  0  0  0  0  0  0  # atno 17320 bound_to 7965
  145.4838  141.0438  143.2631 LP  0  0  0  0  0  0  0  0  0  0  0  0  # atno 17321 bound_to 7965
  140.2187  144.4488  150.6352 LP  0  0  0  0  0  0  0  0  0  0  0  0  # atno 17342 bound_to 10162
  140.6433  143.2208  151.6243 LP  0  0  0  0  0  0  0  0  0  0  0  0  # atno 17343 bound_to 10162
  156.5467  130.8323  151.3286 LP  0  0  0  0  0  0  0  0  0  0  0  0  # atno 17370 bound_to 10713
  157.7378  130.9802  150.2214 LP  0  0  0  0  0  0  0  0  0  0  0  0  # atno 17371 bound_to 10713
  141.1293  133.9329  157.2569 LP  0  0  0  0  0  0  0  0  0  0  0  0  # atno 17394 bound_to 11000
  139.9566  135.0164  156.9144 LP  0  0  0  0  0  0  0  0  0  0  0  0  # atno 17395 bound_to 11000

$$$$
