AV-unprocessed.smi:674|AV-procd|sdf|3299|dock1
  -GOLD-   22720 0263D 1   1.00000     0.00000
 Structure written by MMmdl.
 47 48  0  0  0  0  0  0  0  0  1 V2000
  146.2358  129.6252  152.6862 C   0  0  0  0  0  0  0  0  0  0  0  0
  145.6990  130.3533  151.4484 C   0  0  0  0  0  0  0  0  0  0  0  0
  145.6719  131.8434  151.6410 C   0  0  0  0  0  0  0  0  0  0  0  0
  146.7562  132.7008  151.9880 C   0  0  0  0  0  0  0  0  0  0  0  0
  146.1626  133.9324  152.0429 C   0  0  0  0  0  0  0  0  0  0  0  0
  146.7205  135.1340  152.3491 N   0  0  0  0  0  0  0  0  0  0  0  0
  146.2119  136.1323  153.0922 C   0  0  0  0  0  0  0  0  0  0  0  0
  145.1326  136.1053  153.6840 O   0  0  0  0  0  0  0  0  0  0  0  0
  147.0411  137.1844  153.1213 N   0  0  0  0  0  0  0  0  0  0  0  0
  146.7704  138.4228  153.8436 C   0  0  2  0  0  0  0  0  0  0  0  0
  146.9819  139.6684  152.9851 C   0  0  0  0  0  0  0  0  0  0  0  0
  147.5490  140.3473  154.2472 C   0  0  1  0  0  0  0  0  0  0  0  0
  148.6569  141.3984  154.1046 C   0  0  0  0  0  0  0  0  0  0  0  0
  146.4808  140.8507  155.0614 O   0  0  0  0  0  0  0  0  0  0  0  0
  145.9302  142.1140  154.7088 C   0  0  0  0  0  0  0  0  0  0  0  0
  147.9243  138.9157  154.7536 C   0  0  0  0  0  0  0  0  0  0  0  0
  147.7551  138.6523  156.2537 C   0  0  0  0  0  0  0  0  0  0  0  0
  149.3412  138.4244  154.4008 C   0  0  0  0  0  0  0  0  0  0  0  0
  144.8240  133.7942  151.7440 N   0  0  0  0  0  0  0  0  0  0  0  0
  143.7723  134.7906  151.6796 C   0  0  0  0  0  0  0  0  0  0  0  0
  144.5265  132.5010  151.4958 N   0  0  0  0  0  0  0  0  0  0  0  0
  146.2515  128.5471  152.5266 H   0  0  0  0  0  0  0  0  0  0  0  0
  145.6151  129.8229  153.5606 H   0  0  0  0  0  0  0  0  0  0  0  0
  147.2527  129.9429  152.9183 H   0  0  0  0  0  0  0  0  0  0  0  0
  146.3181  130.1028  150.5865 H   0  0  0  0  0  0  0  0  0  0  0  0
  144.6980  129.9871  151.2175 H   0  0  0  0  0  0  0  0  0  0  0  0
  147.7862  132.4336  152.1700 H   0  0  0  0  0  0  0  0  0  0  0  0
  147.6330  135.2979  151.9505 H   0  0  0  0  0  0  0  0  0  0  0  0
  147.9110  137.1289  152.6124 H   0  0  0  0  0  0  0  0  0  0  0  0
  145.7982  138.4404  154.3425 H   0  0  0  0  0  0  0  0  0  0  0  0
  147.7302  139.5388  152.2010 H   0  0  0  0  0  0  0  0  0  0  0  0
  146.0634  140.0929  152.5811 H   0  0  0  0  0  0  0  0  0  0  0  0
  149.5260  141.0032  153.5800 H   0  0  0  0  0  0  0  0  0  0  0  0
  148.9954  141.7506  155.0791 H   0  0  0  0  0  0  0  0  0  0  0  0
  148.3266  142.2642  153.5315 H   0  0  0  0  0  0  0  0  0  0  0  0
  145.0345  142.2889  155.3045 H   0  0  0  0  0  0  0  0  0  0  0  0
  145.6430  142.1658  153.6591 H   0  0  0  0  0  0  0  0  0  0  0  0
  146.6228  142.9277  154.9233 H   0  0  0  0  0  0  0  0  0  0  0  0
  148.4214  139.2806  156.8456 H   0  0  0  0  0  0  0  0  0  0  0  0
  147.9697  137.6132  156.5057 H   0  0  0  0  0  0  0  0  0  0  0  0
  146.7375  138.8505  156.5912 H   0  0  0  0  0  0  0  0  0  0  0  0
  150.1023  138.9610  154.9680 H   0  0  0  0  0  0  0  0  0  0  0  0
  149.5740  138.5588  153.3446 H   0  0  0  0  0  0  0  0  0  0  0  0
  149.4656  137.3634  154.6207 H   0  0  0  0  0  0  0  0  0  0  0  0
  144.1965  135.7937  151.6359 H   0  0  0  0  0  0  0  0  0  0  0  0
  143.1389  134.7103  152.5636 H   0  0  0  0  0  0  0  0  0  0  0  0
  143.1633  134.6304  150.7890 H   0  0  0  0  0  0  0  0  0  0  0  0
  1  2  1  0  0  0  0
  1 22  1  0  0  0  0
  1 23  1  0  0  0  0
  1 24  1  0  0  0  0
  2  3  1  0  0  0  0
  2 25  1  0  0  0  0
  2 26  1  0  0  0  0
  3 21  2  0  0  0  0
  3  4  1  0  0  0  0
  4  5  2  0  0  0  0
  4 27  1  0  0  0  0
  5  6  1  0  0  0  0
  5 19  1  0  0  0  0
  6  7  1  0  0  0  0
  6 28  1  0  0  0  0
  7  8  2  0  0  0  0
  7  9  1  0  0  0  0
  9 10  1  0  0  0  0
  9 29  1  0  0  0  0
 10 16  1  0  0  0  0
 10 11  1  0  0  0  0
 10 30  1  0  0  0  0
 11 12  1  0  0  0  0
 11 31  1  0  0  0  0
 11 32  1  0  0  0  0
 12 13  1  0  0  0  0
 12 14  1  0  0  0  0
 12 16  1  0  0  0  0
 13 33  1  0  0  0  0
 13 34  1  0  0  0  0
 13 35  1  0  0  0  0
 14 15  1  0  0  0  0
 15 36  1  0  0  0  0
 15 37  1  0  0  0  0
 15 38  1  0  0  0  0
 16 17  1  0  0  0  0
 16 18  1  0  0  0  0
 17 39  1  0  0  0  0
 17 40  1  0  0  0  0
 17 41  1  0  0  0  0
 18 42  1  0  0  0  0
 18 43  1  0  0  0  0
 18 44  1  0  0  0  0
 19 20  1  0  0  0  0
 19 21  1  0  0  0  0
 20 45  1  0  0  0  0
 20 46  1  0  0  0  0
 20 47  1  0  0  0  0
M  END
> <s_m_source_file>
AV-unprocessed.smi

> <i_m_source_file_index>
674

> <i_lp_mmshare_version>
43012

> <i_f3d_flags>
0

> <s_epik_input>
W0NIM11bQ0gyXWMxW2NIXWMobihuMSlbQ0gzXSlbTkhdQyg9TylbTkhdW0NAQEhdKEMyKFtDSDNdKVtDSDNdKVtDSDJdW0NAQF0yKFtDSDNdKU9bQ0gzXQ==

> <s_epik_cmdline>
J2VwaWtfcHl0aG9uJywgJy1waCcsICc3LjAnLCAnLXRuJywgJzgnLCAnLW1hJywgJzIwMCcsICctbWV0YWxfYmluZGluZycsICctaW1hZScsICc8aW5maWxlLm1hZT4nLCAnLW9tYWUnLCAnPG91dGZpbGUubWFlPic=

> <r_lp_tautomer_probability>
1

> <r_epik_Ionization_Penalty>
0.000101626

> <r_epik_Ionization_Penalty_Charging>
0

> <r_epik_Ionization_Penalty_Neutral>
0.000101626

> <r_epik_State_Penalty>
-0

> <r_epik_Charging_Adjusted_Penalty>
0

> <i_epik_Tot_Q>
0

> <i_epik_Tot_abs_Q>
0

> <r_epik_Metal_State_Penalty>
-0

> <b_epik_Metal_Only>
0

> <s_lp_Force_Field>
OPLS_2005

> <r_lp_Energy>
22.7412

> <b_lp_Chiralities_Consistent>
1

> <s_lp_Variant>
AV-unprocessed.smi:674-1

> <Gold.Version>
5.8.1

> <Gold.Id.Protein>
6NUR|6NUR_protein|mol2

> <Gold.PLP.Fitness>
34.9858

> <Gold.PLP.PLP>
-29.7834

> <Gold.PLP.part.hbond>
-1.7355

> <Gold.PLP.part.metal>
0.0000

> <Gold.PLP.part.buried>
-3.1208

> <Gold.PLP.part.nonpolar>
-25.3926

> <Gold.PLP.part.repulsive>
0.3206

> <Gold.PLP.ligand.clash>
0.0000

> <Gold.PLP.ligand.torsion>
0.5573

> <Gold.PLP.Chemscore.Hbond>
1.9760

> <Gold.PLP.Chemscore.CHOScore>
0.0000

> <Gold.PLP.Chemscore.Metal>
0.0000

> <Gold.Chemscore.Hbonds>
donor molecule, donor type, donor heavy atom, donor atom, acceptor molecule, acceptor atom, score
      L1  H     6    28       P1  7948  1.00
      L1  H     9    29       P1  7948  0.98

> <Gold.PLP.Chemscore.Internal.Correction>
0.3890

> <Gold.Rescore>
     Score         DG    S(hbond)    S(metal)    S(lipo)     H(rot)  DE(clash)    DE(int)     intcor
     16.00     -16.81       1.90        0.00      72.43       1.37       0.04       0.78       ----

> <Gold.Chemscore.Fitness>
15.9957

> <Gold.Chemscore.DG>
-16.8106

> <Gold.Chemscore.ZeroCoef>
-5.4800

> <Gold.Chemscore.Hbond>
1.9021

> <Gold.Chemscore.Metal>
0.0000

> <Gold.Chemscore.Lipo>
72.4251

> <Gold.Chemscore.Internal_Hbond>
0.0000

> <Gold.Chemscore.DEClash>
0.0357

> <Gold.Chemscore.DEInternal>
0.7792

> <Gold.Chemscore.Rot>
1.3658

> <Gold.Chemscore.Internal.Correction>
   9.000000E+99

> <Gold.Chemscore.Hbonds>
donor molecule, donor type, donor heavy atom, donor atom, acceptor molecule, acceptor atom, score
      L1  H     6    28       P1  7948  0.90
      L1  H     9    29       P1  7948  0.90

> <Gold.Chemscore.Hbond.Weighted>
-6.3532

> <Gold.Chemscore.Metal.Weighted>
-0.0000

> <Gold.Chemscore.Lipo.Weighted>
-8.4737

> <Gold.Chemscore.Internal_Hbond.Weighted>
0.0000

> <Gold.Chemscore.DEClash.Weighted>
0.0357

> <Gold.Chemscore.DEInternal.Weighted>
0.7792

> <Gold.Chemscore.Rot.Weighted>
3.4963

> <Gold.Chemscore.Internal.Correction.Weighted>
   9.000000E+99

> <Gold.Protein.RotatedTorsions>
[ 6907 6896 6895 6894 ] final  177.13 input  -60.11 | X-H torsion
[ 7974 7965 7964 7962 ] final  149.53 input  175.53 | X-H torsion
[ 8008 7997 7996 7995 ] final  140.07 input   59.86 | X-H torsion
[ 10167 10162 10161 10158 ] final  -69.80 input  -65.29 | X-H torsion
[ 10718 10713 10712 10709 ] final -144.07 input   66.30 | X-H torsion
[ 10763 10752 10751 10750 ] final  173.15 input  -60.55 | X-H torsion
[ 11005 11000 10999 10996 ] final  -42.48 input  -57.11 | X-H torsion

> <Gold.Protein.ActiveResidues>
 VAL166  LYS551  ARG553  GLY616  TRP617  ASP618  TYR619  PRO620  LYS621  CYS622 
 ASP623  PHE694  ASN695  SER759  ASP760  ASP761  ALA762  ILE779  LEU786  VAL792 
 PHE793  MET794  SER795  GLU796  ALA797  LYS798  CYS799  TRP800  GLU811  SER814 

> <Gold.Protein.RotatedAtoms>
  151.7090  133.3312  159.3285 H   0  0  0  0  0  0  0  0  0  0  0  0  # atno 6907 bound_to 6896
  150.7702  134.6549  159.6317 H   0  0  0  0  0  0  0  0  0  0  0  0  # atno 6908 bound_to 6896
  152.3723  134.6718  160.0223 H   0  0  0  0  0  0  0  0  0  0  0  0  # atno 6909 bound_to 6896
  144.8431  139.6292  143.6007 H   0  0  0  0  0  0  0  0  0  0  0  0  # atno 7974 bound_to 7965
  156.2983  140.2351  156.4342 H   0  0  0  0  0  0  0  0  0  0  0  0  # atno 8008 bound_to 7997
  154.8243  140.0436  157.1453 H   0  0  0  0  0  0  0  0  0  0  0  0  # atno 8009 bound_to 7997
  154.9279  140.3012  155.5186 H   0  0  0  0  0  0  0  0  0  0  0  0  # atno 8010 bound_to 7997
  140.5403  143.2315  151.7102 H   0  0  0  0  0  0  0  0  0  0  0  0  # atno 10167 bound_to 10162
  156.3656  130.7761  151.1935 H   0  0  0  0  0  0  0  0  0  0  0  0  # atno 10718 bound_to 10713
  154.4360  135.2761  155.1880 H   0  0  0  0  0  0  0  0  0  0  0  0  # atno 10763 bound_to 10752
  154.3766  135.6097  153.5772 H   0  0  0  0  0  0  0  0  0  0  0  0  # atno 10764 bound_to 10752
  152.9838  135.5870  154.4680 H   0  0  0  0  0  0  0  0  0  0  0  0  # atno 10765 bound_to 10752
  141.0318  133.6817  156.2600 H   0  0  0  0  0  0  0  0  0  0  0  0  # atno 11005 bound_to 11000
  146.2720  139.6660  142.9289 LP  0  0  0  0  0  0  0  0  0  0  0  0  # atno 17320 bound_to 7965
  145.4652  141.0434  143.2729 LP  0  0  0  0  0  0  0  0  0  0  0  0  # atno 17321 bound_to 7965
  139.4986  144.3980  152.0211 LP  0  0  0  0  0  0  0  0  0  0  0  0  # atno 17342 bound_to 10162
  140.3088  144.3562  150.6039 LP  0  0  0  0  0  0  0  0  0  0  0  0  # atno 17343 bound_to 10162
  157.7478  131.0387  150.4517 LP  0  0  0  0  0  0  0  0  0  0  0  0  # atno 17370 bound_to 10713
  156.4735  130.4058  149.6504 LP  0  0  0  0  0  0  0  0  0  0  0  0  # atno 17371 bound_to 10713
  140.6393  134.5183  157.5568 LP  0  0  0  0  0  0  0  0  0  0  0  0  # atno 17394 bound_to 11000
  139.9213  134.8143  156.1203 LP  0  0  0  0  0  0  0  0  0  0  0  0  # atno 17395 bound_to 11000

$$$$
