AV-unprocessed.smi:1900|AV-procd|sdf|7711|dock10
  -GOLD-   22720 9453D 1   1.00000     0.00000
 Structure written by MMmdl.
 44 45  0  0  0  0  0  0  0  0  2 V2000
  149.6677  141.4918  156.8386 C   0  0  0  0  0  0  0  0  0  0  0  0
  148.6377  141.0386  155.7982 C   0  0  2  0  0  0  0  0  0  0  0  0
  149.2690  140.8496  154.4035 C   0  0  0  0  0  0  0  0  0  0  0  0
  148.2441  140.4994  153.3898 N   0  3  1  0  0  0  0  0  0  0  0  0
  147.8097  139.0783  153.4502 C   0  0  0  0  0  0  0  0  0  0  0  0
  146.7912  138.7272  152.3526 C   0  0  0  0  0  0  0  0  0  0  0  0
  145.7979  137.6449  152.8079 C   0  0  0  0  0  0  0  0  0  0  0  0
  146.0269  136.3764  152.1255 N   0  0  0  0  0  0  0  0  0  0  0  0
  145.0873  135.4508  151.8860 C   0  0  0  0  0  0  0  0  0  0  0  0
  143.9135  135.5668  152.2393 O   0  0  0  0  0  0  0  0  0  0  0  0
  145.5943  134.4009  151.2193 N   0  0  0  0  0  0  0  0  0  0  0  0
  144.9037  133.2403  150.7876 C   0  0  0  0  0  0  0  0  0  0  0  0
  145.5297  132.0300  150.3831 C   0  0  0  0  0  0  0  0  0  0  0  0
  144.6357  131.1172  150.0313 N   0  0  0  0  0  0  0  0  0  0  0  0
  143.4450  131.7329  150.2085 N   0  0  0  0  0  0  0  0  0  0  0  0
  143.5591  133.0261  150.6686 C   0  0  0  0  0  0  0  0  0  0  0  0
  147.1404  141.4932  153.4088 C   0  0  0  0  0  0  0  0  0  0  0  0
  146.5688  141.6834  154.8303 C   0  0  2  0  0  0  0  0  0  0  0  0
  145.5145  142.7944  154.8813 C   0  0  0  0  0  0  0  0  0  0  0  0
  147.6260  142.0366  155.7160 O   0  0  0  0  0  0  0  0  0  0  0  0
  142.5726  131.2625  150.0134 H   0  0  0  0  0  0  0  0  0  0  0  0
  150.4682  140.7591  156.9434 H   0  0  0  0  0  0  0  0  0  0  0  0
  149.2038  141.6187  157.8171 H   0  0  0  0  0  0  0  0  0  0  0  0
  150.1195  142.4438  156.5588 H   0  0  0  0  0  0  0  0  0  0  0  0
  148.1938  140.1021  156.1397 H   0  0  0  0  0  0  0  0  0  0  0  0
  149.7503  141.7780  154.0932 H   0  0  0  0  0  0  0  0  0  0  0  0
  150.0549  140.0937  154.4299 H   0  0  0  0  0  0  0  0  0  0  0  0
  148.6825  138.4390  153.3103 H   0  0  0  0  0  0  0  0  0  0  0  0
  147.4100  138.8348  154.4346 H   0  0  0  0  0  0  0  0  0  0  0  0
  146.2317  139.6133  152.0540 H   0  0  0  0  0  0  0  0  0  0  0  0
  147.3257  138.3847  151.4655 H   0  0  0  0  0  0  0  0  0  0  0  0
  145.8553  137.5008  153.8882 H   0  0  0  0  0  0  0  0  0  0  0  0
  144.7779  137.9633  152.5914 H   0  0  0  0  0  0  0  0  0  0  0  0
  146.9649  136.1975  151.7975 H   0  0  0  0  0  0  0  0  0  0  0  0
  146.5757  134.4396  150.9857 H   0  0  0  0  0  0  0  0  0  0  0  0
  146.5813  131.7888  150.3331 H   0  0  0  0  0  0  0  0  0  0  0  0
  142.6986  133.6497  150.8610 H   0  0  0  0  0  0  0  0  0  0  0  0
  147.5415  142.4432  153.0528 H   0  0  0  0  0  0  0  0  0  0  0  0
  146.3516  141.2205  152.7091 H   0  0  0  0  0  0  0  0  0  0  0  0
  146.1037  140.7602  155.1784 H   0  0  0  0  0  0  0  0  0  0  0  0
  144.6739  142.5677  154.2248 H   0  0  0  0  0  0  0  0  0  0  0  0
  145.9331  143.7524  154.5712 H   0  0  0  0  0  0  0  0  0  0  0  0
  145.1232  142.9140  155.8918 H   0  0  0  0  0  0  0  0  0  0  0  0
  148.7018  140.5943  152.4940 H   0  0  0  0  0  0  0  0  0  0  0  0
  1  2  1  0  0  0  0
  1 22  1  0  0  0  0
  1 23  1  0  0  0  0
  1 24  1  0  0  0  0
  2 20  1  0  0  0  0
  2  3  1  0  0  0  0
  2 25  1  0  0  0  0
  3  4  1  0  0  0  0
  3 26  1  0  0  0  0
  3 27  1  0  0  0  0
  4  5  1  0  0  0  0
  4 17  1  0  0  0  0
  4 44  1  0  0  0  0
  5  6  1  0  0  0  0
  5 28  1  0  0  0  0
  5 29  1  0  0  0  0
  6  7  1  0  0  0  0
  6 30  1  0  0  0  0
  6 31  1  0  0  0  0
  7  8  1  0  0  0  0
  7 32  1  0  0  0  0
  7 33  1  0  0  0  0
  8  9  1  0  0  0  0
  8 34  1  0  0  0  0
  9 10  2  0  0  0  0
  9 11  1  0  0  0  0
 11 12  1  0  0  0  0
 11 35  1  0  0  0  0
 12 16  2  0  0  0  0
 12 13  1  0  0  0  0
 13 14  2  0  0  0  0
 13 36  1  0  0  0  0
 14 15  1  0  0  0  0
 15 21  1  0  0  0  0
 15 16  1  0  0  0  0
 16 37  1  0  0  0  0
 17 18  1  0  0  0  0
 17 38  1  0  0  0  0
 17 39  1  0  0  0  0
 18 19  1  0  0  0  0
 18 20  1  0  0  0  0
 18 40  1  0  0  0  0
 19 41  1  0  0  0  0
 19 42  1  0  0  0  0
 19 43  1  0  0  0  0
M  CHG  1   4   1
M  END
> <s_m_source_file>
AV-unprocessed.smi

> <i_m_source_file_index>
1900

> <i_lp_mmshare_version>
43012

> <i_f3d_flags>
0

> <s_epik_input>
W0NIM11bQ0BASF0xW0NIMl1OKFtDSDJdW0NASF0oTzEpW0NIM10pW0NIMl1bQ0gyXVtDSDJdW05IXUMoPU8pW05IXWMyW2NIXW5bbkhdW2NIXTI=

> <s_epik_cmdline>
J2VwaWtfcHl0aG9uJywgJy1waCcsICc3LjAnLCAnLXRuJywgJzgnLCAnLW1hJywgJzIwMCcsICctbWV0YWxfYmluZGluZycsICctaW1hZScsICc8aW5maWxlLm1hZT4nLCAnLW9tYWUnLCAnPG91dGZpbGUubWFlPic=

> <r_lp_tautomer_probability>
0.5

> <r_epik_Ionization_Penalty>
0.270543

> <r_epik_Ionization_Penalty_Charging>
0.270496

> <r_epik_Ionization_Penalty_Neutral>
4.67091e-05

> <r_epik_State_Penalty>
0.262618

> <r_epik_Charging_Adjusted_Penalty>
0.533114

> <i_epik_Tot_Q>
1

> <i_epik_Tot_abs_Q>
1

> <r_epik_Metal_State_Penalty>
0.262618

> <b_epik_Metal_Only>
0

> <s_lp_Force_Field>
OPLS_2005

> <r_lp_Energy>
20.3326

> <b_lp_Chiralities_Consistent>
1

> <s_lp_Variant>
AV-unprocessed.smi:1900-3

> <Gold.Version>
5.8.1

> <Gold.Id.Protein>
6NUR|6NUR_protein|mol2

> <Gold.PLP.Fitness>
44.2500

> <Gold.PLP.PLP>
-30.9329

> <Gold.PLP.part.hbond>
-3.9036

> <Gold.PLP.part.metal>
0.0000

> <Gold.PLP.part.buried>
-3.3826

> <Gold.PLP.part.nonpolar>
-26.1058

> <Gold.PLP.part.repulsive>
2.1584

> <Gold.PLP.ligand.clash>
0.0000

> <Gold.PLP.ligand.torsion>
0.8032

> <Gold.PLP.Chemscore.Hbond>
2.9588

> <Gold.PLP.Chemscore.CHOScore>
2.0000

> <Gold.PLP.Chemscore.Metal>
0.0000

> <Gold.Chemscore.Hbonds>
donor molecule, donor type, donor heavy atom, donor atom, acceptor molecule, acceptor atom, score
      L1  H     4    44       P1  7957  1.00
      L1  H     8    34       P1  7948  1.00
      L1  H    15    21       P1 10952  1.00
      L1  C    13    36       P1 10747  0.92
      L1  C    16    37       P1 10186  1.00

> <Gold.PLP.Chemscore.Internal.Correction>
0.0473

> <Gold.Rescore>
     Score         DG    S(hbond)    S(metal)    S(lipo)     H(rot)  DE(clash)    DE(int)     intcor
     15.90     -19.42       2.90        0.00      78.79       1.93       1.73       1.80       ----

> <Gold.Chemscore.Fitness>
15.8961

> <Gold.Chemscore.DG>
-19.4250

> <Gold.Chemscore.ZeroCoef>
-5.4800

> <Gold.Chemscore.Hbond>
2.8981

> <Gold.Chemscore.Metal>
0.0000

> <Gold.Chemscore.Lipo>
78.7865

> <Gold.Chemscore.Internal_Hbond>
0.0000

> <Gold.Chemscore.DEClash>
1.7284

> <Gold.Chemscore.DEInternal>
1.8005

> <Gold.Chemscore.Rot>
1.9347

> <Gold.Chemscore.Internal.Correction>
   9.000000E+99

> <Gold.Chemscore.Hbonds>
donor molecule, donor type, donor heavy atom, donor atom, acceptor molecule, acceptor atom, score
      L1  H     4    44       P1  7957  0.98
      L1  H     8    34       P1  7948  0.98
      L1  H    15    21       P1 10952  0.85

> <Gold.Chemscore.Hbond.Weighted>
-9.6798

> <Gold.Chemscore.Metal.Weighted>
-0.0000

> <Gold.Chemscore.Lipo.Weighted>
-9.2180

> <Gold.Chemscore.Internal_Hbond.Weighted>
0.0000

> <Gold.Chemscore.DEClash.Weighted>
1.7284

> <Gold.Chemscore.DEInternal.Weighted>
1.8005

> <Gold.Chemscore.Rot.Weighted>
4.9528

> <Gold.Chemscore.Internal.Correction.Weighted>
   9.000000E+99

> <Gold.Protein.RotatedTorsions>
[ 6907 6896 6895 6894 ] final   16.29 input  -60.11 | X-H torsion
[ 7974 7965 7964 7962 ] final -131.11 input  175.53 | X-H torsion
[ 8008 7997 7996 7995 ] final  178.07 input   59.86 | X-H torsion
[ 10167 10162 10161 10158 ] final  120.28 input  -65.29 | X-H torsion
[ 10718 10713 10712 10709 ] final   88.82 input   66.30 | X-H torsion
[ 10763 10752 10751 10750 ] final  143.16 input  -60.55 | X-H torsion
[ 11005 11000 10999 10996 ] final   17.50 input  -57.11 | X-H torsion

> <Gold.Protein.ActiveResidues>
 VAL166  LYS551  ARG553  GLY616  TRP617  ASP618  TYR619  PRO620  LYS621  CYS622 
 ASP623  PHE694  ASN695  SER759  ASP760  ASP761  ALA762  ILE779  LEU786  VAL792 
 PHE793  MET794  SER795  GLU796  ALA797  LYS798  CYS799  TRP800  GLU811  SER814 

> <Gold.Protein.RotatedAtoms>
  151.8316  135.0620  160.0437 H   0  0  0  0  0  0  0  0  0  0  0  0  # atno 6907 bound_to 6896
  152.2876  133.5526  159.5545 H   0  0  0  0  0  0  0  0  0  0  0  0  # atno 6908 bound_to 6896
  150.7216  134.0390  159.3801 H   0  0  0  0  0  0  0  0  0  0  0  0  # atno 6909 bound_to 6896
  144.9410  140.7239  143.4846 H   0  0  0  0  0  0  0  0  0  0  0  0  # atno 7974 bound_to 7965
  156.0587  140.1342  156.9966 H   0  0  0  0  0  0  0  0  0  0  0  0  # atno 8008 bound_to 7997
  154.4471  140.0996  156.6556 H   0  0  0  0  0  0  0  0  0  0  0  0  # atno 8009 bound_to 7997
  155.5411  140.3461  155.4449 H   0  0  0  0  0  0  0  0  0  0  0  0  # atno 8010 bound_to 7997
  139.5992  144.7051  151.3103 H   0  0  0  0  0  0  0  0  0  0  0  0  # atno 10167 bound_to 10162
  157.6951  131.0309  150.3333 H   0  0  0  0  0  0  0  0  0  0  0  0  # atno 10718 bound_to 10713
  153.9678  135.2953  155.3429 H   0  0  0  0  0  0  0  0  0  0  0  0  # atno 10763 bound_to 10752
  154.7339  135.5055  153.9012 H   0  0  0  0  0  0  0  0  0  0  0  0  # atno 10764 bound_to 10752
  153.0915  135.6709  153.9957 H   0  0  0  0  0  0  0  0  0  0  0  0  # atno 10765 bound_to 10752
  140.4352  134.1378  155.7684 H   0  0  0  0  0  0  0  0  0  0  0  0  # atno 11005 bound_to 11000
  145.2991  139.1857  143.4699 LP  0  0  0  0  0  0  0  0  0  0  0  0  # atno 17320 bound_to 7965
  146.3286  140.2979  142.8619 LP  0  0  0  0  0  0  0  0  0  0  0  0  # atno 17321 bound_to 7965
  140.7236  143.7066  150.7802 LP  0  0  0  0  0  0  0  0  0  0  0  0  # atno 17342 bound_to 10162
  140.0639  143.5128  152.2614 LP  0  0  0  0  0  0  0  0  0  0  0  0  # atno 17343 bound_to 10162
  156.3804  130.3879  149.7106 LP  0  0  0  0  0  0  0  0  0  0  0  0  # atno 17370 bound_to 10713
  156.4490  130.7898  151.2919 LP  0  0  0  0  0  0  0  0  0  0  0  0  # atno 17371 bound_to 10713
  141.1729  133.8573  157.1515 LP  0  0  0  0  0  0  0  0  0  0  0  0  # atno 17394 bound_to 11000
  140.0107  134.9989  157.0388 LP  0  0  0  0  0  0  0  0  0  0  0  0  # atno 17395 bound_to 11000

$$$$
