AV-unprocessed.smi:415|AV-procd|sdf|2525|dock5
  -GOLD-   2262022483D 1   1.00000     0.00000
 Structure written by MMmdl.
 53 54  0  0  0  0  0  0  0  0  1 V2000
  156.7527  137.5108  152.8072 C   0  0  0  0  0  0  0  0  0  0  0  0
  156.4023  136.5662  153.8028 O   0  0  0  0  0  0  0  0  0  0  0  0
  157.4202  136.3986  154.7756 C   0  0  0  0  0  0  0  0  0  0  0  0
  156.9217  135.4532  155.8814 C   0  0  0  0  0  0  0  0  0  0  0  0
  156.7888  136.1035  157.1719 N   0  0  0  0  0  0  0  0  0  0  0  0
  157.8648  136.3644  158.0163 C   0  0  0  0  0  0  0  0  0  0  0  0
  159.1391  135.9762  157.6435 N   0  0  0  0  0  0  0  0  0  0  0  0
  157.6923  136.9809  159.2067 C   0  0  0  0  0  0  0  0  0  0  0  0
  156.3778  137.3988  159.6742 C   0  0  0  0  0  0  0  0  0  0  0  0
  156.2038  137.9809  160.7452 O   0  0  0  0  0  0  0  0  0  0  0  0
  155.2966  137.0979  158.8145 N   0  0  0  0  0  0  0  0  0  0  0  0
  153.9291  137.4967  159.2147 C   0  0  0  0  0  0  0  0  0  0  0  0
  153.4084  138.7151  158.4387 C   0  0  0  0  0  0  0  0  0  0  0  0
  153.3290  138.6934  157.2098 O   0  0  0  0  0  0  0  0  0  0  0  0
  153.0658  139.7798  159.1794 N   0  0  0  0  0  0  0  0  0  0  0  0
  152.5398  141.0404  158.6599 C   0  0  1  0  0  0  0  0  0  0  0  0
  151.2302  140.7752  157.8870 C   0  0  0  0  0  0  0  0  0  0  0  0
  150.5878  142.0753  157.3845 C   0  0  0  0  0  0  0  0  0  0  0  0
  150.3600  143.0635  158.5388 C   0  0  0  0  0  0  0  0  0  0  0  0
  151.6599  143.3652  159.3122 C   0  0  2  0  0  0  0  0  0  0  0  0
  152.6108  144.2656  158.4968 C   0  0  0  0  0  0  0  0  0  0  0  0
  152.3077  142.0476  159.8164 C   0  0  2  0  0  0  0  0  0  0  0  0
  153.5733  142.3003  160.6595 C   0  0  0  0  0  0  0  0  0  0  0  0
  155.4730  136.4537  157.5687 C   0  0  0  0  0  0  0  0  0  0  0  0
  154.4987  136.2097  156.8506 O   0  0  0  0  0  0  0  0  0  0  0  0
  155.9405  137.5997  152.0860 H   0  0  0  0  0  0  0  0  0  0  0  0
  157.6496  137.2026  152.2684 H   0  0  0  0  0  0  0  0  0  0  0  0
  156.9259  138.4964  153.2417 H   0  0  0  0  0  0  0  0  0  0  0  0
  158.3060  135.9700  154.3049 H   0  0  0  0  0  0  0  0  0  0  0  0
  157.7119  137.3638  155.1926 H   0  0  0  0  0  0  0  0  0  0  0  0
  155.9548  135.0201  155.6282 H   0  0  0  0  0  0  0  0  0  0  0  0
  157.5858  134.5971  156.0130 H   0  0  0  0  0  0  0  0  0  0  0  0
  159.3143  135.5043  156.7680 H   0  0  0  0  0  0  0  0  0  0  0  0
  159.9543  136.2981  158.1454 H   0  0  0  0  0  0  0  0  0  0  0  0
  158.5484  137.1728  159.8377 H   0  0  0  0  0  0  0  0  0  0  0  0
  153.2388  136.6609  159.0847 H   0  0  0  0  0  0  0  0  0  0  0  0
  153.8679  137.7247  160.2794 H   0  0  0  0  0  0  0  0  0  0  0  0
  153.1688  139.7107  160.1814 H   0  0  0  0  0  0  0  0  0  0  0  0
  153.2744  141.4655  157.9741 H   0  0  0  0  0  0  0  0  0  0  0  0
  151.4183  140.1143  157.0401 H   0  0  0  0  0  0  0  0  0  0  0  0
  150.5229  140.2519  158.5323 H   0  0  0  0  0  0  0  0  0  0  0  0
  151.2220  142.5285  156.6222 H   0  0  0  0  0  0  0  0  0  0  0  0
  149.6384  141.8526  156.8969 H   0  0  0  0  0  0  0  0  0  0  0  0
  149.9217  143.9866  158.1588 H   0  0  0  0  0  0  0  0  0  0  0  0
  149.6243  142.6425  159.2253 H   0  0  0  0  0  0  0  0  0  0  0  0
  151.3734  143.9439  160.1915 H   0  0  0  0  0  0  0  0  0  0  0  0
  153.0020  143.7603  157.6144 H   0  0  0  0  0  0  0  0  0  0  0  0
  153.4614  144.5942  159.0937 H   0  0  0  0  0  0  0  0  0  0  0  0
  152.0973  145.1652  158.1572 H   0  0  0  0  0  0  0  0  0  0  0  0
  151.5828  141.5912  160.4928 H   0  0  0  0  0  0  0  0  0  0  0  0
  154.4037  142.6461  160.0441 H   0  0  0  0  0  0  0  0  0  0  0  0
  153.9012  141.3943  161.1696 H   0  0  0  0  0  0  0  0  0  0  0  0
  153.3889  143.0516  161.4277 H   0  0  0  0  0  0  0  0  0  0  0  0
  1  2  1  0  0  0  0
  1 26  1  0  0  0  0
  1 27  1  0  0  0  0
  1 28  1  0  0  0  0
  2  3  1  0  0  0  0
  3  4  1  0  0  0  0
  3 29  1  0  0  0  0
  3 30  1  0  0  0  0
  4  5  1  0  0  0  0
  4 31  1  0  0  0  0
  4 32  1  0  0  0  0
  5 24  1  0  0  0  0
  5  6  1  0  0  0  0
  6  7  1  0  0  0  0
  6  8  2  0  0  0  0
  7 33  1  0  0  0  0
  7 34  1  0  0  0  0
  8  9  1  0  0  0  0
  8 35  1  0  0  0  0
  9 10  2  0  0  0  0
  9 11  1  0  0  0  0
 11 12  1  0  0  0  0
 11 24  1  0  0  0  0
 12 13  1  0  0  0  0
 12 36  1  0  0  0  0
 12 37  1  0  0  0  0
 13 14  2  0  0  0  0
 13 15  1  0  0  0  0
 15 16  1  0  0  0  0
 15 38  1  0  0  0  0
 16 22  1  0  0  0  0
 16 17  1  0  0  0  0
 16 39  1  0  0  0  0
 17 18  1  0  0  0  0
 17 40  1  0  0  0  0
 17 41  1  0  0  0  0
 18 19  1  0  0  0  0
 18 42  1  0  0  0  0
 18 43  1  0  0  0  0
 19 20  1  0  0  0  0
 19 44  1  0  0  0  0
 19 45  1  0  0  0  0
 20 21  1  0  0  0  0
 20 22  1  0  0  0  0
 20 46  1  0  0  0  0
 21 47  1  0  0  0  0
 21 48  1  0  0  0  0
 21 49  1  0  0  0  0
 22 23  1  0  0  0  0
 22 50  1  0  0  0  0
 23 51  1  0  0  0  0
 23 52  1  0  0  0  0
 23 53  1  0  0  0  0
 24 25  2  0  0  0  0
M  END
> <s_m_source_file>
AV-unprocessed.smi

> <i_m_source_file_index>
415

> <i_lp_mmshare_version>
43012

> <i_f3d_flags>
0

> <s_epik_input>
W0NIM11PW0NIMl1bQ0gyXW4xYyhbTkgyXSlbY0hdYyg9TyluKGMxPU8pW0NIMl1DKD1PKVtOSF1bQ0BASF0yW0NIMl1bQ0gyXVtDSDJdW0NAQEhdKFtDSDNdKVtDQEhdMltDSDNd

> <s_epik_cmdline>
J2VwaWtfcHl0aG9uJywgJy1waCcsICc3LjAnLCAnLXRuJywgJzgnLCAnLW1hJywgJzIwMCcsICctbWV0YWxfYmluZGluZycsICctaW1hZScsICc8aW5maWxlLm1hZT4nLCAnLW9tYWUnLCAnPG91dGZpbGUubWFlPic=

> <r_lp_tautomer_probability>
1

> <r_epik_Ionization_Penalty>
8.6647e-06

> <r_epik_Ionization_Penalty_Charging>
1.81162e-08

> <r_epik_Ionization_Penalty_Neutral>
8.64658e-06

> <r_epik_State_Penalty>
-0

> <r_epik_Charging_Adjusted_Penalty>
1.81162e-08

> <i_epik_Tot_Q>
0

> <i_epik_Tot_abs_Q>
0

> <r_epik_Metal_State_Penalty>
-0

> <b_epik_Metal_Only>
0

> <s_lp_Force_Field>
OPLS_2005

> <r_lp_Energy>
23.106

> <b_lp_Chiralities_Consistent>
1

> <s_lp_Variant>
AV-unprocessed.smi:415-8

> <Gold.Version>
5.8.1

> <Gold.Id.Protein>
6NUR|6NUR_protein|mol2

> <Gold.PLP.Fitness>
43.9393

> <Gold.PLP.PLP>
-36.5238

> <Gold.PLP.part.hbond>
-4.0000

> <Gold.PLP.part.metal>
0.0000

> <Gold.PLP.part.buried>
-4.8726

> <Gold.PLP.part.nonpolar>
-28.1555

> <Gold.PLP.part.repulsive>
0.0953

> <Gold.PLP.ligand.clash>
0.0000

> <Gold.PLP.ligand.torsion>
0.8013

> <Gold.PLP.Chemscore.Hbond>
3.0000

> <Gold.PLP.Chemscore.CHOScore>
0.0000

> <Gold.PLP.Chemscore.Metal>
0.0000

> <Gold.Chemscore.Hbonds>
donor molecule, donor type, donor heavy atom, donor atom, acceptor molecule, acceptor atom, score
      P1  H  7997  8009       L1    14  1.00
      P1  H 10752 10763       L1     2  1.00
      P1  H 10752 10765       L1    25  1.00

> <Gold.PLP.Chemscore.Internal.Correction>
0.0181

> <Gold.Rescore>
     Score         DG    S(hbond)    S(metal)    S(lipo)     H(rot)  DE(clash)    DE(int)     intcor
     18.95     -21.21       2.83        0.00     103.05       2.26       0.01       2.24       ----

> <Gold.Chemscore.Fitness>
18.9540

> <Gold.Chemscore.DG>
-21.2068

> <Gold.Chemscore.ZeroCoef>
-5.4800

> <Gold.Chemscore.Hbond>
2.8345

> <Gold.Chemscore.Metal>
0.0000

> <Gold.Chemscore.Lipo>
103.0481

> <Gold.Chemscore.Internal_Hbond>
0.0000

> <Gold.Chemscore.DEClash>
0.0098

> <Gold.Chemscore.DEInternal>
2.2430

> <Gold.Chemscore.Rot>
2.2645

> <Gold.Chemscore.Internal.Correction>
   9.000000E+99

> <Gold.Chemscore.Hbonds>
donor molecule, donor type, donor heavy atom, donor atom, acceptor molecule, acceptor atom, score
      P1  H  7997  8009       L1    14  0.25
      P1  H 10752 10763       L1     2  0.96
      P1  H 10752 10765       L1    25  0.96

> <Gold.Chemscore.Hbond.Weighted>
-9.4673

> <Gold.Chemscore.Metal.Weighted>
-0.0000

> <Gold.Chemscore.Lipo.Weighted>
-12.0566

> <Gold.Chemscore.Internal_Hbond.Weighted>
0.0000

> <Gold.Chemscore.DEClash.Weighted>
0.0098

> <Gold.Chemscore.DEInternal.Weighted>
2.2430

> <Gold.Chemscore.Rot.Weighted>
5.7972

> <Gold.Chemscore.Internal.Correction.Weighted>
   9.000000E+99

> <Gold.Protein.RotatedTorsions>
[ 6907 6896 6895 6894 ] final -179.39 input  -60.11 | X-H torsion
[ 7974 7965 7964 7962 ] final -112.67 input  175.53 | X-H torsion
[ 8008 7997 7996 7995 ] final  170.54 input   59.86 | X-H torsion
[ 10167 10162 10161 10158 ] final  138.55 input  -65.29 | X-H torsion
[ 10718 10713 10712 10709 ] final  157.23 input   66.30 | X-H torsion
[ 10763 10752 10751 10750 ] final  -99.75 input  -60.55 | X-H torsion
[ 11005 11000 10999 10996 ] final   57.74 input  -57.11 | X-H torsion

> <Gold.Protein.ActiveResidues>
 VAL166  LYS551  ARG553  GLY616  TRP617  ASP618  TYR619  PRO620  LYS621  CYS622 
 ASP623  PHE694  ASN695  SER759  ASP760  ASP761  ALA762  ILE779  LEU786  VAL792 
 PHE793  MET794  SER795  GLU796  ALA797  LYS798  CYS799  TRP800  GLU811  SER814 

> <Gold.Protein.RotatedAtoms>
  151.6526  133.3320  159.3155 H   0  0  0  0  0  0  0  0  0  0  0  0  # atno 6907 bound_to 6896
  150.7953  134.7011  159.6560 H   0  0  0  0  0  0  0  0  0  0  0  0  # atno 6908 bound_to 6896
  152.4039  134.6244  160.0111 H   0  0  0  0  0  0  0  0  0  0  0  0  # atno 6909 bound_to 6896
  145.1412  140.8779  143.3701 H   0  0  0  0  0  0  0  0  0  0  0  0  # atno 7974 bound_to 7965
  156.1355  140.1535  156.9000 H   0  0  0  0  0  0  0  0  0  0  0  0  # atno 8008 bound_to 7997
  154.4944  140.0842  156.7704 H   0  0  0  0  0  0  0  0  0  0  0  0  # atno 8009 bound_to 7997
  155.4176  140.3421  155.4271 H   0  0  0  0  0  0  0  0  0  0  0  0  # atno 8010 bound_to 7997
  139.5107  144.6347  151.5728 H   0  0  0  0  0  0  0  0  0  0  0  0  # atno 10167 bound_to 10162
  157.1942  131.0661  151.2062 H   0  0  0  0  0  0  0  0  0  0  0  0  # atno 10718 bound_to 10713
  154.7523  135.4960  153.9312 H   0  0  0  0  0  0  0  0  0  0  0  0  # atno 10763 bound_to 10752
  153.1157  135.6720  153.9429 H   0  0  0  0  0  0  0  0  0  0  0  0  # atno 10764 bound_to 10752
  153.9176  135.3092  155.3427 H   0  0  0  0  0  0  0  0  0  0  0  0  # atno 10765 bound_to 10752
  140.0430  134.5846  155.9358 H   0  0  0  0  0  0  0  0  0  0  0  0  # atno 11005 bound_to 11000
  145.0530  139.3166  143.5919 LP  0  0  0  0  0  0  0  0  0  0  0  0  # atno 17320 bound_to 7965
  146.3505  139.9945  142.8682 LP  0  0  0  0  0  0  0  0  0  0  0  0  # atno 17321 bound_to 7965
  140.6091  143.9469  150.6440 LP  0  0  0  0  0  0  0  0  0  0  0  0  # atno 17342 bound_to 10162
  140.2706  143.3459  152.1242 LP  0  0  0  0  0  0  0  0  0  0  0  0  # atno 17343 bound_to 10162
  157.3830  130.7241  149.6644 LP  0  0  0  0  0  0  0  0  0  0  0  0  # atno 17370 bound_to 10713
  155.9708  130.4167  150.4244 LP  0  0  0  0  0  0  0  0  0  0  0  0  # atno 17371 bound_to 10713
  141.1892  133.6565  156.5359 LP  0  0  0  0  0  0  0  0  0  0  0  0  # atno 17394 bound_to 11000
  140.4039  134.7332  157.4796 LP  0  0  0  0  0  0  0  0  0  0  0  0  # atno 17395 bound_to 11000

$$$$
