#       Name:                AV-unprocessed.smi:678
#       Creating user name   scv26
#       Creation time:       Fri Mar 27 00:28:29 2020


#       File generated by GOLD software.
#

@<TRIPOS>MOLECULE
AV-unprocessed.smi:678
    57    58     1
SMALL
NO_CHARGES


@<TRIPOS>ATOM
      1 ****        -6.7111   1.8637   1.0609 C.3            1 S1                 0.0000
      2 ****        -5.2284   2.1911   1.0271 C.2            1 S1                 0.0000
      3 ****        -4.6721   3.0370   1.9214 C.2            1 S1                 0.0000
      4 ****        -3.2624   3.3417   1.8825 C.2            1 S1                 0.0000
      5 ****        -2.5160   2.7663   0.9292 C.2            1 S1                 0.0000
      6 ****        -3.0715   1.8851  -0.0170 N.am           1 S1                 0.0000
      7 ****        -2.1530   1.3116  -1.0153 C.3            1 S1                 0.0000
      8 ****        -1.6560  -0.0924  -0.6435 C.2            1 S1                 0.0000
      9 ****        -1.6193  -0.4565   0.5327 O.2            1 S1                 0.0000
     10 ****        -1.2484  -0.8615  -1.6648 N.am           1 S1                 0.0000
     11 ****        -0.7271  -2.2202  -1.5471 C.3            1 S1                 0.0000
     12 ****         0.8108  -2.2591  -1.5981 C.3            1 S1                 0.0000
     13 ****         1.4871  -1.5525  -0.4025 C.3            1 S1                 0.0000
     14 ****         2.9418  -1.6842  -0.4342 N.3            1 S1                 0.0000
     15 ****         3.5948  -1.0381   0.7058 C.3            1 S1                 0.0000
     16 ****         3.4910   0.5018   0.7613 C.3            1 S1                 0.0000
     17 ****         4.1280   1.1631  -0.4718 C.3            1 S1                 0.0000
     18 ****         4.1346   1.0344   2.0497 C.3            1 S1                 0.0000
     19 ****         3.2877  -3.0991  -0.4976 C.3            1 S1                 0.0000
     20 ****         2.6186  -3.8004  -1.6904 C.3            1 S1                 0.0000
     21 ****         1.2079  -3.6279  -1.6111 O.3            1 S1                 0.0000
     22 ****        -4.4008   1.5568  -0.0162 C.2            1 S1                 0.0000
     23 ****        -4.8708   0.7756  -0.8457 O.2            1 S1                 0.0000
     24 ****        -7.2208   2.4054   1.8584 H              1 S1                 0.0000
     25 ****        -6.8620   0.7968   1.2281 H              1 S1                 0.0000
     26 ****        -7.1836   2.1341   0.1160 H              1 S1                 0.0000
     27 ****        -5.2860   3.4962   2.6824 H              1 S1                 0.0000
     28 ****        -2.8199   4.0124   2.6042 H              1 S1                 0.0000
     29 ****        -1.4529   2.9347   0.8350 H              1 S1                 0.0000
     30 ****        -2.6336   1.2818  -1.9951 H              1 S1                 0.0000
     31 ****        -1.2814   1.9543  -1.1467 H              1 S1                 0.0000
     32 ****        -1.3060  -0.4777  -2.5970 H              1 S1                 0.0000
     33 ****        -1.0906  -2.7061  -0.6400 H              1 S1                 0.0000
     34 ****        -1.1301  -2.7968  -2.3801 H              1 S1                 0.0000
     35 ****         1.1430  -1.7942  -2.5284 H              1 S1                 0.0000
     36 ****         1.2120  -0.4994  -0.4211 H              1 S1                 0.0000
     37 ****         1.0982  -1.9622   0.5311 H              1 S1                 0.0000
     38 ****         3.1955  -1.4572   1.6307 H              1 S1                 0.0000
     39 ****         4.6543  -1.2985   0.6984 H              1 S1                 0.0000
     40 ****         2.4411   0.7915   0.7965 H              1 S1                 0.0000
     41 ****         5.1840   0.9055  -0.5586 H              1 S1                 0.0000
     42 ****         4.0535   2.2495  -0.4175 H              1 S1                 0.0000
     43 ****         3.6319   0.8496  -1.3907 H              1 S1                 0.0000
     44 ****         5.1970   0.7923   2.0919 H              1 S1                 0.0000
     45 ****         3.6601   0.6047   2.9325 H              1 S1                 0.0000
     46 ****         4.0370   2.1182   2.1205 H              1 S1                 0.0000
     47 ****         4.3695  -3.2129  -0.5756 H              1 S1                 0.0000
     48 ****         2.9877  -3.5954   0.4268 H              1 S1                 0.0000
     49 ****         2.9903  -3.3993  -2.6345 H              1 S1                 0.0000
     50 ****         2.8486  -4.8658  -1.6814 H              1 S1                 0.0000
     51 ****        -1.9153   0.1651   1.2580 LP             1 S1                 0.0000
     52 ****        -1.2935  -1.3736   0.7622 LP             1 S1                 0.0000
     53 ****         3.2780  -1.2116  -1.2489 LP             1 S1                 0.0000
     54 ****         0.7880  -4.0733  -2.4019 LP             1 S1                 0.0000
     55 ****         0.8810  -4.0618  -0.7716 LP             1 S1                 0.0000
     56 ****        -5.8454   0.5522  -0.8261 LP             1 S1                 0.0000
     57 ****        -4.2776   0.3653  -1.5383 LP             1 S1                 0.0000
@<TRIPOS>BOND
    1    1    2 1     
    2    1   24 1     
    3    1   25 1     
    4    1   26 1     
    5    2   22 1     
    6    2    3 2     
    7    3    4 1     
    8    3   27 1     
    9    4    5 2     
   10    4   28 1     
   11    5    6 1     
   12    5   29 1     
   13    6    7 1     
   14    6   22 am    
   15    7    8 1     
   16    7   30 1     
   17    7   31 1     
   18    8    9 2     
   19    8   10 am    
   20   10   11 1     
   21   10   32 1     
   22   11   12 1     
   23   11   33 1     
   24   11   34 1     
   25   12   21 1     
   26   12   13 1     
   27   12   35 1     
   28   13   14 1     
   29   13   36 1     
   30   13   37 1     
   31   14   15 1     
   32   14   19 1     
   33   15   16 1     
   34   15   38 1     
   35   15   39 1     
   36   16   17 1     
   37   16   18 1     
   38   16   40 1     
   39   17   41 1     
   40   17   42 1     
   41   17   43 1     
   42   18   44 1     
   43   18   45 1     
   44   18   46 1     
   45   19   20 1     
   46   19   47 1     
   47   19   48 1     
   48   20   21 1     
   49   20   49 1     
   50   20   50 1     
   51   22   23 2     
   52    9   51 1     
   53    9   52 1     
   54   14   53 1     
   55   21   54 1     
   56   21   55 1     
   57   23   56 1     
   58   23   57 1     
@<TRIPOS>SUBSTRUCTURE
      1 S1             1
@<TRIPOS>SET
LONE_PAIRS      STATIC     ATOMS    <user>   **** ""
7 51 52 53 54 55 56 57
DONOR_HYDROGENS      STATIC     ATOMS    <user>   **** ""
1 32
ATOM$BLUE        STATIC     ATOMS    COLORGROUP SYSTEM
7 51 52 53 54 55 56 57
ATOM$RED        STATIC     ATOMS    COLORGROUP SYSTEM
1 32
