AV-unprocessed.smi:802|AV-procd|sdf|3792|dock8
  -GOLD-   22720 1233D 1   1.00000     0.00000
 Structure written by MMmdl.
 37 38  0  0  0  0  0  0  0  0  2 V2000
  147.5447  140.3568  154.0745 C   0  0  0  0  0  0  0  0  0  0  0  0
  148.9773  139.9811  154.3107 C   0  0  0  0  0  0  0  0  0  0  0  0
  149.5914  138.7060  154.1778 C   0  0  0  0  0  0  0  0  0  0  0  0
  150.8972  138.9405  154.5045 C   0  0  0  0  0  0  0  0  0  0  0  0
  152.1017  138.0631  154.5811 C   0  0  0  0  0  0  0  0  0  0  0  0
  152.5922  137.8175  156.3403 S   0  0  0  0  0  0  0  0  0  0  0  0
  151.4682  137.1168  156.9832 O   0  0  0  0  0  0  0  0  0  0  0  0
  153.8855  137.1146  156.3085 O   0  0  0  0  0  0  0  0  0  0  0  0
  152.7289  139.3567  156.8274 N   0  5  0  0  0  0  0  0  0  0  0  0
  151.7002  139.9246  157.6826 C   0  0  0  0  0  0  0  0  0  0  0  0
  152.2989  140.3311  159.0576 C   0  0  0  0  0  0  0  0  0  0  0  0
  152.8975  141.7654  159.0710 C   0  0  0  0  0  0  0  0  0  0  0  0
  153.4390  142.1417  160.4603 C   0  0  0  0  0  0  0  0  0  0  0  0
  154.4819  141.1265  160.9480 C   0  0  0  0  0  0  0  0  0  0  0  0
  153.9070  139.7030  160.9428 C   0  0  0  0  0  0  0  0  0  0  0  0
  153.3685  139.3218  159.5536 C   0  0  0  0  0  0  0  0  0  0  0  0
  151.0715  140.2495  154.8222 O   0  0  0  0  0  0  0  0  0  0  0  0
  149.8415  140.9051  154.6965 N   0  0  0  0  0  0  0  0  0  0  0  0
  146.9719  139.5078  153.7012 H   0  0  0  0  0  0  0  0  0  0  0  0
  147.4644  141.1587  153.3404 H   0  0  0  0  0  0  0  0  0  0  0  0
  147.0717  140.6974  154.9958 H   0  0  0  0  0  0  0  0  0  0  0  0
  149.1486  137.7669  153.8807 H   0  0  0  0  0  0  0  0  0  0  0  0
  151.9000  137.0863  154.1415 H   0  0  0  0  0  0  0  0  0  0  0  0
  152.9397  138.5089  154.0460 H   0  0  0  0  0  0  0  0  0  0  0  0
  151.2543  140.8054  157.2193 H   0  0  0  0  0  0  0  0  0  0  0  0
  150.8757  139.2301  157.8472 H   0  0  0  0  0  0  0  0  0  0  0  0
  151.4845  140.3068  159.7840 H   0  0  0  0  0  0  0  0  0  0  0  0
  153.7079  141.8506  158.3436 H   0  0  0  0  0  0  0  0  0  0  0  0
  152.1512  142.5096  158.7859 H   0  0  0  0  0  0  0  0  0  0  0  0
  153.8795  143.1386  160.4286 H   0  0  0  0  0  0  0  0  0  0  0  0
  152.6145  142.1906  161.1725 H   0  0  0  0  0  0  0  0  0  0  0  0
  155.3625  141.1686  160.3057 H   0  0  0  0  0  0  0  0  0  0  0  0
  154.8165  141.3901  161.9517 H   0  0  0  0  0  0  0  0  0  0  0  0
  154.6744  138.9923  161.2508 H   0  0  0  0  0  0  0  0  0  0  0  0
  153.1045  139.6295  161.6778 H   0  0  0  0  0  0  0  0  0  0  0  0
  152.9584  138.3112  159.6130 H   0  0  0  0  0  0  0  0  0  0  0  0
  154.2071  139.2734  158.8553 H   0  0  0  0  0  0  0  0  0  0  0  0
  1  2  1  0  0  0  0
  1 19  1  0  0  0  0
  1 20  1  0  0  0  0
  1 21  1  0  0  0  0
  2 18  2  0  0  0  0
  2  3  1  0  0  0  0
  3  4  2  0  0  0  0
  3 22  1  0  0  0  0
  4  5  1  0  0  0  0
  4 17  1  0  0  0  0
  5  6  1  0  0  0  0
  5 23  1  0  0  0  0
  5 24  1  0  0  0  0
  6  7  2  0  0  0  0
  6  8  2  0  0  0  0
  6  9  1  0  0  0  0
  9 10  1  0  0  0  0
 10 11  1  0  0  0  0
 10 25  1  0  0  0  0
 10 26  1  0  0  0  0
 11 16  1  0  0  0  0
 11 12  1  0  0  0  0
 11 27  1  0  0  0  0
 12 13  1  0  0  0  0
 12 28  1  0  0  0  0
 12 29  1  0  0  0  0
 13 14  1  0  0  0  0
 13 30  1  0  0  0  0
 13 31  1  0  0  0  0
 14 15  1  0  0  0  0
 14 32  1  0  0  0  0
 14 33  1  0  0  0  0
 15 16  1  0  0  0  0
 15 34  1  0  0  0  0
 15 35  1  0  0  0  0
 16 36  1  0  0  0  0
 16 37  1  0  0  0  0
 17 18  1  0  0  0  0
M  CHG  1   9  -1
M  END
> <s_m_source_file>
AV-unprocessed.smi

> <i_m_source_file_index>
802

> <i_lp_mmshare_version>
43012

> <i_f3d_flags>
0

> <s_epik_input>
W0NIM11jMVtjSF1jKG9uMSlbQ0gyXVMoPU8pKD1PKVtOSF1bQ0gyXVtDSF0yW0NIMl1bQ0gyXVtDSDJdW0NIMl1bQ0gyXTI=

> <s_epik_cmdline>
J2VwaWtfcHl0aG9uJywgJy1waCcsICc3LjAnLCAnLXRuJywgJzgnLCAnLW1hJywgJzIwMCcsICctbWV0YWxfYmluZGluZycsICctaW1hZScsICc8aW5maWxlLm1hZT4nLCAnLW9tYWUnLCAnPG91dGZpbGUubWFlPic=

> <r_lp_tautomer_probability>
1

> <r_epik_Ionization_Penalty>
5.54077

> <r_epik_Ionization_Penalty_Charging>
5.54077

> <r_epik_Ionization_Penalty_Neutral>
8.84355e-10

> <r_epik_State_Penalty>
5.54071

> <r_epik_Charging_Adjusted_Penalty>
11.0815

> <i_epik_Tot_Q>
-1

> <i_epik_Tot_abs_Q>
1

> <r_epik_Metal_State_Penalty>
1.54279

> <b_epik_Metal_Only>
1

> <s_lp_Force_Field>
OPLS_2005

> <r_lp_Energy>
6.62566

> <b_lp_Chiralities_Consistent>
1

> <s_lp_Variant>
AV-unprocessed.smi:802-2

> <Gold.Version>
5.8.1

> <Gold.Id.Protein>
6NUR|6NUR_protein|mol2

> <Gold.PLP.Fitness>
44.0920

> <Gold.PLP.PLP>
-34.8736

> <Gold.PLP.part.hbond>
-3.9107

> <Gold.PLP.part.metal>
0.0000

> <Gold.PLP.part.buried>
-2.8355

> <Gold.PLP.part.nonpolar>
-27.7814

> <Gold.PLP.part.repulsive>
0.1968

> <Gold.PLP.ligand.clash>
0.0000

> <Gold.PLP.ligand.torsion>
0.9255

> <Gold.PLP.Chemscore.Hbond>
3.3575

> <Gold.PLP.Chemscore.CHOScore>
0.0000

> <Gold.PLP.Chemscore.Metal>
0.0000

> <Gold.Chemscore.Hbonds>
donor molecule, donor type, donor heavy atom, donor atom, acceptor molecule, acceptor atom, score
      P1  H  7989  7998       L1    17  0.65
      P1  H  7997  8009       L1     9  2.00
      P1  H 10752 10764       L1     8  0.51

> <Gold.PLP.Chemscore.Internal.Correction>
0.9969

> <Gold.Rescore>
     Score         DG    S(hbond)    S(metal)    S(lipo)     H(rot)  DE(clash)    DE(int)     intcor
     16.71     -18.72       2.07        0.00      86.65       1.50       0.01       2.00       ----

> <Gold.Chemscore.Fitness>
16.7078

> <Gold.Chemscore.DG>
-18.7186

> <Gold.Chemscore.ZeroCoef>
-5.4800

> <Gold.Chemscore.Hbond>
2.0747

> <Gold.Chemscore.Metal>
0.0000

> <Gold.Chemscore.Lipo>
86.6479

> <Gold.Chemscore.Internal_Hbond>
0.0000

> <Gold.Chemscore.DEClash>
0.0088

> <Gold.Chemscore.DEInternal>
2.0020

> <Gold.Chemscore.Rot>
1.4956

> <Gold.Chemscore.Internal.Correction>
   9.000000E+99

> <Gold.Chemscore.Hbonds>
donor molecule, donor type, donor heavy atom, donor atom, acceptor molecule, acceptor atom, score
      P1  H  7989  7998       L1    17  0.02
      P1  H  7997  8009       L1     9  0.90
      P1  H 10752 10764       L1     8  0.47

> <Gold.Chemscore.Hbond.Weighted>
-6.9296

> <Gold.Chemscore.Metal.Weighted>
-0.0000

> <Gold.Chemscore.Lipo.Weighted>
-10.1378

> <Gold.Chemscore.Internal_Hbond.Weighted>
0.0000

> <Gold.Chemscore.DEClash.Weighted>
0.0088

> <Gold.Chemscore.DEInternal.Weighted>
2.0020

> <Gold.Chemscore.Rot.Weighted>
3.8287

> <Gold.Chemscore.Internal.Correction.Weighted>
   9.000000E+99

> <Gold.Protein.RotatedTorsions>
[ 6907 6896 6895 6894 ] final -112.25 input  -60.11 | X-H torsion
[ 7974 7965 7964 7962 ] final   11.29 input  175.53 | X-H torsion
[ 8008 7997 7996 7995 ] final -177.71 input   59.86 | X-H torsion
[ 10167 10162 10161 10158 ] final -103.89 input  -65.29 | X-H torsion
[ 10718 10713 10712 10709 ] final   93.08 input   66.30 | X-H torsion
[ 10763 10752 10751 10750 ] final   19.84 input  -60.55 | X-H torsion
[ 11005 11000 10999 10996 ] final  -47.67 input  -57.11 | X-H torsion

> <Gold.Protein.ActiveResidues>
 VAL166  LYS551  ARG553  GLY616  TRP617  ASP618  TYR619  PRO620  LYS621  CYS622 
 ASP623  PHE694  ASN695  SER759  ASP760  ASP761  ALA762  ILE779  LEU786  VAL792 
 PHE793  MET794  SER795  GLU796  ALA797  LYS798  CYS799  TRP800  GLU811  SER814 

> <Gold.Protein.RotatedAtoms>
  150.7745  133.9117  159.3371 H   0  0  0  0  0  0  0  0  0  0  0  0  # atno 6907 bound_to 6896
  151.6995  135.0930  160.0258 H   0  0  0  0  0  0  0  0  0  0  0  0  # atno 6908 bound_to 6896
  152.3776  133.6464  159.6171 H   0  0  0  0  0  0  0  0  0  0  0  0  # atno 6909 bound_to 6896
  146.2373  139.9507  142.8471 H   0  0  0  0  0  0  0  0  0  0  0  0  # atno 7974 bound_to 7965
  156.0102  140.1239  157.0461 H   0  0  0  0  0  0  0  0  0  0  0  0  # atno 8008 bound_to 7997
  154.4273  140.1089  156.5888 H   0  0  0  0  0  0  0  0  0  0  0  0  # atno 8009 bound_to 7997
  155.6090  140.3471  155.4619 H   0  0  0  0  0  0  0  0  0  0  0  0  # atno 8010 bound_to 7997
  140.2151  143.3717  152.1017 H   0  0  0  0  0  0  0  0  0  0  0  0  # atno 10167 bound_to 10162
  157.6956  131.0466  150.3979 H   0  0  0  0  0  0  0  0  0  0  0  0  # atno 10718 bound_to 10713
  153.1127  135.6700  153.9471 H   0  0  0  0  0  0  0  0  0  0  0  0  # atno 10763 bound_to 10752
  153.9010  135.3036  155.3450 H   0  0  0  0  0  0  0  0  0  0  0  0  # atno 10764 bound_to 10752
  154.7546  135.5018  153.9428 H   0  0  0  0  0  0  0  0  0  0  0  0  # atno 10765 bound_to 10752
  141.0655  133.6695  156.3331 H   0  0  0  0  0  0  0  0  0  0  0  0  # atno 11005 bound_to 11000
  145.1864  140.9791  143.4236 LP  0  0  0  0  0  0  0  0  0  0  0  0  # atno 17320 bound_to 7965
  144.9896  139.3702  143.6221 LP  0  0  0  0  0  0  0  0  0  0  0  0  # atno 17321 bound_to 7965
  139.5165  144.6978  151.5580 LP  0  0  0  0  0  0  0  0  0  0  0  0  # atno 17342 bound_to 10162
  140.6295  143.9103  150.6593 LP  0  0  0  0  0  0  0  0  0  0  0  0  # atno 17343 bound_to 10162
  156.4376  130.3985  149.6719 LP  0  0  0  0  0  0  0  0  0  0  0  0  # atno 17370 bound_to 10713
  156.3914  130.7629  151.2630 LP  0  0  0  0  0  0  0  0  0  0  0  0  # atno 17371 bound_to 10713
  140.5783  134.5772  157.5473 LP  0  0  0  0  0  0  0  0  0  0  0  0  # atno 17394 bound_to 11000
  139.9472  134.7681  156.0534 LP  0  0  0  0  0  0  0  0  0  0  0  0  # atno 17395 bound_to 11000

$$$$
