AV-unprocessed.smi:2441|AV-procd|sdf|9620|dock5
  -GOLD-   2272013253D 1   1.00000     0.00000
 Structure written by MMmdl.
 40 41  0  0  0  0  0  0  0  0  1 V2000
  145.1197  143.0711  157.5589 C   0  0  0  0  0  0  0  0  0  0  0  0
  145.5194  142.4137  156.2267 C   0  0  1  0  0  0  0  0  0  0  0  0
  145.5553  143.4398  155.0750 C   0  0  0  0  0  0  0  0  0  0  0  0
  145.9044  142.7745  153.7339 C   0  0  0  0  0  0  0  0  0  0  0  0
  147.2290  142.0014  153.8186 C   0  0  0  0  0  0  0  0  0  0  0  0
  147.2035  140.9752  154.9646 C   0  0  0  0  0  0  0  0  0  0  0  0
  146.8480  141.6212  156.3190 C   0  0  1  0  0  0  0  0  0  0  0  0
  147.9526  142.4705  156.7707 N   0  0  0  0  0  0  0  0  0  0  0  0
  148.7447  142.2472  157.8294 C   0  0  0  0  0  0  0  0  0  0  0  0
  148.6254  141.2751  158.5746 O   0  0  0  0  0  0  0  0  0  0  0  0
  149.6748  143.2139  157.9376 N   0  0  0  0  0  0  0  0  0  0  0  0
  150.6871  143.3786  158.8994 C   0  0  0  0  0  0  0  0  0  0  0  0
  150.8335  144.4747  159.6858 C   0  0  0  0  0  0  0  0  0  0  0  0
  151.9093  144.5614  160.6435 C   0  0  0  0  0  0  0  0  0  0  0  0
  152.7683  143.5366  160.7296 C   0  0  0  0  0  0  0  0  0  0  0  0
  152.6456  142.3974  159.9182 N   0  0  0  0  0  0  0  0  0  0  0  0
  153.6580  141.3574  160.1236 C   0  0  0  0  0  0  0  0  0  0  0  0
  151.6434  142.2576  158.9977 C   0  0  0  0  0  0  0  0  0  0  0  0
  151.5499  141.2486  158.2947 O   0  0  0  0  0  0  0  0  0  0  0  0
  145.8188  143.8557  157.8490 H   0  0  0  0  0  0  0  0  0  0  0  0
  145.0900  142.3368  158.3642 H   0  0  0  0  0  0  0  0  0  0  0  0
  144.1297  143.5224  157.4902 H   0  0  0  0  0  0  0  0  0  0  0  0
  144.7356  141.6925  155.9888 H   0  0  0  0  0  0  0  0  0  0  0  0
  144.5882  143.9368  154.9907 H   0  0  0  0  0  0  0  0  0  0  0  0
  146.2825  144.2225  155.2952 H   0  0  0  0  0  0  0  0  0  0  0  0
  145.1030  142.0927  153.4463 H   0  0  0  0  0  0  0  0  0  0  0  0
  145.9650  143.5295  152.9495 H   0  0  0  0  0  0  0  0  0  0  0  0
  147.4224  141.4943  152.8730 H   0  0  0  0  0  0  0  0  0  0  0  0
  148.0534  142.7004  153.9650 H   0  0  0  0  0  0  0  0  0  0  0  0
  146.4677  140.2039  154.7332 H   0  0  0  0  0  0  0  0  0  0  0  0
  148.1652  140.4645  155.0307 H   0  0  0  0  0  0  0  0  0  0  0  0
  146.7008  140.8092  157.0333 H   0  0  0  0  0  0  0  0  0  0  0  0
  148.1303  143.2977  156.2204 H   0  0  0  0  0  0  0  0  0  0  0  0
  149.6800  143.9100  157.2061 H   0  0  0  0  0  0  0  0  0  0  0  0
  150.1689  145.3200  159.6166 H   0  0  0  0  0  0  0  0  0  0  0  0
  152.0185  145.4304  161.2756 H   0  0  0  0  0  0  0  0  0  0  0  0
  153.6002  143.5186  161.4195 H   0  0  0  0  0  0  0  0  0  0  0  0
  153.5970  140.5262  159.4203 H   0  0  0  0  0  0  0  0  0  0  0  0
  153.5659  140.9425  161.1280 H   0  0  0  0  0  0  0  0  0  0  0  0
  154.6575  141.7835  160.0282 H   0  0  0  0  0  0  0  0  0  0  0  0
  1  2  1  0  0  0  0
  1 20  1  0  0  0  0
  1 21  1  0  0  0  0
  1 22  1  0  0  0  0
  2  7  1  0  0  0  0
  2  3  1  0  0  0  0
  2 23  1  0  0  0  0
  3  4  1  0  0  0  0
  3 24  1  0  0  0  0
  3 25  1  0  0  0  0
  4  5  1  0  0  0  0
  4 26  1  0  0  0  0
  4 27  1  0  0  0  0
  5  6  1  0  0  0  0
  5 28  1  0  0  0  0
  5 29  1  0  0  0  0
  6  7  1  0  0  0  0
  6 30  1  0  0  0  0
  6 31  1  0  0  0  0
  7  8  1  0  0  0  0
  7 32  1  0  0  0  0
  8  9  1  0  0  0  0
  8 33  1  0  0  0  0
  9 10  2  0  0  0  0
  9 11  1  0  0  0  0
 11 12  1  0  0  0  0
 11 34  1  0  0  0  0
 12 18  1  0  0  0  0
 12 13  2  0  0  0  0
 13 14  1  0  0  0  0
 13 35  1  0  0  0  0
 14 15  2  0  0  0  0
 14 36  1  0  0  0  0
 15 16  1  0  0  0  0
 15 37  1  0  0  0  0
 16 17  1  0  0  0  0
 16 18  1  0  0  0  0
 17 38  1  0  0  0  0
 17 39  1  0  0  0  0
 17 40  1  0  0  0  0
 18 19  2  0  0  0  0
M  END
> <s_m_source_file>
AV-unprocessed.smi

> <i_m_source_file_index>
2441

> <i_lp_mmshare_version>
43012

> <i_f3d_flags>
0

> <s_epik_input>
W0NIM11bQ0BASF0xW0NIMl1bQ0gyXVtDSDJdW0NIMl1bQ0BIXTFbTkhdQyg9TylbTkhdYzJbY0hdW2NIXVtjSF1uKFtDSDNdKWMyPU8=

> <s_epik_cmdline>
J2VwaWtfcHl0aG9uJywgJy1waCcsICc3LjAnLCAnLXRuJywgJzgnLCAnLW1hJywgJzIwMCcsICctbWV0YWxfYmluZGluZycsICctaW1hZScsICc8aW5maWxlLm1hZT4nLCAnLW9tYWUnLCAnPG91dGZpbGUubWFlPic=

> <r_lp_tautomer_probability>
1

> <r_epik_Ionization_Penalty>
2.64999e-05

> <r_epik_Ionization_Penalty_Charging>
5.09663e-06

> <r_epik_Ionization_Penalty_Neutral>
2.14032e-05

> <r_epik_State_Penalty>
-0

> <r_epik_Charging_Adjusted_Penalty>
5.09663e-06

> <i_epik_Tot_Q>
0

> <i_epik_Tot_abs_Q>
0

> <r_epik_Metal_State_Penalty>
-0

> <b_epik_Metal_Only>
0

> <s_lp_Force_Field>
OPLS_2005

> <r_lp_Energy>
23.2252

> <b_lp_Chiralities_Consistent>
1

> <s_lp_Variant>
AV-unprocessed.smi:2441-2

> <Gold.Version>
5.8.1

> <Gold.Id.Protein>
6NUR|6NUR_protein|mol2

> <Gold.PLP.Fitness>
42.4096

> <Gold.PLP.PLP>
-37.5632

> <Gold.PLP.part.hbond>
-3.5183

> <Gold.PLP.part.metal>
0.0000

> <Gold.PLP.part.buried>
-4.9029

> <Gold.PLP.part.nonpolar>
-28.3990

> <Gold.PLP.part.repulsive>
0.0773

> <Gold.PLP.ligand.clash>
0.0000

> <Gold.PLP.ligand.torsion>
0.5806

> <Gold.PLP.Chemscore.Hbond>
2.0000

> <Gold.PLP.Chemscore.CHOScore>
0.0000

> <Gold.PLP.Chemscore.Metal>
0.0000

> <Gold.Chemscore.Hbonds>
donor molecule, donor type, donor heavy atom, donor atom, acceptor molecule, acceptor atom, score
      L1  H     8    33       P1  8028  1.00
      L1  H    11    34       P1  8028  1.00

> <Gold.PLP.Chemscore.Internal.Correction>
0.0076

> <Gold.Rescore>
     Score         DG    S(hbond)    S(metal)    S(lipo)     H(rot)  DE(clash)    DE(int)     intcor
     17.20     -17.98       1.58        0.00      83.45       1.00       0.12       0.65       ----

> <Gold.Chemscore.Fitness>
17.2040

> <Gold.Chemscore.DG>
-17.9756

> <Gold.Chemscore.ZeroCoef>
-5.4800

> <Gold.Chemscore.Hbond>
1.5843

> <Gold.Chemscore.Metal>
0.0000

> <Gold.Chemscore.Lipo>
83.4541

> <Gold.Chemscore.Internal_Hbond>
0.0000

> <Gold.Chemscore.DEClash>
0.1169

> <Gold.Chemscore.DEInternal>
0.6547

> <Gold.Chemscore.Rot>
1.0000

> <Gold.Chemscore.Internal.Correction>
   9.000000E+99

> <Gold.Chemscore.Hbonds>
donor molecule, donor type, donor heavy atom, donor atom, acceptor molecule, acceptor atom, score
      L1  H     8    33       P1  8028  0.40
      L1  H    11    34       P1  8028  0.67

> <Gold.Chemscore.Hbond.Weighted>
-5.2915

> <Gold.Chemscore.Metal.Weighted>
-0.0000

> <Gold.Chemscore.Lipo.Weighted>
-9.7641

> <Gold.Chemscore.Internal_Hbond.Weighted>
0.0000

> <Gold.Chemscore.DEClash.Weighted>
0.1169

> <Gold.Chemscore.DEInternal.Weighted>
0.6547

> <Gold.Chemscore.Rot.Weighted>
2.5600

> <Gold.Chemscore.Internal.Correction.Weighted>
   9.000000E+99

> <Gold.Protein.RotatedTorsions>
[ 6907 6896 6895 6894 ] final  -87.81 input  -60.11 | X-H torsion
[ 7974 7965 7964 7962 ] final   -8.54 input  175.53 | X-H torsion
[ 8008 7997 7996 7995 ] final  -80.53 input   59.86 | X-H torsion
[ 10167 10162 10161 10158 ] final -138.16 input  -65.29 | X-H torsion
[ 10718 10713 10712 10709 ] final   30.76 input   66.30 | X-H torsion
[ 10763 10752 10751 10750 ] final  -95.78 input  -60.55 | X-H torsion
[ 11005 11000 10999 10996 ] final -113.83 input  -57.11 | X-H torsion

> <Gold.Protein.ActiveResidues>
 VAL166  LYS551  ARG553  GLY616  TRP617  ASP618  TYR619  PRO620  LYS621  CYS622 
 ASP623  PHE694  ASN695  SER759  ASP760  ASP761  ALA762  ILE779  LEU786  VAL792 
 PHE793  MET794  SER795  GLU796  ALA797  LYS798  CYS799  TRP800  GLU811  SER814 

> <Gold.Protein.RotatedAtoms>
  150.6867  134.2839  159.4638 H   0  0  0  0  0  0  0  0  0  0  0  0  # atno 6907 bound_to 6896
  152.0750  134.9506  160.0583 H   0  0  0  0  0  0  0  0  0  0  0  0  # atno 6908 bound_to 6896
  152.0881  133.4152  159.4568 H   0  0  0  0  0  0  0  0  0  0  0  0  # atno 6909 bound_to 6896
  146.2277  140.2483  142.8346 H   0  0  0  0  0  0  0  0  0  0  0  0  # atno 7974 bound_to 7965
  154.5892  140.0661  156.9215 H   0  0  0  0  0  0  0  0  0  0  0  0  # atno 8008 bound_to 7997
  155.2325  140.3338  155.4283 H   0  0  0  0  0  0  0  0  0  0  0  0  # atno 8009 bound_to 7997
  156.2244  140.1813  156.7383 H   0  0  0  0  0  0  0  0  0  0  0  0  # atno 8010 bound_to 7997
  139.8505  143.7204  152.2658 H   0  0  0  0  0  0  0  0  0  0  0  0  # atno 10167 bound_to 10162
  157.2638  130.7174  149.6468 H   0  0  0  0  0  0  0  0  0  0  0  0  # atno 10718 bound_to 10713
  154.7180  135.5108  153.8767 H   0  0  0  0  0  0  0  0  0  0  0  0  # atno 10763 bound_to 10752
  153.0837  135.6639  154.0001 H   0  0  0  0  0  0  0  0  0  0  0  0  # atno 10764 bound_to 10752
  153.9830  135.3027  155.3398 H   0  0  0  0  0  0  0  0  0  0  0  0  # atno 10765 bound_to 10752
  141.0590  133.9567  157.2702 H   0  0  0  0  0  0  0  0  0  0  0  0  # atno 11005 bound_to 11000
  144.9431  140.8100  143.5618 LP  0  0  0  0  0  0  0  0  0  0  0  0  # atno 17320 bound_to 7965
  145.2436  139.2061  143.4979 LP  0  0  0  0  0  0  0  0  0  0  0  0  # atno 17321 bound_to 7965
  139.7470  144.7544  151.0565 LP  0  0  0  0  0  0  0  0  0  0  0  0  # atno 17342 bound_to 10162
  140.7788  143.4905  150.9899 LP  0  0  0  0  0  0  0  0  0  0  0  0  # atno 17343 bound_to 10162
  155.9663  130.4389  150.5236 LP  0  0  0  0  0  0  0  0  0  0  0  0  # atno 17370 bound_to 10713
  157.3146  131.0670  151.1976 LP  0  0  0  0  0  0  0  0  0  0  0  0  # atno 17371 bound_to 10713
  139.9415  135.0190  156.8723 LP  0  0  0  0  0  0  0  0  0  0  0  0  # atno 17394 bound_to 11000
  140.5907  134.0264  155.7499 LP  0  0  0  0  0  0  0  0  0  0  0  0  # atno 17395 bound_to 11000

$$$$
