AV-unprocessed.smi:1453|AV-procd|sdf|5912|dock8
  -GOLD-   22720 5593D 1   1.00000     0.00000
 Structure written by MMmdl.
 43 44  0  0  0  0  0  0  0  0  1 V2000
  148.0725  134.9439  157.4807 C   0  0  0  0  0  0  0  0  0  0  0  0
  149.0640  135.0760  156.3133 C   0  0  1  0  0  0  0  0  0  0  0  0
  149.3821  136.5448  156.0018 C   0  0  0  0  0  0  0  0  0  0  0  0
  148.9177  137.4468  156.6994 O   0  0  0  0  0  0  0  0  0  0  0  0
  150.1733  136.7735  154.9414 N   0  0  0  0  0  0  0  0  0  0  0  0
  150.5887  138.0941  154.4793 C   0  0  0  0  0  0  0  0  0  0  0  0
  151.0815  139.0214  155.5816 C   0  0  0  0  0  0  0  0  0  0  0  0
  150.2939  140.1150  155.9902 C   0  0  0  0  0  0  0  0  0  0  0  0
  150.7641  140.9519  157.0202 C   0  0  0  0  0  0  0  0  0  0  0  0
  152.0130  140.6708  157.6234 C   0  0  0  0  0  0  0  0  0  0  0  0
  152.5029  141.4943  158.6607 N   0  0  0  0  0  0  0  0  0  0  0  0
  151.7350  142.7098  158.9195 C   0  0  0  0  0  0  0  0  0  0  0  0
  152.5235  143.6568  159.8402 C   0  0  0  0  0  0  0  0  0  0  0  0
  152.8935  142.9732  161.0329 O   0  0  0  0  0  0  0  0  0  0  0  0
  153.7367  141.8582  160.7629 C   0  0  0  0  0  0  0  0  0  0  0  0
  152.9901  140.8464  159.8773 C   0  0  0  0  0  0  0  0  0  0  0  0
  152.7697  139.6177  157.2262 N   0  0  0  0  0  0  0  0  0  0  0  0
  152.3139  138.8185  156.2390 C   0  0  0  0  0  0  0  0  0  0  0  0
  150.6255  134.1546  156.7033 S   0  0  0  0  0  0  0  0  0  0  0  0
  150.5806  132.7411  155.5222 C   0  0  0  0  0  0  0  0  0  0  0  0
  151.7792  134.9995  156.3585 O   0  0  0  0  0  0  0  0  0  0  0  0
  150.5086  133.6165  158.0671 O   0  0  0  0  0  0  0  0  0  0  0  0
  147.1582  135.5075  157.2913 H   0  0  0  0  0  0  0  0  0  0  0  0
  148.5025  135.3065  158.4152 H   0  0  0  0  0  0  0  0  0  0  0  0
  147.7893  133.9023  157.6324 H   0  0  0  0  0  0  0  0  0  0  0  0
  148.6257  134.6075  155.4315 H   0  0  0  0  0  0  0  0  0  0  0  0
  150.5115  135.9798  154.4168 H   0  0  0  0  0  0  0  0  0  0  0  0
  151.3578  137.9904  153.7118 H   0  0  0  0  0  0  0  0  0  0  0  0
  149.7339  138.5664  153.9952 H   0  0  0  0  0  0  0  0  0  0  0  0
  149.3425  140.3153  155.5198 H   0  0  0  0  0  0  0  0  0  0  0  0
  150.1711  141.8017  157.3232 H   0  0  0  0  0  0  0  0  0  0  0  0
  151.4890  143.2366  157.9988 H   0  0  0  0  0  0  0  0  0  0  0  0
  150.7900  142.4348  159.3898 H   0  0  0  0  0  0  0  0  0  0  0  0
  153.4129  144.0381  159.3359 H   0  0  0  0  0  0  0  0  0  0  0  0
  151.9119  144.5204  160.1016 H   0  0  0  0  0  0  0  0  0  0  0  0
  154.6571  142.1921  160.2810 H   0  0  0  0  0  0  0  0  0  0  0  0
  154.0224  141.3924  161.7060 H   0  0  0  0  0  0  0  0  0  0  0  0
  152.1469  140.4228  160.4244 H   0  0  0  0  0  0  0  0  0  0  0  0
  153.6615  140.0251  159.6242 H   0  0  0  0  0  0  0  0  0  0  0  0
  152.9562  137.9916  155.9744 H   0  0  0  0  0  0  0  0  0  0  0  0
  151.4207  132.0775  155.7254 H   0  0  0  0  0  0  0  0  0  0  0  0
  150.6578  133.1084  154.4994 H   0  0  0  0  0  0  0  0  0  0  0  0
  149.6489  132.1899  155.6456 H   0  0  0  0  0  0  0  0  0  0  0  0
  1  2  1  0  0  0  0
  1 23  1  0  0  0  0
  1 24  1  0  0  0  0
  1 25  1  0  0  0  0
  2  3  1  0  0  0  0
  2 19  1  0  0  0  0
  2 26  1  0  0  0  0
  3  4  2  0  0  0  0
  3  5  1  0  0  0  0
  5  6  1  0  0  0  0
  5 27  1  0  0  0  0
  6  7  1  0  0  0  0
  6 28  1  0  0  0  0
  6 29  1  0  0  0  0
  7 18  1  0  0  0  0
  7  8  2  0  0  0  0
  8  9  1  0  0  0  0
  8 30  1  0  0  0  0
  9 10  2  0  0  0  0
  9 31  1  0  0  0  0
 10 11  1  0  0  0  0
 10 17  1  0  0  0  0
 11 16  1  0  0  0  0
 11 12  1  0  0  0  0
 12 13  1  0  0  0  0
 12 32  1  0  0  0  0
 12 33  1  0  0  0  0
 13 14  1  0  0  0  0
 13 34  1  0  0  0  0
 13 35  1  0  0  0  0
 14 15  1  0  0  0  0
 15 16  1  0  0  0  0
 15 36  1  0  0  0  0
 15 37  1  0  0  0  0
 16 38  1  0  0  0  0
 16 39  1  0  0  0  0
 17 18  2  0  0  0  0
 18 40  1  0  0  0  0
 19 20  1  0  0  0  0
 19 21  2  0  0  0  0
 19 22  2  0  0  0  0
 20 41  1  0  0  0  0
 20 42  1  0  0  0  0
 20 43  1  0  0  0  0
M  END
> <s_m_source_file>
AV-unprocessed.smi

> <i_m_source_file_index>
1453

> <i_lp_mmshare_version>
43012

> <i_f3d_flags>
0

> <s_epik_input>
W0NIM11TKD1PKSg9TylbQ0BIXShbQ0gzXSlDKD1PKVtOSF1bQ0gyXWMxW2NIXVtjSF1jKG5bY0hdMSlOMltDSDJdW0NIMl1PW0NIMl1bQ0gyXTI=

> <s_epik_cmdline>
J2VwaWtfcHl0aG9uJywgJy1waCcsICc3LjAnLCAnLXRuJywgJzgnLCAnLW1hJywgJzIwMCcsICctbWV0YWxfYmluZGluZycsICctaW1hZScsICc8aW5maWxlLm1hZT4nLCAnLW9tYWUnLCAnPG91dGZpbGUubWFlPic=

> <r_lp_tautomer_probability>
1

> <r_epik_Ionization_Penalty>
0.00349781

> <r_epik_Ionization_Penalty_Charging>
0

> <r_epik_Ionization_Penalty_Neutral>
0.00349781

> <r_epik_State_Penalty>
0.00248024

> <r_epik_Charging_Adjusted_Penalty>
0.00248024

> <i_epik_Tot_Q>
0

> <i_epik_Tot_abs_Q>
0

> <r_epik_Metal_State_Penalty>
-0

> <b_epik_Metal_Only>
0

> <s_lp_Force_Field>
OPLS_2005

> <r_lp_Energy>
14.4852

> <b_lp_Chiralities_Consistent>
1

> <s_lp_Variant>
AV-unprocessed.smi:1453-2

> <Gold.Version>
5.8.1

> <Gold.Id.Protein>
6NUR|6NUR_protein|mol2

> <Gold.PLP.Fitness>
45.4083

> <Gold.PLP.PLP>
-37.0935

> <Gold.PLP.part.hbond>
-4.0000

> <Gold.PLP.part.metal>
0.0000

> <Gold.PLP.part.buried>
-5.8777

> <Gold.PLP.part.nonpolar>
-27.7187

> <Gold.PLP.part.repulsive>
0.1314

> <Gold.PLP.ligand.clash>
0.0000

> <Gold.PLP.ligand.torsion>
0.5939

> <Gold.PLP.Chemscore.Hbond>
3.0000

> <Gold.PLP.Chemscore.CHOScore>
0.0000

> <Gold.PLP.Chemscore.Metal>
0.0000

> <Gold.Chemscore.Hbonds>
donor molecule, donor type, donor heavy atom, donor atom, acceptor molecule, acceptor atom, score
      P1  H  6896  6909       L1    22  0.23
      P1  H  7997  8008       L1    17  1.00
      P1  H 10752 10763       L1    21  0.80

> <Gold.PLP.Chemscore.Internal.Correction>
0.5027

> <Gold.Rescore>
     Score         DG    S(hbond)    S(metal)    S(lipo)     H(rot)  DE(clash)    DE(int)     intcor
     15.90     -19.12       2.67        0.00      85.69       2.08       0.07       3.15       ----

> <Gold.Chemscore.Fitness>
15.9004

> <Gold.Chemscore.DG>
-19.1199

> <Gold.Chemscore.ZeroCoef>
-5.4800

> <Gold.Chemscore.Hbond>
2.6734

> <Gold.Chemscore.Metal>
0.0000

> <Gold.Chemscore.Lipo>
85.6950

> <Gold.Chemscore.Internal_Hbond>
0.0000

> <Gold.Chemscore.DEClash>
0.0727

> <Gold.Chemscore.DEInternal>
3.1468

> <Gold.Chemscore.Rot>
2.0764

> <Gold.Chemscore.Internal.Correction>
   9.000000E+99

> <Gold.Chemscore.Hbonds>
donor molecule, donor type, donor heavy atom, donor atom, acceptor molecule, acceptor atom, score
      P1  H  6896  6909       L1    22  0.23
      P1  H  7997  8008       L1    17  0.30
      P1  H 10752 10763       L1    21  0.76

> <Gold.Chemscore.Hbond.Weighted>
-8.9291

> <Gold.Chemscore.Metal.Weighted>
-0.0000

> <Gold.Chemscore.Lipo.Weighted>
-10.0263

> <Gold.Chemscore.Internal_Hbond.Weighted>
0.0000

> <Gold.Chemscore.DEClash.Weighted>
0.0727

> <Gold.Chemscore.DEInternal.Weighted>
3.1468

> <Gold.Chemscore.Rot.Weighted>
5.3155

> <Gold.Chemscore.Internal.Correction.Weighted>
   9.000000E+99

> <Gold.Protein.RotatedTorsions>
[ 6907 6896 6895 6894 ] final    0.27 input  -60.11 | X-H torsion
[ 7974 7965 7964 7962 ] final -138.35 input  175.53 | X-H torsion
[ 8008 7997 7996 7995 ] final  -59.08 input   59.86 | X-H torsion
[ 10167 10162 10161 10158 ] final  108.55 input  -65.29 | X-H torsion
[ 10718 10713 10712 10709 ] final -160.38 input   66.30 | X-H torsion
[ 10763 10752 10751 10750 ] final   73.83 input  -60.55 | X-H torsion
[ 11005 11000 10999 10996 ] final  121.48 input  -57.11 | X-H torsion

> <Gold.Protein.ActiveResidues>
 VAL166  LYS551  ARG553  GLY616  TRP617  ASP618  TYR619  PRO620  LYS621  CYS622 
 ASP623  PHE694  ASN695  SER759  ASP760  ASP761  ALA762  ILE779  LEU786  VAL792 
 PHE793  MET794  SER795  GLU796  ALA797  LYS798  CYS799  TRP800  GLU811  SER814 

> <Gold.Protein.RotatedAtoms>
  151.5737  135.1061  160.0000 H   0  0  0  0  0  0  0  0  0  0  0  0  # atno 6907 bound_to 6896
  152.4388  133.7405  159.6649 H   0  0  0  0  0  0  0  0  0  0  0  0  # atno 6908 bound_to 6896
  150.8290  133.8054  159.3130 H   0  0  0  0  0  0  0  0  0  0  0  0  # atno 6909 bound_to 6896
  144.8766  140.6446  143.5233 H   0  0  0  0  0  0  0  0  0  0  0  0  # atno 7974 bound_to 7965
  154.4336  140.1070  156.6059 H   0  0  0  0  0  0  0  0  0  0  0  0  # atno 8008 bound_to 7997
  155.5861  140.3491  155.4535 H   0  0  0  0  0  0  0  0  0  0  0  0  # atno 8009 bound_to 7997
  156.0281  140.1254  157.0276 H   0  0  0  0  0  0  0  0  0  0  0  0  # atno 8010 bound_to 7997
  139.6837  144.7115  151.1470 H   0  0  0  0  0  0  0  0  0  0  0  0  # atno 10167 bound_to 10162
  156.5813  130.8731  151.2865 H   0  0  0  0  0  0  0  0  0  0  0  0  # atno 10718 bound_to 10713
  153.0547  135.5048  154.7952 H   0  0  0  0  0  0  0  0  0  0  0  0  # atno 10763 bound_to 10752
  154.6787  135.2965  154.9645 H   0  0  0  0  0  0  0  0  0  0  0  0  # atno 10764 bound_to 10752
  154.0438  135.6713  153.4845 H   0  0  0  0  0  0  0  0  0  0  0  0  # atno 10765 bound_to 10752
  139.9228  134.9639  156.7965 H   0  0  0  0  0  0  0  0  0  0  0  0  # atno 11005 bound_to 11000
  145.4031  139.1594  143.4166 LP  0  0  0  0  0  0  0  0  0  0  0  0  # atno 17320 bound_to 7965
  146.2967  140.4130  142.8719 LP  0  0  0  0  0  0  0  0  0  0  0  0  # atno 17321 bound_to 7965
  140.7661  143.5661  150.9046 LP  0  0  0  0  0  0  0  0  0  0  0  0  # atno 17342 bound_to 10162
  139.9334  143.6466  152.3071 LP  0  0  0  0  0  0  0  0  0  0  0  0  # atno 17343 bound_to 10162
  157.7326  130.9717  150.1935 LP  0  0  0  0  0  0  0  0  0  0  0  0  # atno 17370 bound_to 10713
  156.2629  130.3713  149.8112 LP  0  0  0  0  0  0  0  0  0  0  0  0  # atno 17371 bound_to 10713
  140.6424  133.9806  155.7714 LP  0  0  0  0  0  0  0  0  0  0  0  0  # atno 17394 bound_to 11000
  141.0762  134.0131  157.3454 LP  0  0  0  0  0  0  0  0  0  0  0  0  # atno 17395 bound_to 11000

$$$$
