AV-unprocessed.smi:505|AV-procd|sdf|2749|dock2
  -GOLD-   2262023213D 1   1.00000     0.00000
 Structure written by MMmdl.
 36 37  0  0  0  0  0  0  0  0  2 V2000
  152.8214  144.6921  158.4880 C   0  0  0  0  0  0  0  0  0  0  0  0
  151.9496  143.5757  158.4685 O   0  0  0  0  0  0  0  0  0  0  0  0
  151.0132  143.6380  157.4060 C   0  0  0  0  0  0  0  0  0  0  0  0
  150.0058  142.4927  157.5635 C   0  0  0  0  0  0  0  0  0  0  0  0
  150.2561  141.4219  156.6044 N   0  0  0  0  0  0  0  0  0  0  0  0
  149.5807  141.1713  155.4560 C   0  0  0  0  0  0  0  0  0  0  0  0
  148.5251  141.9872  155.0667 N   0  0  0  0  0  0  0  0  0  0  0  0
  147.6448  141.9556  153.9133 C   0  0  0  0  0  0  0  0  0  0  0  0
  147.3219  140.5210  153.4719 C   0  0  0  0  0  0  0  0  0  0  0  0
  146.6848  140.5354  152.2121 O   0  0  0  0  0  0  0  0  0  0  0  0
  150.0181  140.1192  154.7621 N   0  0  0  0  0  0  0  0  0  0  0  0
  151.0780  139.6655  155.5358 C   0  0  0  0  0  0  0  0  0  0  0  0
  151.2478  140.4388  156.6426 C   0  0  0  0  0  0  0  0  0  0  0  0
  152.3115  140.2220  157.6459 C   0  0  0  0  0  0  0  0  0  0  0  0
  152.4268  140.9659  158.6179 O   0  0  0  0  0  0  0  0  0  0  0  0
  153.0979  139.1420  157.3384 N   0  5  0  0  0  0  0  0  0  0  0  0
  152.9611  138.3285  156.2338 C   0  0  0  0  0  0  0  0  0  0  0  0
  153.7164  137.3771  156.0297 O   0  0  0  0  0  0  0  0  0  0  0  0
  151.9624  138.5720  155.3272 N   0  0  0  0  0  0  0  0  0  0  0  0
  151.7922  137.7227  154.1449 C   0  0  0  0  0  0  0  0  0  0  0  0
  153.5163  144.5996  159.3225 H   0  0  0  0  0  0  0  0  0  0  0  0
  152.2678  145.6237  158.6126 H   0  0  0  0  0  0  0  0  0  0  0  0
  153.4054  144.7520  157.5688 H   0  0  0  0  0  0  0  0  0  0  0  0
  150.4948  144.5981  157.4242 H   0  0  0  0  0  0  0  0  0  0  0  0
  151.5270  143.5590  156.4467 H   0  0  0  0  0  0  0  0  0  0  0  0
  150.0341  142.0870  158.5740 H   0  0  0  0  0  0  0  0  0  0  0  0
  148.9909  142.8671  157.4294 H   0  0  0  0  0  0  0  0  0  0  0  0
  148.3593  142.7740  155.6773 H   0  0  0  0  0  0  0  0  0  0  0  0
  146.7214  142.4621  154.1957 H   0  0  0  0  0  0  0  0  0  0  0  0
  148.0800  142.5308  153.0956 H   0  0  0  0  0  0  0  0  0  0  0  0
  148.2125  139.8921  153.4442 H   0  0  0  0  0  0  0  0  0  0  0  0
  146.6321  140.0667  154.1833 H   0  0  0  0  0  0  0  0  0  0  0  0
  145.7633  140.6977  152.3440 H   0  0  0  0  0  0  0  0  0  0  0  0
  151.6497  136.6815  154.4382 H   0  0  0  0  0  0  0  0  0  0  0  0
  152.6736  137.7797  153.5051 H   0  0  0  0  0  0  0  0  0  0  0  0
  150.9307  138.0090  153.5419 H   0  0  0  0  0  0  0  0  0  0  0  0
  1  2  1  0  0  0  0
  1 21  1  0  0  0  0
  1 22  1  0  0  0  0
  1 23  1  0  0  0  0
  2  3  1  0  0  0  0
  3  4  1  0  0  0  0
  3 24  1  0  0  0  0
  3 25  1  0  0  0  0
  4  5  1  0  0  0  0
  4 26  1  0  0  0  0
  4 27  1  0  0  0  0
  5 13  1  0  0  0  0
  5  6  1  0  0  0  0
  6  7  1  0  0  0  0
  6 11  2  0  0  0  0
  7  8  1  0  0  0  0
  7 28  1  0  0  0  0
  8  9  1  0  0  0  0
  8 29  1  0  0  0  0
  8 30  1  0  0  0  0
  9 10  1  0  0  0  0
  9 31  1  0  0  0  0
  9 32  1  0  0  0  0
 10 33  1  0  0  0  0
 11 12  1  0  0  0  0
 12 19  1  0  0  0  0
 12 13  2  0  0  0  0
 13 14  1  0  0  0  0
 14 15  2  0  0  0  0
 14 16  1  0  0  0  0
 16 17  1  0  0  0  0
 17 18  2  0  0  0  0
 17 19  1  0  0  0  0
 19 20  1  0  0  0  0
 20 34  1  0  0  0  0
 20 35  1  0  0  0  0
 20 36  1  0  0  0  0
M  CHG  1  16  -1
M  END
> <s_m_source_file>
AV-unprocessed.smi

> <i_m_source_file_index>
505

> <i_lp_mmshare_version>
43012

> <i_f3d_flags>
0

> <s_epik_input>
W09IXVtDSDJdW0NIMl1bTkhdYyhuMSluKFtDSDJdW0NIMl1PW0NIM10pYyhjMTIpYyg9TylbbkhdYyg9TyluMltDSDNd

> <s_epik_cmdline>
J2VwaWtfcHl0aG9uJywgJy1waCcsICc3LjAnLCAnLXRuJywgJzgnLCAnLW1hJywgJzIwMCcsICctbWV0YWxfYmluZGluZycsICctaW1hZScsICc8aW5maWxlLm1hZT4nLCAnLW9tYWUnLCAnPG91dGZpbGUubWFlPic=

> <r_lp_tautomer_probability>
1

> <r_epik_Ionization_Penalty>
5.9232

> <r_epik_Ionization_Penalty_Charging>
1.43987e-08

> <r_epik_Ionization_Penalty_Neutral>
5.9232

> <r_epik_State_Penalty>
5.92302

> <r_epik_Charging_Adjusted_Penalty>
5.92302

> <i_epik_Tot_Q>
-1

> <i_epik_Tot_abs_Q>
1

> <r_epik_Metal_State_Penalty>
1.88194

> <b_epik_Metal_Only>
1

> <s_lp_Force_Field>
OPLS_2005

> <r_lp_Energy>
27.5321

> <b_lp_Chiralities_Consistent>
1

> <s_lp_Variant>
AV-unprocessed.smi:505-2

> <Gold.Version>
5.8.1

> <Gold.Id.Protein>
6NUR|6NUR_protein|mol2

> <Gold.PLP.Fitness>
43.2978

> <Gold.PLP.PLP>
-35.1023

> <Gold.PLP.part.hbond>
-5.1152

> <Gold.PLP.part.metal>
0.0000

> <Gold.PLP.part.buried>
-0.4865

> <Gold.PLP.part.nonpolar>
-30.1956

> <Gold.PLP.part.repulsive>
0.2811

> <Gold.PLP.ligand.clash>
0.0000

> <Gold.PLP.ligand.torsion>
0.7716

> <Gold.PLP.Chemscore.Hbond>
3.2298

> <Gold.PLP.Chemscore.CHOScore>
0.0000

> <Gold.PLP.Chemscore.Metal>
0.0000

> <Gold.Chemscore.Hbonds>
donor molecule, donor type, donor heavy atom, donor atom, acceptor molecule, acceptor atom, score
      L1  H     7    28       P1  8028  0.70
      L1  H    10    33       P1 10175  0.79
      P1  H  7989  7998       L1    11  0.10
      P1  H  7997  8010       L1    16  1.12
      P1  H 10752 10763       L1    18  0.22

> <Gold.PLP.Chemscore.Internal.Correction>
0.0492

> <Gold.Rescore>
     Score         DG    S(hbond)    S(metal)    S(lipo)     H(rot)  DE(clash)    DE(int)     intcor
      7.97     -10.64       1.75        0.00      60.09       3.02       0.31       2.36       ----

> <Gold.Chemscore.Fitness>
7.9704

> <Gold.Chemscore.DG>
-10.6438

> <Gold.Chemscore.ZeroCoef>
-5.4800

> <Gold.Chemscore.Hbond>
1.7544

> <Gold.Chemscore.Metal>
0.0000

> <Gold.Chemscore.Lipo>
60.0892

> <Gold.Chemscore.Internal_Hbond>
0.0000

> <Gold.Chemscore.DEClash>
0.3094

> <Gold.Chemscore.DEInternal>
2.3640

> <Gold.Chemscore.Rot>
3.0181

> <Gold.Chemscore.Internal.Correction>
   9.000000E+99

> <Gold.Chemscore.Hbonds>
donor molecule, donor type, donor heavy atom, donor atom, acceptor molecule, acceptor atom, score
      L1  H     7    28       P1  8028  0.66
      L1  H    10    33       P1 10175  0.15
      P1  H  7997  8010       L1    16  0.01
      P1  H 10752 10763       L1    18  0.22

> <Gold.Chemscore.Hbond.Weighted>
-5.8598

> <Gold.Chemscore.Metal.Weighted>
-0.0000

> <Gold.Chemscore.Lipo.Weighted>
-7.0304

> <Gold.Chemscore.Internal_Hbond.Weighted>
0.0000

> <Gold.Chemscore.DEClash.Weighted>
0.3094

> <Gold.Chemscore.DEInternal.Weighted>
2.3640

> <Gold.Chemscore.Rot.Weighted>
7.7264

> <Gold.Chemscore.Internal.Correction.Weighted>
   9.000000E+99

> <Gold.Protein.RotatedTorsions>
[ 6907 6896 6895 6894 ] final -146.98 input  -60.11 | X-H torsion
[ 7974 7965 7964 7962 ] final   33.40 input  175.53 | X-H torsion
[ 8008 7997 7996 7995 ] final   60.33 input   59.86 | X-H torsion
[ 10167 10162 10161 10158 ] final   17.35 input  -65.29 | X-H torsion
[ 10718 10713 10712 10709 ] final -147.77 input   66.30 | X-H torsion
[ 10763 10752 10751 10750 ] final   98.56 input  -60.55 | X-H torsion
[ 11005 11000 10999 10996 ] final  -14.00 input  -57.11 | X-H torsion

> <Gold.Protein.ActiveResidues>
 VAL166  LYS551  ARG553  GLY616  TRP617  ASP618  TYR619  PRO620  LYS621  CYS622 
 ASP623  PHE694  ASN695  SER759  ASP760  ASP761  ALA762  ILE779  LEU786  VAL792 
 PHE793  MET794  SER795  GLU796  ALA797  LYS798  CYS799  TRP800  GLU811  SER814 

> <Gold.Protein.RotatedAtoms>
  151.1492  133.4919  159.2595 H   0  0  0  0  0  0  0  0  0  0  0  0  # atno 6907 bound_to 6896
  151.1572  135.0255  159.8704 H   0  0  0  0  0  0  0  0  0  0  0  0  # atno 6908 bound_to 6896
  152.5463  134.1370  159.8516 H   0  0  0  0  0  0  0  0  0  0  0  0  # atno 6909 bound_to 6896
  146.1423  139.6402  142.9154 H   0  0  0  0  0  0  0  0  0  0  0  0  # atno 7974 bound_to 7965
  155.5807  140.3491  155.4539 H   0  0  0  0  0  0  0  0  0  0  0  0  # atno 8008 bound_to 7997
  156.0376  140.1288  157.0216 H   0  0  0  0  0  0  0  0  0  0  0  0  # atno 8009 bound_to 7997
  154.4378  140.1030  156.6175 H   0  0  0  0  0  0  0  0  0  0  0  0  # atno 8010 bound_to 7997
  140.5732  143.9121  150.6729 H   0  0  0  0  0  0  0  0  0  0  0  0  # atno 10167 bound_to 10162
  156.4117  130.7985  151.2203 H   0  0  0  0  0  0  0  0  0  0  0  0  # atno 10718 bound_to 10713
  153.2906  135.4144  155.1163 H   0  0  0  0  0  0  0  0  0  0  0  0  # atno 10763 bound_to 10752
  154.8519  135.3517  154.5986 H   0  0  0  0  0  0  0  0  0  0  0  0  # atno 10764 bound_to 10752
  153.6409  135.7057  153.5300 H   0  0  0  0  0  0  0  0  0  0  0  0  # atno 10765 bound_to 10752
  140.7819  133.8356  155.9300 H   0  0  0  0  0  0  0  0  0  0  0  0  # atno 11005 bound_to 11000
  145.5018  141.0437  143.2536 LP  0  0  0  0  0  0  0  0  0  0  0  0  # atno 17320 bound_to 7965
  144.7806  139.6533  143.7156 LP  0  0  0  0  0  0  0  0  0  0  0  0  # atno 17321 bound_to 7965
  140.2602  143.3529  152.1329 LP  0  0  0  0  0  0  0  0  0  0  0  0  # atno 17342 bound_to 10162
  139.5129  144.6923  151.5725 LP  0  0  0  0  0  0  0  0  0  0  0  0  # atno 17343 bound_to 10162
  157.7507  131.0255  150.3924 LP  0  0  0  0  0  0  0  0  0  0  0  0  # atno 17370 bound_to 10713
  156.4223  130.3955  149.6816 LP  0  0  0  0  0  0  0  0  0  0  0  0  # atno 17371 bound_to 10713
  140.9474  134.1823  157.4753 LP  0  0  0  0  0  0  0  0  0  0  0  0  # atno 17394 bound_to 11000
  139.8741  134.9896  156.5463 LP  0  0  0  0  0  0  0  0  0  0  0  0  # atno 17395 bound_to 11000

$$$$
