AV-unprocessed.smi:1492|AV-procd|sdf|6042|dock1
  -GOLD-   22720 6153D 1   1.00000     0.00000
 Structure written by MMmdl.
 53 54  0  0  0  0  0  0  0  0  2 V2000
  150.6713  131.8780  154.8446 C   0  0  0  0  0  0  0  0  0  0  0  0
  149.7524  132.8653  155.5902 C   0  0  0  0  0  0  0  0  0  0  0  0
  149.4756  134.2522  154.9183 C   0  0  1  0  0  0  0  0  0  0  0  0
  148.9277  135.2238  155.9932 C   0  0  0  0  0  0  0  0  0  0  0  0
  150.8134  134.8342  154.3580 C   0  0  0  0  0  0  0  0  0  0  0  0
  150.7168  136.2577  154.0406 N   0  0  0  0  0  0  0  0  0  0  0  0
  151.1661  137.2749  154.7910 C   0  0  0  0  0  0  0  0  0  0  0  0
  151.6034  137.1366  155.9314 O   0  0  0  0  0  0  0  0  0  0  0  0
  151.1495  138.6638  154.1466 C   0  0  0  0  0  0  0  0  0  0  0  0
  151.2135  139.8497  155.1108 C   0  0  0  0  0  0  0  0  0  0  0  0
  150.2595  140.8134  155.1711 C   0  0  0  0  0  0  0  0  0  0  0  0
  149.0088  140.8363  154.3110 C   0  0  0  0  0  0  0  0  0  0  0  0
  150.3742  141.8796  156.0457 N   0  0  0  0  0  0  0  0  0  0  0  0
  151.5033  141.9438  156.8453 C   0  0  0  0  0  0  0  0  0  0  0  0
  151.5417  143.1583  157.7462 C   0  0  0  0  0  0  0  0  0  0  0  0
  152.4720  141.0797  156.8519 N   0  0  0  0  0  0  0  0  0  0  0  0
  152.3990  139.9737  155.9910 C   0  0  0  0  0  0  0  0  0  0  0  0
  153.3075  139.1446  155.9639 O   0  0  0  0  0  0  0  0  0  0  0  0
  148.4833  134.0853  153.7853 N   0  3  0  0  0  0  0  0  0  0  0  0
  148.7630  132.9941  152.8070 C   0  0  0  0  0  0  0  0  0  0  0  0
  147.7674  133.0334  151.6343 C   0  0  0  0  0  0  0  0  0  0  0  0
  146.4351  132.9601  152.1180 O   0  0  0  0  0  0  0  0  0  0  0  0
  146.1281  134.0570  152.9641 C   0  0  0  0  0  0  0  0  0  0  0  0
  147.0487  134.0266  154.1930 C   0  0  0  0  0  0  0  0  0  0  0  0
  149.6353  142.5683  156.0683 H   0  0  0  0  0  0  0  0  0  0  0  0
  150.8165  130.9795  155.4447 H   0  0  0  0  0  0  0  0  0  0  0  0
  151.6598  132.2965  154.6601 H   0  0  0  0  0  0  0  0  0  0  0  0
  150.2596  131.5500  153.8927 H   0  0  0  0  0  0  0  0  0  0  0  0
  148.8063  132.3648  155.8007 H   0  0  0  0  0  0  0  0  0  0  0  0
  150.2358  133.0137  156.5545 H   0  0  0  0  0  0  0  0  0  0  0  0
  149.6490  135.3812  156.7944 H   0  0  0  0  0  0  0  0  0  0  0  0
  148.0129  134.8497  156.4528 H   0  0  0  0  0  0  0  0  0  0  0  0
  148.7154  136.2130  155.5897 H   0  0  0  0  0  0  0  0  0  0  0  0
  151.6089  134.7287  155.0950 H   0  0  0  0  0  0  0  0  0  0  0  0
  151.1819  134.2652  153.5052 H   0  0  0  0  0  0  0  0  0  0  0  0
  150.3404  136.4887  153.1328 H   0  0  0  0  0  0  0  0  0  0  0  0
  151.9806  138.7081  153.4433 H   0  0  0  0  0  0  0  0  0  0  0  0
  150.2554  138.7558  153.5279 H   0  0  0  0  0  0  0  0  0  0  0  0
  149.2724  140.8143  153.2532 H   0  0  0  0  0  0  0  0  0  0  0  0
  148.4137  141.7330  154.4886 H   0  0  0  0  0  0  0  0  0  0  0  0
  148.3821  139.9714  154.5294 H   0  0  0  0  0  0  0  0  0  0  0  0
  152.4654  143.1852  158.3257 H   0  0  0  0  0  0  0  0  0  0  0  0
  150.7024  143.1418  158.4420 H   0  0  0  0  0  0  0  0  0  0  0  0
  151.4853  144.0723  157.1543 H   0  0  0  0  0  0  0  0  0  0  0  0
  149.7537  133.0870  152.3678 H   0  0  0  0  0  0  0  0  0  0  0  0
  148.7131  132.0241  153.3024 H   0  0  0  0  0  0  0  0  0  0  0  0
  147.9011  133.9389  151.0419 H   0  0  0  0  0  0  0  0  0  0  0  0
  147.9450  132.1913  150.9652 H   0  0  0  0  0  0  0  0  0  0  0  0
  146.2296  134.9975  152.4230 H   0  0  0  0  0  0  0  0  0  0  0  0
  145.0859  133.9802  153.2744 H   0  0  0  0  0  0  0  0  0  0  0  0
  146.8515  133.1140  154.7553 H   0  0  0  0  0  0  0  0  0  0  0  0
  146.7757  134.8632  154.8326 H   0  0  0  0  0  0  0  0  0  0  0  0
  148.5720  134.9372  153.2499 H   0  0  0  0  0  0  0  0  0  0  0  0
  1  2  1  0  0  0  0
  1 26  1  0  0  0  0
  1 27  1  0  0  0  0
  1 28  1  0  0  0  0
  2  3  1  0  0  0  0
  2 29  1  0  0  0  0
  2 30  1  0  0  0  0
  3  4  1  0  0  0  0
  3  5  1  0  0  0  0
  3 19  1  0  0  0  0
  4 31  1  0  0  0  0
  4 32  1  0  0  0  0
  4 33  1  0  0  0  0
  5  6  1  0  0  0  0
  5 34  1  0  0  0  0
  5 35  1  0  0  0  0
  6  7  1  0  0  0  0
  6 36  1  0  0  0  0
  7  8  2  0  0  0  0
  7  9  1  0  0  0  0
  9 37  1  0  0  0  0
  9 38  1  0  0  0  0
  9 10  1  0  0  0  0
 10 17  1  0  0  0  0
 10 11  2  0  0  0  0
 11 12  1  0  0  0  0
 11 13  1  0  0  0  0
 12 39  1  0  0  0  0
 12 40  1  0  0  0  0
 12 41  1  0  0  0  0
 13 25  1  0  0  0  0
 13 14  1  0  0  0  0
 14 15  1  0  0  0  0
 14 16  2  0  0  0  0
 15 42  1  0  0  0  0
 15 43  1  0  0  0  0
 15 44  1  0  0  0  0
 16 17  1  0  0  0  0
 17 18  2  0  0  0  0
 19 24  1  0  0  0  0
 19 20  1  0  0  0  0
 19 53  1  0  0  0  0
 20 21  1  0  0  0  0
 20 45  1  0  0  0  0
 20 46  1  0  0  0  0
 21 22  1  0  0  0  0
 21 47  1  0  0  0  0
 21 48  1  0  0  0  0
 22 23  1  0  0  0  0
 23 24  1  0  0  0  0
 23 49  1  0  0  0  0
 23 50  1  0  0  0  0
 24 51  1  0  0  0  0
 24 52  1  0  0  0  0
M  CHG  1  19   1
M  END
> <s_m_source_file>
AV-unprocessed.smi

> <i_m_source_file_index>
1492

> <i_lp_mmshare_version>
43012

> <i_f3d_flags>
0

> <s_epik_input>
W0NIMl0xW0NIMl1PW0NIMl1bQ0gyXU4xW0NAQF0oW0NIM10pKFtDSDJdW0NIM10pW0NIMl1bTkhdQyg9TylbQ0gyXWMyYyhbQ0gzXSluYyhbQ0gzXSlbbkhdYzI9Tw==

> <s_epik_cmdline>
J2VwaWtfcHl0aG9uJywgJy1waCcsICc3LjAnLCAnLXRuJywgJzgnLCAnLW1hJywgJzIwMCcsICctbWV0YWxfYmluZGluZycsICctaW1hZScsICc8aW5maWxlLm1hZT4nLCAnLW9tYWUnLCAnPG91dGZpbGUubWFlPic=

> <r_lp_tautomer_probability>
0.156392

> <r_epik_Ionization_Penalty>
0.523233

> <r_epik_Ionization_Penalty_Charging>
0.523147

> <r_epik_Ionization_Penalty_Neutral>
8.52784e-05

> <r_epik_State_Penalty>
1.66677

> <r_epik_Charging_Adjusted_Penalty>
2.18991

> <i_epik_Tot_Q>
1

> <i_epik_Tot_abs_Q>
1

> <r_epik_Metal_State_Penalty>
1.84524

> <b_epik_Metal_Only>
0

> <s_lp_Force_Field>
OPLS_2005

> <r_lp_Energy>
37.6543

> <b_lp_Chiralities_Consistent>
1

> <s_lp_Variant>
AV-unprocessed.smi:1492-7

> <Gold.Version>
5.8.1

> <Gold.Id.Protein>
6NUR|6NUR_protein|mol2

> <Gold.PLP.Fitness>
49.1190

> <Gold.PLP.PLP>
-36.3079

> <Gold.PLP.part.hbond>
-4.8861

> <Gold.PLP.part.metal>
0.0000

> <Gold.PLP.part.buried>
-1.6613

> <Gold.PLP.part.nonpolar>
-30.5548

> <Gold.PLP.part.repulsive>
0.2811

> <Gold.PLP.ligand.clash>
0.0000

> <Gold.PLP.ligand.torsion>
1.1827

> <Gold.PLP.Chemscore.Hbond>
4.9500

> <Gold.PLP.Chemscore.CHOScore>
0.0000

> <Gold.PLP.Chemscore.Metal>
0.0000

> <Gold.Chemscore.Hbonds>
donor molecule, donor type, donor heavy atom, donor atom, acceptor molecule, acceptor atom, score
      L1  H     6    36       P1  7948  0.10
      L1  H    13    25       P1  8028  0.29
      L1  H    19    53       P1  7948  2.00
      P1  H  7997  8008       L1    18  0.67

> <Gold.PLP.Chemscore.Internal.Correction>
0.3265

> <Gold.Rescore>
     Score         DG    S(hbond)    S(metal)    S(lipo)     H(rot)  DE(clash)    DE(int)     intcor
     13.83     -17.66       2.77        0.00      72.99       2.19       0.18       3.65       ----

> <Gold.Chemscore.Fitness>
13.8306

> <Gold.Chemscore.DG>
-17.6605

> <Gold.Chemscore.ZeroCoef>
-5.4800

> <Gold.Chemscore.Hbond>
2.7706

> <Gold.Chemscore.Metal>
0.0000

> <Gold.Chemscore.Lipo>
72.9886

> <Gold.Chemscore.Internal_Hbond>
0.0000

> <Gold.Chemscore.DEClash>
0.1767

> <Gold.Chemscore.DEInternal>
3.6532

> <Gold.Chemscore.Rot>
2.1926

> <Gold.Chemscore.Internal.Correction>
   9.000000E+99

> <Gold.Chemscore.Hbonds>
donor molecule, donor type, donor heavy atom, donor atom, acceptor molecule, acceptor atom, score
      L1  H    13    25       P1  8028  0.27
      L1  H    19    53       P1  7948  0.65
      P1  H  7997  8008       L1    18  0.08

> <Gold.Chemscore.Hbond.Weighted>
-9.2538

> <Gold.Chemscore.Metal.Weighted>
-0.0000

> <Gold.Chemscore.Lipo.Weighted>
-8.5397

> <Gold.Chemscore.Internal_Hbond.Weighted>
0.0000

> <Gold.Chemscore.DEClash.Weighted>
0.1767

> <Gold.Chemscore.DEInternal.Weighted>
3.6532

> <Gold.Chemscore.Rot.Weighted>
5.6129

> <Gold.Chemscore.Internal.Correction.Weighted>
   9.000000E+99

> <Gold.Protein.RotatedTorsions>
[ 6907 6896 6895 6894 ] final  -44.35 input  -60.11 | X-H torsion
[ 7974 7965 7964 7962 ] final  -77.61 input  175.53 | X-H torsion
[ 8008 7997 7996 7995 ] final  -50.10 input   59.86 | X-H torsion
[ 10167 10162 10161 10158 ] final  -65.34 input  -65.29 | X-H torsion
[ 10718 10713 10712 10709 ] final  -13.69 input   66.30 | X-H torsion
[ 10763 10752 10751 10750 ] final  -78.85 input  -60.55 | X-H torsion
[ 11005 11000 10999 10996 ] final -154.26 input  -57.11 | X-H torsion

> <Gold.Protein.ActiveResidues>
 VAL166  LYS551  ARG553  GLY616  TRP617  ASP618  TYR619  PRO620  LYS621  CYS622 
 ASP623  PHE694  ASN695  SER759  ASP760  ASP761  ALA762  ILE779  LEU786  VAL792 
 PHE793  MET794  SER795  GLU796  ALA797  LYS798  CYS799  TRP800  GLU811  SER814 

> <Gold.Protein.RotatedAtoms>
  150.9338  134.8751  159.7568 H   0  0  0  0  0  0  0  0  0  0  0  0  # atno 6907 bound_to 6896
  152.5050  134.4041  159.9436 H   0  0  0  0  0  0  0  0  0  0  0  0  # atno 6908 bound_to 6896
  151.4066  133.3701  159.2773 H   0  0  0  0  0  0  0  0  0  0  0  0  # atno 6909 bound_to 6896
  145.5975  140.9416  143.1259 H   0  0  0  0  0  0  0  0  0  0  0  0  # atno 7974 bound_to 7965
  154.4055  140.1280  156.4610 H   0  0  0  0  0  0  0  0  0  0  0  0  # atno 8008 bound_to 7997
  155.7273  140.3492  155.5023 H   0  0  0  0  0  0  0  0  0  0  0  0  # atno 8009 bound_to 7997
  155.9160  140.1044  157.1234 H   0  0  0  0  0  0  0  0  0  0  0  0  # atno 8010 bound_to 7997
  140.5736  143.2320  151.6487 H   0  0  0  0  0  0  0  0  0  0  0  0  # atno 10167 bound_to 10162
  156.6267  130.4890  149.6144 H   0  0  0  0  0  0  0  0  0  0  0  0  # atno 10718 bound_to 10713
  154.5312  135.5715  153.6760 H   0  0  0  0  0  0  0  0  0  0  0  0  # atno 10763 bound_to 10752
  152.9940  135.6205  154.2626 H   0  0  0  0  0  0  0  0  0  0  0  0  # atno 10764 bound_to 10752
  154.2552  135.2858  155.2780 H   0  0  0  0  0  0  0  0  0  0  0  0  # atno 10765 bound_to 10752
  140.6993  134.3955  157.5211 H   0  0  0  0  0  0  0  0  0  0  0  0  # atno 11005 bound_to 11000
  144.7324  139.7685  143.7342 LP  0  0  0  0  0  0  0  0  0  0  0  0  # atno 17320 bound_to 7965
  146.1601  139.4712  142.9993 LP  0  0  0  0  0  0  0  0  0  0  0  0  # atno 17321 bound_to 7965
  139.5131  144.3455  152.0701 LP  0  0  0  0  0  0  0  0  0  0  0  0  # atno 17342 bound_to 10162
  140.2596  144.4082  150.6191 LP  0  0  0  0  0  0  0  0  0  0  0  0  # atno 17343 bound_to 10162
  156.2268  130.6770  151.1423 LP  0  0  0  0  0  0  0  0  0  0  0  0  # atno 17370 bound_to 10713
  157.7212  131.0680  150.6128 LP  0  0  0  0  0  0  0  0  0  0  0  0  # atno 17371 bound_to 10713
  139.8901  134.8813  156.2386 LP  0  0  0  0  0  0  0  0  0  0  0  0  # atno 17394 bound_to 11000
  141.0177  133.7059  156.1216 LP  0  0  0  0  0  0  0  0  0  0  0  0  # atno 17395 bound_to 11000

$$$$
