AV-unprocessed.smi:157|AV-procd|sdf|1302|dock2
  -GOLD-   2262018593D 1   1.00000     0.00000
 Structure written by MMmdl.
 35 37  0  0  0  0  0  0  0  0  1 V2000
  153.2752  137.3495  155.3384 O   0  0  0  0  0  0  0  0  0  0  0  0
  151.9151  137.6792  155.1499 C   0  0  0  0  0  0  0  0  0  0  0  0
  151.7392  139.2037  155.0827 C   0  0  2  0  0  0  0  0  0  0  0  0
  152.4581  139.7916  156.1638 O   0  0  0  0  0  0  0  0  0  0  0  0
  151.7726  140.9321  156.5561 C   0  0  2  0  0  0  0  0  0  0  0  0
  152.1696  141.2859  157.9544 N   0  0  0  0  0  0  0  0  0  0  0  0
  152.9778  140.5785  158.7550 C   0  0  0  0  0  0  0  0  0  0  0  0
  153.1693  141.1103  159.9505 N   0  0  0  0  0  0  0  0  0  0  0  0
  152.4005  142.2728  159.9280 C   0  0  0  0  0  0  0  0  0  0  0  0
  151.7628  142.3946  158.7016 C   0  0  0  0  0  0  0  0  0  0  0  0
  150.8999  143.2989  158.1126 N   0  0  0  0  0  0  0  0  0  0  0  0
  150.2569  144.1180  158.8835 C   0  0  0  0  0  0  0  0  0  0  0  0
  150.3511  144.3209  160.2529 N   0  0  0  0  0  0  0  0  0  0  0  0
  151.6142  144.4866  160.9514 C   0  0  0  0  0  0  0  0  0  0  0  0
  152.3946  143.1779  161.1260 C   0  0  1  0  0  0  0  0  0  0  0  0
  151.8400  142.4427  162.1979 O   0  0  0  0  0  0  0  0  0  0  0  0
  150.3023  140.5506  156.4897 C   0  0  0  0  0  0  0  0  0  0  0  0
  150.2768  139.6781  155.2447 C   0  0  1  0  0  0  0  0  0  0  0  0
  149.8820  140.4443  154.1237 O   0  0  0  0  0  0  0  0  0  0  0  0
  152.1730  139.5874  154.1570 H   0  0  0  0  0  0  0  0  0  0  0  0
  152.0428  141.7819  155.9275 H   0  0  0  0  0  0  0  0  0  0  0  0
  153.4188  143.4227  161.4088 H   0  0  0  0  0  0  0  0  0  0  0  0
  149.5781  138.8495  155.3661 H   0  0  0  0  0  0  0  0  0  0  0  0
  153.7446  138.1355  155.5731 H   0  0  0  0  0  0  0  0  0  0  0  0
  151.5418  137.2023  154.2430 H   0  0  0  0  0  0  0  0  0  0  0  0
  151.3462  137.2728  155.9866 H   0  0  0  0  0  0  0  0  0  0  0  0
  153.4410  139.6505  158.4535 H   0  0  0  0  0  0  0  0  0  0  0  0
  149.5169  144.7803  158.4319 H   0  0  0  0  0  0  0  0  0  0  0  0
  149.6092  144.8268  160.7150 H   0  0  0  0  0  0  0  0  0  0  0  0
  152.2190  145.1803  160.3653 H   0  0  0  0  0  0  0  0  0  0  0  0
  151.4455  144.9690  161.9146 H   0  0  0  0  0  0  0  0  0  0  0  0
  152.4760  141.8007  162.4747 H   0  0  0  0  0  0  0  0  0  0  0  0
  150.0447  139.9586  157.3694 H   0  0  0  0  0  0  0  0  0  0  0  0
  149.6598  141.4312  156.4492 H   0  0  0  0  0  0  0  0  0  0  0  0
  149.5032  139.8621  153.4827 H   0  0  0  0  0  0  0  0  0  0  0  0
  1  2  1  0  0  0  0
  1 24  1  0  0  0  0
  2  3  1  0  0  0  0
  2 25  1  0  0  0  0
  2 26  1  0  0  0  0
  3 20  1  0  0  0  0
  3 18  1  0  0  0  0
  3  4  1  0  0  0  0
  4  5  1  0  0  0  0
  5 21  1  0  0  0  0
  5  6  1  0  0  0  0
  5 17  1  0  0  0  0
  6 10  1  0  0  0  0
  6  7  1  0  0  0  0
  7  8  2  0  0  0  0
  7 27  1  0  0  0  0
  8  9  1  0  0  0  0
  9 15  1  0  0  0  0
  9 10  2  0  0  0  0
 10 11  1  0  0  0  0
 11 12  2  0  0  0  0
 12 13  1  0  0  0  0
 12 28  1  0  0  0  0
 13 14  1  0  0  0  0
 13 29  1  0  0  0  0
 14 15  1  0  0  0  0
 14 30  1  0  0  0  0
 14 31  1  0  0  0  0
 15 22  1  0  0  0  0
 15 16  1  0  0  0  0
 16 32  1  0  0  0  0
 17 18  1  0  0  0  0
 17 33  1  0  0  0  0
 17 34  1  0  0  0  0
 18 23  1  0  0  0  0
 18 19  1  0  0  0  0
 19 35  1  0  0  0  0
M  END
> <s_m_source_file>
AV-unprocessed.smi

> <i_m_source_file_index>
157

> <i_lp_mmshare_version>
43012

> <i_f3d_flags>
0

> <s_epik_input>
W09IXVtDSDJdW0NASF0xT1tDQEhdKFtDSDJdW0NAQEhdMVtPSF0pbihbY0hdbjIpYyhjMjMpTj1bQ0hdW05IXVtDSDJdW0NASF0zW09IXQ==

> <s_epik_cmdline>
J2VwaWtfcHl0aG9uJywgJy1waCcsICc3LjAnLCAnLXRuJywgJzgnLCAnLW1hJywgJzIwMCcsICctbWV0YWxfYmluZGluZycsICctaW1hZScsICc8aW5maWxlLm1hZT4nLCAnLW9tYWUnLCAnPG91dGZpbGUubWFlPic=

> <r_lp_tautomer_probability>
1

> <r_epik_Ionization_Penalty>
0.0357149

> <r_epik_Ionization_Penalty_Charging>
0.0355056

> <r_epik_Ionization_Penalty_Neutral>
0.000209255

> <r_epik_State_Penalty>
0.0296046

> <r_epik_Charging_Adjusted_Penalty>
0.0651102

> <i_epik_Tot_Q>
0

> <i_epik_Tot_abs_Q>
0

> <r_epik_Metal_State_Penalty>
3.03559e-05

> <b_epik_Metal_Only>
0

> <s_epik_Chemistry_Notes>
This compound has an imine and may undergo hydrolysis. This compound contains an acetal/aminal-like group ( X-CH(R)-Y where X, Y are N, S, or O) that may be acid/base labile, releasing an aldehyde.

> <s_lp_Force_Field>
OPLS_2005

> <r_lp_Energy>
43.7304

> <b_lp_Chiralities_Consistent>
1

> <s_lp_Variant>
AV-unprocessed.smi:157-12

> <Gold.Version>
5.8.1

> <Gold.Id.Protein>
6NUR|6NUR_protein|mol2

> <Gold.PLP.Fitness>
49.8019

> <Gold.PLP.PLP>
-36.7742

> <Gold.PLP.part.hbond>
-5.6243

> <Gold.PLP.part.metal>
0.0000

> <Gold.PLP.part.buried>
-8.5158

> <Gold.PLP.part.nonpolar>
-24.2095

> <Gold.PLP.part.repulsive>
0.2769

> <Gold.PLP.ligand.clash>
0.0000

> <Gold.PLP.ligand.torsion>
0.1837

> <Gold.PLP.Chemscore.Hbond>
3.4299

> <Gold.PLP.Chemscore.CHOScore>
1.0262

> <Gold.PLP.Chemscore.Metal>
0.0000

> <Gold.Chemscore.Hbonds>
donor molecule, donor type, donor heavy atom, donor atom, acceptor molecule, acceptor atom, score
      L1  H    19    35       P1  7957  0.13
      P1  H  6933  6945       L1    16  1.00
      P1  H  7989  7998       L1    19  0.69
      P1  H  7997  8010       L1     4  1.00
      P1  H 10752 10765       L1     1  0.22
      L1  C    12    28       P1  8028  0.02
      L1  C    12    28       P1  8029  1.00

> <Gold.PLP.Chemscore.Internal.Correction>
0.0269

> <Gold.Rescore>
     Score         DG    S(hbond)    S(metal)    S(lipo)     H(rot)  DE(clash)    DE(int)     intcor
      9.30      -9.65       2.07        0.00      56.03       3.64       0.33       0.02       ----

> <Gold.Chemscore.Fitness>
9.2971

> <Gold.Chemscore.DG>
-9.6530

> <Gold.Chemscore.ZeroCoef>
-5.4800

> <Gold.Chemscore.Hbond>
2.0738

> <Gold.Chemscore.Metal>
0.0000

> <Gold.Chemscore.Lipo>
56.0272

> <Gold.Chemscore.Internal_Hbond>
0.0000

> <Gold.Chemscore.DEClash>
0.3350

> <Gold.Chemscore.DEInternal>
0.0210

> <Gold.Chemscore.Rot>
3.6362

> <Gold.Chemscore.Internal.Correction>
   9.000000E+99

> <Gold.Chemscore.Hbonds>
donor molecule, donor type, donor heavy atom, donor atom, acceptor molecule, acceptor atom, score
      L1  H    19    35       P1  7957  0.14
      P1  H  6933  6945       L1    16  0.77
      P1  H  7989  7998       L1    19  0.07
      P1  H  7997  8010       L1     4  0.65
      P1  H 10752 10765       L1     1  0.06

> <Gold.Chemscore.Hbond.Weighted>
-6.9265

> <Gold.Chemscore.Metal.Weighted>
-0.0000

> <Gold.Chemscore.Lipo.Weighted>
-6.5552

> <Gold.Chemscore.Internal_Hbond.Weighted>
0.0000

> <Gold.Chemscore.DEClash.Weighted>
0.3350

> <Gold.Chemscore.DEInternal.Weighted>
0.0210

> <Gold.Chemscore.Rot.Weighted>
9.3087

> <Gold.Chemscore.Internal.Correction.Weighted>
   9.000000E+99

> <Gold.Protein.RotatedTorsions>
[ 6907 6896 6895 6894 ] final -108.88 input  -60.11 | X-H torsion
[ 7974 7965 7964 7962 ] final   94.52 input  175.53 | X-H torsion
[ 8008 7997 7996 7995 ] final   72.35 input   59.86 | X-H torsion
[ 10167 10162 10161 10158 ] final -173.83 input  -65.29 | X-H torsion
[ 10718 10713 10712 10709 ] final  -60.24 input   66.30 | X-H torsion
[ 10763 10752 10751 10750 ] final -148.88 input  -60.55 | X-H torsion
[ 11005 11000 10999 10996 ] final  -33.31 input  -57.11 | X-H torsion

> <Gold.Protein.ActiveResidues>
 VAL166  LYS551  ARG553  GLY616  TRP617  ASP618  TYR619  PRO620  LYS621  CYS622 
 ASP623  PHE694  ASN695  SER759  ASP760  ASP761  ALA762  ILE779  LEU786  VAL792 
 PHE793  MET794  SER795  GLU796  ALA797  LYS798  CYS799  TRP800  GLU811  SER814 

> <Gold.Protein.RotatedAtoms>
  150.7528  133.9612  159.3516 H   0  0  0  0  0  0  0  0  0  0  0  0  # atno 6907 bound_to 6896
  151.7538  135.0824  160.0344 H   0  0  0  0  0  0  0  0  0  0  0  0  # atno 6908 bound_to 6896
  152.3448  133.6072  159.5938 H   0  0  0  0  0  0  0  0  0  0  0  0  # atno 6909 bound_to 6896
  145.4644  139.2285  143.2970 H   0  0  0  0  0  0  0  0  0  0  0  0  # atno 7974 bound_to 7965
  155.7675  140.3485  155.5229 H   0  0  0  0  0  0  0  0  0  0  0  0  # atno 8008 bound_to 7997
  155.8854  140.1009  157.1477 H   0  0  0  0  0  0  0  0  0  0  0  0  # atno 8009 bound_to 7997
  154.4028  140.1314  156.4237 H   0  0  0  0  0  0  0  0  0  0  0  0  # atno 8010 bound_to 7997
  139.5667  144.1739  152.1323 H   0  0  0  0  0  0  0  0  0  0  0  0  # atno 10167 bound_to 10162
  156.1005  130.4187  150.0826 H   0  0  0  0  0  0  0  0  0  0  0  0  # atno 10718 bound_to 10713
  154.8208  135.3323  154.7042 H   0  0  0  0  0  0  0  0  0  0  0  0  # atno 10763 bound_to 10752
  153.7675  135.6928  153.4917 H   0  0  0  0  0  0  0  0  0  0  0  0  # atno 10764 bound_to 10752
  153.2067  135.4496  155.0280 H   0  0  0  0  0  0  0  0  0  0  0  0  # atno 10765 bound_to 10752
  140.9624  133.7157  156.1391 H   0  0  0  0  0  0  0  0  0  0  0  0  # atno 11005 bound_to 11000
  146.2433  140.5416  142.8925 LP  0  0  0  0  0  0  0  0  0  0  0  0  # atno 17320 bound_to 7965
  144.7983  140.6165  143.6495 LP  0  0  0  0  0  0  0  0  0  0  0  0  # atno 17321 bound_to 7965
  140.1264  144.5328  150.6830 LP  0  0  0  0  0  0  0  0  0  0  0  0  # atno 17342 bound_to 10162
  140.6950  143.2398  151.5025 LP  0  0  0  0  0  0  0  0  0  0  0  0  # atno 17343 bound_to 10162
  156.8815  130.9558  151.3599 LP  0  0  0  0  0  0  0  0  0  0  0  0  # atno 17370 bound_to 10713
  157.6174  130.8628  149.9051 LP  0  0  0  0  0  0  0  0  0  0  0  0  # atno 17371 bound_to 10713
  140.7448  134.4110  157.5550 LP  0  0  0  0  0  0  0  0  0  0  0  0  # atno 17394 bound_to 11000
  139.8882  134.8861  156.2484 LP  0  0  0  0  0  0  0  0  0  0  0  0  # atno 17395 bound_to 11000

$$$$
