AV-unprocessed.smi:447|AV-procd|sdf|2603|dock8
  -GOLD-   2262023 03D 1   1.00000     0.00000
 Structure written by MMmdl.
 46 48  0  0  0  0  0  0  0  0  2 V2000
  147.2286  133.1954  151.9488 C   0  0  0  0  0  0  0  0  0  0  0  0
  147.0752  133.5896  153.4137 C   0  0  0  0  0  0  0  0  0  0  0  0
  146.2982  132.9704  154.1394 O   0  0  0  0  0  0  0  0  0  0  0  0
  147.8199  134.6233  153.8364 N   0  0  0  0  0  0  0  0  0  0  0  0
  147.7998  135.1753  155.1885 C   0  0  2  0  0  0  0  0  0  0  0  0
  146.4160  135.7661  155.4880 C   0  0  0  0  0  0  0  0  0  0  0  0
  148.8698  136.2070  155.4021 C   0  0  0  0  0  0  0  0  0  0  0  0
  149.7294  136.6803  154.4544 N   0  3  0  0  0  0  0  0  0  0  0  0
  150.5852  137.6255  155.0200 C   0  0  0  0  0  0  0  0  0  0  0  0
  151.6201  138.3678  154.4592 C   0  0  0  0  0  0  0  0  0  0  0  0
  152.3073  139.2475  155.3212 C   0  0  0  0  0  0  0  0  0  0  0  0
  151.9581  139.3628  156.6823 C   0  0  0  0  0  0  0  0  0  0  0  0
  150.9050  138.6072  157.2382 C   0  0  0  0  0  0  0  0  0  0  0  0
  150.2284  137.7412  156.3790 C   0  0  0  0  0  0  0  0  0  0  0  0
  149.1601  136.8555  156.5671 N   0  0  0  0  0  0  0  0  0  0  0  0
  148.5386  136.7389  157.8964 C   0  0  0  0  0  0  0  0  0  0  0  0
  148.4000  135.2771  158.3660 C   0  0  1  0  0  0  0  0  0  0  0  0
  149.5857  134.5592  158.0849 O   0  0  0  0  0  0  0  0  0  0  0  0
  148.0198  135.2025  159.8355 C   0  0  0  0  0  0  0  0  0  0  0  0
  147.7077  133.9620  160.4343 C   0  0  0  0  0  0  0  0  0  0  0  0
  147.3595  133.8999  161.7976 C   0  0  0  0  0  0  0  0  0  0  0  0
  147.3239  135.0765  162.5701 C   0  0  0  0  0  0  0  0  0  0  0  0
  147.6393  136.3153  161.9793 C   0  0  0  0  0  0  0  0  0  0  0  0
  147.9875  136.3781  160.6158 C   0  0  0  0  0  0  0  0  0  0  0  0
  148.2395  133.3940  151.5909 H   0  0  0  0  0  0  0  0  0  0  0  0
  146.5275  133.7587  151.3325 H   0  0  0  0  0  0  0  0  0  0  0  0
  147.0249  132.1324  151.8156 H   0  0  0  0  0  0  0  0  0  0  0  0
  148.4291  135.0730  153.1682 H   0  0  0  0  0  0  0  0  0  0  0  0
  147.9663  134.3501  155.8821 H   0  0  0  0  0  0  0  0  0  0  0  0
  146.3627  136.1356  156.5127 H   0  0  0  0  0  0  0  0  0  0  0  0
  145.6347  135.0148  155.3695 H   0  0  0  0  0  0  0  0  0  0  0  0
  146.1831  136.5975  154.8217 H   0  0  0  0  0  0  0  0  0  0  0  0
  151.8919  138.2785  153.4176 H   0  0  0  0  0  0  0  0  0  0  0  0
  153.1200  139.8436  154.9321 H   0  0  0  0  0  0  0  0  0  0  0  0
  152.5096  140.0437  157.3142 H   0  0  0  0  0  0  0  0  0  0  0  0
  150.6521  138.6995  158.2840 H   0  0  0  0  0  0  0  0  0  0  0  0
  149.1031  137.3351  158.6135 H   0  0  0  0  0  0  0  0  0  0  0  0
  147.5541  137.2041  157.8338 H   0  0  0  0  0  0  0  0  0  0  0  0
  147.6081  134.7999  157.7887 H   0  0  0  0  0  0  0  0  0  0  0  0
  149.3584  133.7976  157.5734 H   0  0  0  0  0  0  0  0  0  0  0  0
  147.7353  133.0540  159.8497 H   0  0  0  0  0  0  0  0  0  0  0  0
  147.1201  132.9490  162.2505 H   0  0  0  0  0  0  0  0  0  0  0  0
  147.0561  135.0288  163.6153 H   0  0  0  0  0  0  0  0  0  0  0  0
  147.6145  137.2179  162.5719 H   0  0  0  0  0  0  0  0  0  0  0  0
  148.2290  137.3329  160.1721 H   0  0  0  0  0  0  0  0  0  0  0  0
  149.7325  136.3693  153.4916 H   0  0  0  0  0  0  0  0  0  0  0  0
  1  2  1  0  0  0  0
  1 25  1  0  0  0  0
  1 26  1  0  0  0  0
  1 27  1  0  0  0  0
  2  3  2  0  0  0  0
  2  4  1  0  0  0  0
  4  5  1  0  0  0  0
  4 28  1  0  0  0  0
  5  6  1  0  0  0  0
  5  7  1  0  0  0  0
  5 29  1  0  0  0  0
  6 30  1  0  0  0  0
  6 31  1  0  0  0  0
  6 32  1  0  0  0  0
  7 15  1  0  0  0  0
  7  8  2  0  0  0  0
  8  9  1  0  0  0  0
  8 46  1  0  0  0  0
  9 14  2  0  0  0  0
  9 10  1  0  0  0  0
 10 11  2  0  0  0  0
 10 33  1  0  0  0  0
 11 12  1  0  0  0  0
 11 34  1  0  0  0  0
 12 13  2  0  0  0  0
 12 35  1  0  0  0  0
 13 14  1  0  0  0  0
 13 36  1  0  0  0  0
 14 15  1  0  0  0  0
 15 16  1  0  0  0  0
 16 17  1  0  0  0  0
 16 37  1  0  0  0  0
 16 38  1  0  0  0  0
 17 18  1  0  0  0  0
 17 19  1  0  0  0  0
 17 39  1  0  0  0  0
 18 40  1  0  0  0  0
 19 24  1  0  0  0  0
 19 20  2  0  0  0  0
 20 21  1  0  0  0  0
 20 41  1  0  0  0  0
 21 22  2  0  0  0  0
 21 42  1  0  0  0  0
 22 23  1  0  0  0  0
 22 43  1  0  0  0  0
 23 24  2  0  0  0  0
 23 44  1  0  0  0  0
 24 45  1  0  0  0  0
M  CHG  1   8   1
M  END
> <s_m_source_file>
AV-unprocessed.smi

> <i_m_source_file_index>
447

> <i_lp_mmshare_version>
43012

> <i_f3d_flags>
0

> <s_epik_input>
W0NIM11DKD1PKVtOSF1bQ0BIXShbQ0gzXSljKG4xKW4oYyhjMTIpW2NIXVtjSF1bY0hdW2NIXTIpW0NIMl1bQ0BIXShbT0hdKWMzW2NIXVtjSF1bY0hdW2NIXVtjSF0z

> <s_epik_cmdline>
J2VwaWtfcHl0aG9uJywgJy1waCcsICc3LjAnLCAnLXRuJywgJzgnLCAnLW1hJywgJzIwMCcsICctbWV0YWxfYmluZGluZycsICctaW1hZScsICc8aW5maWxlLm1hZT4nLCAnLW9tYWUnLCAnPG91dGZpbGUubWFlPic=

> <r_epik_Ionization_Penalty>
0.950381

> <r_epik_Ionization_Penalty_Charging>
0.950379

> <r_epik_Ionization_Penalty_Neutral>
1.42115e-06

> <r_epik_State_Penalty>
0.994584

> <r_epik_Charging_Adjusted_Penalty>
1.94496

> <i_epik_Tot_Q>
1

> <i_epik_Tot_abs_Q>
1

> <r_epik_Metal_State_Penalty>
1.10485

> <b_epik_Metal_Only>
0

> <s_lp_Force_Field>
OPLS_2005

> <r_lp_Energy>
11.1979

> <b_lp_Chiralities_Consistent>
1

> <s_lp_Variant>
AV-unprocessed.smi:447-7

> <Gold.Version>
5.8.1

> <Gold.Id.Protein>
6NUR|6NUR_protein|mol2

> <Gold.PLP.Fitness>
48.5848

> <Gold.PLP.PLP>
-37.1400

> <Gold.PLP.part.hbond>
-3.0000

> <Gold.PLP.part.metal>
0.0000

> <Gold.PLP.part.buried>
-5.6786

> <Gold.PLP.part.nonpolar>
-29.2972

> <Gold.PLP.part.repulsive>
0.1190

> <Gold.PLP.ligand.clash>
0.0000

> <Gold.PLP.ligand.torsion>
0.3068

> <Gold.PLP.Chemscore.Hbond>
4.0000

> <Gold.PLP.Chemscore.CHOScore>
0.0000

> <Gold.PLP.Chemscore.Metal>
0.0000

> <Gold.Chemscore.Hbonds>
donor molecule, donor type, donor heavy atom, donor atom, acceptor molecule, acceptor atom, score
      L1  H     4    28       P1  7948  1.00
      L1  H     8    46       P1  7948  2.00
      P1  H  6896  6907       L1    18  1.00

> <Gold.PLP.Chemscore.Internal.Correction>
0.0584

> <Gold.Rescore>
     Score         DG    S(hbond)    S(metal)    S(lipo)     H(rot)  DE(clash)    DE(int)     intcor
     19.30     -19.59       2.89        0.00      90.85       2.41       0.01       0.27       ----

> <Gold.Chemscore.Fitness>
19.3045

> <Gold.Chemscore.DG>
-19.5860

> <Gold.Chemscore.ZeroCoef>
-5.4800

> <Gold.Chemscore.Hbond>
2.8889

> <Gold.Chemscore.Metal>
0.0000

> <Gold.Chemscore.Lipo>
90.8524

> <Gold.Chemscore.Internal_Hbond>
0.0000

> <Gold.Chemscore.DEClash>
0.0098

> <Gold.Chemscore.DEInternal>
0.2717

> <Gold.Chemscore.Rot>
2.4112

> <Gold.Chemscore.Internal.Correction>
   9.000000E+99

> <Gold.Chemscore.Hbonds>
donor molecule, donor type, donor heavy atom, donor atom, acceptor molecule, acceptor atom, score
      L1  H     4    28       P1  7948  0.85
      L1  H     8    46       P1  7948  0.29
      P1  H  6896  6907       L1    18  0.54

> <Gold.Chemscore.Hbond.Weighted>
-9.6489

> <Gold.Chemscore.Metal.Weighted>
-0.0000

> <Gold.Chemscore.Lipo.Weighted>
-10.6297

> <Gold.Chemscore.Internal_Hbond.Weighted>
0.0000

> <Gold.Chemscore.DEClash.Weighted>
0.0098

> <Gold.Chemscore.DEInternal.Weighted>
0.2717

> <Gold.Chemscore.Rot.Weighted>
6.1727

> <Gold.Chemscore.Internal.Correction.Weighted>
   9.000000E+99

> <Gold.Protein.RotatedTorsions>
[ 6907 6896 6895 6894 ] final -106.77 input  -60.11 | X-H torsion
[ 7974 7965 7964 7962 ] final  129.27 input  175.53 | X-H torsion
[ 8008 7997 7996 7995 ] final  101.88 input   59.86 | X-H torsion
[ 10167 10162 10161 10158 ] final  -55.25 input  -65.29 | X-H torsion
[ 10718 10713 10712 10709 ] final -147.65 input   66.30 | X-H torsion
[ 10763 10752 10751 10750 ] final -120.97 input  -60.55 | X-H torsion
[ 11005 11000 10999 10996 ] final   33.80 input  -57.11 | X-H torsion

> <Gold.Protein.ActiveResidues>
 VAL166  LYS551  ARG553  GLY616  TRP617  ASP618  TYR619  PRO620  LYS621  CYS622 
 ASP623  PHE694  ASN695  SER759  ASP760  ASP761  ALA762  ILE779  LEU786  VAL792 
 PHE793  MET794  SER795  GLU796  ALA797  LYS798  CYS799  TRP800  GLU811  SER814 

> <Gold.Protein.RotatedAtoms>
  150.7407  133.9926  159.3611 H   0  0  0  0  0  0  0  0  0  0  0  0  # atno 6907 bound_to 6896
  151.7875  135.0743  160.0392 H   0  0  0  0  0  0  0  0  0  0  0  0  # atno 6908 bound_to 6896
  152.3231  133.5839  159.5794 H   0  0  0  0  0  0  0  0  0  0  0  0  # atno 6909 bound_to 6896
  145.0305  139.4051  143.5152 H   0  0  0  0  0  0  0  0  0  0  0  0  # atno 7974 bound_to 7965
  156.1341  140.3190  155.8394 H   0  0  0  0  0  0  0  0  0  0  0  0  # atno 8008 bound_to 7997
  155.4277  140.0516  157.3038 H   0  0  0  0  0  0  0  0  0  0  0  0  # atno 8009 bound_to 7997
  154.4923  140.2097  155.9535 H   0  0  0  0  0  0  0  0  0  0  0  0  # atno 8010 bound_to 7997
  140.6385  143.2495  151.5052 H   0  0  0  0  0  0  0  0  0  0  0  0  # atno 10167 bound_to 10162
  156.4102  130.7978  151.2195 H   0  0  0  0  0  0  0  0  0  0  0  0  # atno 10718 bound_to 10713
  154.8657  135.4184  154.2545 H   0  0  0  0  0  0  0  0  0  0  0  0  # atno 10763 bound_to 10752
  153.3485  135.6997  153.6814 H   0  0  0  0  0  0  0  0  0  0  0  0  # atno 10764 bound_to 10752
  153.5764  135.3581  155.2830 H   0  0  0  0  0  0  0  0  0  0  0  0  # atno 10765 bound_to 10752
  140.2593  134.3210  155.7863 H   0  0  0  0  0  0  0  0  0  0  0  0  # atno 11005 bound_to 11000
  146.3498  139.9852  142.8691 LP  0  0  0  0  0  0  0  0  0  0  0  0  # atno 17320 bound_to 7965
  145.1777  140.9752  143.4284 LP  0  0  0  0  0  0  0  0  0  0  0  0  # atno 17321 bound_to 7965
  139.5595  144.2192  152.1668 LP  0  0  0  0  0  0  0  0  0  0  0  0  # atno 17342 bound_to 10162
  140.1455  144.5162  150.6718 LP  0  0  0  0  0  0  0  0  0  0  0  0  # atno 17343 bound_to 10162
  157.7507  131.0260  150.3942 LP  0  0  0  0  0  0  0  0  0  0  0  0  # atno 17370 bound_to 10713
  156.4239  130.3958  149.6806 LP  0  0  0  0  0  0  0  0  0  0  0  0  # atno 17371 bound_to 10713
  141.2192  133.7400  156.9162 LP  0  0  0  0  0  0  0  0  0  0  0  0  # atno 17394 bound_to 11000
  140.1480  134.9249  157.2555 LP  0  0  0  0  0  0  0  0  0  0  0  0  # atno 17395 bound_to 11000

$$$$
