AV-unprocessed.smi:862|AV-procd|sdf|3983|dock6
  -GOLD-   22720 1463D 1   1.00000     0.00000
 Structure written by MMmdl.
 45 47  0  0  0  0  0  0  0  0  3 V2000
  146.6701  143.1620  154.1183 N   0  0  0  0  0  0  0  0  0  0  0  0
  146.4599  142.5521  155.2888 C   0  0  0  0  0  0  0  0  0  0  0  0
  145.5590  142.9194  156.0409 O   0  0  0  0  0  0  0  0  0  0  0  0
  147.2729  141.4965  155.5467 N   0  0  0  0  0  0  0  0  0  0  0  0
  148.2139  140.8740  154.6005 C   0  0  0  0  0  0  0  0  0  0  0  0
  149.6488  141.2837  154.9814 C   0  0  0  0  0  0  0  0  0  0  0  0
  149.9730  140.8919  156.4417 C   0  0  0  0  0  0  0  0  0  0  0  0
  151.2922  141.4152  156.8640 N   0  3  0  0  0  0  0  0  0  0  0  0
  151.6456  141.2233  158.2906 C   0  0  1  0  0  0  0  0  0  0  0  0
  152.5728  140.0298  158.5375 C   0  0  0  0  0  0  0  0  0  0  0  0
  153.2360  140.3183  159.8883 C   0  0  0  0  0  0  0  0  0  0  0  0
  153.2023  141.8437  160.0716 C   0  0  0  0  0  0  0  0  0  0  0  0
  152.4565  142.4040  158.8475 C   0  0  2  0  0  0  0  0  0  0  0  0
  151.6519  143.6015  159.1424 N   0  0  0  0  0  0  0  0  0  0  0  0
  151.7105  144.3699  160.2777 C   0  0  0  0  0  0  0  0  0  0  0  0
  150.7881  145.3726  160.1232 C   0  0  0  0  0  0  0  0  0  0  0  0
  150.2040  145.1767  158.9011 N   0  3  0  0  0  0  0  0  0  0  0  0
  150.7296  144.1012  158.3061 C   0  0  0  0  0  0  0  0  0  0  0  0
  148.8759  141.4081  157.3956 C   0  0  0  0  0  0  0  0  0  0  0  0
  147.4762  140.9907  156.9098 C   0  0  0  0  0  0  0  0  0  0  0  0
  146.0954  143.9499  153.8565 H   0  0  0  0  0  0  0  0  0  0  0  0
  147.3931  142.8303  153.4970 H   0  0  0  0  0  0  0  0  0  0  0  0
  148.1093  139.7893  154.6545 H   0  0  0  0  0  0  0  0  0  0  0  0
  148.0250  141.1297  153.5581 H   0  0  0  0  0  0  0  0  0  0  0  0
  150.3489  140.8176  154.2899 H   0  0  0  0  0  0  0  0  0  0  0  0
  149.7610  142.3614  154.8529 H   0  0  0  0  0  0  0  0  0  0  0  0
  149.9811  139.8032  156.5175 H   0  0  0  0  0  0  0  0  0  0  0  0
  152.0109  141.0184  156.2753 H   0  0  0  0  0  0  0  0  0  0  0  0
  150.7352  141.0944  158.8784 H   0  0  0  0  0  0  0  0  0  0  0  0
  152.0417  139.0776  158.5407 H   0  0  0  0  0  0  0  0  0  0  0  0
  153.3392  139.9834  157.7621 H   0  0  0  0  0  0  0  0  0  0  0  0
  152.6696  139.8412  160.6893 H   0  0  0  0  0  0  0  0  0  0  0  0
  154.2513  139.9220  159.9293 H   0  0  0  0  0  0  0  0  0  0  0  0
  152.6961  142.0842  161.0074 H   0  0  0  0  0  0  0  0  0  0  0  0
  154.2081  142.2607  160.1378 H   0  0  0  0  0  0  0  0  0  0  0  0
  153.2052  142.6910  158.1063 H   0  0  0  0  0  0  0  0  0  0  0  0
  152.3835  144.1523  161.0949 H   0  0  0  0  0  0  0  0  0  0  0  0
  150.5091  146.1878  160.7754 H   0  0  0  0  0  0  0  0  0  0  0  0
  150.4552  143.7115  157.3418 H   0  0  0  0  0  0  0  0  0  0  0  0
  149.0456  141.0266  158.4030 H   0  0  0  0  0  0  0  0  0  0  0  0
  148.9218  142.4964  157.4644 H   0  0  0  0  0  0  0  0  0  0  0  0
  146.7164  141.3469  157.6071 H   0  0  0  0  0  0  0  0  0  0  0  0
  147.3863  139.9035  156.9084 H   0  0  0  0  0  0  0  0  0  0  0  0
  151.2700  142.4123  156.7046 H   0  0  0  0  0  0  0  0  0  0  0  0
  149.4747  145.7572  158.5052 H   0  0  0  0  0  0  0  0  0  0  0  0
  1  2  1  0  0  0  0
  1 21  1  0  0  0  0
  1 22  1  0  0  0  0
  2  3  2  0  0  0  0
  2  4  1  0  0  0  0
  4 20  1  0  0  0  0
  4  5  1  0  0  0  0
  5  6  1  0  0  0  0
  5 23  1  0  0  0  0
  5 24  1  0  0  0  0
  6  7  1  0  0  0  0
  6 25  1  0  0  0  0
  6 26  1  0  0  0  0
  7  8  1  0  0  0  0
  7 19  1  0  0  0  0
  7 27  1  0  0  0  0
  8  9  1  0  0  0  0
  8 28  1  0  0  0  0
  8 44  1  0  0  0  0
  9 13  1  0  0  0  0
  9 10  1  0  0  0  0
  9 29  1  0  0  0  0
 10 11  1  0  0  0  0
 10 30  1  0  0  0  0
 10 31  1  0  0  0  0
 11 12  1  0  0  0  0
 11 32  1  0  0  0  0
 11 33  1  0  0  0  0
 12 13  1  0  0  0  0
 12 34  1  0  0  0  0
 12 35  1  0  0  0  0
 13 14  1  0  0  0  0
 13 36  1  0  0  0  0
 14 18  1  0  0  0  0
 14 15  1  0  0  0  0
 15 16  2  0  0  0  0
 15 37  1  0  0  0  0
 16 17  1  0  0  0  0
 16 38  1  0  0  0  0
 17 18  2  0  0  0  0
 17 45  1  0  0  0  0
 18 39  1  0  0  0  0
 19 20  1  0  0  0  0
 19 40  1  0  0  0  0
 19 41  1  0  0  0  0
 20 42  1  0  0  0  0
 20 43  1  0  0  0  0
M  CHG  1   8   1
M  CHG  1  17   1
M  END
> <s_m_source_file>
AV-unprocessed.smi

> <i_m_source_file_index>
862

> <i_lp_mmshare_version>
43012

> <i_f3d_flags>
0

> <s_epik_input>
W05IMl1DKD1PKU4xW0NIMl1bQ0gyXVtDSF0oW0NIMl1bQ0gyXTEpW05IXVtDQEBIXTJbQ0gyXVtDSDJdW0NIMl1bQ0BIXTJuM1tjSF1bY0hdbltjSF0z

> <s_epik_cmdline>
J2VwaWtfcHl0aG9uJywgJy1waCcsICc3LjAnLCAnLXRuJywgJzgnLCAnLW1hJywgJzIwMCcsICctbWV0YWxfYmluZGluZycsICctaW1hZScsICc8aW5maWxlLm1hZT4nLCAnLW9tYWUnLCAnPG91dGZpbGUubWFlPic=

> <r_lp_tautomer_probability>
1

> <r_epik_Ionization_Penalty>
1.30217

> <r_epik_Ionization_Penalty_Charging>
0.00439521

> <r_epik_Ionization_Penalty_Neutral>
1.29777

> <r_epik_State_Penalty>
0.977606

> <r_epik_Charging_Adjusted_Penalty>
0.982001

> <i_epik_Tot_Q>
2

> <i_epik_Tot_abs_Q>
2

> <r_epik_Metal_State_Penalty>
1.03289

> <b_epik_Metal_Only>
0

> <s_lp_Force_Field>
OPLS_2005

> <r_lp_Energy>
66.2462

> <b_lp_Chiralities_Consistent>
1

> <s_lp_Variant>
AV-unprocessed.smi:862-8

> <Gold.Version>
5.8.1

> <Gold.Id.Protein>
6NUR|6NUR_protein|mol2

> <Gold.PLP.Fitness>
45.4857

> <Gold.PLP.PLP>
-38.6388

> <Gold.PLP.part.hbond>
-2.0000

> <Gold.PLP.part.metal>
0.0000

> <Gold.PLP.part.buried>
-4.8169

> <Gold.PLP.part.nonpolar>
-33.3474

> <Gold.PLP.part.repulsive>
0.8734

> <Gold.PLP.ligand.clash>
0.0000

> <Gold.PLP.ligand.torsion>
0.9762

> <Gold.PLP.Chemscore.Hbond>
1.9840

> <Gold.PLP.Chemscore.CHOScore>
0.9351

> <Gold.PLP.Chemscore.Metal>
0.0000

> <Gold.Chemscore.Hbonds>
donor molecule, donor type, donor heavy atom, donor atom, acceptor molecule, acceptor atom, score
      L1  H    17    45       P1  8029  1.98
      L1  C    18    39       P1  8028  0.94

> <Gold.PLP.Chemscore.Internal.Correction>
0.0421

> <Gold.Rescore>
     Score         DG    S(hbond)    S(metal)    S(lipo)     H(rot)  DE(clash)    DE(int)     intcor
     13.69     -14.40       0.89        0.00      87.54       1.68       0.06       0.65       ----

> <Gold.Chemscore.Fitness>
13.6932

> <Gold.Chemscore.DG>
-14.4033

> <Gold.Chemscore.ZeroCoef>
-5.4800

> <Gold.Chemscore.Hbond>
0.8937

> <Gold.Chemscore.Metal>
0.0000

> <Gold.Chemscore.Lipo>
87.5429

> <Gold.Chemscore.Internal_Hbond>
0.0000

> <Gold.Chemscore.DEClash>
0.0561

> <Gold.Chemscore.DEInternal>
0.6539

> <Gold.Chemscore.Rot>
1.6814

> <Gold.Chemscore.Internal.Correction>
   9.000000E+99

> <Gold.Chemscore.Hbonds>
donor molecule, donor type, donor heavy atom, donor atom, acceptor molecule, acceptor atom, score
      L1  H    17    45       P1  8029  0.86

> <Gold.Chemscore.Hbond.Weighted>
-2.9851

> <Gold.Chemscore.Metal.Weighted>
-0.0000

> <Gold.Chemscore.Lipo.Weighted>
-10.2425

> <Gold.Chemscore.Internal_Hbond.Weighted>
0.0000

> <Gold.Chemscore.DEClash.Weighted>
0.0561

> <Gold.Chemscore.DEInternal.Weighted>
0.6539

> <Gold.Chemscore.Rot.Weighted>
4.3043

> <Gold.Chemscore.Internal.Correction.Weighted>
   9.000000E+99

> <Gold.Protein.RotatedTorsions>
[ 6907 6896 6895 6894 ] final   25.25 input  -60.11 | X-H torsion
[ 7974 7965 7964 7962 ] final   13.95 input  175.53 | X-H torsion
[ 8008 7997 7996 7995 ] final  144.71 input   59.86 | X-H torsion
[ 10167 10162 10161 10158 ] final -133.28 input  -65.29 | X-H torsion
[ 10718 10713 10712 10709 ] final   51.36 input   66.30 | X-H torsion
[ 10763 10752 10751 10750 ] final   77.26 input  -60.55 | X-H torsion
[ 11005 11000 10999 10996 ] final  132.49 input  -57.11 | X-H torsion

> <Gold.Protein.ActiveResidues>
 VAL166  LYS551  ARG553  GLY616  TRP617  ASP618  TYR619  PRO620  LYS621  CYS622 
 ASP623  PHE694  ASN695  SER759  ASP760  ASP761  ALA762  ILE779  LEU786  VAL792 
 PHE793  MET794  SER795  GLU796  ALA797  LYS798  CYS799  TRP800  GLU811  SER814 

> <Gold.Protein.RotatedAtoms>
  151.9697  135.0083  160.0551 H   0  0  0  0  0  0  0  0  0  0  0  0  # atno 6907 bound_to 6896
  152.1794  133.4692  159.4959 H   0  0  0  0  0  0  0  0  0  0  0  0  # atno 6908 bound_to 6896
  150.6915  134.1769  159.4277 H   0  0  0  0  0  0  0  0  0  0  0  0  # atno 6909 bound_to 6896
  146.2317  139.9113  142.8524 H   0  0  0  0  0  0  0  0  0  0  0  0  # atno 7974 bound_to 7965
  156.2901  140.2228  156.5097 H   0  0  0  0  0  0  0  0  0  0  0  0  # atno 8008 bound_to 7997
  154.7619  140.0472  157.1002 H   0  0  0  0  0  0  0  0  0  0  0  0  # atno 8009 bound_to 7997
  154.9980  140.3098  155.4882 H   0  0  0  0  0  0  0  0  0  0  0  0  # atno 8010 bound_to 7997
  139.8999  143.6620  152.2597 H   0  0  0  0  0  0  0  0  0  0  0  0  # atno 10167 bound_to 10162
  157.4974  130.8415  149.8275 H   0  0  0  0  0  0  0  0  0  0  0  0  # atno 10718 bound_to 10713
  153.0786  135.4921  154.8455 H   0  0  0  0  0  0  0  0  0  0  0  0  # atno 10763 bound_to 10752
  154.7120  135.3022  154.9184 H   0  0  0  0  0  0  0  0  0  0  0  0  # atno 10764 bound_to 10752
  153.9875  135.6782  153.4805 H   0  0  0  0  0  0  0  0  0  0  0  0  # atno 10765 bound_to 10752
  139.9793  134.9553  156.9590 H   0  0  0  0  0  0  0  0  0  0  0  0  # atno 11005 bound_to 11000
  145.2227  140.9941  143.4036 LP  0  0  0  0  0  0  0  0  0  0  0  0  # atno 17320 bound_to 7965
  144.9597  139.3993  143.6362 LP  0  0  0  0  0  0  0  0  0  0  0  0  # atno 17321 bound_to 7965
  139.7034  144.7631  151.1234 LP  0  0  0  0  0  0  0  0  0  0  0  0  # atno 17342 bound_to 10162
  140.7709  143.5426  150.9295 LP  0  0  0  0  0  0  0  0  0  0  0  0  # atno 17343 bound_to 10162
  156.0208  130.3796  150.1967 LP  0  0  0  0  0  0  0  0  0  0  0  0  # atno 17370 bound_to 10713
  157.0156  130.9964  151.3354 LP  0  0  0  0  0  0  0  0  0  0  0  0  # atno 17371 bound_to 10713
  140.5129  134.0984  155.7274 LP  0  0  0  0  0  0  0  0  0  0  0  0  # atno 17394 bound_to 11000
  141.1467  133.9042  157.2198 LP  0  0  0  0  0  0  0  0  0  0  0  0  # atno 17395 bound_to 11000

$$$$
