AV-unprocessed.smi:3245|AV-procd|sdf|12406|dock1
  -GOLD-   2272018283D 1   1.00000     0.00000
 Structure written by MMmdl.
 35 36  0  0  0  0  0  0  0  0  3 V2000
  146.9716  140.3616  153.5423 C   0  0  0  0  0  0  0  0  0  0  0  0
  147.0928  138.9399  152.9774 C   0  0  2  0  0  0  0  0  0  0  0  0
  146.2814  137.9418  153.8325 C   0  0  0  0  0  0  0  0  0  0  0  0
  145.3724  137.1287  153.0444 N   0  0  0  0  0  0  0  0  0  0  0  0
  145.6691  136.2650  152.0111 C   0  0  0  0  0  0  0  0  0  0  0  0
  144.4932  135.7059  151.5998 C   0  0  0  0  0  0  0  0  0  0  0  0
  143.5192  136.3003  152.4499 C   0  0  0  0  0  0  0  0  0  0  0  0
  144.0483  137.1542  153.3116 N   0  0  0  0  0  0  0  0  0  0  0  0
  148.5214  138.5552  152.9151 N   0  3  0  0  0  0  0  0  0  0  0  0
  149.2410  138.6309  154.2024 C   0  0  0  0  0  0  0  0  0  0  0  0
  150.7596  138.6207  153.9829 C   0  0  0  0  0  0  0  0  0  0  0  0
  151.4567  139.1742  155.1459 N   0  0  0  0  0  0  0  0  0  0  0  0
  151.1316  140.3284  155.7360 C   0  0  0  0  0  0  0  0  0  0  0  0
  150.2355  141.1117  155.4204 O   0  0  0  0  0  0  0  0  0  0  0  0
  152.0625  140.5157  156.9111 C   0  0  0  0  0  0  0  0  0  0  0  0
  152.8739  139.3202  156.8546 N   0  5  0  0  0  0  0  0  0  0  0  0
  152.4675  138.5740  155.8016 C   0  0  0  0  0  0  0  0  0  0  0  0
  152.9185  137.4835  155.4530 O   0  0  0  0  0  0  0  0  0  0  0  0
  145.9307  140.6855  153.5706 H   0  0  0  0  0  0  0  0  0  0  0  0
  147.5203  141.0766  152.9284 H   0  0  0  0  0  0  0  0  0  0  0  0
  147.3659  140.4218  154.5574 H   0  0  0  0  0  0  0  0  0  0  0  0
  146.6829  138.9577  151.9659 H   0  0  0  0  0  0  0  0  0  0  0  0
  146.9497  137.2849  154.3921 H   0  0  0  0  0  0  0  0  0  0  0  0
  145.6890  138.4809  154.5728 H   0  0  0  0  0  0  0  0  0  0  0  0
  146.6808  136.1162  151.6632 H   0  0  0  0  0  0  0  0  0  0  0  0
  144.3499  134.9803  150.8129 H   0  0  0  0  0  0  0  0  0  0  0  0
  142.4516  136.1361  152.4679 H   0  0  0  0  0  0  0  0  0  0  0  0
  148.5854  137.6024  152.5864 H   0  0  0  0  0  0  0  0  0  0  0  0
  148.9585  139.5378  154.7364 H   0  0  0  0  0  0  0  0  0  0  0  0
  148.9391  137.7895  154.8274 H   0  0  0  0  0  0  0  0  0  0  0  0
  151.1062  137.6052  153.7837 H   0  0  0  0  0  0  0  0  0  0  0  0
  151.0105  139.1997  153.0922 H   0  0  0  0  0  0  0  0  0  0  0  0
  152.6381  141.4335  156.7864 H   0  0  0  0  0  0  0  0  0  0  0  0
  151.4855  140.6013  157.8323 H   0  0  0  0  0  0  0  0  0  0  0  0
  148.9819  139.1576  152.2476 H   0  0  0  0  0  0  0  0  0  0  0  0
  1  2  1  0  0  0  0
  1 19  1  0  0  0  0
  1 20  1  0  0  0  0
  1 21  1  0  0  0  0
  2  3  1  0  0  0  0
  2  9  1  0  0  0  0
  2 22  1  0  0  0  0
  3  4  1  0  0  0  0
  3 23  1  0  0  0  0
  3 24  1  0  0  0  0
  4  8  1  0  0  0  0
  4  5  1  0  0  0  0
  5  6  2  0  0  0  0
  5 25  1  0  0  0  0
  6  7  1  0  0  0  0
  6 26  1  0  0  0  0
  7  8  2  0  0  0  0
  7 27  1  0  0  0  0
  9 10  1  0  0  0  0
  9 28  1  0  0  0  0
  9 35  1  0  0  0  0
 10 11  1  0  0  0  0
 10 29  1  0  0  0  0
 10 30  1  0  0  0  0
 11 12  1  0  0  0  0
 11 31  1  0  0  0  0
 11 32  1  0  0  0  0
 12 17  1  0  0  0  0
 12 13  1  0  0  0  0
 13 14  2  0  0  0  0
 13 15  1  0  0  0  0
 15 16  1  0  0  0  0
 15 33  1  0  0  0  0
 15 34  1  0  0  0  0
 16 17  1  0  0  0  0
 17 18  2  0  0  0  0
M  CHG  1   9   1
M  CHG  1  16  -1
M  END
> <s_m_source_file>
AV-unprocessed.smi

> <i_m_source_file_index>
3245

> <i_lp_mmshare_version>
43012

> <i_f3d_flags>
0

> <s_epik_input>
bjFbY0hdW2NIXVtjSF1uMVtDSDJdW0NAQEhdKFtDSDNdKVtOSF1bQ0gyXVtDSDJdTjJDKD1PKVtDSDJdW05IXUMyPU8=

> <s_epik_cmdline>
J2VwaWtfcHl0aG9uJywgJy1waCcsICc3LjAnLCAnLXRuJywgJzgnLCAnLW1hJywgJzIwMCcsICctbWV0YWxfYmluZGluZycsICctaW1hZScsICc8aW5maWxlLm1hZT4nLCAnLW9tYWUnLCAnPG91dGZpbGUubWFlPic=

> <r_lp_tautomer_probability>
1

> <r_epik_Ionization_Penalty>
5.1873

> <r_epik_Ionization_Penalty_Charging>
5.18729

> <r_epik_Ionization_Penalty_Neutral>
3.83745e-06

> <r_epik_State_Penalty>
5.18822

> <r_epik_Charging_Adjusted_Penalty>
10.3755

> <i_epik_Tot_Q>
0

> <i_epik_Tot_abs_Q>
2

> <r_epik_Metal_State_Penalty>
1.25934

> <b_epik_Metal_Only>
1

> <s_lp_Force_Field>
OPLS_2005

> <r_lp_Energy>
10.3219

> <b_lp_Chiralities_Consistent>
1

> <s_lp_Variant>
AV-unprocessed.smi:3245-5

> <Gold.Version>
5.8.1

> <Gold.Id.Protein>
6NUR|6NUR_protein|mol2

> <Gold.PLP.Fitness>
49.0623

> <Gold.PLP.PLP>
-31.6267

> <Gold.PLP.part.hbond>
-4.3414

> <Gold.PLP.part.metal>
0.0000

> <Gold.PLP.part.buried>
-6.1671

> <Gold.PLP.part.nonpolar>
-23.5391

> <Gold.PLP.part.repulsive>
0.3467

> <Gold.PLP.ligand.clash>
0.0000

> <Gold.PLP.ligand.torsion>
0.9759

> <Gold.PLP.Chemscore.Hbond>
5.4167

> <Gold.PLP.Chemscore.CHOScore>
1.0000

> <Gold.PLP.Chemscore.Metal>
0.0000

> <Gold.Chemscore.Hbonds>
donor molecule, donor type, donor heavy atom, donor atom, acceptor molecule, acceptor atom, score
      L1  H     9    28       P1  7948  2.00
      L1  H     9    35       P1  7957  0.98
      P1  H  7997  8009       L1    16  1.80
      P1  H 10752 10765       L1    18  0.43
      L1  C     5    25       P1  7948  1.00

> <Gold.PLP.Chemscore.Internal.Correction>
0.1373

> <Gold.Rescore>
     Score         DG    S(hbond)    S(metal)    S(lipo)     H(rot)  DE(clash)    DE(int)     intcor
     15.67     -16.60       3.58        0.00      51.13       2.66       0.16       0.77       ----

> <Gold.Chemscore.Fitness>
15.6718

> <Gold.Chemscore.DG>
-16.6018

> <Gold.Chemscore.ZeroCoef>
-5.4800

> <Gold.Chemscore.Hbond>
3.5777

> <Gold.Chemscore.Metal>
0.0000

> <Gold.Chemscore.Lipo>
51.1284

> <Gold.Chemscore.Internal_Hbond>
0.0000

> <Gold.Chemscore.DEClash>
0.1621

> <Gold.Chemscore.DEInternal>
0.7679

> <Gold.Chemscore.Rot>
2.6601

> <Gold.Chemscore.Internal.Correction>
   9.000000E+99

> <Gold.Chemscore.Hbonds>
donor molecule, donor type, donor heavy atom, donor atom, acceptor molecule, acceptor atom, score
      L1  H     9    28       P1  7948  0.97
      L1  H     9    35       P1  7957  0.91
      P1  H  7997  8009       L1    16  0.16
      P1  H 10752 10765       L1    18  0.42

> <Gold.Chemscore.Hbond.Weighted>
-11.9495

> <Gold.Chemscore.Metal.Weighted>
-0.0000

> <Gold.Chemscore.Lipo.Weighted>
-5.9820

> <Gold.Chemscore.Internal_Hbond.Weighted>
0.0000

> <Gold.Chemscore.DEClash.Weighted>
0.1621

> <Gold.Chemscore.DEInternal.Weighted>
0.7679

> <Gold.Chemscore.Rot.Weighted>
6.8098

> <Gold.Chemscore.Internal.Correction.Weighted>
   9.000000E+99

> <Gold.Protein.RotatedTorsions>
[ 6907 6896 6895 6894 ] final  -79.96 input  -60.11 | X-H torsion
[ 7974 7965 7964 7962 ] final  150.59 input  175.53 | X-H torsion
[ 8008 7997 7996 7995 ] final  177.57 input   59.86 | X-H torsion
[ 10167 10162 10161 10158 ] final  177.39 input  -65.29 | X-H torsion
[ 10718 10713 10712 10709 ] final  160.35 input   66.30 | X-H torsion
[ 10763 10752 10751 10750 ] final -164.62 input  -60.55 | X-H torsion
[ 11005 11000 10999 10996 ] final   25.69 input  -57.11 | X-H torsion

> <Gold.Protein.ActiveResidues>
 VAL166  LYS551  ARG553  GLY616  TRP617  ASP618  TYR619  PRO620  LYS621  CYS622 
 ASP623  PHE694  ASN695  SER759  ASP760  ASP761  ALA762  ILE779  LEU786  VAL792 
 PHE793  MET794  SER795  GLU796  ALA797  LYS798  CYS799  TRP800  GLU811  SER814 

> <Gold.Protein.RotatedAtoms>
  150.6939  134.4042  159.5132 H   0  0  0  0  0  0  0  0  0  0  0  0  # atno 6907 bound_to 6896
  152.1811  134.8750  160.0535 H   0  0  0  0  0  0  0  0  0  0  0  0  # atno 6908 bound_to 6896
  151.9741  133.3700  159.4119 H   0  0  0  0  0  0  0  0  0  0  0  0  # atno 6909 bound_to 6896
  144.8353  139.6428  143.6040 H   0  0  0  0  0  0  0  0  0  0  0  0  # atno 7974 bound_to 7965
  156.0642  140.1355  156.9905 H   0  0  0  0  0  0  0  0  0  0  0  0  # atno 8008 bound_to 7997
  154.4497  140.0985  156.6634 H   0  0  0  0  0  0  0  0  0  0  0  0  # atno 8009 bound_to 7997
  155.5329  140.3459  155.4432 H   0  0  0  0  0  0  0  0  0  0  0  0  # atno 8010 bound_to 7997
  139.5251  144.2803  152.0552 H   0  0  0  0  0  0  0  0  0  0  0  0  # atno 10167 bound_to 10162
  157.1516  131.0565  151.2277 H   0  0  0  0  0  0  0  0  0  0  0  0  # atno 10718 bound_to 10713
  154.7011  135.2988  154.9340 H   0  0  0  0  0  0  0  0  0  0  0  0  # atno 10763 bound_to 10752
  154.0272  135.6675  153.4781 H   0  0  0  0  0  0  0  0  0  0  0  0  # atno 10764 bound_to 10752
  153.0682  135.5076  154.8155 H   0  0  0  0  0  0  0  0  0  0  0  0  # atno 10765 bound_to 10752
  140.3452  134.2290  155.7685 H   0  0  0  0  0  0  0  0  0  0  0  0  # atno 11005 bound_to 11000
  146.2653  139.6504  142.9334 LP  0  0  0  0  0  0  0  0  0  0  0  0  # atno 17320 bound_to 7965
  145.4807  141.0438  143.2647 LP  0  0  0  0  0  0  0  0  0  0  0  0  # atno 17321 bound_to 7965
  140.2259  144.4418  150.6321 LP  0  0  0  0  0  0  0  0  0  0  0  0  # atno 17342 bound_to 10162
  140.6388  143.2199  151.6337 LP  0  0  0  0  0  0  0  0  0  0  0  0  # atno 17343 bound_to 10162
  157.4215  130.7440  149.6917 LP  0  0  0  0  0  0  0  0  0  0  0  0  # atno 17370 bound_to 10713
  155.9769  130.4069  150.3745 LP  0  0  0  0  0  0  0  0  0  0  0  0  # atno 17371 bound_to 10713
  141.2028  133.7929  157.0374 LP  0  0  0  0  0  0  0  0  0  0  0  0  # atno 17394 bound_to 11000
  140.0748  134.9681  157.1528 LP  0  0  0  0  0  0  0  0  0  0  0  0  # atno 17395 bound_to 11000

$$$$
