AV-unprocessed.smi:875|AV-procd|sdf|4018|dock6
  -GOLD-   22720 1503D 1   1.00000     0.00000
 Structure written by MMmdl.
 37 38  0  0  0  0  0  0  0  0  1 V2000
  144.5774  142.9128  155.2033 C   0  0  0  0  0  0  0  0  0  0  0  0
  145.4400  141.8696  154.6710 N   0  0  0  0  0  0  0  0  0  0  0  0
  146.6523  142.0892  154.1400 C   0  0  0  0  0  0  0  0  0  0  0  0
  147.1512  143.2098  154.0380 O   0  0  0  0  0  0  0  0  0  0  0  0
  147.4174  140.8632  153.6339 C   0  0  0  0  0  0  0  0  0  0  0  0
  148.7398  140.7320  154.3213 C   0  0  0  0  0  0  0  0  0  0  0  0
  149.6066  139.7850  153.9802 N   0  0  0  0  0  0  0  0  0  0  0  0
  150.6903  140.0124  154.8407 O   0  0  0  0  0  0  0  0  0  0  0  0
  150.3414  141.0752  155.6047 C   0  0  0  0  0  0  0  0  0  0  0  0
  151.3017  141.5614  156.6396 C   0  0  0  0  0  0  0  0  0  0  0  0
  150.8205  142.8133  157.1092 O   0  0  0  0  0  0  0  0  0  0  0  0
  151.6610  143.4484  158.0636 C   0  0  0  0  0  0  0  0  0  0  0  0
  152.0062  142.4943  159.2273 C   0  0  0  0  0  0  0  0  0  0  0  0
  152.8008  143.2170  160.3276 C   0  0  0  0  0  0  0  0  0  0  0  0
  152.0504  144.4572  160.8381 C   0  0  0  0  0  0  0  0  0  0  0  0
  151.7024  145.4091  159.6830 C   0  0  0  0  0  0  0  0  0  0  0  0
  150.9061  144.6835  158.5862 C   0  0  0  0  0  0  0  0  0  0  0  0
  149.1312  141.5588  155.3307 N   0  0  0  0  0  0  0  0  0  0  0  0
  143.6652  142.4717  155.6048 H   0  0  0  0  0  0  0  0  0  0  0  0
  144.2995  143.6220  154.4227 H   0  0  0  0  0  0  0  0  0  0  0  0
  145.0751  143.4564  156.0076 H   0  0  0  0  0  0  0  0  0  0  0  0
  145.1007  140.9192  154.7184 H   0  0  0  0  0  0  0  0  0  0  0  0
  146.8210  139.9662  153.8054 H   0  0  0  0  0  0  0  0  0  0  0  0
  147.5714  140.9397  152.5566 H   0  0  0  0  0  0  0  0  0  0  0  0
  151.3602  140.8234  157.4393 H   0  0  0  0  0  0  0  0  0  0  0  0
  152.2918  141.6688  156.1942 H   0  0  0  0  0  0  0  0  0  0  0  0
  152.5786  143.7870  157.5787 H   0  0  0  0  0  0  0  0  0  0  0  0
  151.0875  142.0859  159.6505 H   0  0  0  0  0  0  0  0  0  0  0  0
  152.5868  141.6438  158.8711 H   0  0  0  0  0  0  0  0  0  0  0  0
  152.9951  142.5341  161.1550 H   0  0  0  0  0  0  0  0  0  0  0  0
  153.7750  143.5153  159.9378 H   0  0  0  0  0  0  0  0  0  0  0  0
  151.1356  144.1474  161.3454 H   0  0  0  0  0  0  0  0  0  0  0  0
  152.6545  144.9786  161.5811 H   0  0  0  0  0  0  0  0  0  0  0  0
  151.1288  146.2561  160.0602 H   0  0  0  0  0  0  0  0  0  0  0  0
  152.6190  145.8201  159.2582 H   0  0  0  0  0  0  0  0  0  0  0  0
  150.7016  145.3699  157.7638 H   0  0  0  0  0  0  0  0  0  0  0  0
  149.9362  144.3802  158.9830 H   0  0  0  0  0  0  0  0  0  0  0  0
  1  2  1  0  0  0  0
  1 19  1  0  0  0  0
  1 20  1  0  0  0  0
  1 21  1  0  0  0  0
  2  3  1  0  0  0  0
  2 22  1  0  0  0  0
  3  4  2  0  0  0  0
  3  5  1  0  0  0  0
  5  6  1  0  0  0  0
  5 23  1  0  0  0  0
  5 24  1  0  0  0  0
  6 18  1  0  0  0  0
  6  7  2  0  0  0  0
  7  8  1  0  0  0  0
  8  9  1  0  0  0  0
  9 10  1  0  0  0  0
  9 18  2  0  0  0  0
 10 11  1  0  0  0  0
 10 25  1  0  0  0  0
 10 26  1  0  0  0  0
 11 12  1  0  0  0  0
 12 17  1  0  0  0  0
 12 13  1  0  0  0  0
 12 27  1  0  0  0  0
 13 14  1  0  0  0  0
 13 28  1  0  0  0  0
 13 29  1  0  0  0  0
 14 15  1  0  0  0  0
 14 30  1  0  0  0  0
 14 31  1  0  0  0  0
 15 16  1  0  0  0  0
 15 32  1  0  0  0  0
 15 33  1  0  0  0  0
 16 17  1  0  0  0  0
 16 34  1  0  0  0  0
 16 35  1  0  0  0  0
 17 36  1  0  0  0  0
 17 37  1  0  0  0  0
M  END
> <s_m_source_file>
AV-unprocessed.smi

> <i_m_source_file_index>
875

> <i_lp_mmshare_version>
43012

> <i_f3d_flags>
0

> <s_epik_input>
W0NIM11bTkhdQyg9TylbQ0gyXWMxbm9jKG4xKVtDSDJdT1tDSF0yW0NIMl1bQ0gyXVtDSDJdW0NIMl1bQ0gyXTI=

> <s_epik_cmdline>
J2VwaWtfcHl0aG9uJywgJy1waCcsICc3LjAnLCAnLXRuJywgJzgnLCAnLW1hJywgJzIwMCcsICctbWV0YWxfYmluZGluZycsICctaW1hZScsICc8aW5maWxlLm1hZT4nLCAnLW9tYWUnLCAnPG91dGZpbGUubWFlPic=

> <r_lp_tautomer_probability>
1

> <r_epik_Ionization_Penalty>
1.02915e-07

> <r_epik_Ionization_Penalty_Charging>
0

> <r_epik_Ionization_Penalty_Neutral>
1.02915e-07

> <r_epik_State_Penalty>
-0

> <r_epik_Charging_Adjusted_Penalty>
0

> <i_epik_Tot_Q>
0

> <i_epik_Tot_abs_Q>
0

> <r_epik_Metal_State_Penalty>
-0

> <b_epik_Metal_Only>
0

> <s_lp_Force_Field>
OPLS_2005

> <r_lp_Energy>
10.4582

> <b_lp_Chiralities_Consistent>
1

> <s_lp_Variant>
AV-unprocessed.smi:875-1

> <Gold.Version>
5.8.1

> <Gold.Id.Protein>
6NUR|6NUR_protein|mol2

> <Gold.PLP.Fitness>
40.0560

> <Gold.PLP.PLP>
-37.5062

> <Gold.PLP.part.hbond>
-3.1563

> <Gold.PLP.part.metal>
0.0000

> <Gold.PLP.part.buried>
-6.6103

> <Gold.PLP.part.nonpolar>
-32.6334

> <Gold.PLP.part.repulsive>
5.2090

> <Gold.PLP.ligand.clash>
0.0000

> <Gold.PLP.ligand.torsion>
0.1705

> <Gold.PLP.Chemscore.Hbond>
0.9578

> <Gold.PLP.Chemscore.CHOScore>
0.0000

> <Gold.PLP.Chemscore.Metal>
0.0000

> <Gold.Chemscore.Hbonds>
donor molecule, donor type, donor heavy atom, donor atom, acceptor molecule, acceptor atom, score
      P1  H  7989  7998       L1     8  0.55
      P1  H  8022  8030       L1     4  0.36

> <Gold.PLP.Chemscore.Internal.Correction>
0.0175

> <Gold.Rescore>
     Score         DG    S(hbond)    S(metal)    S(lipo)     H(rot)  DE(clash)    DE(int)     intcor
      8.74     -11.93       0.55        0.00      86.91       2.18       1.78       1.41       ----

> <Gold.Chemscore.Fitness>
8.7388

> <Gold.Chemscore.DG>
-11.9295

> <Gold.Chemscore.ZeroCoef>
-5.4800

> <Gold.Chemscore.Hbond>
0.5547

> <Gold.Chemscore.Metal>
0.0000

> <Gold.Chemscore.Lipo>
86.9067

> <Gold.Chemscore.Internal_Hbond>
0.0000

> <Gold.Chemscore.DEClash>
1.7782

> <Gold.Chemscore.DEInternal>
1.4124

> <Gold.Chemscore.Rot>
2.1763

> <Gold.Chemscore.Internal.Correction>
   9.000000E+99

> <Gold.Chemscore.Hbonds>
donor molecule, donor type, donor heavy atom, donor atom, acceptor molecule, acceptor atom, score
      P1  H  7989  7998       L1     8  0.01
      P1  H  8022  8030       L1     4  0.36

> <Gold.Chemscore.Hbond.Weighted>
-1.8526

> <Gold.Chemscore.Metal.Weighted>
-0.0000

> <Gold.Chemscore.Lipo.Weighted>
-10.1681

> <Gold.Chemscore.Internal_Hbond.Weighted>
0.0000

> <Gold.Chemscore.DEClash.Weighted>
1.7782

> <Gold.Chemscore.DEInternal.Weighted>
1.4124

> <Gold.Chemscore.Rot.Weighted>
5.5712

> <Gold.Chemscore.Internal.Correction.Weighted>
   9.000000E+99

> <Gold.Protein.RotatedTorsions>
[ 6907 6896 6895 6894 ] final  -53.73 input  -60.11 | X-H torsion
[ 7974 7965 7964 7962 ] final  -19.39 input  175.53 | X-H torsion
[ 8008 7997 7996 7995 ] final  -36.61 input   59.86 | X-H torsion
[ 10167 10162 10161 10158 ] final    2.76 input  -65.29 | X-H torsion
[ 10718 10713 10712 10709 ] final -163.80 input   66.30 | X-H torsion
[ 10763 10752 10751 10750 ] final  -88.00 input  -60.55 | X-H torsion
[ 11005 11000 10999 10996 ] final  146.11 input  -57.11 | X-H torsion

> <Gold.Protein.ActiveResidues>
 VAL166  LYS551  ARG553  GLY616  TRP617  ASP618  TYR619  PRO620  LYS621  CYS622 
 ASP623  PHE694  ASN695  SER759  ASP760  ASP761  ALA762  ILE779  LEU786  VAL792 
 PHE793  MET794  SER795  GLU796  ALA797  LYS798  CYS799  TRP800  GLU811  SER814 

> <Gold.Protein.RotatedAtoms>
  150.8400  134.7689  159.6924 H   0  0  0  0  0  0  0  0  0  0  0  0  # atno 6907 bound_to 6896
  152.4489  134.5432  159.9855 H   0  0  0  0  0  0  0  0  0  0  0  0  # atno 6908 bound_to 6896
  151.5573  133.3370  159.3000 H   0  0  0  0  0  0  0  0  0  0  0  0  # atno 6909 bound_to 6896
  146.1843  140.4056  142.8482 H   0  0  0  0  0  0  0  0  0  0  0  0  # atno 7974 bound_to 7965
  154.4069  140.1626  156.2402 H   0  0  0  0  0  0  0  0  0  0  0  0  # atno 8008 bound_to 7997
  155.9208  140.3421  155.6148 H   0  0  0  0  0  0  0  0  0  0  0  0  # atno 8009 bound_to 7997
  155.7225  140.0770  157.2315 H   0  0  0  0  0  0  0  0  0  0  0  0  # atno 8010 bound_to 7997
  140.6619  143.7281  150.7755 H   0  0  0  0  0  0  0  0  0  0  0  0  # atno 10167 bound_to 10162
  156.6299  130.8925  151.2975 H   0  0  0  0  0  0  0  0  0  0  0  0  # atno 10718 bound_to 10713
  154.6397  135.5393  153.7775 H   0  0  0  0  0  0  0  0  0  0  0  0  # atno 10763 bound_to 10752
  153.0327  135.6456  154.1178 H   0  0  0  0  0  0  0  0  0  0  0  0  # atno 10764 bound_to 10752
  154.1103  135.2927  155.3212 H   0  0  0  0  0  0  0  0  0  0  0  0  # atno 10765 bound_to 10752
  140.0767  134.9121  157.1434 H   0  0  0  0  0  0  0  0  0  0  0  0  # atno 11005 bound_to 11000
  144.8370  140.6798  143.6254 LP  0  0  0  0  0  0  0  0  0  0  0  0  # atno 17320 bound_to 7965
  145.3984  139.1602  143.4191 LP  0  0  0  0  0  0  0  0  0  0  0  0  # atno 17321 bound_to 7965
  140.0951  143.4840  152.2457 LP  0  0  0  0  0  0  0  0  0  0  0  0  # atno 17342 bound_to 10162
  139.5855  144.7529  151.3530 LP  0  0  0  0  0  0  0  0  0  0  0  0  # atno 17343 bound_to 10162
  157.7203  130.9550  150.1412 LP  0  0  0  0  0  0  0  0  0  0  0  0  # atno 17370 bound_to 10713
  156.2243  130.3676  149.8519 LP  0  0  0  0  0  0  0  0  0  0  0  0  # atno 17371 bound_to 10713
  140.3548  134.2559  155.7194 LP  0  0  0  0  0  0  0  0  0  0  0  0  # atno 17394 bound_to 11000
  141.2032  133.7918  157.0352 LP  0  0  0  0  0  0  0  0  0  0  0  0  # atno 17395 bound_to 11000

$$$$
