AV-unprocessed.smi:99|AV-procd|sdf|866|dock9
  -GOLD-   2262017323D 1   1.00000     0.00000
 Structure written by MMmdl.
 53 56  0  0  0  0  0  0  0  0  1 V2000
  147.7126  137.2559  160.8253 O   0  0  0  0  0  0  0  0  0  0  0  0
  148.0957  136.2002  160.3171 C   0  0  0  0  0  0  0  0  0  0  0  0
  149.0346  136.1340  159.3539 O   0  0  0  0  0  0  0  0  0  0  0  0
  149.6977  137.3128  158.9306 C   0  0  0  0  0  0  0  0  0  0  0  0
  150.4988  137.0097  157.6519 C   0  0  1  0  0  0  0  0  0  0  0  0
  149.7907  136.0654  156.8478 O   0  0  0  0  0  0  0  0  0  0  0  0
  149.0824  136.6941  155.8130 C   0  0  1  0  0  0  0  0  0  0  0  0
  147.6089  136.3517  155.9196 N   0  0  0  0  0  0  0  0  0  0  0  0
  147.0959  135.5559  156.9374 C   0  0  0  0  0  0  0  0  0  0  0  0
  145.7823  135.2438  157.0394 C   0  0  0  0  0  0  0  0  0  0  0  0
  144.8239  135.7396  156.0573 C   0  0  0  0  0  0  0  0  0  0  0  0
  143.6164  135.5104  156.0668 O   0  0  0  0  0  0  0  0  0  0  0  0
  145.3827  136.5306  155.0496 N   0  0  0  0  0  0  0  0  0  0  0  0
  146.7341  136.8592  154.9343 C   0  0  0  0  0  0  0  0  0  0  0  0
  147.1215  137.5666  154.0048 O   0  0  0  0  0  0  0  0  0  0  0  0
  149.3692  138.2101  155.9045 C   0  0  1  0  0  0  0  0  0  0  0  0
  148.3387  138.9351  156.5590 O   0  0  0  0  0  0  0  0  0  0  0  0
  150.6612  138.2010  156.7090 C   0  0  1  0  0  0  0  0  0  0  0  0
  150.9569  139.4325  157.3594 O   0  0  0  0  0  0  0  0  0  0  0  0
  151.1813  140.5585  156.6503 C   0  0  0  0  0  0  0  0  0  0  0  0
  151.1085  140.6186  155.4214 O   0  0  0  0  0  0  0  0  0  0  0  0
  151.5199  141.7253  157.5148 C   0  0  0  0  0  0  0  0  0  0  0  0
  152.0856  141.5019  158.7918 C   0  0  0  0  0  0  0  0  0  0  0  0
  152.4185  142.5853  159.6281 C   0  0  0  0  0  0  0  0  0  0  0  0
  152.1912  143.9052  159.1969 C   0  0  0  0  0  0  0  0  0  0  0  0
  151.6292  144.1407  157.9287 C   0  0  0  0  0  0  0  0  0  0  0  0
  151.2941  143.0588  157.0916 C   0  0  0  0  0  0  0  0  0  0  0  0
  147.5688  134.8605  160.7059 C   0  0  0  0  0  0  0  0  0  0  0  0
  146.6943  134.7541  161.8125 C   0  0  0  0  0  0  0  0  0  0  0  0
  146.1799  133.5022  162.2022 C   0  0  0  0  0  0  0  0  0  0  0  0
  146.5328  132.3417  161.4891 C   0  0  0  0  0  0  0  0  0  0  0  0
  147.4004  132.4346  160.3853 C   0  0  0  0  0  0  0  0  0  0  0  0
  147.9163  133.6856  159.9943 C   0  0  0  0  0  0  0  0  0  0  0  0
  144.7559  136.8950  154.3469 H   0  0  0  0  0  0  0  0  0  0  0  0
  148.9759  138.1124  158.7654 H   0  0  0  0  0  0  0  0  0  0  0  0
  150.3694  137.6388  159.7258 H   0  0  0  0  0  0  0  0  0  0  0  0
  151.4768  136.6114  157.9238 H   0  0  0  0  0  0  0  0  0  0  0  0
  149.4201  136.2519  154.8733 H   0  0  0  0  0  0  0  0  0  0  0  0
  147.7502  135.1522  157.6938 H   0  0  0  0  0  0  0  0  0  0  0  0
  145.4384  134.6212  157.8527 H   0  0  0  0  0  0  0  0  0  0  0  0
  149.5108  138.6239  154.9057 H   0  0  0  0  0  0  0  0  0  0  0  0
  148.0882  138.4633  157.3386 H   0  0  0  0  0  0  0  0  0  0  0  0
  151.4785  137.9491  156.0306 H   0  0  0  0  0  0  0  0  0  0  0  0
  152.2705  140.4972  159.1442 H   0  0  0  0  0  0  0  0  0  0  0  0
  152.8497  142.4027  160.6014 H   0  0  0  0  0  0  0  0  0  0  0  0
  152.4478  144.7356  159.8379 H   0  0  0  0  0  0  0  0  0  0  0  0
  151.4549  145.1534  157.5955 H   0  0  0  0  0  0  0  0  0  0  0  0
  150.8653  143.2760  156.1241 H   0  0  0  0  0  0  0  0  0  0  0  0
  146.4095  135.6314  162.3757 H   0  0  0  0  0  0  0  0  0  0  0  0
  145.5142  133.4332  163.0501 H   0  0  0  0  0  0  0  0  0  0  0  0
  146.1387  131.3819  161.7884 H   0  0  0  0  0  0  0  0  0  0  0  0
  147.6715  131.5446  159.8365 H   0  0  0  0  0  0  0  0  0  0  0  0
  148.5777  133.7216  159.1408 H   0  0  0  0  0  0  0  0  0  0  0  0
  1  2  2  0  0  0  0
  2  3  1  0  0  0  0
  2 28  1  0  0  0  0
  3  4  1  0  0  0  0
  4  5  1  0  0  0  0
  4 35  1  0  0  0  0
  4 36  1  0  0  0  0
  5 18  1  0  0  0  0
  5  6  1  0  0  0  0
  5 37  1  0  0  0  0
  6  7  1  0  0  0  0
  7  8  1  0  0  0  0
  7 16  1  0  0  0  0
  7 38  1  0  0  0  0
  8 14  1  0  0  0  0
  8  9  1  0  0  0  0
  9 10  2  0  0  0  0
  9 39  1  0  0  0  0
 10 11  1  0  0  0  0
 10 40  1  0  0  0  0
 11 12  2  0  0  0  0
 11 13  1  0  0  0  0
 13 34  1  0  0  0  0
 13 14  1  0  0  0  0
 14 15  2  0  0  0  0
 16 17  1  0  0  0  0
 16 18  1  0  0  0  0
 16 41  1  0  0  0  0
 17 42  1  0  0  0  0
 18 19  1  0  0  0  0
 18 43  1  0  0  0  0
 19 20  1  0  0  0  0
 20 21  2  0  0  0  0
 20 22  1  0  0  0  0
 22 27  1  0  0  0  0
 22 23  2  0  0  0  0
 23 24  1  0  0  0  0
 23 44  1  0  0  0  0
 24 25  2  0  0  0  0
 24 45  1  0  0  0  0
 25 26  1  0  0  0  0
 25 46  1  0  0  0  0
 26 27  2  0  0  0  0
 26 47  1  0  0  0  0
 27 48  1  0  0  0  0
 28 33  1  0  0  0  0
 28 29  2  0  0  0  0
 29 30  1  0  0  0  0
 29 49  1  0  0  0  0
 30 31  2  0  0  0  0
 30 50  1  0  0  0  0
 31 32  1  0  0  0  0
 31 51  1  0  0  0  0
 32 33  2  0  0  0  0
 32 52  1  0  0  0  0
 33 53  1  0  0  0  0
M  END
> <s_m_source_file>
AV-unprocessed.smi

> <i_m_source_file_index>
99

> <i_lp_mmshare_version>
43012

> <i_f3d_flags>
0

> <s_epik_input>
W2NIXTFbY0hdW2NIXVtjSF1bY0hdYzFDKD1PKU9bQ0gyXVtDQEBIXTJPW0NAQEhdKG4zW2NIXVtjSF1jKD1PKVtuSF1jMz1PKVtDQEBIXShbT0hdKVtDQEhdMk9DKD1PKWM0W2NIXVtjSF1bY0hdW2NIXVtjSF00

> <s_epik_cmdline>
J2VwaWtfcHl0aG9uJywgJy1waCcsICc3LjAnLCAnLXRuJywgJzgnLCAnLW1hJywgJzIwMCcsICctbWV0YWxfYmluZGluZycsICctaW1hZScsICc8aW5maWxlLm1hZT4nLCAnLW9tYWUnLCAnPG91dGZpbGUubWFlPic=

> <r_lp_tautomer_probability>
1

> <r_epik_Ionization_Penalty>
0.00454555

> <r_epik_Ionization_Penalty_Charging>
0.0045191

> <r_epik_Ionization_Penalty_Neutral>
2.64449e-05

> <r_epik_State_Penalty>
-0

> <r_epik_Charging_Adjusted_Penalty>
0.0045191

> <i_epik_Tot_Q>
0

> <i_epik_Tot_abs_Q>
0

> <r_epik_Metal_State_Penalty>
1.27877

> <b_epik_Metal_Only>
0

> <s_epik_Chemistry_Notes>
This compound has an ester and may undergo hydrolysis at high or low pH. This compound contains an acetal/aminal-like group ( X-CH(R)-Y where X, Y are N, S, or O) that may be acid/base labile, releasing an aldehyde.

> <s_lp_Force_Field>
OPLS_2005

> <r_lp_Energy>
46.8901

> <b_lp_Chiralities_Consistent>
1

> <s_lp_Variant>
AV-unprocessed.smi:99-2

> <Gold.Version>
5.8.1

> <Gold.Id.Protein>
6NUR|6NUR_protein|mol2

> <Gold.PLP.Fitness>
49.5934

> <Gold.PLP.PLP>
-42.9731

> <Gold.PLP.part.hbond>
-3.6388

> <Gold.PLP.part.metal>
0.0000

> <Gold.PLP.part.buried>
-5.1790

> <Gold.PLP.part.nonpolar>
-34.1005

> <Gold.PLP.part.repulsive>
0.2030

> <Gold.PLP.ligand.clash>
0.0000

> <Gold.PLP.ligand.torsion>
0.6672

> <Gold.PLP.Chemscore.Hbond>
2.5760

> <Gold.PLP.Chemscore.CHOScore>
0.0000

> <Gold.PLP.Chemscore.Metal>
0.0000

> <Gold.Chemscore.Hbonds>
donor molecule, donor type, donor heavy atom, donor atom, acceptor molecule, acceptor atom, score
      P1  H  6931  6943       L1     1  0.82
      P1  H  6934  6947       L1     1  0.90
      P1  H  7989  7998       L1    21  0.86

> <Gold.PLP.Chemscore.Internal.Correction>
0.2266

> <Gold.Rescore>
     Score         DG    S(hbond)    S(metal)    S(lipo)     H(rot)  DE(clash)    DE(int)     intcor
     16.59     -19.01       2.53        0.00     113.21       3.19       0.10       2.32       ----

> <Gold.Chemscore.Fitness>
16.5883

> <Gold.Chemscore.DG>
-19.0076

> <Gold.Chemscore.ZeroCoef>
-5.4800

> <Gold.Chemscore.Hbond>
2.5297

> <Gold.Chemscore.Metal>
0.0000

> <Gold.Chemscore.Lipo>
113.2086

> <Gold.Chemscore.Internal_Hbond>
0.0000

> <Gold.Chemscore.DEClash>
0.1003

> <Gold.Chemscore.DEInternal>
2.3190

> <Gold.Chemscore.Rot>
3.1903

> <Gold.Chemscore.Internal.Correction>
   9.000000E+99

> <Gold.Chemscore.Hbonds>
donor molecule, donor type, donor heavy atom, donor atom, acceptor molecule, acceptor atom, score
      P1  H  6931  6943       L1     1  0.75
      P1  H  6934  6947       L1     1  0.88
      P1  H  7989  7998       L1    21  0.82

> <Gold.Chemscore.Hbond.Weighted>
-8.4493

> <Gold.Chemscore.Metal.Weighted>
-0.0000

> <Gold.Chemscore.Lipo.Weighted>
-13.2454

> <Gold.Chemscore.Internal_Hbond.Weighted>
0.0000

> <Gold.Chemscore.DEClash.Weighted>
0.1003

> <Gold.Chemscore.DEInternal.Weighted>
2.3190

> <Gold.Chemscore.Rot.Weighted>
8.1671

> <Gold.Chemscore.Internal.Correction.Weighted>
   9.000000E+99

> <Gold.Protein.RotatedTorsions>
[ 6907 6896 6895 6894 ] final  134.75 input  -60.11 | X-H torsion
[ 7974 7965 7964 7962 ] final -156.98 input  175.53 | X-H torsion
[ 8008 7997 7996 7995 ] final -164.52 input   59.86 | X-H torsion
[ 10167 10162 10161 10158 ] final -159.71 input  -65.29 | X-H torsion
[ 10718 10713 10712 10709 ] final  128.42 input   66.30 | X-H torsion
[ 10763 10752 10751 10750 ] final  -68.20 input  -60.55 | X-H torsion
[ 11005 11000 10999 10996 ] final   57.75 input  -57.11 | X-H torsion

> <Gold.Protein.ActiveResidues>
 VAL166  LYS551  ARG553  GLY616  TRP617  ASP618  TYR619  PRO620  LYS621  CYS622 
 ASP623  PHE694  ASN695  SER759  ASP760  ASP761  ALA762  ILE779  LEU786  VAL792 
 PHE793  MET794  SER795  GLU796  ALA797  LYS798  CYS799  TRP800  GLU811  SER814 

> <Gold.Protein.RotatedAtoms>
  152.3079  133.5722  159.5661 H   0  0  0  0  0  0  0  0  0  0  0  0  # atno 6907 bound_to 6896
  150.7308  134.0195  159.3705 H   0  0  0  0  0  0  0  0  0  0  0  0  # atno 6908 bound_to 6896
  151.8090  135.0687  160.0461 H   0  0  0  0  0  0  0  0  0  0  0  0  # atno 6909 bound_to 6896
  144.7569  140.4034  143.6006 H   0  0  0  0  0  0  0  0  0  0  0  0  # atno 7974 bound_to 7965
  155.8368  140.0942  157.1759 H   0  0  0  0  0  0  0  0  0  0  0  0  # atno 8008 bound_to 7997
  154.3981  140.1408  156.3741 H   0  0  0  0  0  0  0  0  0  0  0  0  # atno 8009 bound_to 7997
  155.8107  140.3450  155.5459 H   0  0  0  0  0  0  0  0  0  0  0  0  # atno 8010 bound_to 7997
  139.6594  143.9940  152.2215 H   0  0  0  0  0  0  0  0  0  0  0  0  # atno 10167 bound_to 10162
  157.5246  131.1098  150.9102 H   0  0  0  0  0  0  0  0  0  0  0  0  # atno 10718 bound_to 10713
  154.3856  135.6064  153.5814 H   0  0  0  0  0  0  0  0  0  0  0  0  # atno 10763 bound_to 10752
  152.9788  135.5871  154.4359 H   0  0  0  0  0  0  0  0  0  0  0  0  # atno 10764 bound_to 10752
  154.4135  135.2844  155.1999 H   0  0  0  0  0  0  0  0  0  0  0  0  # atno 10765 bound_to 10752
  140.0429  134.5847  155.9359 H   0  0  0  0  0  0  0  0  0  0  0  0  # atno 11005 bound_to 11000
  145.6750  139.1607  143.2733 LP  0  0  0  0  0  0  0  0  0  0  0  0  # atno 17320 bound_to 7965
  146.1589  140.6818  142.9287 LP  0  0  0  0  0  0  0  0  0  0  0  0  # atno 17321 bound_to 7965
  139.9675  144.6516  150.8021 LP  0  0  0  0  0  0  0  0  0  0  0  0  # atno 17342 bound_to 10162
  140.7573  143.3084  151.2905 LP  0  0  0  0  0  0  0  0  0  0  0  0  # atno 17343 bound_to 10162
  156.9702  130.5488  149.5290 LP  0  0  0  0  0  0  0  0  0  0  0  0  # atno 17370 bound_to 10713
  156.0378  130.5464  150.8696 LP  0  0  0  0  0  0  0  0  0  0  0  0  # atno 17371 bound_to 10713
  141.1892  133.6565  156.5358 LP  0  0  0  0  0  0  0  0  0  0  0  0  # atno 17394 bound_to 11000
  140.4040  134.7331  157.4797 LP  0  0  0  0  0  0  0  0  0  0  0  0  # atno 17395 bound_to 11000

$$$$
