AV-unprocessed.smi:1066|AV-procd|sdf|4669|dock10
  -GOLD-   22720 3183D 1   1.00000     0.00000
 Structure written by MMmdl.
 38 40  0  0  0  0  0  0  0  0  2 V2000
  151.0493  137.1379  156.5362 C   0  0  0  0  0  0  0  0  0  0  0  0
  152.2420  136.9829  157.4358 C   0  0  0  0  0  0  0  0  0  0  0  0
  153.0691  135.9646  157.2396 N   0  0  0  0  0  0  0  0  0  0  0  0
  154.0646  136.0696  158.2178 O   0  0  0  0  0  0  0  0  0  0  0  0
  153.7768  137.1635  158.9589 C   0  0  0  0  0  0  0  0  0  0  0  0
  154.7434  137.6497  160.2950 Cl  0  0  0  0  0  0  0  0  0  0  0  0
  152.6450  137.7982  158.5347 C   0  0  0  0  0  0  0  0  0  0  0  0
  151.9779  139.0340  159.0845 C   0  0  0  0  0  0  0  0  0  0  0  0
  151.7317  140.0292  157.9512 C   0  0  0  0  0  0  0  0  0  0  0  0
  152.6785  140.4699  157.3005 O   0  0  0  0  0  0  0  0  0  0  0  0
  150.4542  140.3662  157.7170 N   0  0  0  0  0  0  0  0  0  0  0  0
  150.0114  141.2535  156.6482 C   0  0  1  0  0  0  0  0  0  0  0  0
  150.1965  140.6831  155.2393 C   0  0  0  0  0  0  0  0  0  0  0  0
  149.0600  141.3106  154.4148 C   0  0  0  0  0  0  0  0  0  0  0  0
  148.1752  142.0176  155.3698 N   0  3  1  0  0  0  0  0  0  0  0  0
  146.7378  141.9439  155.0333 C   0  0  0  0  0  0  0  0  0  0  0  0
  146.3071  142.9598  154.0025 C   0  0  0  0  0  0  0  0  0  0  0  0
  145.9535  143.1615  155.4599 C   0  0  0  0  0  0  0  0  0  0  0  0
  148.5082  141.5064  156.7111 C   0  0  0  0  0  0  0  0  0  0  0  0
  150.4180  137.9701  156.8472 H   0  0  0  0  0  0  0  0  0  0  0  0
  150.4328  136.2388  156.5440 H   0  0  0  0  0  0  0  0  0  0  0  0
  151.3568  137.3227  155.5068 H   0  0  0  0  0  0  0  0  0  0  0  0
  151.0269  138.7986  159.5639 H   0  0  0  0  0  0  0  0  0  0  0  0
  152.5913  139.5070  159.8521 H   0  0  0  0  0  0  0  0  0  0  0  0
  149.7410  139.9582  158.3045 H   0  0  0  0  0  0  0  0  0  0  0  0
  150.5328  142.2101  156.7240 H   0  0  0  0  0  0  0  0  0  0  0  0
  151.1821  140.9070  154.8298 H   0  0  0  0  0  0  0  0  0  0  0  0
  150.0820  139.5978  155.2491 H   0  0  0  0  0  0  0  0  0  0  0  0
  149.4404  142.0220  153.6813 H   0  0  0  0  0  0  0  0  0  0  0  0
  148.5178  140.5337  153.8733 H   0  0  0  0  0  0  0  0  0  0  0  0
  146.2829  140.9551  155.0570 H   0  0  0  0  0  0  0  0  0  0  0  0
  147.0654  143.6131  153.5741 H   0  0  0  0  0  0  0  0  0  0  0  0
  145.5002  142.6801  153.3281 H   0  0  0  0  0  0  0  0  0  0  0  0
  144.9135  143.0144  155.7444 H   0  0  0  0  0  0  0  0  0  0  0  0
  146.4765  143.9494  155.9996 H   0  0  0  0  0  0  0  0  0  0  0  0
  147.9697  140.5743  156.8947 H   0  0  0  0  0  0  0  0  0  0  0  0
  148.2345  142.2181  157.4910 H   0  0  0  0  0  0  0  0  0  0  0  0
  148.4503  142.9894  155.3546 H   0  0  0  0  0  0  0  0  0  0  0  0
  1  2  1  0  0  0  0
  1 20  1  0  0  0  0
  1 21  1  0  0  0  0
  1 22  1  0  0  0  0
  2  7  1  0  0  0  0
  2  3  2  0  0  0  0
  3  4  1  0  0  0  0
  4  5  1  0  0  0  0
  5  6  1  0  0  0  0
  5  7  2  0  0  0  0
  7  8  1  0  0  0  0
  8  9  1  0  0  0  0
  8 23  1  0  0  0  0
  8 24  1  0  0  0  0
  9 10  2  0  0  0  0
  9 11  1  0  0  0  0
 11 12  1  0  0  0  0
 11 25  1  0  0  0  0
 12 19  1  0  0  0  0
 12 13  1  0  0  0  0
 12 26  1  0  0  0  0
 13 14  1  0  0  0  0
 13 27  1  0  0  0  0
 13 28  1  0  0  0  0
 14 15  1  0  0  0  0
 14 29  1  0  0  0  0
 14 30  1  0  0  0  0
 15 16  1  0  0  0  0
 15 19  1  0  0  0  0
 15 38  1  0  0  0  0
 16 18  1  0  0  0  0
 16 17  1  0  0  0  0
 16 31  1  0  0  0  0
 17 18  1  0  0  0  0
 17 32  1  0  0  0  0
 17 33  1  0  0  0  0
 18 34  1  0  0  0  0
 18 35  1  0  0  0  0
 19 36  1  0  0  0  0
 19 37  1  0  0  0  0
M  CHG  1  15   1
M  END
> <s_m_source_file>
AV-unprocessed.smi

> <i_m_source_file_index>
1066

> <i_lp_mmshare_version>
43012

> <i_f3d_flags>
0

> <s_epik_input>
W0NIM11jMW5vYyhDbCljMVtDSDJdQyg9TylbTkhdW0NAQEhdMltDSDJdW0NIMl1OKFtDSDJdMilbQ0hdM1tDSDJdW0NIMl0z

> <s_epik_cmdline>
J2VwaWtfcHl0aG9uJywgJy1waCcsICc3LjAnLCAnLXRuJywgJzgnLCAnLW1hJywgJzIwMCcsICctbWV0YWxfYmluZGluZycsICctaW1hZScsICc8aW5maWxlLm1hZT4nLCAnLW9tYWUnLCAnPG91dGZpbGUubWFlPic=

> <r_epik_Ionization_Penalty>
0.00108138

> <r_epik_Ionization_Penalty_Charging>
0.00108128

> <r_epik_Ionization_Penalty_Neutral>
9.66632e-08

> <r_epik_State_Penalty>
0.000708577

> <r_epik_Charging_Adjusted_Penalty>
0.00178986

> <i_epik_Tot_Q>
1

> <i_epik_Tot_abs_Q>
1

> <r_epik_Metal_State_Penalty>
-0

> <b_epik_Metal_Only>
0

> <s_lp_Force_Field>
OPLS_2005

> <r_lp_Energy>
30.6816

> <b_lp_Chiralities_Consistent>
1

> <s_lp_Variant>
AV-unprocessed.smi:1066-2

> <Gold.Version>
5.8.1

> <Gold.Id.Protein>
6NUR|6NUR_protein|mol2

> <Gold.PLP.Fitness>
39.8222

> <Gold.PLP.PLP>
-28.0450

> <Gold.PLP.part.hbond>
-3.2033

> <Gold.PLP.part.metal>
0.0000

> <Gold.PLP.part.buried>
-3.5262

> <Gold.PLP.part.nonpolar>
-20.0209

> <Gold.PLP.part.repulsive>
0.1991

> <Gold.PLP.ligand.clash>
0.0000

> <Gold.PLP.ligand.torsion>
0.7327

> <Gold.PLP.Chemscore.Hbond>
3.9920

> <Gold.PLP.Chemscore.CHOScore>
0.0000

> <Gold.PLP.Chemscore.Metal>
0.0000

> <Gold.Chemscore.Hbonds>
donor molecule, donor type, donor heavy atom, donor atom, acceptor molecule, acceptor atom, score
      L1  H    15    38       P1  8028  2.00
      P1  H  7997  8010       L1    10  0.86
      P1  H 10752 10765       L1     3  0.93

> <Gold.PLP.Chemscore.Internal.Correction>
1.2667

> <Gold.Rescore>
     Score         DG    S(hbond)    S(metal)    S(lipo)     H(rot)  DE(clash)    DE(int)     intcor
     17.99     -18.91       2.91        0.00      66.01       1.57       0.11       0.81       ----

> <Gold.Chemscore.Fitness>
17.9943

> <Gold.Chemscore.DG>
-18.9118

> <Gold.Chemscore.ZeroCoef>
-5.4800

> <Gold.Chemscore.Hbond>
2.9134

> <Gold.Chemscore.Metal>
0.0000

> <Gold.Chemscore.Lipo>
66.0096

> <Gold.Chemscore.Internal_Hbond>
0.0000

> <Gold.Chemscore.DEClash>
0.1125

> <Gold.Chemscore.DEInternal>
0.8051

> <Gold.Chemscore.Rot>
1.5711

> <Gold.Chemscore.Internal.Correction>
   9.000000E+99

> <Gold.Chemscore.Hbonds>
donor molecule, donor type, donor heavy atom, donor atom, acceptor molecule, acceptor atom, score
      L1  H    15    38       P1  8028  1.00
      P1  H  7997  8010       L1    10  0.85
      P1  H 10752 10765       L1     3  0.78

> <Gold.Chemscore.Hbond.Weighted>
-9.7308

> <Gold.Chemscore.Metal.Weighted>
-0.0000

> <Gold.Chemscore.Lipo.Weighted>
-7.7231

> <Gold.Chemscore.Internal_Hbond.Weighted>
0.0000

> <Gold.Chemscore.DEClash.Weighted>
0.1125

> <Gold.Chemscore.DEInternal.Weighted>
0.8051

> <Gold.Chemscore.Rot.Weighted>
4.0221

> <Gold.Chemscore.Internal.Correction.Weighted>
   9.000000E+99

> <Gold.Protein.RotatedTorsions>
[ 6907 6896 6895 6894 ] final  112.70 input  -60.11 | X-H torsion
[ 7974 7965 7964 7962 ] final  120.12 input  175.53 | X-H torsion
[ 8008 7997 7996 7995 ] final   55.84 input   59.86 | X-H torsion
[ 10167 10162 10161 10158 ] final  155.11 input  -65.29 | X-H torsion
[ 10718 10713 10712 10709 ] final  102.70 input   66.30 | X-H torsion
[ 10763 10752 10751 10750 ] final -108.23 input  -60.55 | X-H torsion
[ 11005 11000 10999 10996 ] final  113.00 input  -57.11 | X-H torsion

> <Gold.Protein.ActiveResidues>
 VAL166  LYS551  ARG553  GLY616  TRP617  ASP618  TYR619  PRO620  LYS621  CYS622 
 ASP623  PHE694  ASN695  SER759  ASP760  ASP761  ALA762  ILE779  LEU786  VAL792 
 PHE793  MET794  SER795  GLU796  ALA797  LYS798  CYS799  TRP800  GLU811  SER814 

> <Gold.Protein.RotatedAtoms>
  152.4902  133.8479  159.7185 H   0  0  0  0  0  0  0  0  0  0  0  0  # atno 6907 bound_to 6896
  150.9024  133.7092  159.2882 H   0  0  0  0  0  0  0  0  0  0  0  0  # atno 6908 bound_to 6896
  151.4529  135.1035  159.9755 H   0  0  0  0  0  0  0  0  0  0  0  0  # atno 6909 bound_to 6896
  145.1350  139.3303  143.4645 H   0  0  0  0  0  0  0  0  0  0  0  0  # atno 7974 bound_to 7965
  155.5077  140.3476  155.4382 H   0  0  0  0  0  0  0  0  0  0  0  0  # atno 8008 bound_to 7997
  156.0870  140.1401  156.9667 H   0  0  0  0  0  0  0  0  0  0  0  0  # atno 8009 bound_to 7997
  154.4613  140.0934  156.6876 H   0  0  0  0  0  0  0  0  0  0  0  0  # atno 8010 bound_to 7997
  139.4822  144.5127  151.7999 H   0  0  0  0  0  0  0  0  0  0  0  0  # atno 10167 bound_to 10162
  157.6794  131.0760  150.5444 H   0  0  0  0  0  0  0  0  0  0  0  0  # atno 10718 bound_to 10713
  154.8123  135.4645  154.0550 H   0  0  0  0  0  0  0  0  0  0  0  0  # atno 10763 bound_to 10752
  153.1970  135.6863  153.8285 H   0  0  0  0  0  0  0  0  0  0  0  0  # atno 10764 bound_to 10752
  153.7783  135.3260  155.3339 H   0  0  0  0  0  0  0  0  0  0  0  0  # atno 10765 bound_to 10752
  139.8941  134.9541  156.6672 H   0  0  0  0  0  0  0  0  0  0  0  0  # atno 11005 bound_to 11000
  146.3510  140.1364  142.8595 LP  0  0  0  0  0  0  0  0  0  0  0  0  # atno 17320 bound_to 7965
  145.0594  140.9076  143.4948 LP  0  0  0  0  0  0  0  0  0  0  0  0  # atno 17321 bound_to 7965
  140.4632  144.1692  150.5908 LP  0  0  0  0  0  0  0  0  0  0  0  0  # atno 17342 bound_to 10162
  140.4462  143.2505  151.9408 LP  0  0  0  0  0  0  0  0  0  0  0  0  # atno 17343 bound_to 10162
  156.5750  130.4289  149.6002 LP  0  0  0  0  0  0  0  0  0  0  0  0  # atno 17370 bound_to 10713
  156.2709  130.7016  151.1813 LP  0  0  0  0  0  0  0  0  0  0  0  0  # atno 17371 bound_to 10713
  140.7401  133.8985  155.8272 LP  0  0  0  0  0  0  0  0  0  0  0  0  # atno 17394 bound_to 11000
  141.0084  134.1054  157.4246 LP  0  0  0  0  0  0  0  0  0  0  0  0  # atno 17395 bound_to 11000

$$$$
