AV-unprocessed.smi:435|AV-procd|sdf|2556|dock6
  -GOLD-   2262022523D 1   1.00000     0.00000
 Structure written by MMmdl.
 44 45  0  0  0  0  0  0  0  0  1 V2000
  146.4956  137.9407  155.5502 C   0  0  0  0  0  0  0  0  0  0  0  0
  147.9614  137.6376  155.3931 C   0  0  0  0  0  0  0  0  0  0  0  0
  148.2772  136.4053  155.1645 N   0  0  0  0  0  0  0  0  0  0  0  0
  149.5934  136.0175  155.0047 N   0  0  0  0  0  0  0  0  0  0  0  0
  149.7670  134.5839  154.7269 C   0  0  0  0  0  0  0  0  0  0  0  0
  148.4624  133.8761  154.3318 C   0  0  0  0  0  0  0  0  0  0  0  0
  148.0284  132.9339  154.9964 O   0  0  0  0  0  0  0  0  0  0  0  0
  147.8572  134.3366  153.2265 N   0  0  0  0  0  0  0  0  0  0  0  0
  146.6092  133.8234  152.6699 C   0  0  2  0  0  0  0  0  0  0  0  0
  146.8889  132.7968  151.5538 C   0  0  0  0  0  0  0  0  0  0  0  0
  145.5859  132.3054  150.9028 C   0  0  0  0  0  0  0  0  0  0  0  0
  144.7443  133.4764  150.3609 C   0  0  1  0  0  0  0  0  0  0  0  0
  143.4426  132.9812  149.7151 C   0  0  0  0  0  0  0  0  0  0  0  0
  144.4653  134.4977  151.4799 C   0  0  0  0  0  0  0  0  0  0  0  0
  145.7665  134.9935  152.1311 C   0  0  0  0  0  0  0  0  0  0  0  0
  150.6659  136.8569  155.0876 C   0  0  0  0  0  0  0  0  0  0  0  0
  151.8263  136.4642  154.9571 O   0  0  0  0  0  0  0  0  0  0  0  0
  150.3004  138.2522  155.3412 C   0  0  0  0  0  0  0  0  0  0  0  0
  151.3930  139.1666  155.4266 C   0  0  0  0  0  0  0  0  0  0  0  0
  152.2913  139.8942  155.4867 N   0  0  0  0  0  0  0  0  0  0  0  0
  149.0110  138.6479  155.4850 C   0  0  0  0  0  0  0  0  0  0  0  0
  148.5819  140.0845  155.7513 C   0  0  0  0  0  0  0  0  0  0  0  0
  146.3070  138.4776  156.4799 H   0  0  0  0  0  0  0  0  0  0  0  0
  145.8925  137.0318  155.5694 H   0  0  0  0  0  0  0  0  0  0  0  0
  146.1386  138.5565  154.7249 H   0  0  0  0  0  0  0  0  0  0  0  0
  150.5100  134.4464  153.9390 H   0  0  0  0  0  0  0  0  0  0  0  0
  150.1732  134.0753  155.6030 H   0  0  0  0  0  0  0  0  0  0  0  0
  148.2883  135.1085  152.7384 H   0  0  0  0  0  0  0  0  0  0  0  0
  146.0415  133.3356  153.4648 H   0  0  0  0  0  0  0  0  0  0  0  0
  147.5276  133.2444  150.7911 H   0  0  0  0  0  0  0  0  0  0  0  0
  147.4383  131.9437  151.9537 H   0  0  0  0  0  0  0  0  0  0  0  0
  145.8213  131.6103  150.0961 H   0  0  0  0  0  0  0  0  0  0  0  0
  145.0060  131.7420  151.6352 H   0  0  0  0  0  0  0  0  0  0  0  0
  145.3254  133.9776  149.5853 H   0  0  0  0  0  0  0  0  0  0  0  0
  142.8097  132.4687  150.4401 H   0  0  0  0  0  0  0  0  0  0  0  0
  143.6477  132.2849  148.9014 H   0  0  0  0  0  0  0  0  0  0  0  0
  142.8698  133.8112  149.3010 H   0  0  0  0  0  0  0  0  0  0  0  0
  143.9117  135.3477  151.0796 H   0  0  0  0  0  0  0  0  0  0  0  0
  143.8283  134.0461  152.2417 H   0  0  0  0  0  0  0  0  0  0  0  0
  145.5299  135.6866  152.9393 H   0  0  0  0  0  0  0  0  0  0  0  0
  146.3435  135.5592  151.3981 H   0  0  0  0  0  0  0  0  0  0  0  0
  149.4077  140.7867  155.6412 H   0  0  0  0  0  0  0  0  0  0  0  0
  148.1955  140.1821  156.7660 H   0  0  0  0  0  0  0  0  0  0  0  0
  147.8024  140.3938  155.0546 H   0  0  0  0  0  0  0  0  0  0  0  0
  1  2  1  0  0  0  0
  1 23  1  0  0  0  0
  1 24  1  0  0  0  0
  1 25  1  0  0  0  0
  2 21  1  0  0  0  0
  2  3  2  0  0  0  0
  3  4  1  0  0  0  0
  4  5  1  0  0  0  0
  4 16  1  0  0  0  0
  5  6  1  0  0  0  0
  5 26  1  0  0  0  0
  5 27  1  0  0  0  0
  6  7  2  0  0  0  0
  6  8  1  0  0  0  0
  8  9  1  0  0  0  0
  8 28  1  0  0  0  0
  9 15  1  0  0  0  0
  9 10  1  0  0  0  0
  9 29  1  0  0  0  0
 10 11  1  0  0  0  0
 10 30  1  0  0  0  0
 10 31  1  0  0  0  0
 11 12  1  0  0  0  0
 11 32  1  0  0  0  0
 11 33  1  0  0  0  0
 12 13  1  0  0  0  0
 12 14  1  0  0  0  0
 12 34  1  0  0  0  0
 13 35  1  0  0  0  0
 13 36  1  0  0  0  0
 13 37  1  0  0  0  0
 14 15  1  0  0  0  0
 14 38  1  0  0  0  0
 14 39  1  0  0  0  0
 15 40  1  0  0  0  0
 15 41  1  0  0  0  0
 16 17  2  0  0  0  0
 16 18  1  0  0  0  0
 18 19  1  0  0  0  0
 18 21  2  0  0  0  0
 19 20  3  0  0  0  0
 21 22  1  0  0  0  0
 22 42  1  0  0  0  0
 22 43  1  0  0  0  0
 22 44  1  0  0  0  0
M  END
> <s_m_source_file>
AV-unprocessed.smi

> <i_m_source_file_index>
435

> <i_lp_mmshare_version>
43012

> <i_f3d_flags>
0

> <s_epik_input>
TiNDYyhjMVtDSDNdKWMoPU8pbihuYzFbQ0gzXSlbQ0gyXUMoPU8pW05IXVtDQEBIXTJbQ0gyXVtDSDJdW0NAQEhdKFtDSDNdKVtDSDJdW0NIMl0y

> <s_epik_cmdline>
J2VwaWtfcHl0aG9uJywgJy1waCcsICc3LjAnLCAnLXRuJywgJzgnLCAnLW1hJywgJzIwMCcsICctbWV0YWxfYmluZGluZycsICctaW1hZScsICc8aW5maWxlLm1hZT4nLCAnLW9tYWUnLCAnPG91dGZpbGUubWFlPic=

> <r_lp_tautomer_probability>
1

> <r_epik_Ionization_Penalty>
1.90703e-08

> <r_epik_Ionization_Penalty_Charging>
2.32563e-11

> <r_epik_Ionization_Penalty_Neutral>
1.90471e-08

> <r_epik_State_Penalty>
-0

> <r_epik_Charging_Adjusted_Penalty>
2.32563e-11

> <i_epik_Tot_Q>
0

> <i_epik_Tot_abs_Q>
0

> <r_epik_Metal_State_Penalty>
-0

> <b_epik_Metal_Only>
0

> <s_lp_Force_Field>
OPLS_2005

> <r_lp_Energy>
23.1706

> <b_lp_Chiralities_Consistent>
1

> <s_lp_Variant>
AV-unprocessed.smi:435-1

> <Gold.Version>
5.8.1

> <Gold.Id.Protein>
6NUR|6NUR_protein|mol2

> <Gold.PLP.Fitness>
44.5900

> <Gold.PLP.PLP>
-36.5755

> <Gold.PLP.part.hbond>
-3.9730

> <Gold.PLP.part.metal>
0.0000

> <Gold.PLP.part.buried>
-4.7922

> <Gold.PLP.part.nonpolar>
-29.6885

> <Gold.PLP.part.repulsive>
0.6718

> <Gold.PLP.ligand.clash>
0.0000

> <Gold.PLP.ligand.torsion>
0.4948

> <Gold.PLP.Chemscore.Hbond>
3.0000

> <Gold.PLP.Chemscore.CHOScore>
0.0000

> <Gold.PLP.Chemscore.Metal>
0.0000

> <Gold.Chemscore.Hbonds>
donor molecule, donor type, donor heavy atom, donor atom, acceptor molecule, acceptor atom, score
      L1  H     8    28       P1  7948  1.00
      P1  H  7989  7998       L1    20  0.14
      P1  H  7997  8008       L1    20  0.59
      P1  H 10752 10765       L1    17  0.81

> <Gold.PLP.Chemscore.Internal.Correction>
0.0041

> <Gold.Rescore>
     Score         DG    S(hbond)    S(metal)    S(lipo)     H(rot)  DE(clash)    DE(int)     intcor
     18.97     -19.30       2.68        0.00      73.54       1.46       0.12       0.21       ----

> <Gold.Chemscore.Fitness>
18.9735

> <Gold.Chemscore.DG>
-19.2990

> <Gold.Chemscore.ZeroCoef>
-5.4800

> <Gold.Chemscore.Hbond>
2.6815

> <Gold.Chemscore.Metal>
0.0000

> <Gold.Chemscore.Lipo>
73.5382

> <Gold.Chemscore.Internal_Hbond>
0.0000

> <Gold.Chemscore.DEClash>
0.1166

> <Gold.Chemscore.DEInternal>
0.2089

> <Gold.Chemscore.Rot>
1.4615

> <Gold.Chemscore.Internal.Correction>
   9.000000E+99

> <Gold.Chemscore.Hbonds>
donor molecule, donor type, donor heavy atom, donor atom, acceptor molecule, acceptor atom, score
      L1  H     8    28       P1  7948  0.81
      P1  H  7989  7998       L1    20  0.01
      P1  H  7997  8008       L1    20  0.58
      P1  H 10752 10765       L1    17  0.80

> <Gold.Chemscore.Hbond.Weighted>
-8.9564

> <Gold.Chemscore.Metal.Weighted>
-0.0000

> <Gold.Chemscore.Lipo.Weighted>
-8.6040

> <Gold.Chemscore.Internal_Hbond.Weighted>
0.0000

> <Gold.Chemscore.DEClash.Weighted>
0.1166

> <Gold.Chemscore.DEInternal.Weighted>
0.2089

> <Gold.Chemscore.Rot.Weighted>
3.7414

> <Gold.Chemscore.Internal.Correction.Weighted>
   9.000000E+99

> <Gold.Protein.RotatedTorsions>
[ 6907 6896 6895 6894 ] final  125.44 input  -60.11 | X-H torsion
[ 7974 7965 7964 7962 ] final  133.10 input  175.53 | X-H torsion
[ 8008 7997 7996 7995 ] final  -19.89 input   59.86 | X-H torsion
[ 10167 10162 10161 10158 ] final  -16.98 input  -65.29 | X-H torsion
[ 10718 10713 10712 10709 ] final  114.03 input   66.30 | X-H torsion
[ 10763 10752 10751 10750 ] final  178.76 input  -60.55 | X-H torsion
[ 11005 11000 10999 10996 ] final   38.18 input  -57.11 | X-H torsion

> <Gold.Protein.ActiveResidues>
 VAL166  LYS551  ARG553  GLY616  TRP617  ASP618  TYR619  PRO620  LYS621  CYS622 
 ASP623  PHE694  ASN695  SER759  ASP760  ASP761  ALA762  ILE779  LEU786  VAL792 
 PHE793  MET794  SER795  GLU796  ALA797  LYS798  CYS799  TRP800  GLU811  SER814 

> <Gold.Protein.RotatedAtoms>
  152.3991  133.6791  159.6301 H   0  0  0  0  0  0  0  0  0  0  0  0  # atno 6907 bound_to 6896
  150.7885  133.8822  159.3298 H   0  0  0  0  0  0  0  0  0  0  0  0  # atno 6908 bound_to 6896
  151.6591  135.0993  160.0227 H   0  0  0  0  0  0  0  0  0  0  0  0  # atno 6909 bound_to 6896
  144.9900  139.4416  143.5344 H   0  0  0  0  0  0  0  0  0  0  0  0  # atno 7974 bound_to 7965
  154.4806  140.2076  155.9773 H   0  0  0  0  0  0  0  0  0  0  0  0  # atno 8008 bound_to 7997
  156.1159  140.3221  155.8108 H   0  0  0  0  0  0  0  0  0  0  0  0  # atno 8009 bound_to 7997
  155.4553  140.0520  157.2987 H   0  0  0  0  0  0  0  0  0  0  0  0  # atno 8010 bound_to 7997
  140.7241  143.5061  150.9808 H   0  0  0  0  0  0  0  0  0  0  0  0  # atno 10167 bound_to 10162
  157.6305  131.0992  150.7126 H   0  0  0  0  0  0  0  0  0  0  0  0  # atno 10718 bound_to 10713
  154.5118  135.2789  155.1336 H   0  0  0  0  0  0  0  0  0  0  0  0  # atno 10763 bound_to 10752
  154.2928  135.6263  153.5396 H   0  0  0  0  0  0  0  0  0  0  0  0  # atno 10764 bound_to 10752
  152.9920  135.5678  154.5586 H   0  0  0  0  0  0  0  0  0  0  0  0  # atno 10765 bound_to 10752
  140.2151  134.3708  155.8030 H   0  0  0  0  0  0  0  0  0  0  0  0  # atno 11005 bound_to 11000
  146.3429  139.9226  142.8764 LP  0  0  0  0  0  0  0  0  0  0  0  0  # atno 17320 bound_to 7965
  145.2299  140.9969  143.3997 LP  0  0  0  0  0  0  0  0  0  0  0  0  # atno 17321 bound_to 7965
  139.8773  143.7116  152.3160 LP  0  0  0  0  0  0  0  0  0  0  0  0  # atno 17342 bound_to 10162
  139.7386  144.7565  151.0688 LP  0  0  0  0  0  0  0  0  0  0  0  0  # atno 17343 bound_to 10162
  156.7467  130.4756  149.5465 LP  0  0  0  0  0  0  0  0  0  0  0  0  # atno 17370 bound_to 10713
  156.1505  130.6306  151.0589 LP  0  0  0  0  0  0  0  0  0  0  0  0  # atno 17371 bound_to 10713
  141.2225  133.7164  156.8483 LP  0  0  0  0  0  0  0  0  0  0  0  0  # atno 17394 bound_to 11000
  140.1909  134.8966  157.3059 LP  0  0  0  0  0  0  0  0  0  0  0  0  # atno 17395 bound_to 11000

$$$$
