AV-unprocessed.smi:2083|AV-procd|sdf|8497|dock7
  -GOLD-   2272011203D 1   1.00000     0.00000
 Structure written by MMmdl.
 45 46  0  0  0  0  0  0  0  0  2 V2000
  153.6336  137.4858  156.7526 C   0  0  0  0  0  0  0  0  0  0  0  0
  152.6697  138.2002  155.8687 C   0  0  0  0  0  0  0  0  0  0  0  0
  151.5477  137.7987  155.1998 C   0  0  0  0  0  0  0  0  0  0  0  0
  151.1218  138.9863  154.5480 C   0  0  0  0  0  0  0  0  0  0  0  0
  149.9636  138.9911  153.7299 N   0  0  0  0  0  0  0  0  0  0  0  0
  148.7026  138.7025  154.0939 C   0  0  0  0  0  0  0  0  0  0  0  0
  148.3473  138.3779  155.2271 O   0  0  0  0  0  0  0  0  0  0  0  0
  147.8593  138.8088  153.0561 N   0  0  0  0  0  0  0  0  0  0  0  0
  146.4133  138.6051  153.1123 C   0  0  0  0  0  0  0  0  0  0  0  0
  145.8835  137.7062  151.9606 C   0  0  1  0  0  0  0  0  0  0  0  0
  146.3462  138.2448  150.5883 C   0  0  0  0  0  0  0  0  0  0  0  0
  146.2609  136.2582  152.0821 N   0  3  2  0  0  0  0  0  0  0  0  0
  145.6422  135.4309  151.0067 C   0  0  0  0  0  0  0  0  0  0  0  0
  146.1944  133.9983  151.0053 C   0  0  0  0  0  0  0  0  0  0  0  0
  145.9636  133.3298  152.3631 C   0  0  0  0  0  0  0  0  0  0  0  0
  146.5828  134.1853  153.4777 C   0  0  2  0  0  0  0  0  0  0  0  0
  146.3517  133.5550  154.8586 C   0  0  0  0  0  0  0  0  0  0  0  0
  146.0431  135.6303  153.4195 C   0  0  0  0  0  0  0  0  0  0  0  0
  151.9101  140.0204  154.7984 N   0  0  0  0  0  0  0  0  0  0  0  0
  152.9067  139.5215  155.6458 O   0  0  0  0  0  0  0  0  0  0  0  0
  153.2389  136.5155  157.0551 H   0  0  0  0  0  0  0  0  0  0  0  0
  153.8351  138.0641  157.6545 H   0  0  0  0  0  0  0  0  0  0  0  0
  154.5797  137.3204  156.2373 H   0  0  0  0  0  0  0  0  0  0  0  0
  151.1075  136.8128  155.1805 H   0  0  0  0  0  0  0  0  0  0  0  0
  150.1118  139.2478  152.7653 H   0  0  0  0  0  0  0  0  0  0  0  0
  148.2440  139.0770  152.1620 H   0  0  0  0  0  0  0  0  0  0  0  0
  146.1171  138.1986  154.0811 H   0  0  0  0  0  0  0  0  0  0  0  0
  145.9819  139.6039  153.0480 H   0  0  0  0  0  0  0  0  0  0  0  0
  144.7943  137.7648  151.9996 H   0  0  0  0  0  0  0  0  0  0  0  0
  145.9904  139.2594  150.4113 H   0  0  0  0  0  0  0  0  0  0  0  0
  145.9777  137.6476  149.7561 H   0  0  0  0  0  0  0  0  0  0  0  0
  147.4347  138.2613  150.5217 H   0  0  0  0  0  0  0  0  0  0  0  0
  144.5600  135.4098  151.1438 H   0  0  0  0  0  0  0  0  0  0  0  0
  145.8192  135.8687  150.0256 H   0  0  0  0  0  0  0  0  0  0  0  0
  145.7150  133.4149  150.2185 H   0  0  0  0  0  0  0  0  0  0  0  0
  147.2604  134.0132  150.7749 H   0  0  0  0  0  0  0  0  0  0  0  0
  144.8935  133.2058  152.5363 H   0  0  0  0  0  0  0  0  0  0  0  0
  146.3993  132.3299  152.3645 H   0  0  0  0  0  0  0  0  0  0  0  0
  147.6607  134.2236  153.3122 H   0  0  0  0  0  0  0  0  0  0  0  0
  145.2884  133.4826  155.0895 H   0  0  0  0  0  0  0  0  0  0  0  0
  146.8235  134.1448  155.6449 H   0  0  0  0  0  0  0  0  0  0  0  0
  146.7712  132.5496  154.9066 H   0  0  0  0  0  0  0  0  0  0  0  0
  146.5648  136.1921  154.1935 H   0  0  0  0  0  0  0  0  0  0  0  0
  144.9794  135.6500  153.6622 H   0  0  0  0  0  0  0  0  0  0  0  0
  147.2596  136.2256  151.9345 H   0  0  0  0  0  0  0  0  0  0  0  0
  1  2  1  0  0  0  0
  1 21  1  0  0  0  0
  1 22  1  0  0  0  0
  1 23  1  0  0  0  0
  2 20  1  0  0  0  0
  2  3  2  0  0  0  0
  3  4  1  0  0  0  0
  3 24  1  0  0  0  0
  4  5  1  0  0  0  0
  4 19  2  0  0  0  0
  5  6  1  0  0  0  0
  5 25  1  0  0  0  0
  6  7  2  0  0  0  0
  6  8  1  0  0  0  0
  8  9  1  0  0  0  0
  8 26  1  0  0  0  0
  9 10  1  0  0  0  0
  9 27  1  0  0  0  0
  9 28  1  0  0  0  0
 10 11  1  0  0  0  0
 10 12  1  0  0  0  0
 10 29  1  0  0  0  0
 11 30  1  0  0  0  0
 11 31  1  0  0  0  0
 11 32  1  0  0  0  0
 12 18  1  0  0  0  0
 12 13  1  0  0  0  0
 12 45  1  0  0  0  0
 13 14  1  0  0  0  0
 13 33  1  0  0  0  0
 13 34  1  0  0  0  0
 14 15  1  0  0  0  0
 14 35  1  0  0  0  0
 14 36  1  0  0  0  0
 15 16  1  0  0  0  0
 15 37  1  0  0  0  0
 15 38  1  0  0  0  0
 16 17  1  0  0  0  0
 16 18  1  0  0  0  0
 16 39  1  0  0  0  0
 17 40  1  0  0  0  0
 17 41  1  0  0  0  0
 17 42  1  0  0  0  0
 18 43  1  0  0  0  0
 18 44  1  0  0  0  0
 19 20  1  0  0  0  0
M  CHG  1  12   1
M  END
> <s_m_source_file>
AV-unprocessed.smi

> <i_m_source_file_index>
2083

> <i_lp_mmshare_version>
43012

> <i_f3d_flags>
0

> <s_epik_input>
W0NIM11jMVtjSF1jKG5vMSlbTkhdQyg9TylbTkhdW0NIMl1bQ0BIXShbQ0gzXSlOMltDSDJdW0NIMl1bQ0gyXVtDQEBIXShbQ0gzXSlbQ0gyXTI=

> <s_epik_cmdline>
J2VwaWtfcHl0aG9uJywgJy1waCcsICc3LjAnLCAnLXRuJywgJzgnLCAnLW1hJywgJzIwMCcsICctbWV0YWxfYmluZGluZycsICctaW1hZScsICc8aW5maWxlLm1hZT4nLCAnLW9tYWUnLCAnPG91dGZpbGUubWFlPic=

> <r_epik_Ionization_Penalty>
0.00216453

> <r_epik_Ionization_Penalty_Charging>
0.00212879

> <r_epik_Ionization_Penalty_Neutral>
3.57418e-05

> <r_epik_State_Penalty>
0.00146033

> <r_epik_Charging_Adjusted_Penalty>
0.00358912

> <i_epik_Tot_Q>
1

> <i_epik_Tot_abs_Q>
1

> <r_epik_Metal_State_Penalty>
0.0215827

> <b_epik_Metal_Only>
0

> <s_lp_Force_Field>
OPLS_2005

> <r_lp_Energy>
20.5585

> <b_lp_Chiralities_Consistent>
1

> <s_lp_Variant>
AV-unprocessed.smi:2083-8

> <Gold.Version>
5.8.1

> <Gold.Id.Protein>
6NUR|6NUR_protein|mol2

> <Gold.PLP.Fitness>
45.0668

> <Gold.PLP.PLP>
-28.7748

> <Gold.PLP.part.hbond>
-5.9443

> <Gold.PLP.part.metal>
0.0000

> <Gold.PLP.part.buried>
1.5034

> <Gold.PLP.part.nonpolar>
-26.1711

> <Gold.PLP.part.repulsive>
0.3034

> <Gold.PLP.ligand.clash>
0.0000

> <Gold.PLP.ligand.torsion>
0.7501

> <Gold.PLP.Chemscore.Hbond>
5.9120

> <Gold.PLP.Chemscore.CHOScore>
0.0000

> <Gold.PLP.Chemscore.Metal>
0.0000

> <Gold.Chemscore.Hbonds>
donor molecule, donor type, donor heavy atom, donor atom, acceptor molecule, acceptor atom, score
      L1  H     5    25       P1  7957  1.00
      L1  H     8    26       P1  7957  1.00
      L1  H    12    45       P1  7948  2.00
      P1  H  7989  7998       L1    19  0.90
      P1  H  7997  8009       L1    20  1.00

> <Gold.PLP.Chemscore.Internal.Correction>
0.0563

> <Gold.Rescore>
     Score         DG    S(hbond)    S(metal)    S(lipo)     H(rot)  DE(clash)    DE(int)     intcor
     20.83     -23.18       4.15        0.00      66.60       1.55       1.74       0.62       ----

> <Gold.Chemscore.Fitness>
20.8262

> <Gold.Chemscore.DG>
-23.1842

> <Gold.Chemscore.ZeroCoef>
-5.4800

> <Gold.Chemscore.Hbond>
4.1535

> <Gold.Chemscore.Metal>
0.0000

> <Gold.Chemscore.Lipo>
66.6044

> <Gold.Chemscore.Internal_Hbond>
0.0000

> <Gold.Chemscore.DEClash>
1.7419

> <Gold.Chemscore.DEInternal>
0.6161

> <Gold.Chemscore.Rot>
1.5474

> <Gold.Chemscore.Internal.Correction>
   9.000000E+99

> <Gold.Chemscore.Hbonds>
donor molecule, donor type, donor heavy atom, donor atom, acceptor molecule, acceptor atom, score
      L1  H     5    25       P1  7957  0.84
      L1  H     8    26       P1  7957  0.94
      L1  H    12    45       P1  7948  1.00
      P1  H  7989  7998       L1    19  0.22
      P1  H  7997  8009       L1    20  0.98

> <Gold.Chemscore.Hbond.Weighted>
-13.8727

> <Gold.Chemscore.Metal.Weighted>
-0.0000

> <Gold.Chemscore.Lipo.Weighted>
-7.7927

> <Gold.Chemscore.Internal_Hbond.Weighted>
0.0000

> <Gold.Chemscore.DEClash.Weighted>
1.7419

> <Gold.Chemscore.DEInternal.Weighted>
0.6161

> <Gold.Chemscore.Rot.Weighted>
3.9612

> <Gold.Chemscore.Internal.Correction.Weighted>
   9.000000E+99

> <Gold.Protein.RotatedTorsions>
[ 6907 6896 6895 6894 ] final  -37.32 input  -60.11 | X-H torsion
[ 7974 7965 7964 7962 ] final   28.74 input  175.53 | X-H torsion
[ 8008 7997 7996 7995 ] final -135.91 input   59.86 | X-H torsion
[ 10167 10162 10161 10158 ] final -111.09 input  -65.29 | X-H torsion
[ 10718 10713 10712 10709 ] final  127.16 input   66.30 | X-H torsion
[ 10763 10752 10751 10750 ] final  -45.02 input  -60.55 | X-H torsion
[ 11005 11000 10999 10996 ] final -155.55 input  -57.11 | X-H torsion

> <Gold.Protein.ActiveResidues>
 VAL166  LYS551  ARG553  GLY616  TRP617  ASP618  TYR619  PRO620  LYS621  CYS622 
 ASP623  PHE694  ASN695  SER759  ASP760  ASP761  ALA762  ILE779  LEU786  VAL792 
 PHE793  MET794  SER795  GLU796  ALA797  LYS798  CYS799  TRP800  GLU811  SER814 

> <Gold.Protein.RotatedAtoms>
  151.0161  134.9434  159.8033 H   0  0  0  0  0  0  0  0  0  0  0  0  # atno 6907 bound_to 6896
  152.5314  134.2964  159.9072 H   0  0  0  0  0  0  0  0  0  0  0  0  # atno 6908 bound_to 6896
  151.2971  133.4097  159.2671 H   0  0  0  0  0  0  0  0  0  0  0  0  # atno 6909 bound_to 6896
  146.1711  139.7015  142.8966 H   0  0  0  0  0  0  0  0  0  0  0  0  # atno 7974 bound_to 7965
  155.3865  140.0497  157.3042 H   0  0  0  0  0  0  0  0  0  0  0  0  # atno 8008 bound_to 7997
  154.5057  140.2173  155.9218 H   0  0  0  0  0  0  0  0  0  0  0  0  # atno 8009 bound_to 7997
  156.1522  140.3133  155.8672 H   0  0  0  0  0  0  0  0  0  0  0  0  # atno 8010 bound_to 7997
  140.1374  143.4309  152.1586 H   0  0  0  0  0  0  0  0  0  0  0  0  # atno 10167 bound_to 10162
  157.5357  131.1097  150.8939 H   0  0  0  0  0  0  0  0  0  0  0  0  # atno 10718 bound_to 10713
  154.0217  135.6668  153.4773 H   0  0  0  0  0  0  0  0  0  0  0  0  # atno 10763 bound_to 10752
  153.0577  135.5046  154.8017 H   0  0  0  0  0  0  0  0  0  0  0  0  # atno 10764 bound_to 10752
  154.6933  135.3065  154.9412 H   0  0  0  0  0  0  0  0  0  0  0  0  # atno 10765 bound_to 10752
  140.6852  134.4101  157.5223 H   0  0  0  0  0  0  0  0  0  0  0  0  # atno 11005 bound_to 11000
  145.4336  141.0417  143.2896 LP  0  0  0  0  0  0  0  0  0  0  0  0  # atno 17320 bound_to 7965
  144.8165  139.5867  143.7006 LP  0  0  0  0  0  0  0  0  0  0  0  0  # atno 17321 bound_to 7965
  139.5489  144.7321  151.4496 LP  0  0  0  0  0  0  0  0  0  0  0  0  # atno 17342 bound_to 10162
  140.6781  143.8144  150.7085 LP  0  0  0  0  0  0  0  0  0  0  0  0  # atno 17343 bound_to 10162
  156.9507  130.5418  149.5282 LP  0  0  0  0  0  0  0  0  0  0  0  0  # atno 17370 bound_to 10713
  156.0457  130.5533  150.8874 LP  0  0  0  0  0  0  0  0  0  0  0  0  # atno 17371 bound_to 10713
  139.8940  134.8718  156.2199 LP  0  0  0  0  0  0  0  0  0  0  0  0  # atno 17394 bound_to 11000
  141.0286  133.7001  156.1390 LP  0  0  0  0  0  0  0  0  0  0  0  0  # atno 17395 bound_to 11000

$$$$
