AV-unprocessed.smi:3164|AV-procd|sdf|12083|dock2
  -GOLD-   2272017513D 1   1.00000     0.00000
 Structure written by MMmdl.
 39 40  0  0  0  0  0  0  0  0  2 V2000
  149.9689  140.3938  155.8465 C   0  0  0  0  0  0  0  0  0  0  0  0
  148.6667  140.5344  155.2119 N   0  0  0  0  0  0  0  0  0  0  0  0
  148.5846  141.7539  154.4192 C   0  0  0  0  0  0  0  0  0  0  0  0
  147.2136  141.8953  153.7369 C   0  0  0  0  0  0  0  0  0  0  0  0
  146.9505  140.7369  152.9499 O   0  0  0  0  0  0  0  0  0  0  0  0
  146.9648  139.5287  153.7081 C   0  0  1  0  0  0  0  0  0  0  0  0
  146.6572  138.3609  152.7610 C   0  0  0  0  0  0  0  0  0  0  0  0
  145.2027  138.1334  152.6571 N   0  3  0  0  0  0  0  0  0  0  0  0
  144.8306  136.7506  152.2955 C   0  0  0  0  0  0  0  0  0  0  0  0
  145.8452  136.1284  151.3230 C   0  0  0  0  0  0  0  0  0  0  0  0
  145.6252  134.6410  151.1091 C   0  0  0  0  0  0  0  0  0  0  0  0
  144.5916  134.1775  150.2669 C   0  0  0  0  0  0  0  0  0  0  0  0
  144.4257  132.7874  150.1112 C   0  0  0  0  0  0  0  0  0  0  0  0
  145.2938  131.9197  150.8012 C   0  0  0  0  0  0  0  0  0  0  0  0
  146.2938  132.4823  151.6191 C   0  0  0  0  0  0  0  0  0  0  0  0
  146.4603  133.8136  151.7761 N   0  0  0  0  0  0  0  0  0  0  0  0
  148.3472  139.3843  154.3763 C   0  0  0  0  0  0  0  0  0  0  0  0
  150.1801  141.2495  156.4889 H   0  0  0  0  0  0  0  0  0  0  0  0
  150.7647  140.3227  155.1037 H   0  0  0  0  0  0  0  0  0  0  0  0
  150.0021  139.4977  156.4669 H   0  0  0  0  0  0  0  0  0  0  0  0
  148.7668  142.6218  155.0543 H   0  0  0  0  0  0  0  0  0  0  0  0
  149.3668  141.7545  153.6583 H   0  0  0  0  0  0  0  0  0  0  0  0
  146.4242  142.0270  154.4786 H   0  0  0  0  0  0  0  0  0  0  0  0
  147.1984  142.7751  153.0934 H   0  0  0  0  0  0  0  0  0  0  0  0
  146.1947  139.5784  154.4806 H   0  0  0  0  0  0  0  0  0  0  0  0
  147.0718  138.5540  151.7706 H   0  0  0  0  0  0  0  0  0  0  0  0
  147.1267  137.4505  153.1360 H   0  0  0  0  0  0  0  0  0  0  0  0
  144.7787  138.3538  153.5472 H   0  0  0  0  0  0  0  0  0  0  0  0
  144.7753  136.1472  153.2022 H   0  0  0  0  0  0  0  0  0  0  0  0
  143.8350  136.7490  151.8496 H   0  0  0  0  0  0  0  0  0  0  0  0
  145.8041  136.6443  150.3628 H   0  0  0  0  0  0  0  0  0  0  0  0
  146.8562  136.2800  151.7037 H   0  0  0  0  0  0  0  0  0  0  0  0
  143.9406  134.8672  149.7499 H   0  0  0  0  0  0  0  0  0  0  0  0
  143.6471  132.3940  149.4744 H   0  0  0  0  0  0  0  0  0  0  0  0
  145.1977  130.8482  150.7047 H   0  0  0  0  0  0  0  0  0  0  0  0
  146.9768  131.8465  152.1624 H   0  0  0  0  0  0  0  0  0  0  0  0
  149.1119  139.2643  153.6068 H   0  0  0  0  0  0  0  0  0  0  0  0
  148.3671  138.4758  154.9795 H   0  0  0  0  0  0  0  0  0  0  0  0
  144.8313  138.7620  151.9587 H   0  0  0  0  0  0  0  0  0  0  0  0
  1  2  1  0  0  0  0
  1 18  1  0  0  0  0
  1 19  1  0  0  0  0
  1 20  1  0  0  0  0
  2 17  1  0  0  0  0
  2  3  1  0  0  0  0
  3  4  1  0  0  0  0
  3 21  1  0  0  0  0
  3 22  1  0  0  0  0
  4  5  1  0  0  0  0
  4 23  1  0  0  0  0
  4 24  1  0  0  0  0
  5  6  1  0  0  0  0
  6  7  1  0  0  0  0
  6 17  1  0  0  0  0
  6 25  1  0  0  0  0
  7  8  1  0  0  0  0
  7 26  1  0  0  0  0
  7 27  1  0  0  0  0
  8  9  1  0  0  0  0
  8 28  1  0  0  0  0
  8 39  1  0  0  0  0
  9 10  1  0  0  0  0
  9 29  1  0  0  0  0
  9 30  1  0  0  0  0
 10 11  1  0  0  0  0
 10 31  1  0  0  0  0
 10 32  1  0  0  0  0
 11 16  1  0  0  0  0
 11 12  2  0  0  0  0
 12 13  1  0  0  0  0
 12 33  1  0  0  0  0
 13 14  2  0  0  0  0
 13 34  1  0  0  0  0
 14 15  1  0  0  0  0
 14 35  1  0  0  0  0
 15 16  2  0  0  0  0
 15 36  1  0  0  0  0
 17 37  1  0  0  0  0
 17 38  1  0  0  0  0
M  CHG  1   8   1
M  END
> <s_m_source_file>
AV-unprocessed.smi

> <i_m_source_file_index>
3164

> <i_lp_mmshare_version>
43012

> <i_f3d_flags>
0

> <s_epik_input>
W0NIM11OMVtDSDJdW0NIMl1PW0NASF0oW0NIMl0xKVtDSDJdW05IXVtDSDJdW0NIMl1jMltjSF1bY0hdW2NIXVtjSF1uMg==

> <s_epik_cmdline>
J2VwaWtfcHl0aG9uJywgJy1waCcsICc3LjAnLCAnLXRuJywgJzgnLCAnLW1hJywgJzIwMCcsICctbWV0YWxfYmluZGluZycsICctaW1hZScsICc8aW5maWxlLm1hZT4nLCAnLW9tYWUnLCAnPG91dGZpbGUubWFlPic=

> <r_epik_Ionization_Penalty>
0.584284

> <r_epik_Ionization_Penalty_Charging>
0.00270218

> <r_epik_Ionization_Penalty_Neutral>
0.581582

> <r_epik_State_Penalty>
0.593163

> <r_epik_Charging_Adjusted_Penalty>
0.595865

> <i_epik_Tot_Q>
1

> <i_epik_Tot_abs_Q>
1

> <r_epik_Metal_State_Penalty>
0.593163

> <b_epik_Metal_Only>
0

> <s_lp_Force_Field>
OPLS_2005

> <r_lp_Energy>
22.7337

> <b_lp_Chiralities_Consistent>
1

> <s_lp_Variant>
AV-unprocessed.smi:3164-5

> <Gold.Version>
5.8.1

> <Gold.Id.Protein>
6NUR|6NUR_protein|mol2

> <Gold.PLP.Fitness>
40.9092

> <Gold.PLP.PLP>
-33.8587

> <Gold.PLP.part.hbond>
-1.0000

> <Gold.PLP.part.metal>
0.0000

> <Gold.PLP.part.buried>
-2.1978

> <Gold.PLP.part.nonpolar>
-30.7600

> <Gold.PLP.part.repulsive>
0.4851

> <Gold.PLP.ligand.clash>
0.0000

> <Gold.PLP.ligand.torsion>
0.8796

> <Gold.PLP.Chemscore.Hbond>
1.9200

> <Gold.PLP.Chemscore.CHOScore>
1.0000

> <Gold.PLP.Chemscore.Metal>
0.0000

> <Gold.Chemscore.Hbonds>
donor molecule, donor type, donor heavy atom, donor atom, acceptor molecule, acceptor atom, score
      L1  H     8    39       P1 10175  0.77
      L1  C    15    36       P1 10747  0.01

> <Gold.PLP.Chemscore.Internal.Correction>
0.0497

> <Gold.Rescore>
     Score         DG    S(hbond)    S(metal)    S(lipo)     H(rot)  DE(clash)    DE(int)     intcor
     14.53     -15.52       0.97        0.00      92.47       1.57       0.14       0.85       ----

> <Gold.Chemscore.Fitness>
14.5323

> <Gold.Chemscore.DG>
-15.5220

> <Gold.Chemscore.ZeroCoef>
-5.4800

> <Gold.Chemscore.Hbond>
0.9726

> <Gold.Chemscore.Metal>
0.0000

> <Gold.Chemscore.Lipo>
92.4728

> <Gold.Chemscore.Internal_Hbond>
0.0000

> <Gold.Chemscore.DEClash>
0.1408

> <Gold.Chemscore.DEInternal>
0.8489

> <Gold.Chemscore.Rot>
1.5726

> <Gold.Chemscore.Internal.Correction>
   9.000000E+99

> <Gold.Chemscore.Hbonds>
donor molecule, donor type, donor heavy atom, donor atom, acceptor molecule, acceptor atom, score
      L1  H     8    39       P1 10175  0.37

> <Gold.Chemscore.Hbond.Weighted>
-3.2485

> <Gold.Chemscore.Metal.Weighted>
-0.0000

> <Gold.Chemscore.Lipo.Weighted>
-10.8193

> <Gold.Chemscore.Internal_Hbond.Weighted>
0.0000

> <Gold.Chemscore.DEClash.Weighted>
0.1408

> <Gold.Chemscore.DEInternal.Weighted>
0.8489

> <Gold.Chemscore.Rot.Weighted>
4.0259

> <Gold.Chemscore.Internal.Correction.Weighted>
   9.000000E+99

> <Gold.Protein.RotatedTorsions>
[ 6907 6896 6895 6894 ] final  124.63 input  -60.11 | X-H torsion
[ 7974 7965 7964 7962 ] final  -69.00 input  175.53 | X-H torsion
[ 8008 7997 7996 7995 ] final   41.53 input   59.86 | X-H torsion
[ 10167 10162 10161 10158 ] final  -85.03 input  -65.29 | X-H torsion
[ 10718 10713 10712 10709 ] final  -17.58 input   66.30 | X-H torsion
[ 10763 10752 10751 10750 ] final  -20.55 input  -60.55 | X-H torsion
[ 11005 11000 10999 10996 ] final   75.85 input  -57.11 | X-H torsion

> <Gold.Protein.ActiveResidues>
 VAL166  LYS551  ARG553  GLY616  TRP617  ASP618  TYR619  PRO620  LYS621  CYS622 
 ASP623  PHE694  ASN695  SER759  ASP760  ASP761  ALA762  ILE779  LEU786  VAL792 
 PHE793  MET794  SER795  GLU796  ALA797  LYS798  CYS799  TRP800  GLU811  SER814 

> <Gold.Protein.RotatedAtoms>
  152.4061  133.6892  159.6357 H   0  0  0  0  0  0  0  0  0  0  0  0  # atno 6907 bound_to 6896
  150.7946  133.8706  159.3266 H   0  0  0  0  0  0  0  0  0  0  0  0  # atno 6908 bound_to 6896
  151.6459  135.1009  160.0202 H   0  0  0  0  0  0  0  0  0  0  0  0  # atno 6909 bound_to 6896
  145.7093  140.9085  143.0689 H   0  0  0  0  0  0  0  0  0  0  0  0  # atno 7974 bound_to 7965
  155.2712  140.3366  155.4265 H   0  0  0  0  0  0  0  0  0  0  0  0  # atno 8008 bound_to 7997
  156.2132  140.1778  156.7690 H   0  0  0  0  0  0  0  0  0  0  0  0  # atno 8009 bound_to 7997
  154.5716  140.0669  156.8957 H   0  0  0  0  0  0  0  0  0  0  0  0  # atno 8010 bound_to 7997
  140.4076  143.2636  151.9060 H   0  0  0  0  0  0  0  0  0  0  0  0  # atno 10167 bound_to 10162
  156.5716  130.4751  149.6360 H   0  0  0  0  0  0  0  0  0  0  0  0  # atno 10718 bound_to 10713
  153.6222  135.6992  153.5306 H   0  0  0  0  0  0  0  0  0  0  0  0  # atno 10763 bound_to 10752
  153.2928  135.4152  155.1182 H   0  0  0  0  0  0  0  0  0  0  0  0  # atno 10764 bound_to 10752
  154.8541  135.3629  154.5763 H   0  0  0  0  0  0  0  0  0  0  0  0  # atno 10765 bound_to 10752
  139.9325  134.7552  156.1323 H   0  0  0  0  0  0  0  0  0  0  0  0  # atno 11005 bound_to 11000
  144.6946  139.9053  143.7460 LP  0  0  0  0  0  0  0  0  0  0  0  0  # atno 17320 bound_to 7965
  146.0727  139.3715  143.0513 LP  0  0  0  0  0  0  0  0  0  0  0  0  # atno 17321 bound_to 7965
  139.4783  144.5570  151.8298 LP  0  0  0  0  0  0  0  0  0  0  0  0  # atno 17342 bound_to 10162
  140.4673  144.1638  150.5913 LP  0  0  0  0  0  0  0  0  0  0  0  0  # atno 17343 bound_to 10162
  156.2710  130.7017  151.1814 LP  0  0  0  0  0  0  0  0  0  0  0  0  # atno 17370 bound_to 10713
  157.7347  131.0579  150.5511 LP  0  0  0  0  0  0  0  0  0  0  0  0  # atno 17371 bound_to 10713
  141.0921  133.6710  156.2563 LP  0  0  0  0  0  0  0  0  0  0  0  0  # atno 17394 bound_to 11000
  140.6165  134.5405  157.5541 LP  0  0  0  0  0  0  0  0  0  0  0  0  # atno 17395 bound_to 11000

$$$$
