AV-unprocessed.smi:480|AV-procd|sdf|2676|dock2
  -GOLD-   2262023 93D 1   1.00000     0.00000
 Structure written by MMmdl.
 46 48  0  0  0  0  0  0  0  0  1 V2000
  152.0340  139.6220  155.3110 C   0  0  0  0  0  0  0  0  0  0  0  0
  151.1984  139.7008  156.5948 C   0  0  0  0  0  0  0  0  0  0  0  0
  151.4703  140.9441  157.3934 C   0  0  0  0  0  0  0  0  0  0  0  0
  151.1827  142.1466  156.8914 N   0  0  0  0  0  0  0  0  0  0  0  0
  151.5723  143.0045  157.8992 C   0  0  0  0  0  0  0  0  0  0  0  0
  151.5262  144.4152  157.9739 C   0  0  0  0  0  0  0  0  0  0  0  0
  151.9876  145.0843  159.1264 C   0  0  0  0  0  0  0  0  0  0  0  0
  152.4997  144.3537  160.2183 C   0  0  0  0  0  0  0  0  0  0  0  0
  152.5526  142.9476  160.1640 C   0  0  0  0  0  0  0  0  0  0  0  0
  152.0914  142.2843  159.0105 C   0  0  0  0  0  0  0  0  0  0  0  0
  152.0039  140.9434  158.6459 N   0  0  0  0  0  0  0  0  0  0  0  0
  152.4072  139.8249  159.4921 C   0  0  0  0  0  0  0  0  0  0  0  0
  153.9326  139.6041  159.5117 C   0  0  2  0  0  0  0  0  0  0  0  0
  154.3030  138.8271  158.3913 O   0  0  0  0  0  0  0  0  0  0  0  0
  154.3834  138.8708  160.7851 C   0  0  0  0  0  0  0  0  0  0  0  0
  154.2681  137.4687  160.5799 O   0  0  0  0  0  0  0  0  0  0  0  0
  154.2784  136.6452  161.6857 C   0  0  0  0  0  0  0  0  0  0  0  0
  153.9191  137.0607  162.9932 C   0  0  0  0  0  0  0  0  0  0  0  0
  153.9617  136.1517  164.0683 C   0  0  0  0  0  0  0  0  0  0  0  0
  154.3625  134.8184  163.8550 C   0  0  0  0  0  0  0  0  0  0  0  0
  154.4054  133.8411  165.0110 C   0  0  0  0  0  0  0  0  0  0  0  0
  153.6165  132.6307  164.7365 C   0  0  0  0  0  0  0  0  0  0  0  0
  152.9959  131.6782  164.5208 N   0  0  0  0  0  0  0  0  0  0  0  0
  154.7187  134.3978  162.5589 C   0  0  0  0  0  0  0  0  0  0  0  0
  154.6752  135.3071  161.4847 C   0  0  0  0  0  0  0  0  0  0  0  0
  151.8049  138.7131  154.7547 H   0  0  0  0  0  0  0  0  0  0  0  0
  153.1010  139.6173  155.5291 H   0  0  0  0  0  0  0  0  0  0  0  0
  151.8313  140.4705  154.6570 H   0  0  0  0  0  0  0  0  0  0  0  0
  150.1398  139.6925  156.3332 H   0  0  0  0  0  0  0  0  0  0  0  0
  151.3586  138.8040  157.1873 H   0  0  0  0  0  0  0  0  0  0  0  0
  151.1346  144.9827  157.1429 H   0  0  0  0  0  0  0  0  0  0  0  0
  151.9479  146.1626  159.1732 H   0  0  0  0  0  0  0  0  0  0  0  0
  152.8511  144.8731  161.0978 H   0  0  0  0  0  0  0  0  0  0  0  0
  152.9434  142.3855  160.9990 H   0  0  0  0  0  0  0  0  0  0  0  0
  152.0621  140.0435  160.5033 H   0  0  0  0  0  0  0  0  0  0  0  0
  151.8863  138.9145  159.2043 H   0  0  0  0  0  0  0  0  0  0  0  0
  154.4333  140.5715  159.4519 H   0  0  0  0  0  0  0  0  0  0  0  0
  153.5234  138.4341  158.0293 H   0  0  0  0  0  0  0  0  0  0  0  0
  155.4321  139.1024  160.9781 H   0  0  0  0  0  0  0  0  0  0  0  0
  153.8047  139.2006  161.6501 H   0  0  0  0  0  0  0  0  0  0  0  0
  153.6062  138.0728  163.1993 H   0  0  0  0  0  0  0  0  0  0  0  0
  153.6848  136.4818  165.0588 H   0  0  0  0  0  0  0  0  0  0  0  0
  155.4353  133.5448  165.2118 H   0  0  0  0  0  0  0  0  0  0  0  0
  154.0165  134.3096  165.9153 H   0  0  0  0  0  0  0  0  0  0  0  0
  155.0247  133.3765  162.3855 H   0  0  0  0  0  0  0  0  0  0  0  0
  154.9512  134.9737  160.4949 H   0  0  0  0  0  0  0  0  0  0  0  0
  1  2  1  0  0  0  0
  1 26  1  0  0  0  0
  1 27  1  0  0  0  0
  1 28  1  0  0  0  0
  2  3  1  0  0  0  0
  2 29  1  0  0  0  0
  2 30  1  0  0  0  0
  3 11  1  0  0  0  0
  3  4  2  0  0  0  0
  4  5  1  0  0  0  0
  5 10  2  0  0  0  0
  5  6  1  0  0  0  0
  6  7  2  0  0  0  0
  6 31  1  0  0  0  0
  7  8  1  0  0  0  0
  7 32  1  0  0  0  0
  8  9  2  0  0  0  0
  8 33  1  0  0  0  0
  9 10  1  0  0  0  0
  9 34  1  0  0  0  0
 10 11  1  0  0  0  0
 11 12  1  0  0  0  0
 12 13  1  0  0  0  0
 12 35  1  0  0  0  0
 12 36  1  0  0  0  0
 13 14  1  0  0  0  0
 13 15  1  0  0  0  0
 13 37  1  0  0  0  0
 14 38  1  0  0  0  0
 15 16  1  0  0  0  0
 15 39  1  0  0  0  0
 15 40  1  0  0  0  0
 16 17  1  0  0  0  0
 17 25  1  0  0  0  0
 17 18  2  0  0  0  0
 18 19  1  0  0  0  0
 18 41  1  0  0  0  0
 19 20  2  0  0  0  0
 19 42  1  0  0  0  0
 20 21  1  0  0  0  0
 20 24  1  0  0  0  0
 21 22  1  0  0  0  0
 21 43  1  0  0  0  0
 21 44  1  0  0  0  0
 22 23  3  0  0  0  0
 24 25  2  0  0  0  0
 24 45  1  0  0  0  0
 25 46  1  0  0  0  0
M  END
> <s_m_source_file>
AV-unprocessed.smi

> <i_m_source_file_index>
480

> <i_lp_mmshare_version>
43012

> <i_f3d_flags>
0

> <s_epik_input>
W2NIXTFbY0hdW2NIXVtjSF1jKGMxMiluKGMobjIpW0NIMl1bQ0gzXSlbQ0gyXVtDQEhdKFtPSF0pW0NIMl1PYzNbY0hdW2NIXWMoW0NIMl1DI04pW2NIXVtjSF0z

> <s_epik_cmdline>
J2VwaWtfcHl0aG9uJywgJy1waCcsICc3LjAnLCAnLXRuJywgJzgnLCAnLW1hJywgJzIwMCcsICctbWV0YWxfYmluZGluZycsICctaW1hZScsICc8aW5maWxlLm1hZT4nLCAnLW9tYWUnLCAnPG91dGZpbGUubWFlPic=

> <r_lp_tautomer_probability>
1

> <r_epik_Ionization_Penalty>
0.114213

> <r_epik_Ionization_Penalty_Charging>
0

> <r_epik_Ionization_Penalty_Neutral>
0.114213

> <r_epik_State_Penalty>
0.103875

> <r_epik_Charging_Adjusted_Penalty>
0.103875

> <i_epik_Tot_Q>
0

> <i_epik_Tot_abs_Q>
0

> <r_epik_Metal_State_Penalty>
0.000113526

> <b_epik_Metal_Only>
0

> <s_lp_Force_Field>
OPLS_2005

> <r_lp_Energy>
17.1637

> <b_lp_Chiralities_Consistent>
1

> <s_lp_Variant>
AV-unprocessed.smi:480-1

> <Gold.Version>
5.8.1

> <Gold.Id.Protein>
6NUR|6NUR_protein|mol2

> <Gold.PLP.Fitness>
57.0848

> <Gold.PLP.PLP>
-56.1662

> <Gold.PLP.part.hbond>
-1.0000

> <Gold.PLP.part.metal>
0.0000

> <Gold.PLP.part.buried>
-3.5446

> <Gold.PLP.part.nonpolar>
-50.1897

> <Gold.PLP.part.repulsive>
0.1193

> <Gold.PLP.ligand.clash>
0.0000

> <Gold.PLP.ligand.torsion>
1.2442

> <Gold.PLP.Chemscore.Hbond>
1.0000

> <Gold.PLP.Chemscore.CHOScore>
0.0000

> <Gold.PLP.Chemscore.Metal>
0.0000

> <Gold.Chemscore.Hbonds>
donor molecule, donor type, donor heavy atom, donor atom, acceptor molecule, acceptor atom, score
      P1  H  7997  8009       L1    14  1.00

> <Gold.PLP.Chemscore.Internal.Correction>
0.4070

> <Gold.Rescore>
     Score         DG    S(hbond)    S(metal)    S(lipo)     H(rot)  DE(clash)    DE(int)     intcor
     18.51     -19.71       0.91        0.00     151.96       2.58       0.01       1.19       ----

> <Gold.Chemscore.Fitness>
18.5062

> <Gold.Chemscore.DG>
-19.7131

> <Gold.Chemscore.ZeroCoef>
-5.4800

> <Gold.Chemscore.Hbond>
0.9127

> <Gold.Chemscore.Metal>
0.0000

> <Gold.Chemscore.Lipo>
151.9583

> <Gold.Chemscore.Internal_Hbond>
0.0000

> <Gold.Chemscore.DEClash>
0.0149

> <Gold.Chemscore.DEInternal>
1.1921

> <Gold.Chemscore.Rot>
2.5759

> <Gold.Chemscore.Internal.Correction>
   9.000000E+99

> <Gold.Chemscore.Hbonds>
donor molecule, donor type, donor heavy atom, donor atom, acceptor molecule, acceptor atom, score
      P1  H  7997  8009       L1    14  0.33

> <Gold.Chemscore.Hbond.Weighted>
-3.0483

> <Gold.Chemscore.Metal.Weighted>
-0.0000

> <Gold.Chemscore.Lipo.Weighted>
-17.7791

> <Gold.Chemscore.Internal_Hbond.Weighted>
0.0000

> <Gold.Chemscore.DEClash.Weighted>
0.0149

> <Gold.Chemscore.DEInternal.Weighted>
1.1921

> <Gold.Chemscore.Rot.Weighted>
6.5943

> <Gold.Chemscore.Internal.Correction.Weighted>
   9.000000E+99

> <Gold.Protein.RotatedTorsions>
[ 6907 6896 6895 6894 ] final  154.54 input  -60.11 | X-H torsion
[ 7974 7965 7964 7962 ] final  172.28 input  175.53 | X-H torsion
[ 8008 7997 7996 7995 ] final  129.86 input   59.86 | X-H torsion
[ 10167 10162 10161 10158 ] final -121.65 input  -65.29 | X-H torsion
[ 10718 10713 10712 10709 ] final  104.82 input   66.30 | X-H torsion
[ 10763 10752 10751 10750 ] final  101.27 input  -60.55 | X-H torsion
[ 11005 11000 10999 10996 ] final   22.65 input  -57.11 | X-H torsion

> <Gold.Protein.ActiveResidues>
 VAL166  LYS551  ARG553  GLY616  TRP617  ASP618  TYR619  PRO620  LYS621  CYS622 
 ASP623  PHE694  ASN695  SER759  ASP760  ASP761  ALA762  ILE779  LEU786  VAL792 
 PHE793  MET794  SER795  GLU796  ALA797  LYS798  CYS799  TRP800  GLU811  SER814 

> <Gold.Protein.RotatedAtoms>
  152.0570  133.4045  159.4401 H   0  0  0  0  0  0  0  0  0  0  0  0  # atno 6907 bound_to 6896
  150.6867  134.3243  159.4809 H   0  0  0  0  0  0  0  0  0  0  0  0  # atno 6908 bound_to 6896
  152.1060  134.9308  160.0619 H   0  0  0  0  0  0  0  0  0  0  0  0  # atno 6909 bound_to 6896
  144.7272  139.9476  143.6431 H   0  0  0  0  0  0  0  0  0  0  0  0  # atno 7974 bound_to 7965
  156.2944  140.2610  156.2668 H   0  0  0  0  0  0  0  0  0  0  0  0  # atno 8008 bound_to 7997
  154.9734  140.0390  157.2263 H   0  0  0  0  0  0  0  0  0  0  0  0  # atno 8009 bound_to 7997
  154.7838  140.2799  155.6048 H   0  0  0  0  0  0  0  0  0  0  0  0  # atno 8010 bound_to 7997
  140.0227  143.5328  152.2213 H   0  0  0  0  0  0  0  0  0  0  0  0  # atno 10167 bound_to 10162
  157.6727  131.0813  150.5764 H   0  0  0  0  0  0  0  0  0  0  0  0  # atno 10718 bound_to 10713
  153.3246  135.4050  155.1445 H   0  0  0  0  0  0  0  0  0  0  0  0  # atno 10763 bound_to 10752
  154.8608  135.3595  154.5551 H   0  0  0  0  0  0  0  0  0  0  0  0  # atno 10764 bound_to 10752
  153.5987  135.7071  153.5452 H   0  0  0  0  0  0  0  0  0  0  0  0  # atno 10765 bound_to 10752
  140.3783  134.1948  155.7664 H   0  0  0  0  0  0  0  0  0  0  0  0  # atno 11005 bound_to 11000
  146.0736  139.3725  143.0507 LP  0  0  0  0  0  0  0  0  0  0  0  0  # atno 17320 bound_to 7965
  145.7934  140.9804  143.1037 LP  0  0  0  0  0  0  0  0  0  0  0  0  # atno 17321 bound_to 7965
  139.6129  144.7613  151.2912 LP  0  0  0  0  0  0  0  0  0  0  0  0  # atno 17342 bound_to 10162
  140.7335  143.6791  150.8016 LP  0  0  0  0  0  0  0  0  0  0  0  0  # atno 17343 bound_to 10162
  156.6065  130.4368  149.5876 LP  0  0  0  0  0  0  0  0  0  0  0  0  # atno 17370 bound_to 10713
  156.2465  130.6882  151.1605 LP  0  0  0  0  0  0  0  0  0  0  0  0  # atno 17371 bound_to 10713
  141.1932  133.8156  157.0808 LP  0  0  0  0  0  0  0  0  0  0  0  0  # atno 17394 bound_to 11000
  140.0498  134.9811  157.1116 LP  0  0  0  0  0  0  0  0  0  0  0  0  # atno 17395 bound_to 11000

$$$$
