AV-unprocessed.smi:2079|AV-procd|sdf|8485|dock1
  -GOLD-   2272011193D 1   1.00000     0.00000
 Structure written by MMmdl.
 41 42  0  0  0  0  0  0  0  0  3 V2000
  147.4307  135.4093  162.7218 C   0  0  0  0  0  0  0  0  0  0  0  0
  147.7337  135.7463  161.3022 C   0  0  0  0  0  0  0  0  0  0  0  0
  148.0537  134.9857  160.2131 C   0  0  0  0  0  0  0  0  0  0  0  0
  148.2059  135.9500  159.1812 C   0  0  0  0  0  0  0  0  0  0  0  0
  148.5441  135.5507  157.8610 N   0  0  0  0  0  0  0  0  0  0  0  0
  149.0619  134.3819  157.4408 C   0  0  0  0  0  0  0  0  0  0  0  0
  149.2926  133.4737  158.2484 O   0  0  0  0  0  0  0  0  0  0  0  0
  149.2678  134.3626  156.0945 N   0  5  0  0  0  0  0  0  0  0  0  0
  148.3194  134.8576  155.0978 C   0  0  0  0  0  0  0  0  0  0  0  0
  148.0056  133.7593  154.0611 C   0  0  0  0  0  0  0  0  0  0  0  0
  147.1504  134.2683  152.9546 N   0  3  2  0  0  0  0  0  0  0  0  0
  146.0289  135.1446  153.4013 C   0  0  0  0  0  0  0  0  0  0  0  0
  145.3453  135.8184  152.2002 C   0  0  0  0  0  0  0  0  0  0  0  0
  144.8631  134.7789  151.1806 C   0  0  0  0  0  0  0  0  0  0  0  0
  146.0252  133.8620  150.7699 C   0  0  0  0  0  0  0  0  0  0  0  0
  146.7133  133.2148  151.9902 C   0  0  2  0  0  0  0  0  0  0  0  0
  145.8465  132.1132  152.6387 C   0  0  0  0  0  0  0  0  0  0  0  0
  148.0009  137.1884  159.6052 N   0  0  0  0  0  0  0  0  0  0  0  0
  147.6964  137.0640  160.9658 O   0  0  0  0  0  0  0  0  0  0  0  0
  147.6515  134.3622  162.9295 H   0  0  0  0  0  0  0  0  0  0  0  0
  146.3777  135.5838  162.9426 H   0  0  0  0  0  0  0  0  0  0  0  0
  148.0254  136.0210  163.4003 H   0  0  0  0  0  0  0  0  0  0  0  0
  148.1583  133.9120  160.1633 H   0  0  0  0  0  0  0  0  0  0  0  0
  148.3868  136.2422  157.1428 H   0  0  0  0  0  0  0  0  0  0  0  0
  147.3889  135.1716  155.5708 H   0  0  0  0  0  0  0  0  0  0  0  0
  148.6910  135.7422  154.5784 H   0  0  0  0  0  0  0  0  0  0  0  0
  148.9537  133.4043  153.6542 H   0  0  0  0  0  0  0  0  0  0  0  0
  147.5342  132.8950  154.5319 H   0  0  0  0  0  0  0  0  0  0  0  0
  145.3058  134.5669  153.9775 H   0  0  0  0  0  0  0  0  0  0  0  0
  146.4018  135.9200  154.0710 H   0  0  0  0  0  0  0  0  0  0  0  0
  144.5052  136.4244  152.5408 H   0  0  0  0  0  0  0  0  0  0  0  0
  146.0455  136.5033  151.7200 H   0  0  0  0  0  0  0  0  0  0  0  0
  144.0516  134.1896  151.6081 H   0  0  0  0  0  0  0  0  0  0  0  0
  144.4511  135.2784  150.3034 H   0  0  0  0  0  0  0  0  0  0  0  0
  145.6716  133.0938  150.0814 H   0  0  0  0  0  0  0  0  0  0  0  0
  146.7598  134.4484  150.2159 H   0  0  0  0  0  0  0  0  0  0  0  0
  147.6175  132.7307  151.6177 H   0  0  0  0  0  0  0  0  0  0  0  0
  145.5841  131.3505  151.9054 H   0  0  0  0  0  0  0  0  0  0  0  0
  144.9141  132.5021  153.0460 H   0  0  0  0  0  0  0  0  0  0  0  0
  146.3726  131.6073  153.4481 H   0  0  0  0  0  0  0  0  0  0  0  0
  147.7651  134.8650  152.4194 H   0  0  0  0  0  0  0  0  0  0  0  0
  1  2  1  0  0  0  0
  1 20  1  0  0  0  0
  1 21  1  0  0  0  0
  1 22  1  0  0  0  0
  2 19  1  0  0  0  0
  2  3  2  0  0  0  0
  3  4  1  0  0  0  0
  3 23  1  0  0  0  0
  4  5  1  0  0  0  0
  4 18  2  0  0  0  0
  5  6  1  0  0  0  0
  5 24  1  0  0  0  0
  6  7  2  0  0  0  0
  6  8  1  0  0  0  0
  8  9  1  0  0  0  0
  9 10  1  0  0  0  0
  9 25  1  0  0  0  0
  9 26  1  0  0  0  0
 10 11  1  0  0  0  0
 10 27  1  0  0  0  0
 10 28  1  0  0  0  0
 11 16  1  0  0  0  0
 11 12  1  0  0  0  0
 11 41  1  0  0  0  0
 12 13  1  0  0  0  0
 12 29  1  0  0  0  0
 12 30  1  0  0  0  0
 13 14  1  0  0  0  0
 13 31  1  0  0  0  0
 13 32  1  0  0  0  0
 14 15  1  0  0  0  0
 14 33  1  0  0  0  0
 14 34  1  0  0  0  0
 15 16  1  0  0  0  0
 15 35  1  0  0  0  0
 15 36  1  0  0  0  0
 16 17  1  0  0  0  0
 16 37  1  0  0  0  0
 17 38  1  0  0  0  0
 17 39  1  0  0  0  0
 17 40  1  0  0  0  0
 18 19  1  0  0  0  0
M  CHG  1   8  -1
M  CHG  1  11   1
M  END
> <s_m_source_file>
AV-unprocessed.smi

> <i_m_source_file_index>
2079

> <i_lp_mmshare_version>
43012

> <i_f3d_flags>
0

> <s_epik_input>
W0NIM11jMVtjSF1jKG5vMSlbTkhdQyg9TylbTkhdW0NIMl1bQ0gyXU4yW0NIMl1bQ0gyXVtDSDJdW0NIMl1bQ0BIXTJbQ0gzXQ==

> <s_epik_cmdline>
J2VwaWtfcHl0aG9uJywgJy1waCcsICc3LjAnLCAnLXRuJywgJzgnLCAnLW1hJywgJzIwMCcsICctbWV0YWxfYmluZGluZycsICctaW1hZScsICc8aW5maWxlLm1hZT4nLCAnLW9tYWUnLCAnPG91dGZpbGUubWFlPic=

> <r_epik_Ionization_Penalty>
6.7666

> <r_epik_Ionization_Penalty_Charging>
6.7666

> <r_epik_Ionization_Penalty_Neutral>
5.77131e-06

> <r_epik_State_Penalty>
6.79217

> <r_epik_Charging_Adjusted_Penalty>
13.5588

> <i_epik_Tot_Q>
0

> <i_epik_Tot_abs_Q>
2

> <r_epik_Metal_State_Penalty>
2.72569

> <b_epik_Metal_Only>
1

> <s_lp_Force_Field>
OPLS_2005

> <r_lp_Energy>
14.7709

> <b_lp_Chiralities_Consistent>
1

> <s_lp_Variant>
AV-unprocessed.smi:2079-11

> <Gold.Version>
5.8.1

> <Gold.Id.Protein>
6NUR|6NUR_protein|mol2

> <Gold.PLP.Fitness>
41.9173

> <Gold.PLP.PLP>
-29.8540

> <Gold.PLP.part.hbond>
-4.8058

> <Gold.PLP.part.metal>
0.0000

> <Gold.PLP.part.buried>
-3.9735

> <Gold.PLP.part.nonpolar>
-21.3020

> <Gold.PLP.part.repulsive>
0.0763

> <Gold.PLP.ligand.clash>
0.0000

> <Gold.PLP.ligand.torsion>
0.5249

> <Gold.PLP.Chemscore.Hbond>
4.3280

> <Gold.PLP.Chemscore.CHOScore>
0.0000

> <Gold.PLP.Chemscore.Metal>
0.0000

> <Gold.Chemscore.Hbonds>
donor molecule, donor type, donor heavy atom, donor atom, acceptor molecule, acceptor atom, score
      L1  H    11    41       P1  7948  2.00
      P1  H  6896  6909       L1     7  1.00
      P1  H  6931  6943       L1    19  0.94
      P1  H  6934  6947       L1    19  0.32

> <Gold.PLP.Chemscore.Internal.Correction>
0.1291

> <Gold.Rescore>
     Score         DG    S(hbond)    S(metal)    S(lipo)     H(rot)  DE(clash)    DE(int)     intcor
     15.11     -17.12       2.62        0.00      58.37       1.54       0.06       1.95       ----

> <Gold.Chemscore.Fitness>
15.1089

> <Gold.Chemscore.DG>
-17.1155

> <Gold.Chemscore.ZeroCoef>
-5.4800

> <Gold.Chemscore.Hbond>
2.6200

> <Gold.Chemscore.Metal>
0.0000

> <Gold.Chemscore.Lipo>
58.3707

> <Gold.Chemscore.Internal_Hbond>
0.0000

> <Gold.Chemscore.DEClash>
0.0563

> <Gold.Chemscore.DEInternal>
1.9503

> <Gold.Chemscore.Rot>
1.5409

> <Gold.Chemscore.Internal.Correction>
   9.000000E+99

> <Gold.Chemscore.Hbonds>
donor molecule, donor type, donor heavy atom, donor atom, acceptor molecule, acceptor atom, score
      L1  H    11    41       P1  7948  0.88
      P1  H  6896  6909       L1     7  0.60
      P1  H  6931  6943       L1    19  0.40
      P1  H  6934  6947       L1    19  0.01

> <Gold.Chemscore.Hbond.Weighted>
-8.7507

> <Gold.Chemscore.Metal.Weighted>
-0.0000

> <Gold.Chemscore.Lipo.Weighted>
-6.8294

> <Gold.Chemscore.Internal_Hbond.Weighted>
0.0000

> <Gold.Chemscore.DEClash.Weighted>
0.0563

> <Gold.Chemscore.DEInternal.Weighted>
1.9503

> <Gold.Chemscore.Rot.Weighted>
3.9446

> <Gold.Chemscore.Internal.Correction.Weighted>
   9.000000E+99

> <Gold.Protein.RotatedTorsions>
[ 6907 6896 6895 6894 ] final   19.19 input  -60.11 | X-H torsion
[ 7974 7965 7964 7962 ] final   36.56 input  175.53 | X-H torsion
[ 8008 7997 7996 7995 ] final   68.14 input   59.86 | X-H torsion
[ 10167 10162 10161 10158 ] final  142.96 input  -65.29 | X-H torsion
[ 10718 10713 10712 10709 ] final -115.89 input   66.30 | X-H torsion
[ 10763 10752 10751 10750 ] final -161.46 input  -60.55 | X-H torsion
[ 11005 11000 10999 10996 ] final -111.22 input  -57.11 | X-H torsion

> <Gold.Protein.ActiveResidues>
 VAL166  LYS551  ARG553  GLY616  TRP617  ASP618  TYR619  PRO620  LYS621  CYS622 
 ASP623  PHE694  ASN695  SER759  ASP760  ASP761  ALA762  ILE779  LEU786  VAL792 
 PHE793  MET794  SER795  GLU796  ALA797  LYS798  CYS799  TRP800  GLU811  SER814 

> <Gold.Protein.RotatedAtoms>
  151.8770  135.0468  160.0484 H   0  0  0  0  0  0  0  0  0  0  0  0  # atno 6907 bound_to 6896
  152.2543  133.5237  159.5352 H   0  0  0  0  0  0  0  0  0  0  0  0  # atno 6908 bound_to 6896
  150.7094  134.0833  159.3948 H   0  0  0  0  0  0  0  0  0  0  0  0  # atno 6909 bound_to 6896
  146.1202  139.6003  142.9294 H   0  0  0  0  0  0  0  0  0  0  0  0  # atno 7974 bound_to 7965
  155.7037  140.3495  155.4944 H   0  0  0  0  0  0  0  0  0  0  0  0  # atno 8008 bound_to 7997
  155.9418  140.1103  157.1071 H   0  0  0  0  0  0  0  0  0  0  0  0  # atno 8009 bound_to 7997
  154.4104  140.1211  156.4923 H   0  0  0  0  0  0  0  0  0  0  0  0  # atno 8010 bound_to 7997
  139.4981  144.6072  151.6352 H   0  0  0  0  0  0  0  0  0  0  0  0  # atno 10167 bound_to 10162
  156.0926  130.6105  150.8965 H   0  0  0  0  0  0  0  0  0  0  0  0  # atno 10718 bound_to 10713
  154.7301  135.3044  154.8905 H   0  0  0  0  0  0  0  0  0  0  0  0  # atno 10763 bound_to 10752
  153.9750  135.6737  153.4752 H   0  0  0  0  0  0  0  0  0  0  0  0  # atno 10764 bound_to 10752
  153.0911  135.4959  154.8612 H   0  0  0  0  0  0  0  0  0  0  0  0  # atno 10765 bound_to 10752
  141.0747  133.9321  157.2414 H   0  0  0  0  0  0  0  0  0  0  0  0  # atno 11005 bound_to 11000
  145.5481  141.0415  143.2293 LP  0  0  0  0  0  0  0  0  0  0  0  0  # atno 17320 bound_to 7965
  144.7590  139.7002  143.7242 LP  0  0  0  0  0  0  0  0  0  0  0  0  # atno 17321 bound_to 7965
  140.5737  144.0065  150.6230 LP  0  0  0  0  0  0  0  0  0  0  0  0  # atno 17342 bound_to 10162
  140.3191  143.3149  152.0802 LP  0  0  0  0  0  0  0  0  0  0  0  0  # atno 17343 bound_to 10162
  157.6079  131.0938  150.8846 LP  0  0  0  0  0  0  0  0  0  0  0  0  # atno 17370 bound_to 10713
  156.8991  130.5240  149.5283 LP  0  0  0  0  0  0  0  0  0  0  0  0  # atno 17371 bound_to 10713
  139.9559  135.0165  156.9127 LP  0  0  0  0  0  0  0  0  0  0  0  0  # atno 17394 bound_to 11000
  140.5599  134.0545  155.7395 LP  0  0  0  0  0  0  0  0  0  0  0  0  # atno 17395 bound_to 11000

$$$$
