AV-unprocessed.smi:686|AV-procd|sdf|3343|dock2
  -GOLD-   22720 0313D 1   1.00000     0.00000
 Structure written by MMmdl.
 41 42  0  0  0  0  0  0  0  0  2 V2000
  152.0836  138.1584  155.3472 C   0  0  0  0  0  0  0  0  0  0  0  0
  150.8188  137.5750  154.6950 C   0  0  2  0  0  0  0  0  0  0  0  0
  149.7341  138.5960  154.3615 C   0  0  0  0  0  0  0  0  0  0  0  0
  148.5209  137.7937  154.0912 N   0  3  2  0  0  0  0  0  0  0  0  0
  147.2287  138.5249  154.2245 C   0  0  0  0  0  0  0  0  0  0  0  0
  147.1385  139.6956  153.2265 C   0  0  0  0  0  0  0  0  0  0  0  0
  147.0226  139.0547  155.6563 C   0  0  0  0  0  0  0  0  0  0  0  0
  148.6376  136.5489  154.8945 C   0  0  0  0  0  0  0  0  0  0  0  0
  150.0562  136.5129  155.4966 C   0  0  2  0  0  0  0  0  0  0  0  0
  150.0195  136.8507  156.9256 N   0  0  0  0  0  0  0  0  0  0  0  0
  148.9179  136.0231  157.9684 S   0  0  0  0  0  0  0  0  0  0  0  0
  147.5492  136.3466  157.5351 O   0  0  0  0  0  0  0  0  0  0  0  0
  149.3641  134.6240  158.0415 O   0  0  0  0  0  0  0  0  0  0  0  0
  149.2384  136.8298  159.5971 C   0  0  0  0  0  0  0  0  0  0  0  0
  148.2948  136.2929  160.6364 C   0  0  0  0  0  0  0  0  0  0  0  0
  147.9586  134.9393  160.9162 C   0  0  0  0  0  0  0  0  0  0  0  0
  147.0616  135.0381  161.9403 C   0  0  0  0  0  0  0  0  0  0  0  0
  146.8594  136.3384  162.2706 O   0  0  0  0  0  0  0  0  0  0  0  0
  147.6543  137.1319  161.4355 N   0  0  0  0  0  0  0  0  0  0  0  0
  151.8568  138.7044  156.2633 H   0  0  0  0  0  0  0  0  0  0  0  0
  152.5813  138.8532  154.6703 H   0  0  0  0  0  0  0  0  0  0  0  0
  152.7954  137.3700  155.5930 H   0  0  0  0  0  0  0  0  0  0  0  0
  151.1239  137.1089  153.7563 H   0  0  0  0  0  0  0  0  0  0  0  0
  149.5604  139.2494  155.2186 H   0  0  0  0  0  0  0  0  0  0  0  0
  150.0059  139.2178  153.5079 H   0  0  0  0  0  0  0  0  0  0  0  0
  146.4208  137.8257  154.0083 H   0  0  0  0  0  0  0  0  0  0  0  0
  146.2017  140.2403  153.3499 H   0  0  0  0  0  0  0  0  0  0  0  0
  147.1710  139.3610  152.1898 H   0  0  0  0  0  0  0  0  0  0  0  0
  147.9537  140.4049  153.3737 H   0  0  0  0  0  0  0  0  0  0  0  0
  146.0973  139.6274  155.7309 H   0  0  0  0  0  0  0  0  0  0  0  0
  147.8406  139.7096  155.9590 H   0  0  0  0  0  0  0  0  0  0  0  0
  146.9511  138.2474  156.3853 H   0  0  0  0  0  0  0  0  0  0  0  0
  147.8776  136.4965  155.6740 H   0  0  0  0  0  0  0  0  0  0  0  0
  148.4771  135.6961  154.2342 H   0  0  0  0  0  0  0  0  0  0  0  0
  150.5217  135.5331  155.3798 H   0  0  0  0  0  0  0  0  0  0  0  0
  150.9535  136.9026  157.3325 H   0  0  0  0  0  0  0  0  0  0  0  0
  150.2704  136.6185  159.8773 H   0  0  0  0  0  0  0  0  0  0  0  0
  149.1461  137.9098  159.4781 H   0  0  0  0  0  0  0  0  0  0  0  0
  148.3159  134.0390  160.4379 H   0  0  0  0  0  0  0  0  0  0  0  0
  146.5054  134.3104  162.5127 H   0  0  0  0  0  0  0  0  0  0  0  0
  148.5943  137.5033  153.1267 H   0  0  0  0  0  0  0  0  0  0  0  0
  1  2  1  0  0  0  0
  1 20  1  0  0  0  0
  1 21  1  0  0  0  0
  1 22  1  0  0  0  0
  2  9  1  0  0  0  0
  2  3  1  0  0  0  0
  2 23  1  0  0  0  0
  3  4  1  0  0  0  0
  3 24  1  0  0  0  0
  3 25  1  0  0  0  0
  4  5  1  0  0  0  0
  4  8  1  0  0  0  0
  4 41  1  0  0  0  0
  5  6  1  0  0  0  0
  5  7  1  0  0  0  0
  5 26  1  0  0  0  0
  6 27  1  0  0  0  0
  6 28  1  0  0  0  0
  6 29  1  0  0  0  0
  7 30  1  0  0  0  0
  7 31  1  0  0  0  0
  7 32  1  0  0  0  0
  8  9  1  0  0  0  0
  8 33  1  0  0  0  0
  8 34  1  0  0  0  0
  9 10  1  0  0  0  0
  9 35  1  0  0  0  0
 10 11  1  0  0  0  0
 10 36  1  0  0  0  0
 11 12  2  0  0  0  0
 11 13  2  0  0  0  0
 11 14  1  0  0  0  0
 14 15  1  0  0  0  0
 14 37  1  0  0  0  0
 14 38  1  0  0  0  0
 15 19  2  0  0  0  0
 15 16  1  0  0  0  0
 16 17  2  0  0  0  0
 16 39  1  0  0  0  0
 17 18  1  0  0  0  0
 17 40  1  0  0  0  0
 18 19  1  0  0  0  0
M  CHG  1   4   1
M  END
> <s_m_source_file>
AV-unprocessed.smi

> <i_m_source_file_index>
686

> <i_lp_mmshare_version>
43012

> <i_f3d_flags>
0

> <s_epik_input>
W0NIM11bQ0BASF0xW0NIMl1OKFtDSF0oW0NIM10pW0NIM10pW0NIMl1bQ0BIXTFbTkhdUyg9TykoPU8pW0NIMl1jMltjSF1bY0hdb24y

> <s_epik_cmdline>
J2VwaWtfcHl0aG9uJywgJy1waCcsICc3LjAnLCAnLXRuJywgJzgnLCAnLW1hJywgJzIwMCcsICctbWV0YWxfYmluZGluZycsICctaW1hZScsICc8aW5maWxlLm1hZT4nLCAnLW9tYWUnLCAnPG91dGZpbGUubWFlPic=

> <r_epik_Ionization_Penalty>
0.00200818

> <r_epik_Ionization_Penalty_Charging>
0.000701289

> <r_epik_Ionization_Penalty_Neutral>
0.00130689

> <r_epik_State_Penalty>
0.00131314

> <r_epik_Charging_Adjusted_Penalty>
0.00201443

> <i_epik_Tot_Q>
1

> <i_epik_Tot_abs_Q>
1

> <r_epik_Metal_State_Penalty>
0.310831

> <b_epik_Metal_Only>
0

> <s_lp_Force_Field>
OPLS_2005

> <r_lp_Energy>
19.9663

> <b_lp_Chiralities_Consistent>
1

> <s_lp_Variant>
AV-unprocessed.smi:686-7

> <Gold.Version>
5.8.1

> <Gold.Id.Protein>
6NUR|6NUR_protein|mol2

> <Gold.PLP.Fitness>
40.1222

> <Gold.PLP.PLP>
-26.0881

> <Gold.PLP.part.hbond>
-4.0000

> <Gold.PLP.part.metal>
0.0000

> <Gold.PLP.part.buried>
-2.9068

> <Gold.PLP.part.nonpolar>
-19.0981

> <Gold.PLP.part.repulsive>
0.0000

> <Gold.PLP.ligand.clash>
0.0000

> <Gold.PLP.ligand.torsion>
0.3333

> <Gold.PLP.Chemscore.Hbond>
4.8320

> <Gold.PLP.Chemscore.CHOScore>
0.0000

> <Gold.PLP.Chemscore.Metal>
0.0000

> <Gold.Chemscore.Hbonds>
donor molecule, donor type, donor heavy atom, donor atom, acceptor molecule, acceptor atom, score
      L1  H     4    41       P1  7948  2.00
      P1  H  6896  6908       L1    13  1.00
      P1  H  6931  6943       L1    19  1.00
      P1  H  6934  6947       L1    19  0.82

> <Gold.PLP.Chemscore.Internal.Correction>
0.2048

> <Gold.Rescore>
     Score         DG    S(hbond)    S(metal)    S(lipo)     H(rot)  DE(clash)    DE(int)     intcor
     17.03     -18.83       3.16        0.00      65.75       1.91       0.12       1.68       ----

> <Gold.Chemscore.Fitness>
17.0307

> <Gold.Chemscore.DG>
-18.8288

> <Gold.Chemscore.ZeroCoef>
-5.4800

> <Gold.Chemscore.Hbond>
3.1584

> <Gold.Chemscore.Metal>
0.0000

> <Gold.Chemscore.Lipo>
65.7527

> <Gold.Chemscore.Internal_Hbond>
0.0000

> <Gold.Chemscore.DEClash>
0.1185

> <Gold.Chemscore.DEInternal>
1.6796

> <Gold.Chemscore.Rot>
1.9115

> <Gold.Chemscore.Internal.Correction>
   9.000000E+99

> <Gold.Chemscore.Hbonds>
donor molecule, donor type, donor heavy atom, donor atom, acceptor molecule, acceptor atom, score
      L1  H     4    41       P1  7948  0.96
      P1  H  6896  6908       L1    13  0.95
      P1  H  6931  6943       L1    19  0.29
      P1  H  6934  6947       L1    19  0.77

> <Gold.Chemscore.Hbond.Weighted>
-10.5492

> <Gold.Chemscore.Metal.Weighted>
-0.0000

> <Gold.Chemscore.Lipo.Weighted>
-7.6931

> <Gold.Chemscore.Internal_Hbond.Weighted>
0.0000

> <Gold.Chemscore.DEClash.Weighted>
0.1185

> <Gold.Chemscore.DEInternal.Weighted>
1.6796

> <Gold.Chemscore.Rot.Weighted>
4.8935

> <Gold.Chemscore.Internal.Correction.Weighted>
   9.000000E+99

> <Gold.Protein.RotatedTorsions>
[ 6907 6896 6895 6894 ] final  130.72 input  -60.11 | X-H torsion
[ 7974 7965 7964 7962 ] final  -93.33 input  175.53 | X-H torsion
[ 8008 7997 7996 7995 ] final   93.81 input   59.86 | X-H torsion
[ 10167 10162 10161 10158 ] final  121.59 input  -65.29 | X-H torsion
[ 10718 10713 10712 10709 ] final   58.71 input   66.30 | X-H torsion
[ 10763 10752 10751 10750 ] final -135.82 input  -60.55 | X-H torsion
[ 11005 11000 10999 10996 ] final  -91.60 input  -57.11 | X-H torsion

> <Gold.Protein.ActiveResidues>
 VAL166  LYS551  ARG553  GLY616  TRP617  ASP618  TYR619  PRO620  LYS621  CYS622 
 ASP623  PHE694  ASN695  SER759  ASP760  ASP761  ALA762  ILE779  LEU786  VAL792 
 PHE793  MET794  SER795  GLU796  ALA797  LYS798  CYS799  TRP800  GLU811  SER814 

> <Gold.Protein.RotatedAtoms>
  152.3498  133.6166  159.5936 H   0  0  0  0  0  0  0  0  0  0  0  0  # atno 6907 bound_to 6896
  150.7530  133.9592  159.3519 H   0  0  0  0  0  0  0  0  0  0  0  0  # atno 6908 bound_to 6896
  151.7445  135.0847  160.0372 H   0  0  0  0  0  0  0  0  0  0  0  0  # atno 6909 bound_to 6896
  145.3879  140.9525  143.2357 H   0  0  0  0  0  0  0  0  0  0  0  0  # atno 7974 bound_to 7965
  156.0510  140.3308  155.7350 H   0  0  0  0  0  0  0  0  0  0  0  0  # atno 8008 bound_to 7997
  155.5602  140.0618  157.2848 H   0  0  0  0  0  0  0  0  0  0  0  0  # atno 8009 bound_to 7997
  154.4435  140.1879  156.0763 H   0  0  0  0  0  0  0  0  0  0  0  0  # atno 8010 bound_to 7997
  139.5910  144.7025  151.3289 H   0  0  0  0  0  0  0  0  0  0  0  0  # atno 10167 bound_to 10162
  157.5618  130.8841  149.9123 H   0  0  0  0  0  0  0  0  0  0  0  0  # atno 10718 bound_to 10713
  154.8696  135.3691  154.4961 H   0  0  0  0  0  0  0  0  0  0  0  0  # atno 10763 bound_to 10752
  153.5604  135.7023  153.5555 H   0  0  0  0  0  0  0  0  0  0  0  0  # atno 10764 bound_to 10752
  153.3633  135.4041  155.1698 H   0  0  0  0  0  0  0  0  0  0  0  0  # atno 10765 bound_to 10752
  141.1541  133.7766  156.9902 H   0  0  0  0  0  0  0  0  0  0  0  0  # atno 11005 bound_to 11000
  144.8461  139.5395  143.6878 LP  0  0  0  0  0  0  0  0  0  0  0  0  # atno 17320 bound_to 7965
  146.2811  139.6881  142.9228 LP  0  0  0  0  0  0  0  0  0  0  0  0  # atno 17321 bound_to 7965
  140.7173  143.7231  150.7680 LP  0  0  0  0  0  0  0  0  0  0  0  0  # atno 17342 bound_to 10162
  140.0787  143.4990  152.2541 LP  0  0  0  0  0  0  0  0  0  0  0  0  # atno 17343 bound_to 10162
  156.0670  130.3691  150.0858 LP  0  0  0  0  0  0  0  0  0  0  0  0  # atno 17370 bound_to 10713
  156.9021  130.9623  151.3575 LP  0  0  0  0  0  0  0  0  0  0  0  0  # atno 17371 bound_to 10713
  140.1008  134.9537  157.1919 LP  0  0  0  0  0  0  0  0  0  0  0  0  # atno 17394 bound_to 11000
  140.3321  134.2798  155.7226 LP  0  0  0  0  0  0  0  0  0  0  0  0  # atno 17395 bound_to 11000

$$$$
