AV-unprocessed.smi:160|AV-procd|sdf|1361|dock9
  -GOLD-   2262019 73D 1   1.00000     0.00000
 Structure written by MMmdl.
 28 29  0  0  0  0  0  0  0  0  2 V2000
  150.1378  134.3889  157.4450 N   0  5  0  0  0  0  0  0  0  0  0  0
  150.1799  135.7244  157.6449 C   0  0  0  0  0  0  0  0  0  0  0  0
  150.0358  136.3042  158.7209 O   0  0  0  0  0  0  0  0  0  0  0  0
  150.4343  136.5366  156.3972 C   0  0  0  0  0  0  0  0  0  0  0  0
  151.1760  136.0227  155.3694 N   0  0  0  0  0  0  0  0  0  0  0  0
  151.1226  137.0517  154.5344 C   0  0  0  0  0  0  0  0  0  0  0  0
  150.4103  138.0888  154.9839 N   0  0  0  0  0  0  0  0  0  0  0  0
  150.1587  139.4202  154.3426 C   0  0  2  0  0  0  0  0  0  0  0  0
  150.9209  140.3707  155.0242 O   0  0  0  0  0  0  0  0  0  0  0  0
  150.1059  141.0542  155.9707 C   0  0  1  0  0  0  0  0  0  0  0  0
  150.7513  142.3816  156.4074 C   0  0  0  0  0  0  0  0  0  0  0  0
  149.9594  143.0068  157.3946 O   0  0  0  0  0  0  0  0  0  0  0  0
  148.7752  141.1789  155.2155 C   0  0  1  0  0  0  0  0  0  0  0  0
  148.8030  142.2945  154.3385 O   0  0  0  0  0  0  0  0  0  0  0  0
  148.6813  139.8466  154.4678 C   0  0  1  0  0  0  0  0  0  0  0  0
  148.0284  139.9682  153.2169 O   0  0  0  0  0  0  0  0  0  0  0  0
  149.9616  137.7748  156.2253 N   0  0  0  0  0  0  0  0  0  0  0  0
  150.5089  139.3069  153.3158 H   0  0  0  0  0  0  0  0  0  0  0  0
  149.9481  140.4174  156.8426 H   0  0  0  0  0  0  0  0  0  0  0  0
  147.9368  141.3111  155.9003 H   0  0  0  0  0  0  0  0  0  0  0  0
  148.1293  139.1253  155.0707 H   0  0  0  0  0  0  0  0  0  0  0  0
  150.3504  134.0281  156.5073 H   0  0  0  0  0  0  0  0  0  0  0  0
  151.6138  137.0486  153.5724 H   0  0  0  0  0  0  0  0  0  0  0  0
  151.7652  142.2292  156.7792 H   0  0  0  0  0  0  0  0  0  0  0  0
  150.8132  143.0647  155.5599 H   0  0  0  0  0  0  0  0  0  0  0  0
  149.3646  143.6047  156.9687 H   0  0  0  0  0  0  0  0  0  0  0  0
  149.0942  143.0479  154.8292 H   0  0  0  0  0  0  0  0  0  0  0  0
  148.6821  140.1282  152.5535 H   0  0  0  0  0  0  0  0  0  0  0  0
  1  2  1  0  0  0  0
  1 22  1  0  0  0  0
  2  3  2  0  0  0  0
  2  4  1  0  0  0  0
  4 17  2  0  0  0  0
  4  5  1  0  0  0  0
  5  6  2  0  0  0  0
  6  7  1  0  0  0  0
  6 23  1  0  0  0  0
  7  8  1  0  0  0  0
  7 17  1  0  0  0  0
  8 18  1  0  0  0  0
  8 15  1  0  0  0  0
  8  9  1  0  0  0  0
  9 10  1  0  0  0  0
 10 19  1  0  0  0  0
 10 11  1  0  0  0  0
 10 13  1  0  0  0  0
 11 12  1  0  0  0  0
 11 24  1  0  0  0  0
 11 25  1  0  0  0  0
 12 26  1  0  0  0  0
 13 20  1  0  0  0  0
 13 14  1  0  0  0  0
 13 15  1  0  0  0  0
 14 27  1  0  0  0  0
 15 21  1  0  0  0  0
 15 16  1  0  0  0  0
 16 28  1  0  0  0  0
M  CHG  1   1  -1
M  END
> <s_m_source_file>
AV-unprocessed.smi

> <i_m_source_file_index>
160

> <i_lp_mmshare_version>
43012

> <i_f3d_flags>
0

> <s_epik_input>
W05IMl1DKD1PKWMxbltjSF1uKG4xKVtDQEBIXTJPW0NASF0oW0NIMl1bT0hdKVtDQEBIXShbT0hdKVtDQEhdMltPSF0=

> <s_epik_cmdline>
J2VwaWtfcHl0aG9uJywgJy1waCcsICc3LjAnLCAnLXRuJywgJzgnLCAnLW1hJywgJzIwMCcsICctbWV0YWxfYmluZGluZycsICctaW1hZScsICc8aW5maWxlLm1hZT4nLCAnLW9tYWUnLCAnPG91dGZpbGUubWFlPic=

> <r_lp_tautomer_probability>
1

> <r_epik_Ionization_Penalty>
6.6993

> <r_epik_Ionization_Penalty_Charging>
6.6993

> <r_epik_Ionization_Penalty_Neutral>
6.01698e-06

> <r_epik_State_Penalty>
6.69929

> <r_epik_Charging_Adjusted_Penalty>
13.3986

> <i_epik_Tot_Q>
-1

> <i_epik_Tot_abs_Q>
1

> <r_epik_Metal_State_Penalty>
2.62798

> <b_epik_Metal_Only>
1

> <s_epik_Chemistry_Notes>
This compound contains an acetal/aminal-like group ( X-CH(R)-Y where X, Y are N, S, or O) that may be acid/base labile, releasing an aldehyde.

> <s_lp_Force_Field>
OPLS_2005

> <r_lp_Energy>
44.8838

> <b_lp_Chiralities_Consistent>
1

> <s_lp_Variant>
AV-unprocessed.smi:160-19

> <Gold.Version>
5.8.1

> <Gold.Id.Protein>
6NUR|6NUR_protein|mol2

> <Gold.PLP.Fitness>
45.0855

> <Gold.PLP.PLP>
-23.8016

> <Gold.PLP.part.hbond>
-8.0000

> <Gold.PLP.part.metal>
0.0000

> <Gold.PLP.part.buried>
-0.9521

> <Gold.PLP.part.nonpolar>
-15.7794

> <Gold.PLP.part.repulsive>
0.1735

> <Gold.PLP.ligand.clash>
0.0000

> <Gold.PLP.ligand.torsion>
0.6963

> <Gold.PLP.Chemscore.Hbond>
6.5510

> <Gold.PLP.Chemscore.CHOScore>
1.0000

> <Gold.PLP.Chemscore.Metal>
0.0000

> <Gold.Chemscore.Hbonds>
donor molecule, donor type, donor heavy atom, donor atom, acceptor molecule, acceptor atom, score
      L1  H    12    26       P1  8028  1.00
      L1  H    14    27       P1  8028  1.00
      L1  H    16    28       P1  7957  1.00
      P1  H  6896  6908       L1     1  0.93
      P1  H  6896  6909       L1     3  0.60
      P1  H  7989  7998       L1     9  0.50
      P1  H  8011  8017       L1    14  0.12
      P1  H 10752 10763       L1     5  0.86
      L1  C     6    23       P1  7949  1.00

> <Gold.PLP.Chemscore.Internal.Correction>
0.0237

> <Gold.Rescore>
     Score         DG    S(hbond)    S(metal)    S(lipo)     H(rot)  DE(clash)    DE(int)     intcor
     11.31     -12.95       4.43        0.00      25.61       4.04       0.73       0.90       ----

> <Gold.Chemscore.Fitness>
11.3145

> <Gold.Chemscore.DG>
-12.9452

> <Gold.Chemscore.ZeroCoef>
-5.4800

> <Gold.Chemscore.Hbond>
4.4347

> <Gold.Chemscore.Metal>
0.0000

> <Gold.Chemscore.Lipo>
25.6092

> <Gold.Chemscore.Internal_Hbond>
0.0000

> <Gold.Chemscore.DEClash>
0.7349

> <Gold.Chemscore.DEInternal>
0.8957

> <Gold.Chemscore.Rot>
4.0403

> <Gold.Chemscore.Internal.Correction>
   9.000000E+99

> <Gold.Chemscore.Hbonds>
donor molecule, donor type, donor heavy atom, donor atom, acceptor molecule, acceptor atom, score
      L1  H    12    26       P1  8028  0.86
      L1  H    14    27       P1  8028  0.98
      L1  H    16    28       P1  7957  1.00
      P1  H  6896  6908       L1     1  0.18
      P1  H  6896  6909       L1     3  0.13
      P1  H  7989  7998       L1     9  0.02
      P1  H  8011  8017       L1    14  0.07
      P1  H 10752 10763       L1     5  0.15

> <Gold.Chemscore.Hbond.Weighted>
-14.8120

> <Gold.Chemscore.Metal.Weighted>
-0.0000

> <Gold.Chemscore.Lipo.Weighted>
-2.9963

> <Gold.Chemscore.Internal_Hbond.Weighted>
0.0000

> <Gold.Chemscore.DEClash.Weighted>
0.7349

> <Gold.Chemscore.DEInternal.Weighted>
0.8957

> <Gold.Chemscore.Rot.Weighted>
10.3431

> <Gold.Chemscore.Internal.Correction.Weighted>
   9.000000E+99

> <Gold.Protein.RotatedTorsions>
[ 6907 6896 6895 6894 ] final  103.53 input  -60.11 | X-H torsion
[ 7974 7965 7964 7962 ] final   79.43 input  175.53 | X-H torsion
[ 8008 7997 7996 7995 ] final    1.64 input   59.86 | X-H torsion
[ 10167 10162 10161 10158 ] final -110.66 input  -65.29 | X-H torsion
[ 10718 10713 10712 10709 ] final  -29.19 input   66.30 | X-H torsion
[ 10763 10752 10751 10750 ] final   88.50 input  -60.55 | X-H torsion
[ 11005 11000 10999 10996 ] final  135.09 input  -57.11 | X-H torsion

> <Gold.Protein.ActiveResidues>
 VAL166  LYS551  ARG553  GLY616  TRP617  ASP618  TYR619  PRO620  LYS621  CYS622 
 ASP623  PHE694  ASN695  SER759  ASP760  ASP761  ALA762  ILE779  LEU786  VAL792 
 PHE793  MET794  SER795  GLU796  ALA797  LYS798  CYS799  TRP800  GLU811  SER814 

> <Gold.Protein.RotatedAtoms>
  152.5292  133.9812  159.7807 H   0  0  0  0  0  0  0  0  0  0  0  0  # atno 6907 bound_to 6896
  151.0065  133.5998  159.2695 H   0  0  0  0  0  0  0  0  0  0  0  0  # atno 6908 bound_to 6896
  151.3087  135.0795  159.9318 H   0  0  0  0  0  0  0  0  0  0  0  0  # atno 6909 bound_to 6896
  145.6642  139.2479  143.1905 H   0  0  0  0  0  0  0  0  0  0  0  0  # atno 7974 bound_to 7965
  154.6821  140.2635  155.6897 H   0  0  0  0  0  0  0  0  0  0  0  0  # atno 8008 bound_to 7997
  156.2701  140.2808  156.1292 H   0  0  0  0  0  0  0  0  0  0  0  0  # atno 8009 bound_to 7997
  155.1016  140.0374  157.2688 H   0  0  0  0  0  0  0  0  0  0  0  0  # atno 8010 bound_to 7997
  140.1421  143.4271  152.1555 H   0  0  0  0  0  0  0  0  0  0  0  0  # atno 10167 bound_to 10162
  156.4156  130.4416  149.7220 H   0  0  0  0  0  0  0  0  0  0  0  0  # atno 10718 bound_to 10713
  153.1775  135.4504  154.9985 H   0  0  0  0  0  0  0  0  0  0  0  0  # atno 10763 bound_to 10752
  154.8008  135.3255  154.7557 H   0  0  0  0  0  0  0  0  0  0  0  0  # atno 10764 bound_to 10752
  153.8025  135.6961  153.4908 H   0  0  0  0  0  0  0  0  0  0  0  0  # atno 10765 bound_to 10752
  139.9957  134.9498  156.9958 H   0  0  0  0  0  0  0  0  0  0  0  0  # atno 11005 bound_to 11000
  146.1099  140.7441  142.9508 LP  0  0  0  0  0  0  0  0  0  0  0  0  # atno 17320 bound_to 7965
  144.7078  140.3923  143.7104 LP  0  0  0  0  0  0  0  0  0  0  0  0  # atno 17321 bound_to 7965
  139.5467  144.7304  151.4561 LP  0  0  0  0  0  0  0  0  0  0  0  0  # atno 17342 bound_to 10162
  140.6754  143.8201  150.7052 LP  0  0  0  0  0  0  0  0  0  0  0  0  # atno 17343 bound_to 10162
  156.4182  130.7755  151.2771 LP  0  0  0  0  0  0  0  0  0  0  0  0  # atno 17370 bound_to 10713
  157.7508  131.0191  150.3653 LP  0  0  0  0  0  0  0  0  0  0  0  0  # atno 17371 bound_to 10713
  140.4823  134.1277  155.7219 LP  0  0  0  0  0  0  0  0  0  0  0  0  # atno 17394 bound_to 11000
  141.1602  133.8807  157.1868 LP  0  0  0  0  0  0  0  0  0  0  0  0  # atno 17395 bound_to 11000

$$$$
