AV-unprocessed.smi:3261|AV-procd|sdf|12483|dock6
  -GOLD-   2272018383D 1   1.00000     0.00000
 Structure written by MMmdl.
 30 31  0  0  0  0  0  0  0  0  3 V2000
  146.5472  132.0462  154.1452 O   0  0  0  0  0  0  0  0  0  0  0  0
  147.3482  131.6124  153.3187 C   0  0  0  0  0  0  0  0  0  0  0  0
  147.0320  131.6799  152.0018 N   0  0  0  0  0  0  0  0  0  0  0  0
  145.8360  132.1460  151.3925 C   0  0  0  0  0  0  0  0  0  0  0  0
  145.0847  133.1242  152.0806 C   0  0  0  0  0  0  0  0  0  0  0  0
  143.9025  133.6266  151.5000 C   0  0  0  0  0  0  0  0  0  0  0  0
  143.5061  133.1810  150.2883 N   0  3  0  0  0  0  0  0  0  0  0  0
  144.2023  132.2625  149.5844 C   0  0  0  0  0  0  0  0  0  0  0  0
  145.3922  131.7237  150.1143 C   0  0  0  0  0  0  0  0  0  0  0  0
  148.5517  131.0890  153.7040 N   0  5  0  0  0  0  0  0  0  0  0  0
  149.8328  131.7754  153.9490 C   0  0  1  0  0  0  0  0  0  0  0  0
  149.6640  133.2830  153.6575 C   0  0  0  0  0  0  0  0  0  0  0  0
  148.9925  133.9659  154.8567 C   0  0  0  0  0  0  0  0  0  0  0  0
  149.6334  133.0909  156.3305 S   0  0  0  0  0  0  0  0  0  0  0  0
  150.7872  133.8298  156.8670 O   0  0  0  0  0  0  0  0  0  0  0  0
  148.5091  132.7169  157.2027 O   0  0  0  0  0  0  0  0  0  0  0  0
  150.2468  131.6127  155.4262 C   0  0  0  0  0  0  0  0  0  0  0  0
  147.7732  131.4224  151.3668 H   0  0  0  0  0  0  0  0  0  0  0  0
  145.4054  133.4810  153.0488 H   0  0  0  0  0  0  0  0  0  0  0  0
  143.2684  134.3677  151.9642 H   0  0  0  0  0  0  0  0  0  0  0  0
  143.7940  131.9921  148.6217 H   0  0  0  0  0  0  0  0  0  0  0  0
  145.9500  131.0066  149.5308 H   0  0  0  0  0  0  0  0  0  0  0  0
  150.6205  131.3772  153.3074 H   0  0  0  0  0  0  0  0  0  0  0  0
  150.6551  133.7193  153.5269 H   0  0  0  0  0  0  0  0  0  0  0  0
  149.1203  133.4694  152.7303 H   0  0  0  0  0  0  0  0  0  0  0  0
  149.2138  135.0308  154.9227 H   0  0  0  0  0  0  0  0  0  0  0  0
  147.9091  133.8368  154.8271 H   0  0  0  0  0  0  0  0  0  0  0  0
  149.8628  130.7050  155.8927 H   0  0  0  0  0  0  0  0  0  0  0  0
  151.3329  131.6021  155.5158 H   0  0  0  0  0  0  0  0  0  0  0  0
  142.6483  133.5584  149.8850 H   0  0  0  0  0  0  0  0  0  0  0  0
  1  2  2  0  0  0  0
  2  3  1  0  0  0  0
  2 10  1  0  0  0  0
  3  4  1  0  0  0  0
  3 18  1  0  0  0  0
  4  9  1  0  0  0  0
  4  5  2  0  0  0  0
  5  6  1  0  0  0  0
  5 19  1  0  0  0  0
  6  7  2  0  0  0  0
  6 20  1  0  0  0  0
  7  8  1  0  0  0  0
  7 30  1  0  0  0  0
  8  9  2  0  0  0  0
  8 21  1  0  0  0  0
  9 22  1  0  0  0  0
 10 11  1  0  0  0  0
 11 17  1  0  0  0  0
 11 12  1  0  0  0  0
 11 23  1  0  0  0  0
 12 13  1  0  0  0  0
 12 24  1  0  0  0  0
 12 25  1  0  0  0  0
 13 14  1  0  0  0  0
 13 26  1  0  0  0  0
 13 27  1  0  0  0  0
 14 15  2  0  0  0  0
 14 16  2  0  0  0  0
 14 17  1  0  0  0  0
 17 28  1  0  0  0  0
 17 29  1  0  0  0  0
M  CHG  1   7   1
M  CHG  1  10  -1
M  END
> <s_m_source_file>
AV-unprocessed.smi

> <i_m_source_file_index>
3261

> <i_lp_mmshare_version>
43012

> <i_f3d_flags>
0

> <s_epik_input>
Tz1TMSg9TylbQ0gyXVtDSDJdW0NASF0oW0NIMl0xKVtOSF1DKD1PKVtOSF1jMltjSF1bY0hdbltjSF1bY0hdMg==

> <s_epik_cmdline>
J2VwaWtfcHl0aG9uJywgJy1waCcsICc3LjAnLCAnLXRuJywgJzgnLCAnLW1hJywgJzIwMCcsICctbWV0YWxfYmluZGluZycsICctaW1hZScsICc8aW5maWxlLm1hZT4nLCAnLW9tYWUnLCAnPG91dGZpbGUubWFlPic=

> <r_epik_Ionization_Penalty>
8.1176

> <r_epik_Ionization_Penalty_Charging>
8.1176

> <r_epik_Ionization_Penalty_Neutral>
3.03687e-06

> <r_epik_State_Penalty>
7.79629

> <r_epik_Charging_Adjusted_Penalty>
15.9139

> <i_epik_Tot_Q>
0

> <i_epik_Tot_abs_Q>
2

> <r_epik_Metal_State_Penalty>
3.7997

> <b_epik_Metal_Only>
1

> <s_lp_Force_Field>
OPLS_2005

> <r_lp_Energy>
21.8236

> <b_lp_Chiralities_Consistent>
1

> <s_lp_Variant>
AV-unprocessed.smi:3261-6

> <Gold.Version>
5.8.1

> <Gold.Id.Protein>
6NUR|6NUR_protein|mol2

> <Gold.PLP.Fitness>
38.0698

> <Gold.PLP.PLP>
-27.8753

> <Gold.PLP.part.hbond>
-3.0000

> <Gold.PLP.part.metal>
0.0000

> <Gold.PLP.part.buried>
-5.7623

> <Gold.PLP.part.nonpolar>
-19.4799

> <Gold.PLP.part.repulsive>
0.2522

> <Gold.PLP.ligand.clash>
0.0000

> <Gold.PLP.ligand.torsion>
0.9045

> <Gold.PLP.Chemscore.Hbond>
4.0000

> <Gold.PLP.Chemscore.CHOScore>
0.0000

> <Gold.PLP.Chemscore.Metal>
0.0000

> <Gold.Chemscore.Hbonds>
donor molecule, donor type, donor heavy atom, donor atom, acceptor molecule, acceptor atom, score
      L1  H     3    18       P1 10747  1.00
      L1  H     7    30       P1 10186  2.00
      P1  H  6896  6908       L1    15  0.13

> <Gold.PLP.Chemscore.Internal.Correction>
0.0036

> <Gold.Rescore>
     Score         DG    S(hbond)    S(metal)    S(lipo)     H(rot)  DE(clash)    DE(int)     intcor
     17.88     -20.24       2.97        0.00      63.18       1.00       0.03       2.34       ----

> <Gold.Chemscore.Fitness>
17.8758

> <Gold.Chemscore.DG>
-20.2438

> <Gold.Chemscore.ZeroCoef>
-5.4800

> <Gold.Chemscore.Hbond>
2.9734

> <Gold.Chemscore.Metal>
0.0000

> <Gold.Chemscore.Lipo>
63.1849

> <Gold.Chemscore.Internal_Hbond>
0.0000

> <Gold.Chemscore.DEClash>
0.0270

> <Gold.Chemscore.DEInternal>
2.3410

> <Gold.Chemscore.Rot>
1.0000

> <Gold.Chemscore.Internal.Correction>
   9.000000E+99

> <Gold.Chemscore.Hbonds>
donor molecule, donor type, donor heavy atom, donor atom, acceptor molecule, acceptor atom, score
      L1  H     3    18       P1 10747  1.00
      L1  H     7    30       P1 10186  1.00
      P1  H  6896  6908       L1    15  0.11

> <Gold.Chemscore.Hbond.Weighted>
-9.9311

> <Gold.Chemscore.Metal.Weighted>
-0.0000

> <Gold.Chemscore.Lipo.Weighted>
-7.3926

> <Gold.Chemscore.Internal_Hbond.Weighted>
0.0000

> <Gold.Chemscore.DEClash.Weighted>
0.0270

> <Gold.Chemscore.DEInternal.Weighted>
2.3410

> <Gold.Chemscore.Rot.Weighted>
2.5600

> <Gold.Chemscore.Internal.Correction.Weighted>
   9.000000E+99

> <Gold.Protein.RotatedTorsions>
[ 6907 6896 6895 6894 ] final  105.42 input  -60.11 | X-H torsion
[ 7974 7965 7964 7962 ] final   58.50 input  175.53 | X-H torsion
[ 8008 7997 7996 7995 ] final  169.14 input   59.86 | X-H torsion
[ 10167 10162 10161 10158 ] final  -91.46 input  -65.29 | X-H torsion
[ 10718 10713 10712 10709 ] final   78.21 input   66.30 | X-H torsion
[ 10763 10752 10751 10750 ] final   57.60 input  -60.55 | X-H torsion
[ 11005 11000 10999 10996 ] final  140.76 input  -57.11 | X-H torsion

> <Gold.Protein.ActiveResidues>
 VAL166  LYS551  ARG553  GLY616  TRP617  ASP618  TYR619  PRO620  LYS621  CYS622 
 ASP623  PHE694  ASN695  SER759  ASP760  ASP761  ALA762  ILE779  LEU786  VAL792 
 PHE793  MET794  SER795  GLU796  ALA797  LYS798  CYS799  TRP800  GLU811  SER814 

> <Gold.Protein.RotatedAtoms>
  152.5231  133.9531  159.7681 H   0  0  0  0  0  0  0  0  0  0  0  0  # atno 6907 bound_to 6896
  150.9837  133.6211  159.2725 H   0  0  0  0  0  0  0  0  0  0  0  0  # atno 6908 bound_to 6896
  151.3379  135.0863  159.9414 H   0  0  0  0  0  0  0  0  0  0  0  0  # atno 6909 bound_to 6896
  145.9174  139.3702  143.0499 H   0  0  0  0  0  0  0  0  0  0  0  0  # atno 7974 bound_to 7965
  156.1484  140.1572  156.8809 H   0  0  0  0  0  0  0  0  0  0  0  0  # atno 8008 bound_to 7997
  154.5049  140.0815  156.7911 H   0  0  0  0  0  0  0  0  0  0  0  0  # atno 8009 bound_to 7997
  155.3944  140.3411  155.4255 H   0  0  0  0  0  0  0  0  0  0  0  0  # atno 8010 bound_to 7997
  140.3447  143.2923  151.9795 H   0  0  0  0  0  0  0  0  0  0  0  0  # atno 10167 bound_to 10162
  157.6737  130.9857  150.1753 H   0  0  0  0  0  0  0  0  0  0  0  0  # atno 10718 bound_to 10713
  152.9853  135.5636  154.5417 H   0  0  0  0  0  0  0  0  0  0  0  0  # atno 10763 bound_to 10752
  154.4870  135.2791  155.1528 H   0  0  0  0  0  0  0  0  0  0  0  0  # atno 10764 bound_to 10752
  154.3013  135.6307  153.5479 H   0  0  0  0  0  0  0  0  0  0  0  0  # atno 10765 bound_to 10752
  140.0351  134.9333  157.0737 H   0  0  0  0  0  0  0  0  0  0  0  0  # atno 11005 bound_to 11000
  145.8593  140.9484  143.0708 LP  0  0  0  0  0  0  0  0  0  0  0  0  # atno 17320 bound_to 7965
  144.6749  140.0510  143.7478 LP  0  0  0  0  0  0  0  0  0  0  0  0  # atno 17321 bound_to 7965
  139.4835  144.6127  151.7404 LP  0  0  0  0  0  0  0  0  0  0  0  0  # atno 17342 bound_to 10162
  140.5276  144.0781  150.6042 LP  0  0  0  0  0  0  0  0  0  0  0  0  # atno 17343 bound_to 10162
  156.2498  130.3699  149.8245 LP  0  0  0  0  0  0  0  0  0  0  0  0  # atno 17370 bound_to 10713
  156.6021  130.8551  151.3434 LP  0  0  0  0  0  0  0  0  0  0  0  0  # atno 17371 bound_to 10713
  140.4161  134.1929  155.7163 LP  0  0  0  0  0  0  0  0  0  0  0  0  # atno 17394 bound_to 11000
  141.1853  133.8327  157.1111 LP  0  0  0  0  0  0  0  0  0  0  0  0  # atno 17395 bound_to 11000

$$$$
