AV-unprocessed.smi:252|AV-procd|sdf|1936|dock7
  -GOLD-   2262021 63D 1   1.00000     0.00000
 Structure written by MMmdl.
 56 59  0  0  0  0  0  0  0  0  1 V2000
  151.9775  144.8471  159.0712 C   0  0  0  0  0  0  0  0  0  0  0  0
  150.6465  144.1660  158.7160 C   0  0  0  0  0  0  0  0  0  0  0  0
  150.8200  142.8329  157.9811 C   0  0  0  0  0  0  0  0  0  0  0  0
  151.4250  141.8966  158.5044 O   0  0  0  0  0  0  0  0  0  0  0  0
  150.2772  142.7641  156.7560 N   0  0  0  0  0  0  0  0  0  0  0  0
  150.3251  141.6009  155.8761 C   0  0  2  0  0  0  0  0  0  0  0  0
  149.4336  141.8194  154.6377 C   0  0  0  0  0  0  0  0  0  0  0  0
  149.4003  140.5524  153.7703 C   0  0  0  0  0  0  0  0  0  0  0  0
  148.9695  139.3302  154.5963 C   0  0  0  0  0  0  0  0  0  0  0  0
  149.8171  139.1785  155.7801 N   0  0  0  0  0  0  0  0  0  0  0  0
  149.7808  137.9894  156.4337 C   0  0  0  0  0  0  0  0  0  0  0  0
  150.8292  137.1282  156.3360 N   0  0  0  0  0  0  0  0  0  0  0  0
  150.7941  135.9480  156.9615 C   0  0  0  0  0  0  0  0  0  0  0  0
  149.8269  135.4368  157.7251 N   0  0  0  0  0  0  0  0  0  0  0  0
  148.7773  136.3002  157.8380 C   0  0  0  0  0  0  0  0  0  0  0  0
  148.6731  137.5836  157.2306 C   0  0  0  0  0  0  0  0  0  0  0  0
  147.4630  138.1732  157.5781 N   0  0  0  0  0  0  0  0  0  0  0  0
  146.8814  137.2850  158.3367 C   0  0  0  0  0  0  0  0  0  0  0  0
  147.6026  136.1323  158.5507 N   0  0  0  0  0  0  0  0  0  0  0  0
  147.1967  134.9846  159.3481 C   0  0  0  0  0  0  0  0  0  0  0  0
  146.1509  135.3266  160.4420 C   0  0  1  0  0  0  0  0  0  0  0  0
  146.6524  136.4099  161.2069 O   0  0  0  0  0  0  0  0  0  0  0  0
  144.7939  135.7429  159.8793 C   0  0  0  0  0  0  0  0  0  0  0  0
  143.8225  135.3091  160.9663 C   0  0  0  0  0  0  0  0  0  0  0  0
  144.3657  134.0687  161.3806 O   0  0  0  0  0  0  0  0  0  0  0  0
  145.7856  134.1809  161.4287 C   0  0  1  0  0  0  0  0  0  0  0  0
  146.3736  132.7929  161.1297 C   0  0  0  0  0  0  0  0  0  0  0  0
  149.8754  140.3505  156.6536 C   0  0  0  0  0  0  0  0  0  0  0  0
  151.8010  145.8110  159.5490 H   0  0  0  0  0  0  0  0  0  0  0  0
  152.5832  145.0260  158.1819 H   0  0  0  0  0  0  0  0  0  0  0  0
  152.5638  144.2407  159.7628 H   0  0  0  0  0  0  0  0  0  0  0  0
  150.0688  143.9907  159.6241 H   0  0  0  0  0  0  0  0  0  0  0  0
  150.0551  144.8384  158.0927 H   0  0  0  0  0  0  0  0  0  0  0  0
  149.7972  143.5803  156.4054 H   0  0  0  0  0  0  0  0  0  0  0  0
  151.3541  141.4404  155.5478 H   0  0  0  0  0  0  0  0  0  0  0  0
  148.4193  142.0724  154.9497 H   0  0  0  0  0  0  0  0  0  0  0  0
  149.7987  142.6615  154.0488 H   0  0  0  0  0  0  0  0  0  0  0  0
  148.7227  140.6918  152.9277 H   0  0  0  0  0  0  0  0  0  0  0  0
  150.3899  140.3751  153.3470 H   0  0  0  0  0  0  0  0  0  0  0  0
  147.9299  139.4404  154.9085 H   0  0  0  0  0  0  0  0  0  0  0  0
  149.0280  138.4355  153.9752 H   0  0  0  0  0  0  0  0  0  0  0  0
  151.6649  135.3228  156.8293 H   0  0  0  0  0  0  0  0  0  0  0  0
  145.9039  137.4499  158.7662 H   0  0  0  0  0  0  0  0  0  0  0  0
  146.8002  134.2351  158.6625 H   0  0  0  0  0  0  0  0  0  0  0  0
  148.0901  134.5498  159.7981 H   0  0  0  0  0  0  0  0  0  0  0  0
  146.3444  136.3182  162.0955 H   0  0  0  0  0  0  0  0  0  0  0  0
  144.7218  136.8040  159.6364 H   0  0  0  0  0  0  0  0  0  0  0  0
  144.5754  135.1794  158.9715 H   0  0  0  0  0  0  0  0  0  0  0  0
  143.8231  136.0119  161.8009 H   0  0  0  0  0  0  0  0  0  0  0  0
  142.8006  135.2006  160.6025 H   0  0  0  0  0  0  0  0  0  0  0  0
  146.0594  134.4563  162.4490 H   0  0  0  0  0  0  0  0  0  0  0  0
  147.4630  132.8061  161.1638 H   0  0  0  0  0  0  0  0  0  0  0  0
  146.0653  132.4291  160.1494 H   0  0  0  0  0  0  0  0  0  0  0  0
  146.0343  132.0654  161.8674 H   0  0  0  0  0  0  0  0  0  0  0  0
  150.5500  140.1869  157.4935 H   0  0  0  0  0  0  0  0  0  0  0  0
  148.8835  140.5112  157.0791 H   0  0  0  0  0  0  0  0  0  0  0  0
  1  2  1  0  0  0  0
  1 29  1  0  0  0  0
  1 30  1  0  0  0  0
  1 31  1  0  0  0  0
  2  3  1  0  0  0  0
  2 32  1  0  0  0  0
  2 33  1  0  0  0  0
  3  4  2  0  0  0  0
  3  5  1  0  0  0  0
  5  6  1  0  0  0  0
  5 34  1  0  0  0  0
  6 28  1  0  0  0  0
  6  7  1  0  0  0  0
  6 35  1  0  0  0  0
  7  8  1  0  0  0  0
  7 36  1  0  0  0  0
  7 37  1  0  0  0  0
  8  9  1  0  0  0  0
  8 38  1  0  0  0  0
  8 39  1  0  0  0  0
  9 10  1  0  0  0  0
  9 40  1  0  0  0  0
  9 41  1  0  0  0  0
 10 11  1  0  0  0  0
 10 28  1  0  0  0  0
 11 16  1  0  0  0  0
 11 12  2  0  0  0  0
 12 13  1  0  0  0  0
 13 14  2  0  0  0  0
 13 42  1  0  0  0  0
 14 15  1  0  0  0  0
 15 19  1  0  0  0  0
 15 16  2  0  0  0  0
 16 17  1  0  0  0  0
 17 18  2  0  0  0  0
 18 19  1  0  0  0  0
 18 43  1  0  0  0  0
 19 20  1  0  0  0  0
 20 21  1  0  0  0  0
 20 44  1  0  0  0  0
 20 45  1  0  0  0  0
 21 26  1  0  0  0  0
 21 22  1  0  0  0  0
 21 23  1  0  0  0  0
 22 46  1  0  0  0  0
 23 24  1  0  0  0  0
 23 47  1  0  0  0  0
 23 48  1  0  0  0  0
 24 25  1  0  0  0  0
 24 49  1  0  0  0  0
 24 50  1  0  0  0  0
 25 26  1  0  0  0  0
 26 27  1  0  0  0  0
 26 51  1  0  0  0  0
 27 52  1  0  0  0  0
 27 53  1  0  0  0  0
 27 54  1  0  0  0  0
 28 55  1  0  0  0  0
 28 56  1  0  0  0  0
M  END
> <s_m_source_file>
AV-unprocessed.smi

> <i_m_source_file_index>
252

> <i_lp_mmshare_version>
43012

> <i_f3d_flags>
0

> <s_epik_input>
W0NIM11bQ0gyXUMoPU8pW05IXVtDQEBIXTFbQ0gyXVtDSDJdW0NIMl1OKFtDSDJdMSljKG5bY0hdbjIpYyhjMjMpbltjSF1uM1tDSDJdW0NAQF00KFtPSF0pW0NIMl1bQ0gyXU9bQ0BIXTRbQ0gzXQ==

> <s_epik_cmdline>
J2VwaWtfcHl0aG9uJywgJy1waCcsICc3LjAnLCAnLXRuJywgJzgnLCAnLW1hJywgJzIwMCcsICctbWV0YWxfYmluZGluZycsICctaW1hZScsICc8aW5maWxlLm1hZT4nLCAnLW9tYWUnLCAnPG91dGZpbGUubWFlPic=

> <r_lp_tautomer_probability>
1

> <r_epik_Ionization_Penalty>
0.00182575

> <r_epik_Ionization_Penalty_Charging>
0

> <r_epik_Ionization_Penalty_Neutral>
0.00182575

> <r_epik_State_Penalty>
0.00104524

> <r_epik_Charging_Adjusted_Penalty>
0.00104524

> <i_epik_Tot_Q>
0

> <i_epik_Tot_abs_Q>
0

> <r_epik_Metal_State_Penalty>
-0

> <b_epik_Metal_Only>
0

> <s_lp_Force_Field>
OPLS_2005

> <r_lp_Energy>
34.3477

> <b_lp_Chiralities_Consistent>
1

> <s_lp_Variant>
AV-unprocessed.smi:252-1

> <Gold.Version>
5.8.1

> <Gold.Id.Protein>
6NUR|6NUR_protein|mol2

> <Gold.PLP.Fitness>
49.8885

> <Gold.PLP.PLP>
-42.3518

> <Gold.PLP.part.hbond>
-3.5528

> <Gold.PLP.part.metal>
0.0000

> <Gold.PLP.part.buried>
-3.3389

> <Gold.PLP.part.nonpolar>
-35.2164

> <Gold.PLP.part.repulsive>
0.0998

> <Gold.PLP.ligand.clash>
0.0000

> <Gold.PLP.ligand.torsion>
0.6467

> <Gold.PLP.Chemscore.Hbond>
2.7840

> <Gold.PLP.Chemscore.CHOScore>
0.0000

> <Gold.PLP.Chemscore.Metal>
0.0000

> <Gold.Chemscore.Hbonds>
donor molecule, donor type, donor heavy atom, donor atom, acceptor molecule, acceptor atom, score
      L1  H     5    34       P1  8028  1.00
      P1  H  6896  6909       L1    14  0.54

> <Gold.PLP.Chemscore.Internal.Correction>
0.4781

> <Gold.Rescore>
     Score         DG    S(hbond)    S(metal)    S(lipo)     H(rot)  DE(clash)    DE(int)     intcor
     15.85     -19.08       2.59        0.00     101.56       2.70       0.37       2.86       ----

> <Gold.Chemscore.Fitness>
15.8474

> <Gold.Chemscore.DG>
-19.0785

> <Gold.Chemscore.ZeroCoef>
-5.4800

> <Gold.Chemscore.Hbond>
2.5865

> <Gold.Chemscore.Metal>
0.0000

> <Gold.Chemscore.Lipo>
101.5574

> <Gold.Chemscore.Internal_Hbond>
0.0000

> <Gold.Chemscore.DEClash>
0.3720

> <Gold.Chemscore.DEInternal>
2.8590

> <Gold.Chemscore.Rot>
2.7041

> <Gold.Chemscore.Internal.Correction>
   9.000000E+99

> <Gold.Chemscore.Hbonds>
donor molecule, donor type, donor heavy atom, donor atom, acceptor molecule, acceptor atom, score
      L1  H     5    34       P1  8028  1.00
      P1  H  6896  6909       L1    14  0.37

> <Gold.Chemscore.Hbond.Weighted>
-8.6387

> <Gold.Chemscore.Metal.Weighted>
-0.0000

> <Gold.Chemscore.Lipo.Weighted>
-11.8822

> <Gold.Chemscore.Internal_Hbond.Weighted>
0.0000

> <Gold.Chemscore.DEClash.Weighted>
0.3720

> <Gold.Chemscore.DEInternal.Weighted>
2.8590

> <Gold.Chemscore.Rot.Weighted>
6.9225

> <Gold.Chemscore.Internal.Correction.Weighted>
   9.000000E+99

> <Gold.Protein.RotatedTorsions>
[ 6907 6896 6895 6894 ] final   51.68 input  -60.11 | X-H torsion
[ 7974 7965 7964 7962 ] final  101.87 input  175.53 | X-H torsion
[ 8008 7997 7996 7995 ] final  176.34 input   59.86 | X-H torsion
[ 10167 10162 10161 10158 ] final  160.85 input  -65.29 | X-H torsion
[ 10718 10713 10712 10709 ] final  135.05 input   66.30 | X-H torsion
[ 10763 10752 10751 10750 ] final   60.54 input  -60.55 | X-H torsion
[ 11005 11000 10999 10996 ] final   55.99 input  -57.11 | X-H torsion

> <Gold.Protein.ActiveResidues>
 VAL166  LYS551  ARG553  GLY616  TRP617  ASP618  TYR619  PRO620  LYS621  CYS622 
 ASP623  PHE694  ASN695  SER759  ASP760  ASP761  ALA762  ILE779  LEU786  VAL792 
 PHE793  MET794  SER795  GLU796  ALA797  LYS798  CYS799  TRP800  GLU811  SER814 

> <Gold.Protein.RotatedAtoms>
  152.3153  134.7448  160.0326 H   0  0  0  0  0  0  0  0  0  0  0  0  # atno 6907 bound_to 6896
  151.7914  133.3354  159.3508 H   0  0  0  0  0  0  0  0  0  0  0  0  # atno 6908 bound_to 6896
  150.7341  134.5769  159.5963 H   0  0  0  0  0  0  0  0  0  0  0  0  # atno 6909 bound_to 6896
  145.3666  139.2407  143.3478 H   0  0  0  0  0  0  0  0  0  0  0  0  # atno 7974 bound_to 7965
  156.0775  140.1386  156.9753 H   0  0  0  0  0  0  0  0  0  0  0  0  # atno 8008 bound_to 7997
  154.4566  140.0959  156.6824 H   0  0  0  0  0  0  0  0  0  0  0  0  # atno 8009 bound_to 7997
  155.5129  140.3454  155.4394 H   0  0  0  0  0  0  0  0  0  0  0  0  # atno 8010 bound_to 7997
  139.4843  144.4594  151.8725 H   0  0  0  0  0  0  0  0  0  0  0  0  # atno 10167 bound_to 10162
  157.4610  131.1073  150.9920 H   0  0  0  0  0  0  0  0  0  0  0  0  # atno 10718 bound_to 10713
  152.9924  135.5533  154.5890 H   0  0  0  0  0  0  0  0  0  0  0  0  # atno 10763 bound_to 10752
  154.5255  135.2810  155.1227 H   0  0  0  0  0  0  0  0  0  0  0  0  # atno 10764 bound_to 10752
  154.2564  135.6389  153.5311 H   0  0  0  0  0  0  0  0  0  0  0  0  # atno 10765 bound_to 10752
  140.0564  134.5665  155.9203 H   0  0  0  0  0  0  0  0  0  0  0  0  # atno 11005 bound_to 11000
  146.2904  140.4310  142.8742 LP  0  0  0  0  0  0  0  0  0  0  0  0  # atno 17320 bound_to 7965
  144.8607  140.7135  143.6109 LP  0  0  0  0  0  0  0  0  0  0  0  0  # atno 17321 bound_to 7965
  140.4055  144.2437  150.5891 LP  0  0  0  0  0  0  0  0  0  0  0  0  # atno 17342 bound_to 10162
  140.5016  143.2316  151.8669 LP  0  0  0  0  0  0  0  0  0  0  0  0  # atno 17343 bound_to 10162
  157.0717  130.5867  149.5404 LP  0  0  0  0  0  0  0  0  0  0  0  0  # atno 17370 bound_to 10713
  156.0028  130.5111  150.7726 LP  0  0  0  0  0  0  0  0  0  0  0  0  # atno 17371 bound_to 10713
  141.1953  133.6587  156.5639 LP  0  0  0  0  0  0  0  0  0  0  0  0  # atno 17394 bound_to 11000
  140.3838  134.7500  157.4678 LP  0  0  0  0  0  0  0  0  0  0  0  0  # atno 17395 bound_to 11000

$$$$
