AV-unprocessed.smi:2222|AV-procd|sdf|8987|dock6
  -GOLD-   2272012203D 1   1.00000     0.00000
 Structure written by MMmdl.
 34 35  0  0  0  0  0  0  0  0  1 V2000
  146.2211  142.2173  154.6267 C   0  0  0  0  0  0  0  0  0  0  0  0
  147.5671  142.2485  155.0780 O   0  0  0  0  0  0  0  0  0  0  0  0
  148.3661  141.1497  154.8282 C   0  0  0  0  0  0  0  0  0  0  0  0
  147.9027  139.9719  154.1880 C   0  0  0  0  0  0  0  0  0  0  0  0
  148.7929  138.9050  153.9757 C   0  0  0  0  0  0  0  0  0  0  0  0
  150.1213  139.0513  154.4125 C   0  0  0  0  0  0  0  0  0  0  0  0
  151.1354  137.9448  154.2137 C   0  0  0  0  0  0  0  0  0  0  0  0
  150.5733  140.1654  155.0223 N   0  0  0  0  0  0  0  0  0  0  0  0
  149.7248  141.2018  155.2341 C   0  0  0  0  0  0  0  0  0  0  0  0
  150.1250  142.4096  155.8688 N   0  0  0  0  0  0  0  0  0  0  0  0
  151.1112  142.6043  156.7666 C   0  0  0  0  0  0  0  0  0  0  0  0
  151.8214  141.7143  157.2314 O   0  0  0  0  0  0  0  0  0  0  0  0
  151.2491  143.8809  157.1675 N   0  0  0  0  0  0  0  0  0  0  0  0
  152.1945  144.4133  158.1043 C   0  0  2  0  0  0  0  0  0  0  0  0
  152.4418  143.6091  159.3622 C   0  0  0  0  0  0  0  0  0  0  0  0
  151.7003  144.9168  159.4481 C   0  0  2  0  0  0  0  0  0  0  0  0
  150.2267  144.9488  159.8044 C   0  0  0  0  0  0  0  0  0  0  0  0
  145.7315  143.1536  154.8939 H   0  0  0  0  0  0  0  0  0  0  0  0
  145.6610  141.4074  155.0959 H   0  0  0  0  0  0  0  0  0  0  0  0
  146.1665  142.1151  153.5419 H   0  0  0  0  0  0  0  0  0  0  0  0
  146.8820  139.8644  153.8544 H   0  0  0  0  0  0  0  0  0  0  0  0
  148.4603  137.9999  153.4888 H   0  0  0  0  0  0  0  0  0  0  0  0
  150.6621  137.0371  153.8387 H   0  0  0  0  0  0  0  0  0  0  0  0
  151.6284  137.7058  155.1565 H   0  0  0  0  0  0  0  0  0  0  0  0
  151.8962  138.2547  153.4968 H   0  0  0  0  0  0  0  0  0  0  0  0
  149.6036  143.2301  155.5966 H   0  0  0  0  0  0  0  0  0  0  0  0
  150.5672  144.5369  156.8150 H   0  0  0  0  0  0  0  0  0  0  0  0
  153.0791  144.9028  157.6997 H   0  0  0  0  0  0  0  0  0  0  0  0
  151.8715  142.6919  159.4986 H   0  0  0  0  0  0  0  0  0  0  0  0
  153.4579  143.5843  159.7508 H   0  0  0  0  0  0  0  0  0  0  0  0
  152.2584  145.7544  159.8623 H   0  0  0  0  0  0  0  0  0  0  0  0
  149.7140  144.0572  159.4426 H   0  0  0  0  0  0  0  0  0  0  0  0
  149.7544  145.8260  159.3617 H   0  0  0  0  0  0  0  0  0  0  0  0
  150.1064  144.9984  160.8866 H   0  0  0  0  0  0  0  0  0  0  0  0
  1  2  1  0  0  0  0
  1 18  1  0  0  0  0
  1 19  1  0  0  0  0
  1 20  1  0  0  0  0
  2  3  1  0  0  0  0
  3  9  1  0  0  0  0
  3  4  2  0  0  0  0
  4  5  1  0  0  0  0
  4 21  1  0  0  0  0
  5  6  2  0  0  0  0
  5 22  1  0  0  0  0
  6  7  1  0  0  0  0
  6  8  1  0  0  0  0
  7 23  1  0  0  0  0
  7 24  1  0  0  0  0
  7 25  1  0  0  0  0
  8  9  2  0  0  0  0
  9 10  1  0  0  0  0
 10 11  1  0  0  0  0
 10 26  1  0  0  0  0
 11 12  2  0  0  0  0
 11 13  1  0  0  0  0
 13 14  1  0  0  0  0
 13 27  1  0  0  0  0
 14 16  1  0  0  0  0
 14 15  1  0  0  0  0
 14 28  1  0  0  0  0
 15 16  1  0  0  0  0
 15 29  1  0  0  0  0
 15 30  1  0  0  0  0
 16 17  1  0  0  0  0
 16 31  1  0  0  0  0
 17 32  1  0  0  0  0
 17 33  1  0  0  0  0
 17 34  1  0  0  0  0
M  END
> <s_m_source_file>
AV-unprocessed.smi

> <i_m_source_file_index>
2222

> <i_lp_mmshare_version>
43012

> <i_f3d_flags>
0

> <s_epik_input>
W0NIM11PYzFbY0hdW2NIXWMoW0NIM10pbmMxW05IXUMoPU8pW05IXVtDQEBIXTJbQ0gyXVtDQEhdMltDSDNd

> <s_epik_cmdline>
J2VwaWtfcHl0aG9uJywgJy1waCcsICc3LjAnLCAnLXRuJywgJzgnLCAnLW1hJywgJzIwMCcsICctbWV0YWxfYmluZGluZycsICctaW1hZScsICc8aW5maWxlLm1hZT4nLCAnLW9tYWUnLCAnPG91dGZpbGUubWFlPic=

> <r_lp_tautomer_probability>
1

> <r_epik_Ionization_Penalty>
6.59103e-05

> <r_epik_Ionization_Penalty_Charging>
0

> <r_epik_Ionization_Penalty_Neutral>
6.59103e-05

> <r_epik_State_Penalty>
-0

> <r_epik_Charging_Adjusted_Penalty>
0

> <i_epik_Tot_Q>
0

> <i_epik_Tot_abs_Q>
0

> <r_epik_Metal_State_Penalty>
-0

> <b_epik_Metal_Only>
0

> <s_lp_Force_Field>
OPLS_2005

> <r_lp_Energy>
34.1661

> <b_lp_Chiralities_Consistent>
1

> <s_lp_Variant>
AV-unprocessed.smi:2222-3

> <Gold.Version>
5.8.1

> <Gold.Id.Protein>
6NUR|6NUR_protein|mol2

> <Gold.PLP.Fitness>
45.7369

> <Gold.PLP.PLP>
-38.3162

> <Gold.PLP.part.hbond>
-3.0000

> <Gold.PLP.part.metal>
0.0000

> <Gold.PLP.part.buried>
-4.6181

> <Gold.PLP.part.nonpolar>
-33.7060

> <Gold.PLP.part.repulsive>
2.2597

> <Gold.PLP.ligand.clash>
0.0000

> <Gold.PLP.ligand.torsion>
0.3166

> <Gold.PLP.Chemscore.Hbond>
2.6720

> <Gold.PLP.Chemscore.CHOScore>
0.0000

> <Gold.PLP.Chemscore.Metal>
0.0000

> <Gold.Chemscore.Hbonds>
donor molecule, donor type, donor heavy atom, donor atom, acceptor molecule, acceptor atom, score
      L1  H    10    26       P1  8028  1.00
      L1  H    13    27       P1  8028  0.91
      P1  H  7989  7998       L1     8  0.85

> <Gold.PLP.Chemscore.Internal.Correction>
0.0379

> <Gold.Rescore>
     Score         DG    S(hbond)    S(metal)    S(lipo)     H(rot)  DE(clash)    DE(int)     intcor
     15.37     -18.52       1.94        0.00      82.78       1.22       0.27       2.88       ----

> <Gold.Chemscore.Fitness>
15.3746

> <Gold.Chemscore.DG>
-18.5162

> <Gold.Chemscore.ZeroCoef>
-5.4800

> <Gold.Chemscore.Hbond>
1.9357

> <Gold.Chemscore.Metal>
0.0000

> <Gold.Chemscore.Lipo>
82.7849

> <Gold.Chemscore.Internal_Hbond>
0.0000

> <Gold.Chemscore.DEClash>
0.2666

> <Gold.Chemscore.DEInternal>
2.8750

> <Gold.Chemscore.Rot>
1.2168

> <Gold.Chemscore.Internal.Correction>
   9.000000E+99

> <Gold.Chemscore.Hbonds>
donor molecule, donor type, donor heavy atom, donor atom, acceptor molecule, acceptor atom, score
      L1  H    10    26       P1  8028  0.99
      L1  H    13    27       P1  8028  0.79
      P1  H  7989  7998       L1     8  0.04

> <Gold.Chemscore.Hbond.Weighted>
-6.4654

> <Gold.Chemscore.Metal.Weighted>
-0.0000

> <Gold.Chemscore.Lipo.Weighted>
-9.6858

> <Gold.Chemscore.Internal_Hbond.Weighted>
0.0000

> <Gold.Chemscore.DEClash.Weighted>
0.2666

> <Gold.Chemscore.DEInternal.Weighted>
2.8750

> <Gold.Chemscore.Rot.Weighted>
3.1150

> <Gold.Chemscore.Internal.Correction.Weighted>
   9.000000E+99

> <Gold.Protein.RotatedTorsions>
[ 6907 6896 6895 6894 ] final   24.30 input  -60.11 | X-H torsion
[ 7974 7965 7964 7962 ] final -179.02 input  175.53 | X-H torsion
[ 8008 7997 7996 7995 ] final  -38.39 input   59.86 | X-H torsion
[ 10167 10162 10161 10158 ] final   52.73 input  -65.29 | X-H torsion
[ 10718 10713 10712 10709 ] final -114.11 input   66.30 | X-H torsion
[ 10763 10752 10751 10750 ] final  109.95 input  -60.55 | X-H torsion
[ 11005 11000 10999 10996 ] final -177.17 input  -57.11 | X-H torsion

> <Gold.Protein.ActiveResidues>
 VAL166  LYS551  ARG553  GLY616  TRP617  ASP618  TYR619  PRO620  LYS621  CYS622 
 ASP623  PHE694  ASN695  SER759  ASP760  ASP761  ALA762  ILE779  LEU786  VAL792 
 PHE793  MET794  SER795  GLU796  ALA797  LYS798  CYS799  TRP800  GLU811  SER814 

> <Gold.Protein.RotatedAtoms>
  151.9555  135.0149  160.0544 H   0  0  0  0  0  0  0  0  0  0  0  0  # atno 6907 bound_to 6896
  152.1915  133.4772  159.5019 H   0  0  0  0  0  0  0  0  0  0  0  0  # atno 6908 bound_to 6896
  150.6936  134.1623  159.4224 H   0  0  0  0  0  0  0  0  0  0  0  0  # atno 6909 bound_to 6896
  144.7134  140.0780  143.6427 H   0  0  0  0  0  0  0  0  0  0  0  0  # atno 7974 bound_to 7965
  154.4038  140.1579  156.2692 H   0  0  0  0  0  0  0  0  0  0  0  0  # atno 8008 bound_to 7997
  155.8968  140.3435  155.5975 H   0  0  0  0  0  0  0  0  0  0  0  0  # atno 8009 bound_to 7997
  155.7494  140.0803  157.2199 H   0  0  0  0  0  0  0  0  0  0  0  0  # atno 8010 bound_to 7997
  140.2482  144.3508  150.6357 H   0  0  0  0  0  0  0  0  0  0  0  0  # atno 10167 bound_to 10162
  156.0809  130.6009  150.8731 H   0  0  0  0  0  0  0  0  0  0  0  0  # atno 10718 bound_to 10713
  153.4420  135.3764  155.2233 H   0  0  0  0  0  0  0  0  0  0  0  0  # atno 10763 bound_to 10752
  154.8754  135.3865  154.4142 H   0  0  0  0  0  0  0  0  0  0  0  0  # atno 10764 bound_to 10752
  153.4688  135.7087  153.6069 H   0  0  0  0  0  0  0  0  0  0  0  0  # atno 10765 bound_to 10752
  140.4439  134.6406  157.4770 H   0  0  0  0  0  0  0  0  0  0  0  0  # atno 11005 bound_to 11000
  145.9726  139.2881  143.1090 LP  0  0  0  0  0  0  0  0  0  0  0  0  # atno 17320 bound_to 7965
  145.9099  140.9187  143.0459 LP  0  0  0  0  0  0  0  0  0  0  0  0  # atno 17321 bound_to 7965
  140.6061  143.2168  151.6978 LP  0  0  0  0  0  0  0  0  0  0  0  0  # atno 17342 bound_to 10162
  139.5055  144.3716  152.0464 LP  0  0  0  0  0  0  0  0  0  0  0  0  # atno 17343 bound_to 10162
  157.5925  131.0944  150.9095 LP  0  0  0  0  0  0  0  0  0  0  0  0  # atno 17370 bound_to 10713
  156.9268  130.5335  149.5279 LP  0  0  0  0  0  0  0  0  0  0  0  0  # atno 17371 bound_to 10713
  140.0052  134.6775  155.9467 LP  0  0  0  0  0  0  0  0  0  0  0  0  # atno 17394 bound_to 11000
  141.1694  133.6537  156.4595 LP  0  0  0  0  0  0  0  0  0  0  0  0  # atno 17395 bound_to 11000

$$$$
