AV-unprocessed.smi:2289|AV-procd|sdf|9209|dock9
  -GOLD-   2272012423D 1   1.00000     0.00000
 Structure written by MMmdl.
 40 41  0  0  0  0  0  0  0  0  1 V2000
  150.2905  134.8567  155.5068 C   0  0  0  0  0  0  0  0  0  0  0  0
  150.5324  136.2672  156.0143 C   0  0  0  0  0  0  0  0  0  0  0  0
  151.4220  137.0364  155.2589 N   0  0  0  0  0  0  0  0  0  0  0  0
  151.6855  138.2511  155.6144 C   0  0  0  0  0  0  0  0  0  0  0  0
  151.0997  138.8324  156.7517 N   0  0  0  0  0  0  0  0  0  0  0  0
  151.4748  140.2281  157.0380 C   0  0  0  0  0  0  0  0  0  0  0  0
  152.2056  140.3685  158.3931 C   0  0  1  0  0  0  0  0  0  0  0  0
  153.2029  139.3706  158.4708 O   0  0  0  0  0  0  0  0  0  0  0  0
  152.8956  141.7426  158.5291 C   0  0  0  0  0  0  0  0  0  0  0  0
  153.0556  142.1983  159.9770 C   0  0  0  0  0  0  0  0  0  0  0  0
  153.6857  141.3101  160.8770 C   0  0  0  0  0  0  0  0  0  0  0  0
  153.8705  141.6595  162.2261 C   0  0  0  0  0  0  0  0  0  0  0  0
  153.4197  142.9056  162.6912 C   0  0  0  0  0  0  0  0  0  0  0  0
  152.7822  143.7955  161.8077 C   0  0  0  0  0  0  0  0  0  0  0  0
  152.5884  143.4587  160.4466 C   0  0  0  0  0  0  0  0  0  0  0  0
  151.8717  144.4517  159.5300 C   0  0  0  0  0  0  0  0  0  0  0  0
  151.5552  145.5775  160.1712 F   0  0  0  0  0  0  0  0  0  0  0  0
  152.6483  144.7827  158.4994 F   0  0  0  0  0  0  0  0  0  0  0  0
  150.7398  143.9145  159.0744 F   0  0  0  0  0  0  0  0  0  0  0  0
  150.2199  138.1526  157.5427 C   0  0  0  0  0  0  0  0  0  0  0  0
  149.7061  138.6703  158.5358 O   0  0  0  0  0  0  0  0  0  0  0  0
  149.9317  136.7701  157.1274 C   0  0  0  0  0  0  0  0  0  0  0  0
  148.9546  135.9790  157.9885 C   0  0  0  0  0  0  0  0  0  0  0  0
  150.6147  134.1240  156.2462 H   0  0  0  0  0  0  0  0  0  0  0  0
  150.8400  134.6667  154.5841 H   0  0  0  0  0  0  0  0  0  0  0  0
  149.2312  134.7004  155.3014 H   0  0  0  0  0  0  0  0  0  0  0  0
  152.3673  138.8961  155.0570 H   0  0  0  0  0  0  0  0  0  0  0  0
  152.0704  140.6644  156.2336 H   0  0  0  0  0  0  0  0  0  0  0  0
  150.5663  140.8338  157.0497 H   0  0  0  0  0  0  0  0  0  0  0  0
  151.4952  140.2316  159.2089 H   0  0  0  0  0  0  0  0  0  0  0  0
  153.8643  139.5531  157.8208 H   0  0  0  0  0  0  0  0  0  0  0  0
  153.8357  141.7473  157.9811 H   0  0  0  0  0  0  0  0  0  0  0  0
  152.2807  142.4994  158.0403 H   0  0  0  0  0  0  0  0  0  0  0  0
  154.0339  140.3477  160.5311 H   0  0  0  0  0  0  0  0  0  0  0  0
  154.3564  140.9717  162.9026 H   0  0  0  0  0  0  0  0  0  0  0  0
  153.5585  143.1783  163.7271 H   0  0  0  0  0  0  0  0  0  0  0  0
  152.4394  144.7431  162.1955 H   0  0  0  0  0  0  0  0  0  0  0  0
  147.9767  136.4611  157.9852 H   0  0  0  0  0  0  0  0  0  0  0  0
  149.3083  135.9387  159.0191 H   0  0  0  0  0  0  0  0  0  0  0  0
  148.8172  134.9530  157.6514 H   0  0  0  0  0  0  0  0  0  0  0  0
  1  2  1  0  0  0  0
  1 24  1  0  0  0  0
  1 25  1  0  0  0  0
  1 26  1  0  0  0  0
  2 22  2  0  0  0  0
  2  3  1  0  0  0  0
  3  4  2  0  0  0  0
  4  5  1  0  0  0  0
  4 27  1  0  0  0  0
  5  6  1  0  0  0  0
  5 20  1  0  0  0  0
  6  7  1  0  0  0  0
  6 28  1  0  0  0  0
  6 29  1  0  0  0  0
  7  8  1  0  0  0  0
  7  9  1  0  0  0  0
  7 30  1  0  0  0  0
  8 31  1  0  0  0  0
  9 10  1  0  0  0  0
  9 32  1  0  0  0  0
  9 33  1  0  0  0  0
 10 15  1  0  0  0  0
 10 11  2  0  0  0  0
 11 12  1  0  0  0  0
 11 34  1  0  0  0  0
 12 13  2  0  0  0  0
 12 35  1  0  0  0  0
 13 14  1  0  0  0  0
 13 36  1  0  0  0  0
 14 15  2  0  0  0  0
 14 37  1  0  0  0  0
 15 16  1  0  0  0  0
 16 17  1  0  0  0  0
 16 18  1  0  0  0  0
 16 19  1  0  0  0  0
 20 21  2  0  0  0  0
 20 22  1  0  0  0  0
 22 23  1  0  0  0  0
 23 38  1  0  0  0  0
 23 39  1  0  0  0  0
 23 40  1  0  0  0  0
M  END
> <s_m_source_file>
AV-unprocessed.smi

> <i_m_source_file_index>
2289

> <i_lp_mmshare_version>
43012

> <i_f3d_flags>
0

> <s_epik_input>
W0NIM11jMW5bY0hdbihjKD1PKWMxW0NIM10pW0NIMl1bQ0BIXShbT0hdKVtDSDJdYzJbY0hdW2NIXVtjSF1bY0hdYzJDKEYpKEYpRg==

> <s_epik_cmdline>
J2VwaWtfcHl0aG9uJywgJy1waCcsICc3LjAnLCAnLXRuJywgJzgnLCAnLW1hJywgJzIwMCcsICctbWV0YWxfYmluZGluZycsICctaW1hZScsICc8aW5maWxlLm1hZT4nLCAnLW9tYWUnLCAnPG91dGZpbGUubWFlPic=

> <r_lp_tautomer_probability>
1

> <r_epik_Ionization_Penalty>
8.92636e-05

> <r_epik_Ionization_Penalty_Charging>
8.63033e-08

> <r_epik_Ionization_Penalty_Neutral>
8.91773e-05

> <r_epik_State_Penalty>
-0

> <r_epik_Charging_Adjusted_Penalty>
8.63033e-08

> <i_epik_Tot_Q>
0

> <i_epik_Tot_abs_Q>
0

> <r_epik_Metal_State_Penalty>
-0

> <b_epik_Metal_Only>
0

> <s_lp_Force_Field>
OPLS_2005

> <r_lp_Energy>
23.2294

> <b_lp_Chiralities_Consistent>
1

> <s_lp_Variant>
AV-unprocessed.smi:2289-2

> <Gold.Version>
5.8.1

> <Gold.Id.Protein>
6NUR|6NUR_protein|mol2

> <Gold.PLP.Fitness>
53.5958

> <Gold.PLP.PLP>
-51.4363

> <Gold.PLP.part.hbond>
-1.7119

> <Gold.PLP.part.metal>
0.0000

> <Gold.PLP.part.buried>
-7.7380

> <Gold.PLP.part.nonpolar>
-41.9733

> <Gold.PLP.part.repulsive>
0.0901

> <Gold.PLP.ligand.clash>
1.3462

> <Gold.PLP.ligand.torsion>
0.4734

> <Gold.PLP.Chemscore.Hbond>
1.0000

> <Gold.PLP.Chemscore.CHOScore>
0.0000

> <Gold.PLP.Chemscore.Metal>
0.0000

> <Gold.Chemscore.Hbonds>
donor molecule, donor type, donor heavy atom, donor atom, acceptor molecule, acceptor atom, score
      P1  H 10752 10764       L1     3  0.60

> <Gold.PLP.Chemscore.Internal.Correction>
1.4526

> <Gold.Rescore>
     Score         DG    S(hbond)    S(metal)    S(lipo)     H(rot)  DE(clash)    DE(int)     intcor
     11.61     -12.99       0.01        0.00     115.62       2.37       0.04       1.34       ----

> <Gold.Chemscore.Fitness>
11.6057

> <Gold.Chemscore.DG>
-12.9865

> <Gold.Chemscore.ZeroCoef>
-5.4800

> <Gold.Chemscore.Hbond>
0.0124

> <Gold.Chemscore.Metal>
0.0000

> <Gold.Chemscore.Lipo>
115.6207

> <Gold.Chemscore.Internal_Hbond>
0.0000

> <Gold.Chemscore.DEClash>
0.0369

> <Gold.Chemscore.DEInternal>
1.3438

> <Gold.Chemscore.Rot>
2.3681

> <Gold.Chemscore.Internal.Correction>
   9.000000E+99

> <Gold.Chemscore.Hbonds>
donor molecule, donor type, donor heavy atom, donor atom, acceptor molecule, acceptor atom, score
      P1  H 10752 10764       L1     3  0.24

> <Gold.Chemscore.Hbond.Weighted>
-0.0413

> <Gold.Chemscore.Metal.Weighted>
-0.0000

> <Gold.Chemscore.Lipo.Weighted>
-13.5276

> <Gold.Chemscore.Internal_Hbond.Weighted>
0.0000

> <Gold.Chemscore.DEClash.Weighted>
0.0369

> <Gold.Chemscore.DEInternal.Weighted>
1.3438

> <Gold.Chemscore.Rot.Weighted>
6.0624

> <Gold.Chemscore.Internal.Correction.Weighted>
   9.000000E+99

> <Gold.Protein.RotatedTorsions>
[ 6907 6896 6895 6894 ] final -122.79 input  -60.11 | X-H torsion
[ 7974 7965 7964 7962 ] final   86.01 input  175.53 | X-H torsion
[ 8008 7997 7996 7995 ] final  -97.49 input   59.86 | X-H torsion
[ 10167 10162 10161 10158 ] final   89.68 input  -65.29 | X-H torsion
[ 10718 10713 10712 10709 ] final  168.68 input   66.30 | X-H torsion
[ 10763 10752 10751 10750 ] final  -56.10 input  -60.55 | X-H torsion
[ 11005 11000 10999 10996 ] final  103.53 input  -57.11 | X-H torsion

> <Gold.Protein.ActiveResidues>
 VAL166  LYS551  ARG553  GLY616  TRP617  ASP618  TYR619  PRO620  LYS621  CYS622 
 ASP623  PHE694  ASN695  SER759  ASP760  ASP761  ALA762  ILE779  LEU786  VAL792 
 PHE793  MET794  SER795  GLU796  ALA797  LYS798  CYS799  TRP800  GLU811  SER814 

> <Gold.Protein.RotatedAtoms>
  150.8609  133.7644  159.2992 H   0  0  0  0  0  0  0  0  0  0  0  0  # atno 6907 bound_to 6896
  151.5287  135.1066  159.9906 H   0  0  0  0  0  0  0  0  0  0  0  0  # atno 6908 bound_to 6896
  152.4626  133.7810  159.6906 H   0  0  0  0  0  0  0  0  0  0  0  0  # atno 6909 bound_to 6896
  145.5779  139.2321  143.2369 H   0  0  0  0  0  0  0  0  0  0  0  0  # atno 7974 bound_to 7965
  154.7884  140.0462  157.1182 H   0  0  0  0  0  0  0  0  0  0  0  0  # atno 8008 bound_to 7997
  154.9620  140.3078  155.5007 H   0  0  0  0  0  0  0  0  0  0  0  0  # atno 8009 bound_to 7997
  156.2946  140.2269  156.4706 H   0  0  0  0  0  0  0  0  0  0  0  0  # atno 8010 bound_to 7997
  139.8549  144.6574  150.9126 H   0  0  0  0  0  0  0  0  0  0  0  0  # atno 10167 bound_to 10162
  157.0336  131.0266  151.2736 H   0  0  0  0  0  0  0  0  0  0  0  0  # atno 10718 bound_to 10713
  154.2013  135.6410  153.5088 H   0  0  0  0  0  0  0  0  0  0  0  0  # atno 10763 bound_to 10752
  153.0011  135.5452  154.6313 H   0  0  0  0  0  0  0  0  0  0  0  0  # atno 10764 bound_to 10752
  154.5726  135.2918  155.0785 H   0  0  0  0  0  0  0  0  0  0  0  0  # atno 10765 bound_to 10752
  139.8784  134.9266  156.5224 H   0  0  0  0  0  0  0  0  0  0  0  0  # atno 11005 bound_to 11000
  146.1737  140.6605  142.9221 LP  0  0  0  0  0  0  0  0  0  0  0  0  # atno 17320 bound_to 7965
  144.7407  140.4935  143.6871 LP  0  0  0  0  0  0  0  0  0  0  0  0  # atno 17321 bound_to 7965
  140.7783  143.3795  151.1503 LP  0  0  0  0  0  0  0  0  0  0  0  0  # atno 17342 bound_to 10162
  139.7430  143.8896  152.3055 LP  0  0  0  0  0  0  0  0  0  0  0  0  # atno 17343 bound_to 10162
  157.5159  130.7967  149.7755 LP  0  0  0  0  0  0  0  0  0  0  0  0  # atno 17370 bound_to 10713
  156.0061  130.3855  150.2426 LP  0  0  0  0  0  0  0  0  0  0  0  0  # atno 17371 bound_to 10713
  140.8441  133.8182  155.9104 LP  0  0  0  0  0  0  0  0  0  0  0  0  # atno 17394 bound_to 11000
  140.9209  134.2143  157.4927 LP  0  0  0  0  0  0  0  0  0  0  0  0  # atno 17395 bound_to 11000

$$$$
