#       Name:                AV-unprocessed.smi:3228
#       Creating user name   scv26
#       Creation time:       Fri Mar 27 18:17:04 2020


#       File generated by GOLD software.
#

@<TRIPOS>MOLECULE
AV-unprocessed.smi:3228
    36    37     1
SMALL
NO_CHARGES


@<TRIPOS>ATOM
      1 ****        -0.4855   1.8487  -0.8562 O.2            1 S1                 0.0000
      2 ****        -0.9729   0.7401  -1.0793 C.2            1 S1                 0.0000
      3 ****        -0.2389  -0.3711  -1.2351 N.am           1 S1                 0.0000
      4 ****         1.2181  -0.4261  -1.1699 C.3            1 S1                 0.0000
      5 ****         1.7384  -0.4254   0.2836 C.3            1 S1                 0.0000
      6 ****         3.2654  -0.4831   0.4054 C.3            1 S1                 0.0000
      7 ****         3.5516  -1.0217   1.8157 C.3            1 S1                 0.0000
      8 ****         2.2107  -1.5237   2.3747 C.3            1 S1                 0.0000
      9 ****         1.2471  -1.5701   1.1843 C.3            1 S1                 0.0000
     10 ****         1.3710  -2.8255   0.5414 O.3            1 S1                 0.0000
     11 ****        -2.2866   0.4777  -1.1959 N.am           1 S1                 0.0000
     12 ****        -3.3734   1.3874  -1.1120 C.2            1 S1                 0.0000
     13 ****        -3.2430   2.7018  -0.8969 N.2            1 S1                 0.0000
     14 ****        -4.4783   3.3537  -0.8667 C.2            1 S1                 0.0000
     15 ****        -5.5467   2.5142  -1.0617 C.2            1 S1                 0.0000
     16 ****        -5.0409   0.8617  -1.2922 S.3            1 S1                 0.0000
     17 ****        -0.7204  -1.2393  -1.4179 H              1 S1                 0.0000
     18 ****         1.5479  -1.3238  -1.6934 H              1 S1                 0.0000
     19 ****         1.6432   0.4156  -1.7192 H              1 S1                 0.0000
     20 ****         1.4216   0.5076   0.7535 H              1 S1                 0.0000
     21 ****         3.6737  -1.1724  -0.3350 H              1 S1                 0.0000
     22 ****         3.7261   0.4902   0.2334 H              1 S1                 0.0000
     23 ****         4.2817  -1.8302   1.7697 H              1 S1                 0.0000
     24 ****         3.9665  -0.2452   2.4589 H              1 S1                 0.0000
     25 ****         2.3007  -2.4815   2.8891 H              1 S1                 0.0000
     26 ****         1.8399  -0.8022   3.1038 H              1 S1                 0.0000
     27 ****         0.2111  -1.4329   1.4954 H              1 S1                 0.0000
     28 ****         0.8138  -2.8282  -0.2215 H              1 S1                 0.0000
     29 ****        -2.5393  -0.4834  -1.3722 H              1 S1                 0.0000
     30 ****        -4.5049   4.4205  -0.6999 H              1 S1                 0.0000
     31 ****        -6.5962   2.7669  -1.0838 H              1 S1                 0.0000
     32 ****         0.5063   1.9532  -0.7827 LP             1 S1                 0.0000
     33 ****        -1.0815   2.6444  -0.7485 LP             1 S1                 0.0000
     34 ****         1.0903  -3.5537   1.1666 LP             1 S1                 0.0000
     35 ****         2.3211  -2.9708   0.2656 LP             1 S1                 0.0000
     36 ****        -2.3646   3.1632  -0.7724 LP             1 S1                 0.0000
@<TRIPOS>BOND
    1    1    2 2     
    2    2    3 am    
    3    2   11 am    
    4    3    4 1     
    5    3   17 1     
    6    4    5 1     
    7    4   18 1     
    8    4   19 1     
    9    5    9 1     
   10    5    6 1     
   11    5   20 1     
   12    6    7 1     
   13    6   21 1     
   14    6   22 1     
   15    7    8 1     
   16    7   23 1     
   17    7   24 1     
   18    8    9 1     
   19    8   25 1     
   20    8   26 1     
   21    9   10 1     
   22    9   27 1     
   23   10   28 1     
   24   11   12 1     
   25   11   29 1     
   26   12   16 1     
   27   12   13 2     
   28   13   14 1     
   29   14   15 2     
   30   14   30 1     
   31   15   16 1     
   32   15   31 1     
   33    1   32 1     
   34    1   33 1     
   35   10   34 1     
   36   10   35 1     
   37   13   36 1     
@<TRIPOS>SUBSTRUCTURE
      1 S1             1
@<TRIPOS>SET
LONE_PAIRS      STATIC     ATOMS    <user>   **** ""
5 32 33 34 35 36
DONOR_HYDROGENS      STATIC     ATOMS    <user>   **** ""
3 17 28 29
ATOM$BLUE        STATIC     ATOMS    COLORGROUP SYSTEM
5 32 33 34 35 36
ATOM$RED        STATIC     ATOMS    COLORGROUP SYSTEM
3 17 28 29
