AV-unprocessed.smi:1449|AV-procd|sdf|5896|dock10
  -GOLD-   22720 5583D 1   1.00000     0.00000
 Structure written by MMmdl.
 34 35  0  0  0  0  0  0  0  0  1 V2000
  143.3972  132.9668  148.3791 C   0  0  0  0  0  0  0  0  0  0  0  0
  143.7590  132.0340  149.3913 O   0  0  0  0  0  0  0  0  0  0  0  0
  144.7805  132.3688  150.2564 C   0  0  0  0  0  0  0  0  0  0  0  0
  145.2340  131.3983  151.1713 C   0  0  0  0  0  0  0  0  0  0  0  0
  146.2750  131.7313  152.0590 C   0  0  0  0  0  0  0  0  0  0  0  0
  146.8380  133.0285  151.9971 C   0  0  0  0  0  0  0  0  0  0  0  0
  147.8770  133.4964  152.8463 N   0  0  0  0  0  0  0  0  0  0  0  0
  148.4512  132.8835  153.9004 C   0  0  0  0  0  0  0  0  0  0  0  0
  148.1818  131.7476  154.2840 O   0  0  0  0  0  0  0  0  0  0  0  0
  149.4002  133.6138  154.5133 N   0  0  0  0  0  0  0  0  0  0  0  0
  150.2134  133.2551  155.6763 C   0  0  1  0  0  0  0  0  0  0  0  0
  149.3496  132.5997  156.7702 C   0  0  0  0  0  0  0  0  0  0  0  0
  150.2742  131.9256  157.7915 C   0  0  0  0  0  0  0  0  0  0  0  0
  151.7609  131.3959  156.8592 S   0  0  0  0  0  0  0  0  0  0  0  0
  152.9473  132.0252  157.4588 O   0  0  0  0  0  0  0  0  0  0  0  0
  151.7082  129.9446  156.6276 O   0  0  0  0  0  0  0  0  0  0  0  0
  151.3308  132.2666  155.3057 C   0  0  0  0  0  0  0  0  0  0  0  0
  146.3047  133.9297  151.0527 C   0  0  0  0  0  0  0  0  0  0  0  0
  145.3069  133.6172  150.1993 N   0  0  0  0  0  0  0  0  0  0  0  0
  142.5810  132.5551  147.7856 H   0  0  0  0  0  0  0  0  0  0  0  0
  144.2302  133.1649  147.7031 H   0  0  0  0  0  0  0  0  0  0  0  0
  143.0512  133.9084  148.8081 H   0  0  0  0  0  0  0  0  0  0  0  0
  144.7875  130.4152  151.1958 H   0  0  0  0  0  0  0  0  0  0  0  0
  146.6049  130.9919  152.7717 H   0  0  0  0  0  0  0  0  0  0  0  0
  148.2609  134.3967  152.5990 H   0  0  0  0  0  0  0  0  0  0  0  0
  149.5954  134.5179  154.1077 H   0  0  0  0  0  0  0  0  0  0  0  0
  150.6626  134.1498  156.1110 H   0  0  0  0  0  0  0  0  0  0  0  0
  148.6842  133.3195  157.2478 H   0  0  0  0  0  0  0  0  0  0  0  0
  148.7171  131.8345  156.3177 H   0  0  0  0  0  0  0  0  0  0  0  0
  150.5920  132.6365  158.5546 H   0  0  0  0  0  0  0  0  0  0  0  0
  149.8119  131.0699  158.2837 H   0  0  0  0  0  0  0  0  0  0  0  0
  150.9767  131.5194  154.5944 H   0  0  0  0  0  0  0  0  0  0  0  0
  152.2150  132.7503  154.8899 H   0  0  0  0  0  0  0  0  0  0  0  0
  146.6920  134.9353  150.9759 H   0  0  0  0  0  0  0  0  0  0  0  0
  1  2  1  0  0  0  0
  1 20  1  0  0  0  0
  1 21  1  0  0  0  0
  1 22  1  0  0  0  0
  2  3  1  0  0  0  0
  3 19  1  0  0  0  0
  3  4  2  0  0  0  0
  4  5  1  0  0  0  0
  4 23  1  0  0  0  0
  5  6  2  0  0  0  0
  5 24  1  0  0  0  0
  6  7  1  0  0  0  0
  6 18  1  0  0  0  0
  7  8  1  0  0  0  0
  7 25  1  0  0  0  0
  8  9  2  0  0  0  0
  8 10  1  0  0  0  0
 10 11  1  0  0  0  0
 10 26  1  0  0  0  0
 11 17  1  0  0  0  0
 11 12  1  0  0  0  0
 11 27  1  0  0  0  0
 12 13  1  0  0  0  0
 12 28  1  0  0  0  0
 12 29  1  0  0  0  0
 13 14  1  0  0  0  0
 13 30  1  0  0  0  0
 13 31  1  0  0  0  0
 14 15  2  0  0  0  0
 14 16  2  0  0  0  0
 14 17  1  0  0  0  0
 17 32  1  0  0  0  0
 17 33  1  0  0  0  0
 18 19  2  0  0  0  0
 18 34  1  0  0  0  0
M  END
> <s_m_source_file>
AV-unprocessed.smi

> <i_m_source_file_index>
1449

> <i_lp_mmshare_version>
43012

> <i_f3d_flags>
0

> <s_epik_input>
W0NIM11PYzFbY0hdW2NIXWMoW2NIXW4xKVtOSF1DKD1PKVtOSF1bQ0BASF0oW0NIMl0yKVtDSDJdW0NIMl1TMig9Tyk9Tw==

> <s_epik_cmdline>
J2VwaWtfcHl0aG9uJywgJy1waCcsICc3LjAnLCAnLXRuJywgJzgnLCAnLW1hJywgJzIwMCcsICctbWV0YWxfYmluZGluZycsICctaW1hZScsICc8aW5maWxlLm1hZT4nLCAnLW9tYWUnLCAnPG91dGZpbGUubWFlPic=

> <r_lp_tautomer_probability>
1

> <r_epik_Ionization_Penalty>
7.6506e-05

> <r_epik_Ionization_Penalty_Charging>
0

> <r_epik_Ionization_Penalty_Neutral>
7.6506e-05

> <r_epik_State_Penalty>
-0

> <r_epik_Charging_Adjusted_Penalty>
0

> <i_epik_Tot_Q>
0

> <i_epik_Tot_abs_Q>
0

> <r_epik_Metal_State_Penalty>
-0

> <b_epik_Metal_Only>
0

> <s_lp_Force_Field>
OPLS_2005

> <r_lp_Energy>
18.5668

> <b_lp_Chiralities_Consistent>
1

> <s_lp_Variant>
AV-unprocessed.smi:1449-2

> <Gold.Version>
5.8.1

> <Gold.Id.Protein>
6NUR|6NUR_protein|mol2

> <Gold.PLP.Fitness>
36.0979

> <Gold.PLP.PLP>
-26.3659

> <Gold.PLP.part.hbond>
-2.9693

> <Gold.PLP.part.metal>
0.0000

> <Gold.PLP.part.buried>
-4.1336

> <Gold.PLP.part.nonpolar>
-20.6597

> <Gold.PLP.part.repulsive>
2.1579

> <Gold.PLP.ligand.clash>
0.0000

> <Gold.PLP.ligand.torsion>
0.2547

> <Gold.PLP.Chemscore.Hbond>
2.7684

> <Gold.PLP.Chemscore.CHOScore>
0.6450

> <Gold.PLP.Chemscore.Metal>
0.0000

> <Gold.Chemscore.Hbonds>
donor molecule, donor type, donor heavy atom, donor atom, acceptor molecule, acceptor atom, score
      L1  H     7    25       P1  7948  0.91
      P1  H 10785 10796       L1     2  0.77
      L1  C    18    34       P1  7948  0.59

> <Gold.PLP.Chemscore.Internal.Correction>
0.0011

> <Gold.Rescore>
     Score         DG    S(hbond)    S(metal)    S(lipo)     H(rot)  DE(clash)    DE(int)     intcor
     12.50     -17.07       2.41        0.00      58.99       1.31       1.74       2.83       ----

> <Gold.Chemscore.Fitness>
12.4984

> <Gold.Chemscore.DG>
-17.0652

> <Gold.Chemscore.ZeroCoef>
-5.4800

> <Gold.Chemscore.Hbond>
2.4071

> <Gold.Chemscore.Metal>
0.0000

> <Gold.Chemscore.Lipo>
58.9871

> <Gold.Chemscore.Internal_Hbond>
0.0000

> <Gold.Chemscore.DEClash>
1.7407

> <Gold.Chemscore.DEInternal>
2.8261

> <Gold.Chemscore.Rot>
1.3109

> <Gold.Chemscore.Internal.Correction>
   9.000000E+99

> <Gold.Chemscore.Hbonds>
donor molecule, donor type, donor heavy atom, donor atom, acceptor molecule, acceptor atom, score
      L1  H     7    25       P1  7948  0.20
      P1  H 10785 10796       L1     2  0.47

> <Gold.Chemscore.Hbond.Weighted>
-8.0396

> <Gold.Chemscore.Metal.Weighted>
-0.0000

> <Gold.Chemscore.Lipo.Weighted>
-6.9015

> <Gold.Chemscore.Internal_Hbond.Weighted>
0.0000

> <Gold.Chemscore.DEClash.Weighted>
1.7407

> <Gold.Chemscore.DEInternal.Weighted>
2.8261

> <Gold.Chemscore.Rot.Weighted>
3.3559

> <Gold.Chemscore.Internal.Correction.Weighted>
   9.000000E+99

> <Gold.Protein.RotatedTorsions>
[ 6907 6896 6895 6894 ] final  -72.08 input  -60.11 | X-H torsion
[ 7974 7965 7964 7962 ] final  -34.05 input  175.53 | X-H torsion
[ 8008 7997 7996 7995 ] final   91.09 input   59.86 | X-H torsion
[ 10167 10162 10161 10158 ] final  129.47 input  -65.29 | X-H torsion
[ 10718 10713 10712 10709 ] final  -40.00 input   66.30 | X-H torsion
[ 10763 10752 10751 10750 ] final  122.41 input  -60.55 | X-H torsion
[ 11005 11000 10999 10996 ] final  169.96 input  -57.11 | X-H torsion

> <Gold.Protein.ActiveResidues>
 VAL166  LYS551  ARG553  GLY616  TRP617  ASP618  TYR619  PRO620  LYS621  CYS622 
 ASP623  PHE694  ASN695  SER759  ASP760  ASP761  ALA762  ILE779  LEU786  VAL792 
 PHE793  MET794  SER795  GLU796  ALA797  LYS798  CYS799  TRP800  GLU811  SER814 

> <Gold.Protein.RotatedAtoms>
  150.7185  134.5215  159.5655 H   0  0  0  0  0  0  0  0  0  0  0  0  # atno 6907 bound_to 6896
  152.2769  134.7868  160.0413 H   0  0  0  0  0  0  0  0  0  0  0  0  # atno 6908 bound_to 6896
  151.8528  133.3407  159.3715 H   0  0  0  0  0  0  0  0  0  0  0  0  # atno 6909 bound_to 6896
  146.0861  140.5991  142.8886 H   0  0  0  0  0  0  0  0  0  0  0  0  # atno 7974 bound_to 7965
  156.0197  140.3342  155.7025 H   0  0  0  0  0  0  0  0  0  0  0  0  # atno 8008 bound_to 7997
  155.6040  140.0658  157.2742 H   0  0  0  0  0  0  0  0  0  0  0  0  # atno 8009 bound_to 7997
  154.4311  140.1805  156.1191 H   0  0  0  0  0  0  0  0  0  0  0  0  # atno 8010 bound_to 7997
  139.5476  144.6787  151.4423 H   0  0  0  0  0  0  0  0  0  0  0  0  # atno 10167 bound_to 10162
  156.2861  130.4223  149.8286 H   0  0  0  0  0  0  0  0  0  0  0  0  # atno 10718 bound_to 10713
  153.6294  135.3399  155.3037 H   0  0  0  0  0  0  0  0  0  0  0  0  # atno 10763 bound_to 10752
  154.8583  135.4292  154.2122 H   0  0  0  0  0  0  0  0  0  0  0  0  # atno 10764 bound_to 10752
  153.3014  135.7025  153.7273 H   0  0  0  0  0  0  0  0  0  0  0  0  # atno 10765 bound_to 10752
  140.3032  134.7578  157.3933 H   0  0  0  0  0  0  0  0  0  0  0  0  # atno 11005 bound_to 11000
  144.7327  140.4718  143.6926 LP  0  0  0  0  0  0  0  0  0  0  0  0  # atno 17320 bound_to 7965
  145.6127  139.1515  143.3067 LP  0  0  0  0  0  0  0  0  0  0  0  0  # atno 17321 bound_to 7965
  140.6729  143.8253  150.7022 LP  0  0  0  0  0  0  0  0  0  0  0  0  # atno 17342 bound_to 10162
  140.1683  143.4216  152.2019 LP  0  0  0  0  0  0  0  0  0  0  0  0  # atno 17343 bound_to 10162
  156.5716  130.8427  151.3358 LP  0  0  0  0  0  0  0  0  0  0  0  0  # atno 17370 bound_to 10713
  157.7329  130.9722  150.1951 LP  0  0  0  0  0  0  0  0  0  0  0  0  # atno 17371 bound_to 10713
  140.1090  134.5371  155.8283 LP  0  0  0  0  0  0  0  0  0  0  0  0  # atno 17394 bound_to 11000
  141.2123  133.6718  156.6653 LP  0  0  0  0  0  0  0  0  0  0  0  0  # atno 17395 bound_to 11000

$$$$
