AV-unprocessed.smi:1|AV-procd|sdf|7|dock10
  -GOLD-   2262015 93D 1   1.00000     0.00000
 Structure written by MMmdl.
 57 62  0  0  0  0  0  0  0  0  1 V2000
  146.7198  131.0563  154.0637 O   0  0  0  0  0  0  0  0  0  0  0  0
  147.6749  130.2800  154.0217 C   0  0  0  0  0  0  0  0  0  0  0  0
  148.8056  130.3963  154.9254 N   0  0  0  0  0  0  0  0  0  0  0  0
  148.9612  131.2531  155.9614 C   0  0  0  0  0  0  0  0  0  0  0  0
  149.6397  130.9162  157.0903 N   0  0  0  0  0  0  0  0  0  0  0  0
  149.7700  131.7983  158.0856 C   0  0  0  0  0  0  0  0  0  0  0  0
  149.3077  133.0478  158.1562 N   0  0  0  0  0  0  0  0  0  0  0  0
  148.6330  133.3965  157.0233 C   0  0  0  0  0  0  0  0  0  0  0  0
  148.4203  132.5632  155.8905 C   0  0  0  0  0  0  0  0  0  0  0  0
  147.6948  133.2544  154.9281 N   0  0  0  0  0  0  0  0  0  0  0  0
  147.4935  134.4278  155.4658 C   0  0  0  0  0  0  0  0  0  0  0  0
  148.0209  134.5963  156.7266 N   0  0  0  0  0  0  0  0  0  0  0  0
  147.9555  135.8101  157.5893 C   0  0  2  0  0  0  0  0  0  0  0  0
  148.3867  136.9125  156.8580 O   0  0  0  0  0  0  0  0  0  0  0  0
  149.1202  137.8152  157.6887 C   0  0  2  0  0  0  0  0  0  0  0  0
  150.5143  138.0000  157.0752 C   0  0  0  0  0  0  0  0  0  0  0  0
  151.0958  139.1869  157.5924 O   0  0  0  0  0  0  0  0  0  0  0  0
  150.4819  140.3775  157.4333 C   0  0  0  0  0  0  0  0  0  0  0  0
  149.4208  140.5261  156.8233 O   0  0  0  0  0  0  0  0  0  0  0  0
  151.2240  141.5008  158.0743 C   0  0  0  0  0  0  0  0  0  0  0  0
  151.0082  142.8227  157.6197 C   0  0  0  0  0  0  0  0  0  0  0  0
  151.6943  143.9041  158.2062 C   0  0  0  0  0  0  0  0  0  0  0  0
  152.6040  143.6768  159.2552 C   0  0  0  0  0  0  0  0  0  0  0  0
  152.8269  142.3666  159.7172 C   0  0  0  0  0  0  0  0  0  0  0  0
  152.1420  141.2840  159.1318 C   0  0  0  0  0  0  0  0  0  0  0  0
  149.1846  137.1568  159.0730 C   0  0  1  0  0  0  0  0  0  0  0  0
  148.1629  137.6667  159.9131 O   0  0  0  0  0  0  0  0  0  0  0  0
  147.5014  136.3919  160.7679 S   0  0  0  0  0  0  0  0  0  0  0  0
  148.0741  136.3971  162.1225 O   0  0  0  0  0  0  0  0  0  0  0  0
  146.0519  136.3735  160.5187 O   0  0  0  0  0  0  0  0  0  0  0  0
  148.1980  135.1372  159.9114 O   0  0  0  0  0  0  0  0  0  0  0  0
  148.8803  135.6837  158.7968 C   0  0  1  0  0  0  0  0  0  0  0  0
  147.7807  129.2148  152.9697 C   0  0  0  0  0  0  0  0  0  0  0  0
  148.8929  128.3431  152.9554 C   0  0  0  0  0  0  0  0  0  0  0  0
  149.0086  127.3513  151.9620 C   0  0  0  0  0  0  0  0  0  0  0  0
  148.0179  127.2285  150.9696 C   0  0  0  0  0  0  0  0  0  0  0  0
  146.9124  128.0999  150.9698 C   0  0  0  0  0  0  0  0  0  0  0  0
  146.7950  129.0915  151.9631 C   0  0  0  0  0  0  0  0  0  0  0  0
  149.5685  129.7553  154.7621 H   0  0  0  0  0  0  0  0  0  0  0  0
  150.3228  131.4544  158.9477 H   0  0  0  0  0  0  0  0  0  0  0  0
  146.9476  135.2077  154.9547 H   0  0  0  0  0  0  0  0  0  0  0  0
  146.9033  135.9300  157.8510 H   0  0  0  0  0  0  0  0  0  0  0  0
  148.6079  138.7766  157.7426 H   0  0  0  0  0  0  0  0  0  0  0  0
  151.1564  137.1573  157.3322 H   0  0  0  0  0  0  0  0  0  0  0  0
  150.4364  138.0246  155.9881 H   0  0  0  0  0  0  0  0  0  0  0  0
  150.3148  143.0217  156.8153 H   0  0  0  0  0  0  0  0  0  0  0  0
  151.5224  144.9089  157.8495 H   0  0  0  0  0  0  0  0  0  0  0  0
  153.1296  144.5061  159.7050 H   0  0  0  0  0  0  0  0  0  0  0  0
  153.5251  142.1905  160.5221 H   0  0  0  0  0  0  0  0  0  0  0  0
  152.3358  140.2914  159.5113 H   0  0  0  0  0  0  0  0  0  0  0  0
  150.1457  137.2956  159.5698 H   0  0  0  0  0  0  0  0  0  0  0  0
  149.7844  135.1298  158.5409 H   0  0  0  0  0  0  0  0  0  0  0  0
  149.6624  128.4254  153.7096 H   0  0  0  0  0  0  0  0  0  0  0  0
  149.8592  126.6859  151.9608 H   0  0  0  0  0  0  0  0  0  0  0  0
  148.1078  126.4690  150.2070 H   0  0  0  0  0  0  0  0  0  0  0  0
  146.1550  128.0102  150.2051 H   0  0  0  0  0  0  0  0  0  0  0  0
  145.9438  129.7564  151.9387 H   0  0  0  0  0  0  0  0  0  0  0  0
  1  2  2  0  0  0  0
  2  3  1  0  0  0  0
  2 33  1  0  0  0  0
  3  4  1  0  0  0  0
  3 39  1  0  0  0  0
  4  9  1  0  0  0  0
  4  5  2  0  0  0  0
  5  6  1  0  0  0  0
  6  7  2  0  0  0  0
  6 40  1  0  0  0  0
  7  8  1  0  0  0  0
  8 12  1  0  0  0  0
  8  9  2  0  0  0  0
  9 10  1  0  0  0  0
 10 11  2  0  0  0  0
 11 12  1  0  0  0  0
 11 41  1  0  0  0  0
 12 13  1  0  0  0  0
 13 32  1  0  0  0  0
 13 14  1  0  0  0  0
 13 42  1  0  0  0  0
 14 15  1  0  0  0  0
 15 16  1  0  0  0  0
 15 26  1  0  0  0  0
 15 43  1  0  0  0  0
 16 17  1  0  0  0  0
 16 44  1  0  0  0  0
 16 45  1  0  0  0  0
 17 18  1  0  0  0  0
 18 19  2  0  0  0  0
 18 20  1  0  0  0  0
 20 25  1  0  0  0  0
 20 21  2  0  0  0  0
 21 22  1  0  0  0  0
 21 46  1  0  0  0  0
 22 23  2  0  0  0  0
 22 47  1  0  0  0  0
 23 24  1  0  0  0  0
 23 48  1  0  0  0  0
 24 25  2  0  0  0  0
 24 49  1  0  0  0  0
 25 50  1  0  0  0  0
 26 32  1  0  0  0  0
 26 27  1  0  0  0  0
 26 51  1  0  0  0  0
 27 28  1  0  0  0  0
 28 29  2  0  0  0  0
 28 30  2  0  0  0  0
 28 31  1  0  0  0  0
 31 32  1  0  0  0  0
 32 52  1  0  0  0  0
 33 38  1  0  0  0  0
 33 34  2  0  0  0  0
 34 35  1  0  0  0  0
 34 53  1  0  0  0  0
 35 36  2  0  0  0  0
 35 54  1  0  0  0  0
 36 37  1  0  0  0  0
 36 55  1  0  0  0  0
 37 38  2  0  0  0  0
 37 56  1  0  0  0  0
 38 57  1  0  0  0  0
M  END
> <s_m_source_file>
AV-unprocessed.smi

> <i_m_source_file_index>
1

> <i_lp_mmshare_version>
43012

> <i_f3d_flags>
0

> <s_epik_input>
W2NIXTFbY0hdW2NIXVtjSF1bY0hdYzFDKD1PKVtOSF1jKG5bY0hdbjIpYyhjMjMpbltjSF1uM1tDQEBIXShbQ0BIXShbQ0BIXTQ1KU9TKE81KSg9Tyk9TylPW0NASF00W0NIMl1PQyg9TyljNltjSF1bY0hdW2NIXVtjSF1bY0hdNg==

> <s_epik_cmdline>
J2VwaWtfcHl0aG9uJywgJy1waCcsICc3LjAnLCAnLXRuJywgJzgnLCAnLW1hJywgJzIwMCcsICctbWV0YWxfYmluZGluZycsICctaW1hZScsICc8aW5maWxlLm1hZT4nLCAnLW9tYWUnLCAnPG91dGZpbGUubWFlPic=

> <r_lp_tautomer_probability>
1

> <r_epik_Ionization_Penalty>
0.00195722

> <r_epik_Ionization_Penalty_Charging>
0

> <r_epik_Ionization_Penalty_Neutral>
0.00195722

> <r_epik_State_Penalty>
0.00633741

> <r_epik_Charging_Adjusted_Penalty>
0.00633741

> <i_epik_Tot_Q>
0

> <i_epik_Tot_abs_Q>
0

> <r_epik_Metal_State_Penalty>
0.341185

> <b_epik_Metal_Only>
0

> <s_epik_Chemistry_Notes>
This compound has an ester and may undergo hydrolysis at high or low pH. This compound contains an acetal/aminal-like group ( X-CH(R)-Y where X, Y are N, S, or O) that may be acid/base labile, releasing an aldehyde.

> <s_lp_Force_Field>
OPLS_2005

> <r_lp_Energy>
42.4074

> <b_lp_Chiralities_Consistent>
1

> <s_lp_Variant>
AV-unprocessed.smi:1-7

> <Gold.Version>
5.8.1

> <Gold.Id.Protein>
6NUR|6NUR_protein|mol2

> <Gold.PLP.Fitness>
51.9886

> <Gold.PLP.PLP>
-47.6555

> <Gold.PLP.part.hbond>
-4.0000

> <Gold.PLP.part.metal>
0.0000

> <Gold.PLP.part.buried>
-4.8973

> <Gold.PLP.part.nonpolar>
-39.8609

> <Gold.PLP.part.repulsive>
0.2049

> <Gold.PLP.ligand.clash>
0.1446

> <Gold.PLP.ligand.torsion>
0.8414

> <Gold.PLP.Chemscore.Hbond>
2.0000

> <Gold.PLP.Chemscore.CHOScore>
0.0000

> <Gold.PLP.Chemscore.Metal>
0.0000

> <Gold.Chemscore.Hbonds>
donor molecule, donor type, donor heavy atom, donor atom, acceptor molecule, acceptor atom, score
      P1  H  6896  6908       L1     7  0.99
      P1  H  6931  6943       L1    29  0.68

> <Gold.PLP.Chemscore.Internal.Correction>
0.1606

> <Gold.Rescore>
     Score         DG    S(hbond)    S(metal)    S(lipo)     H(rot)  DE(clash)    DE(int)     intcor
      9.31     -18.38       1.00        0.00     128.41       2.13       1.63       7.44       ----

> <Gold.Chemscore.Fitness>
9.3080

> <Gold.Chemscore.DG>
-18.3805

> <Gold.Chemscore.ZeroCoef>
-5.4800

> <Gold.Chemscore.Hbond>
0.9992

> <Gold.Chemscore.Metal>
0.0000

> <Gold.Chemscore.Lipo>
128.4138

> <Gold.Chemscore.Internal_Hbond>
0.0000

> <Gold.Chemscore.DEClash>
1.6288

> <Gold.Chemscore.DEInternal>
7.4437

> <Gold.Chemscore.Rot>
2.1333

> <Gold.Chemscore.Internal.Correction>
   9.000000E+99

> <Gold.Chemscore.Hbonds>
donor molecule, donor type, donor heavy atom, donor atom, acceptor molecule, acceptor atom, score
      P1  H  6896  6908       L1     7  0.37
      P1  H  6931  6943       L1    29  0.10

> <Gold.Chemscore.Hbond.Weighted>
-3.3374

> <Gold.Chemscore.Metal.Weighted>
-0.0000

> <Gold.Chemscore.Lipo.Weighted>
-15.0244

> <Gold.Chemscore.Internal_Hbond.Weighted>
0.0000

> <Gold.Chemscore.DEClash.Weighted>
1.6288

> <Gold.Chemscore.DEInternal.Weighted>
7.4437

> <Gold.Chemscore.Rot.Weighted>
5.4614

> <Gold.Chemscore.Internal.Correction.Weighted>
   9.000000E+99

> <Gold.Protein.RotatedTorsions>
[ 6907 6896 6895 6894 ] final  133.54 input  -60.11 | X-H torsion
[ 7974 7965 7964 7962 ] final   23.36 input  175.53 | X-H torsion
[ 8008 7997 7996 7995 ] final   10.50 input   59.86 | X-H torsion
[ 10167 10162 10161 10158 ] final  -97.61 input  -65.29 | X-H torsion
[ 10718 10713 10712 10709 ] final  -29.33 input   66.30 | X-H torsion
[ 10763 10752 10751 10750 ] final -118.39 input  -60.55 | X-H torsion
[ 11005 11000 10999 10996 ] final  -26.57 input  -57.11 | X-H torsion

> <Gold.Protein.ActiveResidues>
 VAL166  LYS551  ARG553  GLY616  TRP617  ASP618  TYR619  PRO620  LYS621  CYS622 
 ASP623  PHE694  ASN695  SER759  ASP760  ASP761  ALA762  ILE779  LEU786  VAL792 
 PHE793  MET794  SER795  GLU796  ALA797  LYS798  CYS799  TRP800  GLU811  SER814 

> <Gold.Protein.RotatedAtoms>
  152.3209  133.5852  159.5743 H   0  0  0  0  0  0  0  0  0  0  0  0  # atno 6907 bound_to 6896
  150.7371  134.0013  159.3648 H   0  0  0  0  0  0  0  0  0  0  0  0  # atno 6908 bound_to 6896
  151.7897  135.0739  160.0436 H   0  0  0  0  0  0  0  0  0  0  0  0  # atno 6909 bound_to 6896
  146.1988  139.7755  142.8777 H   0  0  0  0  0  0  0  0  0  0  0  0  # atno 7974 bound_to 7965
  154.7942  140.2841  155.5969 H   0  0  0  0  0  0  0  0  0  0  0  0  # atno 8008 bound_to 7997
  156.2968  140.2599  156.2725 H   0  0  0  0  0  0  0  0  0  0  0  0  # atno 8009 bound_to 7997
  154.9634  140.0377  157.2190 H   0  0  0  0  0  0  0  0  0  0  0  0  # atno 8010 bound_to 7997
  140.2816  143.3278  152.0435 H   0  0  0  0  0  0  0  0  0  0  0  0  # atno 10167 bound_to 10162
  156.4138  130.4413  149.7233 H   0  0  0  0  0  0  0  0  0  0  0  0  # atno 10718 bound_to 10713
  154.8586  135.4276  154.2131 H   0  0  0  0  0  0  0  0  0  0  0  0  # atno 10763 bound_to 10752
  153.3152  135.6978  153.7085 H   0  0  0  0  0  0  0  0  0  0  0  0  # atno 10764 bound_to 10752
  153.6162  135.3510  155.2969 H   0  0  0  0  0  0  0  0  0  0  0  0  # atno 10765 bound_to 10752
  140.9041  133.7504  156.0583 H   0  0  0  0  0  0  0  0  0  0  0  0  # atno 11005 bound_to 11000
  145.3556  141.0316  143.3314 LP  0  0  0  0  0  0  0  0  0  0  0  0  # atno 17320 bound_to 7965
  144.8637  139.5140  143.6800 LP  0  0  0  0  0  0  0  0  0  0  0  0  # atno 17321 bound_to 7965
  139.4961  144.6587  151.6513 LP  0  0  0  0  0  0  0  0  0  0  0  0  # atno 17342 bound_to 10162
  140.5807  143.9951  150.6266 LP  0  0  0  0  0  0  0  0  0  0  0  0  # atno 17343 bound_to 10162
  156.4201  130.7764  151.2781 LP  0  0  0  0  0  0  0  0  0  0  0  0  # atno 17370 bound_to 10713
  157.7507  131.0185  150.3630 LP  0  0  0  0  0  0  0  0  0  0  0  0  # atno 17371 bound_to 10713
  140.8192  134.3309  157.5387 LP  0  0  0  0  0  0  0  0  0  0  0  0  # atno 17394 bound_to 11000
  139.8747  134.9299  156.3489 LP  0  0  0  0  0  0  0  0  0  0  0  0  # atno 17395 bound_to 11000

$$$$
