AV-unprocessed.smi:2784|AV-procd|sdf|10744|dock2
  -GOLD-   2272015183D 1   1.00000     0.00000
 Structure written by MMmdl.
 30 31  0  0  0  0  0  0  0  0  2 V2000
  152.2200  144.9720  159.1946 C   0  0  0  0  0  0  0  0  0  0  0  0
  152.3175  143.5808  158.9368 O   0  0  0  0  0  0  0  0  0  0  0  0
  151.9139  142.7650  160.0333 C   0  0  2  0  0  0  0  0  0  0  0  0
  152.9513  142.9002  161.1530 C   0  0  0  0  0  0  0  0  0  0  0  0
  154.0686  141.9457  160.7409 C   0  0  0  0  0  0  0  0  0  0  0  0
  153.3482  140.7536  160.1056 C   0  0  0  0  0  0  0  0  0  0  0  0
  151.9729  141.2709  159.6395 C   0  0  2  0  0  0  0  0  0  0  0  0
  151.7763  141.0431  158.2084 N   0  0  0  0  0  0  0  0  0  0  0  0
  150.6616  141.3247  157.5186 C   0  0  0  0  0  0  0  0  0  0  0  0
  149.6906  141.8191  158.0964 O   0  0  0  0  0  0  0  0  0  0  0  0
  150.7421  141.0201  156.2036 N   0  5  0  0  0  0  0  0  0  0  0  0
  149.6666  141.1743  155.4147 C   0  0  0  0  0  0  0  0  0  0  0  0
  148.4929  141.6997  155.7707 N   0  0  0  0  0  0  0  0  0  0  0  0
  147.6948  141.6459  154.6384 C   0  0  0  0  0  0  0  0  0  0  0  0
  148.4285  141.0758  153.6341 C   0  0  0  0  0  0  0  0  0  0  0  0
  149.6727  140.7706  154.1125 O   0  0  0  0  0  0  0  0  0  0  0  0
  152.5706  145.5289  158.3259 H   0  0  0  0  0  0  0  0  0  0  0  0
  152.8262  145.2680  160.0509 H   0  0  0  0  0  0  0  0  0  0  0  0
  151.1853  145.2621  159.3816 H   0  0  0  0  0  0  0  0  0  0  0  0
  150.9089  143.0315  160.3661 H   0  0  0  0  0  0  0  0  0  0  0  0
  153.3047  143.9208  161.2997 H   0  0  0  0  0  0  0  0  0  0  0  0
  152.5160  142.5645  162.0951 H   0  0  0  0  0  0  0  0  0  0  0  0
  154.7028  142.4281  159.9960 H   0  0  0  0  0  0  0  0  0  0  0  0
  154.7032  141.6549  161.5784 H   0  0  0  0  0  0  0  0  0  0  0  0
  153.9396  140.3249  159.2952 H   0  0  0  0  0  0  0  0  0  0  0  0
  153.2078  139.9670  160.8481 H   0  0  0  0  0  0  0  0  0  0  0  0
  151.2066  140.7264  160.1946 H   0  0  0  0  0  0  0  0  0  0  0  0
  152.5515  140.6467  157.6980 H   0  0  0  0  0  0  0  0  0  0  0  0
  146.6793  142.0129  154.6370 H   0  0  0  0  0  0  0  0  0  0  0  0
  148.2307  140.8342  152.6007 H   0  0  0  0  0  0  0  0  0  0  0  0
  1  2  1  0  0  0  0
  1 17  1  0  0  0  0
  1 18  1  0  0  0  0
  1 19  1  0  0  0  0
  2  3  1  0  0  0  0
  3  7  1  0  0  0  0
  3  4  1  0  0  0  0
  3 20  1  0  0  0  0
  4  5  1  0  0  0  0
  4 21  1  0  0  0  0
  4 22  1  0  0  0  0
  5  6  1  0  0  0  0
  5 23  1  0  0  0  0
  5 24  1  0  0  0  0
  6  7  1  0  0  0  0
  6 25  1  0  0  0  0
  6 26  1  0  0  0  0
  7  8  1  0  0  0  0
  7 27  1  0  0  0  0
  8 28  1  0  0  0  0
  8  9  1  0  0  0  0
  9 11  1  0  0  0  0
  9 10  2  0  0  0  0
 11 12  1  0  0  0  0
 12 16  1  0  0  0  0
 12 13  2  0  0  0  0
 13 14  1  0  0  0  0
 14 29  1  0  0  0  0
 14 15  2  0  0  0  0
 15 30  1  0  0  0  0
 15 16  1  0  0  0  0
M  CHG  1  11  -1
M  END
> <s_m_source_file>
AV-unprocessed.smi

> <i_m_source_file_index>
2784

> <i_lp_mmshare_version>
43012

> <i_f3d_flags>
0

> <s_epik_input>
W0NIM11PW0NAQEhdMVtDSDJdW0NIMl1bQ0gyXVtDQEhdMVtOSF1DKD1PKVtOSF1jMm5bY0hdW2NIXW8y

> <s_epik_cmdline>
J2VwaWtfcHl0aG9uJywgJy1waCcsICc3LjAnLCAnLXRuJywgJzgnLCAnLW1hJywgJzIwMCcsICctbWV0YWxfYmluZGluZycsICctaW1hZScsICc8aW5maWxlLm1hZT4nLCAnLW9tYWUnLCAnPG91dGZpbGUubWFlPic=

> <r_lp_tautomer_probability>
0.107061

> <r_epik_Ionization_Penalty>
10.8857

> <r_epik_Ionization_Penalty_Charging>
7.67908

> <r_epik_Ionization_Penalty_Neutral>
3.20665

> <r_epik_State_Penalty>
5.80296

> <r_epik_Charging_Adjusted_Penalty>
13.482

> <i_epik_Tot_Q>
-1

> <i_epik_Tot_abs_Q>
1

> <r_epik_Metal_State_Penalty>
1.73217

> <b_epik_Metal_Only>
1

> <s_lp_Force_Field>
OPLS_2005

> <r_lp_Energy>
16.6082

> <b_lp_Chiralities_Consistent>
1

> <s_lp_Variant>
AV-unprocessed.smi:2784-19

> <Gold.Version>
5.8.1

> <Gold.Id.Protein>
6NUR|6NUR_protein|mol2

> <Gold.PLP.Fitness>
35.5754

> <Gold.PLP.PLP>
-31.0308

> <Gold.PLP.part.hbond>
-1.1461

> <Gold.PLP.part.metal>
0.0000

> <Gold.PLP.part.buried>
-3.3982

> <Gold.PLP.part.nonpolar>
-26.9850

> <Gold.PLP.part.repulsive>
1.7044

> <Gold.PLP.ligand.clash>
0.0000

> <Gold.PLP.ligand.torsion>
0.0484

> <Gold.PLP.Chemscore.Hbond>
0.5760

> <Gold.PLP.Chemscore.CHOScore>
0.9658

> <Gold.PLP.Chemscore.Metal>
0.0000

> <Gold.Chemscore.Hbonds>
donor molecule, donor type, donor heavy atom, donor atom, acceptor molecule, acceptor atom, score
      P1  H  7989  7998       L1    16  0.57
      L1  C    15    30       P1  7957  0.97

> <Gold.PLP.Chemscore.Internal.Correction>
0.0160

> <Gold.Rescore>
     Score         DG    S(hbond)    S(metal)    S(lipo)     H(rot)  DE(clash)    DE(int)     intcor
     10.89     -12.76       0.53        0.00      75.76       1.31       0.20       1.67       ----

> <Gold.Chemscore.Fitness>
10.8924

> <Gold.Chemscore.DG>
-12.7595

> <Gold.Chemscore.ZeroCoef>
-5.4800

> <Gold.Chemscore.Hbond>
0.5300

> <Gold.Chemscore.Metal>
0.0000

> <Gold.Chemscore.Lipo>
75.7642

> <Gold.Chemscore.Internal_Hbond>
0.0000

> <Gold.Chemscore.DEClash>
0.2012

> <Gold.Chemscore.DEInternal>
1.6659

> <Gold.Chemscore.Rot>
1.3106

> <Gold.Chemscore.Internal.Correction>
   9.000000E+99

> <Gold.Chemscore.Hbonds>
donor molecule, donor type, donor heavy atom, donor atom, acceptor molecule, acceptor atom, score
      P1  H  7989  7998       L1    16  0.32

> <Gold.Chemscore.Hbond.Weighted>
-1.7701

> <Gold.Chemscore.Metal.Weighted>
-0.0000

> <Gold.Chemscore.Lipo.Weighted>
-8.8644

> <Gold.Chemscore.Internal_Hbond.Weighted>
0.0000

> <Gold.Chemscore.DEClash.Weighted>
0.2012

> <Gold.Chemscore.DEInternal.Weighted>
1.6659

> <Gold.Chemscore.Rot.Weighted>
3.3550

> <Gold.Chemscore.Internal.Correction.Weighted>
   9.000000E+99

> <Gold.Protein.RotatedTorsions>
[ 6907 6896 6895 6894 ] final  108.59 input  -60.11 | X-H torsion
[ 7974 7965 7964 7962 ] final   86.48 input  175.53 | X-H torsion
[ 8008 7997 7996 7995 ] final -126.25 input   59.86 | X-H torsion
[ 10167 10162 10161 10158 ] final  -21.99 input  -65.29 | X-H torsion
[ 10718 10713 10712 10709 ] final  105.81 input   66.30 | X-H torsion
[ 10763 10752 10751 10750 ] final   44.11 input  -60.55 | X-H torsion
[ 11005 11000 10999 10996 ] final   49.46 input  -57.11 | X-H torsion

> <Gold.Protein.ActiveResidues>
 VAL166  LYS551  ARG553  GLY616  TRP617  ASP618  TYR619  PRO620  LYS621  CYS622 
 ASP623  PHE694  ASN695  SER759  ASP760  ASP761  ALA762  ILE779  LEU786  VAL792 
 PHE793  MET794  SER795  GLU796  ALA797  LYS798  CYS799  TRP800  GLU811  SER814 

> <Gold.Protein.RotatedAtoms>
  152.5105  133.9067  159.7467 H   0  0  0  0  0  0  0  0  0  0  0  0  # atno 6907 bound_to 6896
  150.9470  133.6583  159.2786 H   0  0  0  0  0  0  0  0  0  0  0  0  # atno 6908 bound_to 6896
  151.3875  135.0955  159.9568 H   0  0  0  0  0  0  0  0  0  0  0  0  # atno 6909 bound_to 6896
  145.5717  139.2314  143.2402 H   0  0  0  0  0  0  0  0  0  0  0  0  # atno 7974 bound_to 7965
  155.2266  140.0424  157.2956 H   0  0  0  0  0  0  0  0  0  0  0  0  # atno 8008 bound_to 7997
  154.5915  140.2428  155.7884 H   0  0  0  0  0  0  0  0  0  0  0  0  # atno 8009 bound_to 7997
  156.2262  140.2953  156.0082 H   0  0  0  0  0  0  0  0  0  0  0  0  # atno 8010 bound_to 7997
  140.7284  143.4576  151.0426 H   0  0  0  0  0  0  0  0  0  0  0  0  # atno 10167 bound_to 10162
  157.6692  131.0836  150.5912 H   0  0  0  0  0  0  0  0  0  0  0  0  # atno 10718 bound_to 10713
  152.9847  135.6081  154.3220 H   0  0  0  0  0  0  0  0  0  0  0  0  # atno 10763 bound_to 10752
  154.2929  135.2774  155.2648 H   0  0  0  0  0  0  0  0  0  0  0  0  # atno 10764 bound_to 10752
  154.4935  135.5886  153.6533 H   0  0  0  0  0  0  0  0  0  0  0  0  # atno 10765 bound_to 10752
  140.1102  134.4965  155.8685 H   0  0  0  0  0  0  0  0  0  0  0  0  # atno 11005 bound_to 11000
  146.1779  140.6543  142.9202 LP  0  0  0  0  0  0  0  0  0  0  0  0  # atno 17320 bound_to 7965
  144.7435  140.5005  143.6852 LP  0  0  0  0  0  0  0  0  0  0  0  0  # atno 17321 bound_to 7965
  139.8258  143.7758  152.3178 LP  0  0  0  0  0  0  0  0  0  0  0  0  # atno 17342 bound_to 10162
  139.7857  144.7429  151.0026 LP  0  0  0  0  0  0  0  0  0  0  0  0  # atno 17343 bound_to 10162
  156.6213  130.4406  149.5821 LP  0  0  0  0  0  0  0  0  0  0  0  0  # atno 17370 bound_to 10713
  156.2353  130.6819  151.1504 LP  0  0  0  0  0  0  0  0  0  0  0  0  # atno 17371 bound_to 10713
  141.2128  133.6724  156.6689 LP  0  0  0  0  0  0  0  0  0  0  0  0  # atno 17394 bound_to 11000
  140.3102  134.8092  157.4170 LP  0  0  0  0  0  0  0  0  0  0  0  0  # atno 17395 bound_to 11000

$$$$
