AV-unprocessed.smi:3300|AV-procd|sdf|12650|dock3
  -GOLD-   2272018583D 1   1.00000     0.00000
 Structure written by MMmdl.
 36 37  0  0  0  0  0  0  0  0  1 V2000
  152.4832  142.8587  161.9110 C   0  0  0  0  0  0  0  0  0  0  0  0
  153.1865  142.2096  160.7135 C   0  0  0  0  0  0  0  0  0  0  0  0
  152.4535  142.4622  159.4092 C   0  0  0  0  0  0  0  0  0  0  0  0
  152.2528  143.7545  159.0667 N   0  0  0  0  0  0  0  0  0  0  0  0
  151.6186  143.9799  157.9139 C   0  0  0  0  0  0  0  0  0  0  0  0
  151.1613  143.0604  157.0607 N   0  0  0  0  0  0  0  0  0  0  0  0
  151.3472  141.7585  157.3917 C   0  0  0  0  0  0  0  0  0  0  0  0
  150.8996  140.7565  156.5099 N   0  0  0  0  0  0  0  0  0  0  0  0
  152.0508  140.0749  155.9265 C   0  0  0  0  0  0  0  0  0  0  0  0
  151.6011  138.8768  155.0810 C   0  0  0  0  0  0  0  0  0  0  0  0
  150.6956  139.3318  154.0861 O   0  0  0  0  0  0  0  0  0  0  0  0
  149.5220  139.8926  154.6620 C   0  0  0  0  0  0  0  0  0  0  0  0
  149.8687  141.1281  155.5290 C   0  0  1  0  0  0  0  0  0  0  0  0
  148.5931  141.6962  156.2051 C   0  0  0  0  0  0  0  0  0  0  0  0
  147.4286  141.9378  155.2314 C   0  0  0  0  0  0  0  0  0  0  0  0
  147.8695  142.7252  154.1462 O   0  0  0  0  0  0  0  0  0  0  0  0
  152.0161  141.4027  158.5848 C   0  0  0  0  0  0  0  0  0  0  0  0
  152.2268  140.1064  158.9213 F   0  0  0  0  0  0  0  0  0  0  0  0
  153.0265  142.6595  162.8347 H   0  0  0  0  0  0  0  0  0  0  0  0
  151.4703  142.4730  162.0309 H   0  0  0  0  0  0  0  0  0  0  0  0
  152.4184  143.9402  161.7888 H   0  0  0  0  0  0  0  0  0  0  0  0
  154.2081  142.5833  160.6377 H   0  0  0  0  0  0  0  0  0  0  0  0
  153.2675  141.1335  160.8729 H   0  0  0  0  0  0  0  0  0  0  0  0
  151.4617  145.0129  157.6415 H   0  0  0  0  0  0  0  0  0  0  0  0
  152.6103  140.7769  155.3061 H   0  0  0  0  0  0  0  0  0  0  0  0
  152.7263  139.7330  156.7119 H   0  0  0  0  0  0  0  0  0  0  0  0
  152.4609  138.4149  154.5954 H   0  0  0  0  0  0  0  0  0  0  0  0
  151.1331  138.1106  155.7014 H   0  0  0  0  0  0  0  0  0  0  0  0
  148.8567  140.1678  153.8446 H   0  0  0  0  0  0  0  0  0  0  0  0
  149.0021  139.1347  155.2508 H   0  0  0  0  0  0  0  0  0  0  0  0
  150.2904  141.8922  154.8742 H   0  0  0  0  0  0  0  0  0  0  0  0
  148.2720  141.0257  157.0039 H   0  0  0  0  0  0  0  0  0  0  0  0
  148.8105  142.6482  156.6888 H   0  0  0  0  0  0  0  0  0  0  0  0
  147.0464  140.9913  154.8484 H   0  0  0  0  0  0  0  0  0  0  0  0
  146.6024  142.4553  155.7174 H   0  0  0  0  0  0  0  0  0  0  0  0
  148.2996  143.4944  154.4876 H   0  0  0  0  0  0  0  0  0  0  0  0
  1  2  1  0  0  0  0
  1 19  1  0  0  0  0
  1 20  1  0  0  0  0
  1 21  1  0  0  0  0
  2  3  1  0  0  0  0
  2 22  1  0  0  0  0
  2 23  1  0  0  0  0
  3 17  1  0  0  0  0
  3  4  2  0  0  0  0
  4  5  1  0  0  0  0
  5  6  2  0  0  0  0
  5 24  1  0  0  0  0
  6  7  1  0  0  0  0
  7  8  1  0  0  0  0
  7 17  2  0  0  0  0
  8 13  1  0  0  0  0
  8  9  1  0  0  0  0
  9 10  1  0  0  0  0
  9 25  1  0  0  0  0
  9 26  1  0  0  0  0
 10 11  1  0  0  0  0
 10 27  1  0  0  0  0
 10 28  1  0  0  0  0
 11 12  1  0  0  0  0
 12 13  1  0  0  0  0
 12 29  1  0  0  0  0
 12 30  1  0  0  0  0
 13 14  1  0  0  0  0
 13 31  1  0  0  0  0
 14 15  1  0  0  0  0
 14 32  1  0  0  0  0
 14 33  1  0  0  0  0
 15 16  1  0  0  0  0
 15 34  1  0  0  0  0
 15 35  1  0  0  0  0
 16 36  1  0  0  0  0
 17 18  1  0  0  0  0
M  END
> <s_m_source_file>
AV-unprocessed.smi

> <i_m_source_file_index>
3300

> <i_lp_mmshare_version>
43012

> <i_f3d_flags>
0

> <s_epik_input>
W0NIM11bQ0gyXWMxbltjSF1uYyhjMUYpTjJbQ0gyXVtDSDJdT1tDSDJdW0NASF0yW0NIMl1bQ0gyXVtPSF0=

> <s_epik_cmdline>
J2VwaWtfcHl0aG9uJywgJy1waCcsICc3LjAnLCAnLXRuJywgJzgnLCAnLW1hJywgJzIwMCcsICctbWV0YWxfYmluZGluZycsICctaW1hZScsICc8aW5maWxlLm1hZT4nLCAnLW9tYWUnLCAnPG91dGZpbGUubWFlPic=

> <r_lp_tautomer_probability>
1

> <r_epik_Ionization_Penalty>
2.51351e-05

> <r_epik_Ionization_Penalty_Charging>
0

> <r_epik_Ionization_Penalty_Neutral>
2.51351e-05

> <r_epik_State_Penalty>
-0

> <r_epik_Charging_Adjusted_Penalty>
0

> <i_epik_Tot_Q>
0

> <i_epik_Tot_abs_Q>
0

> <r_epik_Metal_State_Penalty>
-0

> <b_epik_Metal_Only>
0

> <s_lp_Force_Field>
OPLS_2005

> <r_lp_Energy>
16.6738

> <b_lp_Chiralities_Consistent>
1

> <s_lp_Variant>
AV-unprocessed.smi:3300-1

> <Gold.Version>
5.8.1

> <Gold.Id.Protein>
6NUR|6NUR_protein|mol2

> <Gold.PLP.Fitness>
44.0447

> <Gold.PLP.PLP>
-38.6721

> <Gold.PLP.part.hbond>
-3.6333

> <Gold.PLP.part.metal>
0.0000

> <Gold.PLP.part.buried>
-3.0173

> <Gold.PLP.part.nonpolar>
-33.0328

> <Gold.PLP.part.repulsive>
0.3691

> <Gold.PLP.ligand.clash>
0.0000

> <Gold.PLP.ligand.torsion>
0.3917

> <Gold.PLP.Chemscore.Hbond>
2.0000

> <Gold.PLP.Chemscore.CHOScore>
0.0000

> <Gold.PLP.Chemscore.Metal>
0.0000

> <Gold.Chemscore.Hbonds>
donor molecule, donor type, donor heavy atom, donor atom, acceptor molecule, acceptor atom, score
      L1  H    16    36       P1  8028  1.00
      P1  H  7989  7998       L1    11  1.00

> <Gold.PLP.Chemscore.Internal.Correction>
0.1560

> <Gold.Rescore>
     Score         DG    S(hbond)    S(metal)    S(lipo)     H(rot)  DE(clash)    DE(int)     intcor
     11.36     -12.00       1.05        0.00      76.96       2.35       0.03       0.61       ----

> <Gold.Chemscore.Fitness>
11.3625

> <Gold.Chemscore.DG>
-11.9994

> <Gold.Chemscore.ZeroCoef>
-5.4800

> <Gold.Chemscore.Hbond>
1.0539

> <Gold.Chemscore.Metal>
0.0000

> <Gold.Chemscore.Lipo>
76.9600

> <Gold.Chemscore.Internal_Hbond>
0.0000

> <Gold.Chemscore.DEClash>
0.0297

> <Gold.Chemscore.DEInternal>
0.6071

> <Gold.Chemscore.Rot>
2.3458

> <Gold.Chemscore.Internal.Correction>
   9.000000E+99

> <Gold.Chemscore.Hbonds>
donor molecule, donor type, donor heavy atom, donor atom, acceptor molecule, acceptor atom, score
      L1  H    16    36       P1  8028  0.97
      P1  H  7989  7998       L1    11  0.10

> <Gold.Chemscore.Hbond.Weighted>
-3.5202

> <Gold.Chemscore.Metal.Weighted>
-0.0000

> <Gold.Chemscore.Lipo.Weighted>
-9.0043

> <Gold.Chemscore.Internal_Hbond.Weighted>
0.0000

> <Gold.Chemscore.DEClash.Weighted>
0.0297

> <Gold.Chemscore.DEInternal.Weighted>
0.6071

> <Gold.Chemscore.Rot.Weighted>
6.0051

> <Gold.Chemscore.Internal.Correction.Weighted>
   9.000000E+99

> <Gold.Protein.RotatedTorsions>
[ 6907 6896 6895 6894 ] final -179.69 input  -60.11 | X-H torsion
[ 7974 7965 7964 7962 ] final   98.31 input  175.53 | X-H torsion
[ 8008 7997 7996 7995 ] final  -36.06 input   59.86 | X-H torsion
[ 10167 10162 10161 10158 ] final  -82.72 input  -65.29 | X-H torsion
[ 10718 10713 10712 10709 ] final   44.18 input   66.30 | X-H torsion
[ 10763 10752 10751 10750 ] final -126.14 input  -60.55 | X-H torsion
[ 11005 11000 10999 10996 ] final    0.94 input  -57.11 | X-H torsion

> <Gold.Protein.ActiveResidues>
 VAL166  LYS551  ARG553  GLY616  TRP617  ASP618  TYR619  PRO620  LYS621  CYS622 
 ASP623  PHE694  ASN695  SER759  ASP760  ASP761  ALA762  ILE779  LEU786  VAL792 
 PHE793  MET794  SER795  GLU796  ALA797  LYS798  CYS799  TRP800  GLU811  SER814 

> <Gold.Protein.RotatedAtoms>
  151.6576  133.3318  159.3166 H   0  0  0  0  0  0  0  0  0  0  0  0  # atno 6907 bound_to 6896
  150.7929  134.6971  159.6539 H   0  0  0  0  0  0  0  0  0  0  0  0  # atno 6908 bound_to 6896
  152.4012  134.6287  160.0121 H   0  0  0  0  0  0  0  0  0  0  0  0  # atno 6909 bound_to 6896
  145.4139  139.2330  143.3233 H   0  0  0  0  0  0  0  0  0  0  0  0  # atno 7974 bound_to 7965
  154.4081  140.1640  156.2313 H   0  0  0  0  0  0  0  0  0  0  0  0  # atno 8008 bound_to 7997
  155.9280  140.3416  155.6203 H   0  0  0  0  0  0  0  0  0  0  0  0  # atno 8009 bound_to 7997
  155.7141  140.0760  157.2349 H   0  0  0  0  0  0  0  0  0  0  0  0  # atno 8010 bound_to 7997
  140.4293  143.2554  151.8781 H   0  0  0  0  0  0  0  0  0  0  0  0  # atno 10167 bound_to 10162
  157.4241  130.7986  149.7542 H   0  0  0  0  0  0  0  0  0  0  0  0  # atno 10718 bound_to 10713
  154.8743  135.4006  154.3382 H   0  0  0  0  0  0  0  0  0  0  0  0  # atno 10763 bound_to 10752
  153.4185  135.7022  153.6315 H   0  0  0  0  0  0  0  0  0  0  0  0  # atno 10764 bound_to 10752
  153.4988  135.3732  155.2499 H   0  0  0  0  0  0  0  0  0  0  0  0  # atno 10765 bound_to 10752
  140.6210  133.9661  155.8225 H   0  0  0  0  0  0  0  0  0  0  0  0  # atno 11005 bound_to 11000
  146.2691  140.4854  142.8822 LP  0  0  0  0  0  0  0  0  0  0  0  0  # atno 17320 bound_to 7965
  144.8290  140.6676  143.6303 LP  0  0  0  0  0  0  0  0  0  0  0  0  # atno 17321 bound_to 7965
  139.4784  144.5352  151.8609 LP  0  0  0  0  0  0  0  0  0  0  0  0  # atno 17342 bound_to 10162
  140.4445  144.1941  150.5893 LP  0  0  0  0  0  0  0  0  0  0  0  0  # atno 17343 bound_to 10162
  155.9890  130.3955  150.3091 LP  0  0  0  0  0  0  0  0  0  0  0  0  # atno 17370 bound_to 10713
  157.1242  131.0255  151.2996 LP  0  0  0  0  0  0  0  0  0  0  0  0  # atno 17371 bound_to 10713
  141.0742  134.0159  157.3481 LP  0  0  0  0  0  0  0  0  0  0  0  0  # atno 17394 bound_to 11000
  139.9153  135.0196  156.7858 LP  0  0  0  0  0  0  0  0  0  0  0  0  # atno 17395 bound_to 11000

$$$$
