AV-unprocessed.smi:557|AV-procd|sdf|2916|dock6
  -GOLD-   2262023413D 1   1.00000     0.00000
 Structure written by MMmdl.
 47 49  0  0  0  0  0  0  0  0  2 V2000
  151.7992  141.3143  157.8692 C   0  0  0  0  0  0  0  0  0  0  0  0
  151.4495  140.5743  156.6757 N   0  0  0  0  0  0  0  0  0  0  0  0
  150.2650  140.5893  155.9717 C   0  0  0  0  0  0  0  0  0  0  0  0
  150.4034  139.7297  154.9183 C   0  0  0  0  0  0  0  0  0  0  0  0
  149.4058  139.3879  153.8474 C   0  0  0  0  0  0  0  0  0  0  0  0
  148.2119  138.6123  154.4193 C   0  0  0  0  0  0  0  0  0  0  0  0
  147.6254  137.7468  153.3998 N   0  0  0  0  0  0  0  0  0  0  0  0
  146.3318  137.4077  153.2690 C   0  0  0  0  0  0  0  0  0  0  0  0
  145.4674  137.8211  154.0393 O   0  0  0  0  0  0  0  0  0  0  0  0
  146.0692  136.5916  152.2344 N   0  0  0  0  0  0  0  0  0  0  0  0
  144.7433  136.0885  151.8882 C   0  0  2  0  0  0  0  0  0  0  0  0
  143.9604  135.5707  153.0875 C   0  0  0  0  0  0  0  0  0  0  0  0
  142.8772  134.7004  152.4413 C   0  0  0  0  0  0  0  0  0  0  0  0
  143.4206  134.2300  151.1430 N   0  3  2  0  0  0  0  0  0  0  0  0
  143.4073  132.7512  150.9817 C   0  0  0  0  0  0  0  0  0  0  0  0
  144.3309  132.3140  149.8352 C   0  0  0  0  0  0  0  0  0  0  0  0
  145.7957  132.7017  150.1132 C   0  0  0  0  0  0  0  0  0  0  0  0
  145.9165  133.8910  151.0855 C   0  0  0  0  0  0  0  0  0  0  0  0
  144.7411  134.8866  150.9244 C   0  0  2  0  0  0  0  0  0  0  0  0
  151.7276  139.2291  155.0721 C   0  0  0  0  0  0  0  0  0  0  0  0
  152.3506  139.7358  156.1236 N   0  0  0  0  0  0  0  0  0  0  0  0
  151.0782  142.1149  158.0362 H   0  0  0  0  0  0  0  0  0  0  0  0
  152.7924  141.7512  157.7597 H   0  0  0  0  0  0  0  0  0  0  0  0
  151.7941  140.6454  158.7301 H   0  0  0  0  0  0  0  0  0  0  0  0
  149.4302  141.2047  156.2734 H   0  0  0  0  0  0  0  0  0  0  0  0
  149.0459  140.2945  153.3594 H   0  0  0  0  0  0  0  0  0  0  0  0
  149.8786  138.7963  153.0625 H   0  0  0  0  0  0  0  0  0  0  0  0
  148.5341  138.0068  155.2682 H   0  0  0  0  0  0  0  0  0  0  0  0
  147.4561  139.3106  154.7832 H   0  0  0  0  0  0  0  0  0  0  0  0
  148.2695  137.3536  152.7284 H   0  0  0  0  0  0  0  0  0  0  0  0
  146.8404  136.2976  151.6527 H   0  0  0  0  0  0  0  0  0  0  0  0
  144.1642  136.8988  151.4396 H   0  0  0  0  0  0  0  0  0  0  0  0
  144.6004  134.9547  153.7212 H   0  0  0  0  0  0  0  0  0  0  0  0
  143.5468  136.3701  153.7033 H   0  0  0  0  0  0  0  0  0  0  0  0
  142.5717  133.8868  153.1008 H   0  0  0  0  0  0  0  0  0  0  0  0
  141.9900  135.3000  152.2349 H   0  0  0  0  0  0  0  0  0  0  0  0
  143.7323  132.2685  151.9050 H   0  0  0  0  0  0  0  0  0  0  0  0
  142.3837  132.4236  150.7978 H   0  0  0  0  0  0  0  0  0  0  0  0
  144.2551  131.2387  149.6703 H   0  0  0  0  0  0  0  0  0  0  0  0
  143.9965  132.7879  148.9112 H   0  0  0  0  0  0  0  0  0  0  0  0
  146.3362  131.8501  150.5274 H   0  0  0  0  0  0  0  0  0  0  0  0
  146.2847  132.9397  149.1678 H   0  0  0  0  0  0  0  0  0  0  0  0
  145.9343  133.5178  152.1105 H   0  0  0  0  0  0  0  0  0  0  0  0
  146.8767  134.3821  150.9263 H   0  0  0  0  0  0  0  0  0  0  0  0
  144.7663  135.2594  149.8992 H   0  0  0  0  0  0  0  0  0  0  0  0
  152.2523  138.5168  154.4524 H   0  0  0  0  0  0  0  0  0  0  0  0
  142.8101  134.6031  150.4298 H   0  0  0  0  0  0  0  0  0  0  0  0
  1  2  1  0  0  0  0
  1 22  1  0  0  0  0
  1 23  1  0  0  0  0
  1 24  1  0  0  0  0
  2 21  1  0  0  0  0
  2  3  1  0  0  0  0
  3  4  2  0  0  0  0
  3 25  1  0  0  0  0
  4  5  1  0  0  0  0
  4 20  1  0  0  0  0
  5  6  1  0  0  0  0
  5 26  1  0  0  0  0
  5 27  1  0  0  0  0
  6  7  1  0  0  0  0
  6 28  1  0  0  0  0
  6 29  1  0  0  0  0
  7  8  1  0  0  0  0
  7 30  1  0  0  0  0
  8  9  2  0  0  0  0
  8 10  1  0  0  0  0
 10 11  1  0  0  0  0
 10 31  1  0  0  0  0
 11 19  1  0  0  0  0
 11 12  1  0  0  0  0
 11 32  1  0  0  0  0
 12 13  1  0  0  0  0
 12 33  1  0  0  0  0
 12 34  1  0  0  0  0
 13 14  1  0  0  0  0
 13 35  1  0  0  0  0
 13 36  1  0  0  0  0
 14 19  1  0  0  0  0
 14 15  1  0  0  0  0
 14 47  1  0  0  0  0
 15 16  1  0  0  0  0
 15 37  1  0  0  0  0
 15 38  1  0  0  0  0
 16 17  1  0  0  0  0
 16 39  1  0  0  0  0
 16 40  1  0  0  0  0
 17 18  1  0  0  0  0
 17 41  1  0  0  0  0
 17 42  1  0  0  0  0
 18 19  1  0  0  0  0
 18 43  1  0  0  0  0
 18 44  1  0  0  0  0
 19 45  1  0  0  0  0
 20 21  2  0  0  0  0
 20 46  1  0  0  0  0
M  CHG  1  14   1
M  END
> <s_m_source_file>
AV-unprocessed.smi

> <i_m_source_file_index>
557

> <i_lp_mmshare_version>
43012

> <i_f3d_flags>
0

> <s_epik_input>
W0NIM11uMVtjSF1jKFtjSF1uMSlbQ0gyXVtDSDJdW05IXUMoPU8pW05IXVtDQEhdKFtDSDJdW0NIMl0yKVtDQEhdKE4yMylbQ0gyXVtDSDJdW0NIMl1bQ0gyXTM=

> <s_epik_cmdline>
J2VwaWtfcHl0aG9uJywgJy1waCcsICc3LjAnLCAnLXRuJywgJzgnLCAnLW1hJywgJzIwMCcsICctbWV0YWxfYmluZGluZycsICctaW1hZScsICc8aW5maWxlLm1hZT4nLCAnLW9tYWUnLCAnPG91dGZpbGUubWFlPic=

> <r_lp_tautomer_probability>
1

> <r_epik_Ionization_Penalty>
0.000956547

> <r_epik_Ionization_Penalty_Charging>
0.000435796

> <r_epik_Ionization_Penalty_Neutral>
0.000520752

> <r_epik_State_Penalty>
-0

> <r_epik_Charging_Adjusted_Penalty>
0.000435796

> <i_epik_Tot_Q>
1

> <i_epik_Tot_abs_Q>
1

> <r_epik_Metal_State_Penalty>
-0

> <b_epik_Metal_Only>
0

> <s_lp_Force_Field>
OPLS_2005

> <r_lp_Energy>
46.1315

> <b_lp_Chiralities_Consistent>
1

> <s_lp_Variant>
AV-unprocessed.smi:557-3

> <Gold.Version>
5.8.1

> <Gold.Id.Protein>
6NUR|6NUR_protein|mol2

> <Gold.PLP.Fitness>
50.7007

> <Gold.PLP.PLP>
-38.1754

> <Gold.PLP.part.hbond>
-3.9018

> <Gold.PLP.part.metal>
0.0000

> <Gold.PLP.part.buried>
-2.9157

> <Gold.PLP.part.nonpolar>
-32.4602

> <Gold.PLP.part.repulsive>
0.1610

> <Gold.PLP.ligand.clash>
0.0000

> <Gold.PLP.ligand.torsion>
0.5926

> <Gold.PLP.Chemscore.Hbond>
4.5688

> <Gold.PLP.Chemscore.CHOScore>
0.0000

> <Gold.PLP.Chemscore.Metal>
0.0000

> <Gold.Chemscore.Hbonds>
donor molecule, donor type, donor heavy atom, donor atom, acceptor molecule, acceptor atom, score
      L1  H     7    30       P1  7948  1.00
      L1  H    10    31       P1  7948  0.62
      L1  H    14    47       P1 10186  1.79
      P1  H  7997  8008       L1    21  0.99

> <Gold.PLP.Chemscore.Internal.Correction>
0.0041

> <Gold.Rescore>
     Score         DG    S(hbond)    S(metal)    S(lipo)     H(rot)  DE(clash)    DE(int)     intcor
     19.72     -21.74       2.91        0.00      90.92       1.60       0.11       1.91       ----

> <Gold.Chemscore.Fitness>
19.7178

> <Gold.Chemscore.DG>
-21.7397

> <Gold.Chemscore.ZeroCoef>
-5.4800

> <Gold.Chemscore.Hbond>
2.9111

> <Gold.Chemscore.Metal>
0.0000

> <Gold.Chemscore.Lipo>
90.9168

> <Gold.Chemscore.Internal_Hbond>
0.0000

> <Gold.Chemscore.DEClash>
0.1134

> <Gold.Chemscore.DEInternal>
1.9085

> <Gold.Chemscore.Rot>
1.6018

> <Gold.Chemscore.Internal.Correction>
   9.000000E+99

> <Gold.Chemscore.Hbonds>
donor molecule, donor type, donor heavy atom, donor atom, acceptor molecule, acceptor atom, score
      L1  H     7    30       P1  7948  0.95
      L1  H    10    31       P1  7948  0.61
      L1  H    14    47       P1 10186  0.38
      P1  H  7997  8008       L1    21  0.91

> <Gold.Chemscore.Hbond.Weighted>
-9.7230

> <Gold.Chemscore.Metal.Weighted>
-0.0000

> <Gold.Chemscore.Lipo.Weighted>
-10.6373

> <Gold.Chemscore.Internal_Hbond.Weighted>
0.0000

> <Gold.Chemscore.DEClash.Weighted>
0.1134

> <Gold.Chemscore.DEInternal.Weighted>
1.9085

> <Gold.Chemscore.Rot.Weighted>
4.1006

> <Gold.Chemscore.Internal.Correction.Weighted>
   9.000000E+99

> <Gold.Protein.RotatedTorsions>
[ 6907 6896 6895 6894 ] final -116.89 input  -60.11 | X-H torsion
[ 7974 7965 7964 7962 ] final   15.35 input  175.53 | X-H torsion
[ 8008 7997 7996 7995 ] final  -41.66 input   59.86 | X-H torsion
[ 10167 10162 10161 10158 ] final   21.87 input  -65.29 | X-H torsion
[ 10718 10713 10712 10709 ] final -105.86 input   66.30 | X-H torsion
[ 10763 10752 10751 10750 ] final  -56.02 input  -60.55 | X-H torsion
[ 11005 11000 10999 10996 ] final -111.16 input  -57.11 | X-H torsion

> <Gold.Protein.ActiveResidues>
 VAL166  LYS551  ARG553  GLY616  TRP617  ASP618  TYR619  PRO620  LYS621  CYS622 
 ASP623  PHE694  ASN695  SER759  ASP760  ASP761  ALA762  ILE779  LEU786  VAL792 
 PHE793  MET794  SER795  GLU796  ALA797  LYS798  CYS799  TRP800  GLU811  SER814 

> <Gold.Protein.RotatedAtoms>
  150.8092  133.8453  159.3190 H   0  0  0  0  0  0  0  0  0  0  0  0  # atno 6907 bound_to 6896
  151.6243  135.1027  160.0118 H   0  0  0  0  0  0  0  0  0  0  0  0  # atno 6908 bound_to 6896
  152.4184  133.7035  159.6494 H   0  0  0  0  0  0  0  0  0  0  0  0  # atno 6909 bound_to 6896
  146.2281  139.8908  142.8555 H   0  0  0  0  0  0  0  0  0  0  0  0  # atno 7974 bound_to 7965
  154.4003  140.1493  156.3227 H   0  0  0  0  0  0  0  0  0  0  0  0  # atno 8008 bound_to 7997
  155.8515  140.3457  155.5675 H   0  0  0  0  0  0  0  0  0  0  0  0  # atno 8009 bound_to 7997
  155.7979  140.0866  157.1964 H   0  0  0  0  0  0  0  0  0  0  0  0  # atno 8010 bound_to 7997
  140.5392  143.9706  150.6509 H   0  0  0  0  0  0  0  0  0  0  0  0  # atno 10167 bound_to 10162
  156.0364  130.5584  150.7599 H   0  0  0  0  0  0  0  0  0  0  0  0  # atno 10718 bound_to 10713
  154.2001  135.6412  153.5084 H   0  0  0  0  0  0  0  0  0  0  0  0  # atno 10763 bound_to 10752
  153.0014  135.5449  154.6325 H   0  0  0  0  0  0  0  0  0  0  0  0  # atno 10764 bound_to 10752
  154.5735  135.2919  155.0777 H   0  0  0  0  0  0  0  0  0  0  0  0  # atno 10765 bound_to 10752
  141.0750  133.9316  157.2408 H   0  0  0  0  0  0  0  0  0  0  0  0  # atno 11005 bound_to 11000
  145.2420  141.0012  143.3930 LP  0  0  0  0  0  0  0  0  0  0  0  0  # atno 17320 bound_to 7965
  144.9444  139.4152  143.6433 LP  0  0  0  0  0  0  0  0  0  0  0  0  # atno 17321 bound_to 7965
  140.3102  143.3203  152.0886 LP  0  0  0  0  0  0  0  0  0  0  0  0  # atno 17342 bound_to 10162
  139.4982  144.6641  151.6397 LP  0  0  0  0  0  0  0  0  0  0  0  0  # atno 17343 bound_to 10162
  157.5121  131.0926  151.0185 LP  0  0  0  0  0  0  0  0  0  0  0  0  # atno 17370 bound_to 10713
  157.0538  130.5797  149.5374 LP  0  0  0  0  0  0  0  0  0  0  0  0  # atno 17371 bound_to 10713
  139.9563  135.0165  156.9136 LP  0  0  0  0  0  0  0  0  0  0  0  0  # atno 17394 bound_to 11000
  140.5592  134.0551  155.7393 LP  0  0  0  0  0  0  0  0  0  0  0  0  # atno 17395 bound_to 11000

$$$$
