#       Name:                AV-unprocessed.smi:2143
#       Creating user name   scv26
#       Creation time:       Fri Mar 27 11:49:12 2020


#       File generated by GOLD software.
#

@<TRIPOS>MOLECULE
AV-unprocessed.smi:2143
    50    51     1
SMALL
NO_CHARGES


@<TRIPOS>ATOM
      1 ****        -4.1990  -1.0336  -0.9177 C.3            1 S1                 0.0000
      2 ****        -3.4964  -0.4940   0.3393 C.3            1 S1                 0.0000
      3 ****        -4.0032  -1.1888   1.6194 C.3            1 S1                 0.0000
      4 ****        -3.3737  -0.5743   2.8794 C.3            1 S1                 0.0000
      5 ****        -1.8396  -0.5838   2.8052 C.3            1 S1                 0.0000
      6 ****        -1.3380   0.1143   1.5266 C.3            1 S1                 0.0000
      7 ****         0.1229   0.1143   1.5048 N.am           1 S1                 0.0000
      8 ****         0.8903   0.9686   0.8115 C.2            1 S1                 0.0000
      9 ****         0.4347   1.8888   0.1313 O.2            1 S1                 0.0000
     10 ****         2.4052   0.7520   0.9194 C.3            1 S1                 0.0000
     11 ****         3.1229   1.1346  -0.3035 N.am           1 S1                 0.0000
     12 ****         3.7881   2.3461  -0.3577 C.2            1 S1                 0.0000
     13 ****         4.4699   2.7736  -1.4427 C.2            1 S1                 0.0000
     14 ****         4.5386   1.9602  -2.6503 C.2            1 S1                 0.0000
     15 ****         5.1650   2.2970  -3.6561 O.2            1 S1                 0.0000
     16 ****         3.8353   0.7352  -2.5759 N.am           1 S1                 0.0000
     17 ****         3.8775  -0.1256  -3.7401 C.3            1 S1                 0.0000
     18 ****         3.1395   0.2838  -1.4306 C.2            1 S1                 0.0000
     19 ****         2.5683  -0.8091  -1.3957 O.2            1 S1                 0.0000
     20 ****        -1.9473  -0.5245   0.2470 C.3            1 S1                 0.0000
     21 ****        -1.3742  -1.9265  -0.0673 C.3            1 S1                 0.0000
     22 ****        -4.0645  -2.1097  -1.0274 H              1 S1                 0.0000
     23 ****        -3.8189  -0.5521  -1.8191 H              1 S1                 0.0000
     24 ****        -5.2718  -0.8449  -0.8728 H              1 S1                 0.0000
     25 ****        -3.7833   0.5561   0.4150 H              1 S1                 0.0000
     26 ****        -5.0887  -1.1045   1.6820 H              1 S1                 0.0000
     27 ****        -3.7841  -2.2563   1.5809 H              1 S1                 0.0000
     28 ****        -3.7243   0.4518   2.9966 H              1 S1                 0.0000
     29 ****        -3.7072  -1.1167   3.7645 H              1 S1                 0.0000
     30 ****        -1.4325  -0.0849   3.6856 H              1 S1                 0.0000
     31 ****        -1.4773  -1.6118   2.8426 H              1 S1                 0.0000
     32 ****        -1.6693   1.1534   1.5787 H              1 S1                 0.0000
     33 ****         0.5844  -0.6060   2.0413 H              1 S1                 0.0000
     34 ****         2.7719   1.3325   1.7669 H              1 S1                 0.0000
     35 ****         2.6163  -0.2909   1.1631 H              1 S1                 0.0000
     36 ****         3.7638   2.9869   0.5117 H              1 S1                 0.0000
     37 ****         4.9718   3.7297  -1.4171 H              1 S1                 0.0000
     38 ****         3.0240  -0.8039  -3.7403 H              1 S1                 0.0000
     39 ****         4.8196  -0.6735  -3.6945 H              1 S1                 0.0000
     40 ****         3.8169   0.4926  -4.6374 H              1 S1                 0.0000
     41 ****        -1.6685   0.1118  -0.5944 H              1 S1                 0.0000
     42 ****        -1.6204  -2.6534   0.7058 H              1 S1                 0.0000
     43 ****        -0.2886  -1.9043  -0.1629 H              1 S1                 0.0000
     44 ****        -1.7543  -2.3103  -1.0134 H              1 S1                 0.0000
     45 ****        -0.5541   2.0278   0.0763 LP             1 S1                 0.0000
     46 ****         1.0535   2.4969  -0.3660 LP             1 S1                 0.0000
     47 ****         5.6588   3.1664  -3.6698 LP             1 S1                 0.0000
     48 ****         5.1796   1.7010  -4.4590 LP             1 S1                 0.0000
     49 ****         2.0899  -1.0970  -0.5661 LP             1 S1                 0.0000
     50 ****         2.5836  -1.4071  -2.1971 LP             1 S1                 0.0000
@<TRIPOS>BOND
    1    1    2 1     
    2    1   22 1     
    3    1   23 1     
    4    1   24 1     
    5    2   20 1     
    6    2    3 1     
    7    2   25 1     
    8    3    4 1     
    9    3   26 1     
   10    3   27 1     
   11    4    5 1     
   12    4   28 1     
   13    4   29 1     
   14    5    6 1     
   15    5   30 1     
   16    5   31 1     
   17    6    7 1     
   18    6   20 1     
   19    6   32 1     
   20    7    8 am    
   21    7   33 1     
   22    8    9 2     
   23    8   10 1     
   24   10   11 1     
   25   10   34 1     
   26   10   35 1     
   27   11   18 am    
   28   11   12 1     
   29   12   13 2     
   30   12   36 1     
   31   13   14 1     
   32   13   37 1     
   33   14   15 2     
   34   14   16 am    
   35   16   17 1     
   36   16   18 am    
   37   17   38 1     
   38   17   39 1     
   39   17   40 1     
   40   18   19 2     
   41   20   21 1     
   42   20   41 1     
   43   21   42 1     
   44   21   43 1     
   45   21   44 1     
   46    9   45 1     
   47    9   46 1     
   48   15   47 1     
   49   15   48 1     
   50   19   49 1     
   51   19   50 1     
@<TRIPOS>SUBSTRUCTURE
      1 S1             1
@<TRIPOS>SET
LONE_PAIRS      STATIC     ATOMS    <user>   **** ""
6 45 46 47 48 49 50
DONOR_HYDROGENS      STATIC     ATOMS    <user>   **** ""
1 33
ATOM$BLUE        STATIC     ATOMS    COLORGROUP SYSTEM
6 45 46 47 48 49 50
ATOM$RED        STATIC     ATOMS    COLORGROUP SYSTEM
1 33
