AV-unprocessed.smi:139|AV-procd|sdf|1184|dock7
  -GOLD-   2262018333D 1   1.00000     0.00000
 Structure written by MMmdl.
 50 53  0  0  0  0  0  0  0  0  1 V2000
  154.4639  139.1347  158.9402 O   0  0  0  0  0  0  0  0  0  0  0  0
  153.3670  138.9186  159.4574 C   0  0  0  0  0  0  0  0  0  0  0  0
  153.1468  137.7005  160.3664 C   0  0  0  0  0  0  0  0  0  0  0  0
  154.3533  137.3003  161.1230 N   0  0  0  0  0  0  0  0  0  0  0  0
  154.8355  135.9750  160.9859 C   0  0  0  0  0  0  0  0  0  0  0  0
  154.2708  135.1623  160.2521 O   0  0  0  0  0  0  0  0  0  0  0  0
  156.0288  135.6557  161.7612 C   0  0  0  0  0  0  0  0  0  0  0  0
  156.5481  134.4175  161.7045 F   0  0  0  0  0  0  0  0  0  0  0  0
  156.6191  136.5837  162.5422 C   0  0  0  0  0  0  0  0  0  0  0  0
  156.1457  137.8786  162.6559 N   0  0  0  0  0  0  0  0  0  0  0  0
  156.8288  138.9021  163.5396 C   0  0  1  0  0  0  0  0  0  0  0  0
  155.8463  139.4435  164.5833 C   0  0  0  0  0  0  0  0  0  0  0  0
  156.0413  138.4650  165.7203 C   0  0  0  0  0  0  0  0  0  0  0  0
  157.5354  138.1721  165.6251 C   0  0  0  0  0  0  0  0  0  0  0  0
  157.8707  138.2879  164.2424 O   0  0  0  0  0  0  0  0  0  0  0  0
  154.9925  138.2644  161.9382 C   0  0  0  0  0  0  0  0  0  0  0  0
  154.5548  139.4141  162.0234 O   0  0  0  0  0  0  0  0  0  0  0  0
  152.2914  139.7005  159.2651 N   0  0  0  0  0  0  0  0  0  0  0  0
  152.2199  140.9082  158.4384 C   0  0  1  0  0  0  0  0  0  0  0  0
  151.1490  140.7734  157.3354 C   0  0  0  0  0  0  0  0  0  0  0  0
  150.9550  142.0882  156.5783 C   0  0  0  0  0  0  0  0  0  0  0  0
  150.4970  143.2023  157.5256 C   0  0  0  0  0  0  0  0  0  0  0  0
  151.3335  143.2982  158.7925 C   0  0  0  0  0  0  0  0  0  0  0  0
  151.2898  144.4931  159.5414 C   0  0  0  0  0  0  0  0  0  0  0  0
  152.0427  144.6235  160.7226 C   0  0  0  0  0  0  0  0  0  0  0  0
  152.8475  143.5574  161.1614 C   0  0  0  0  0  0  0  0  0  0  0  0
  152.8948  142.3617  160.4212 C   0  0  0  0  0  0  0  0  0  0  0  0
  152.1336  142.2136  159.2385 C   0  0  0  0  0  0  0  0  0  0  0  0
  152.3186  137.9135  161.0445 H   0  0  0  0  0  0  0  0  0  0  0  0
  152.7775  136.8787  159.7510 H   0  0  0  0  0  0  0  0  0  0  0  0
  157.4955  136.2838  163.0964 H   0  0  0  0  0  0  0  0  0  0  0  0
  157.2280  139.6598  162.8634 H   0  0  0  0  0  0  0  0  0  0  0  0
  156.1672  140.4431  164.8790 H   0  0  0  0  0  0  0  0  0  0  0  0
  154.8228  139.4958  164.2106 H   0  0  0  0  0  0  0  0  0  0  0  0
  155.7458  138.8678  166.6892 H   0  0  0  0  0  0  0  0  0  0  0  0
  155.4649  137.5573  165.5378 H   0  0  0  0  0  0  0  0  0  0  0  0
  158.1038  138.9173  166.1829 H   0  0  0  0  0  0  0  0  0  0  0  0
  157.7923  137.1878  166.0164 H   0  0  0  0  0  0  0  0  0  0  0  0
  151.4373  139.4317  159.7315 H   0  0  0  0  0  0  0  0  0  0  0  0
  153.1843  140.9630  157.9321 H   0  0  0  0  0  0  0  0  0  0  0  0
  151.4191  139.9723  156.6466 H   0  0  0  0  0  0  0  0  0  0  0  0
  150.1884  140.4926  157.7680 H   0  0  0  0  0  0  0  0  0  0  0  0
  151.8977  142.3722  156.1090 H   0  0  0  0  0  0  0  0  0  0  0  0
  150.2318  141.9626  155.7722 H   0  0  0  0  0  0  0  0  0  0  0  0
  150.5139  144.1592  157.0026 H   0  0  0  0  0  0  0  0  0  0  0  0
  149.4625  143.0265  157.8225 H   0  0  0  0  0  0  0  0  0  0  0  0
  150.6751  145.3171  159.2097 H   0  0  0  0  0  0  0  0  0  0  0  0
  152.0041  145.5415  161.2901 H   0  0  0  0  0  0  0  0  0  0  0  0
  153.4304  143.6566  162.0650 H   0  0  0  0  0  0  0  0  0  0  0  0
  153.5245  141.5560  160.7687 H   0  0  0  0  0  0  0  0  0  0  0  0
  1  2  2  0  0  0  0
  2  3  1  0  0  0  0
  2 18  1  0  0  0  0
  3  4  1  0  0  0  0
  3 29  1  0  0  0  0
  3 30  1  0  0  0  0
  4 16  1  0  0  0  0
  4  5  1  0  0  0  0
  5  6  2  0  0  0  0
  5  7  1  0  0  0  0
  7  8  1  0  0  0  0
  7  9  2  0  0  0  0
  9 10  1  0  0  0  0
  9 31  1  0  0  0  0
 10 11  1  0  0  0  0
 10 16  1  0  0  0  0
 11 15  1  0  0  0  0
 11 12  1  0  0  0  0
 11 32  1  0  0  0  0
 12 13  1  0  0  0  0
 12 33  1  0  0  0  0
 12 34  1  0  0  0  0
 13 14  1  0  0  0  0
 13 35  1  0  0  0  0
 13 36  1  0  0  0  0
 14 15  1  0  0  0  0
 14 37  1  0  0  0  0
 14 38  1  0  0  0  0
 16 17  2  0  0  0  0
 18 19  1  0  0  0  0
 18 39  1  0  0  0  0
 19 28  1  0  0  0  0
 19 20  1  0  0  0  0
 19 40  1  0  0  0  0
 20 21  1  0  0  0  0
 20 41  1  0  0  0  0
 20 42  1  0  0  0  0
 21 22  1  0  0  0  0
 21 43  1  0  0  0  0
 21 44  1  0  0  0  0
 22 23  1  0  0  0  0
 22 45  1  0  0  0  0
 22 46  1  0  0  0  0
 23 28  2  0  0  0  0
 23 24  1  0  0  0  0
 24 25  2  0  0  0  0
 24 47  1  0  0  0  0
 25 26  1  0  0  0  0
 25 48  1  0  0  0  0
 26 27  2  0  0  0  0
 26 49  1  0  0  0  0
 27 28  1  0  0  0  0
 27 50  1  0  0  0  0
M  END
> <s_m_source_file>
AV-unprocessed.smi

> <i_m_source_file_index>
139

> <i_lp_mmshare_version>
43012

> <i_f3d_flags>
0

> <s_epik_input>
W2NIXTFbY0hdW2NIXVtjSF1jKGMxMilbQ0BASF0oW0NIMl1bQ0gyXVtDSDJdMilbTkhdQyg9TylbQ0gyXW4zYyg9TyljKEYpW2NIXW4oYzM9TylbQ0BASF00W0NIMl1bQ0gyXVtDSDJdTzQ=

> <s_epik_cmdline>
J2VwaWtfcHl0aG9uJywgJy1waCcsICc3LjAnLCAnLXRuJywgJzgnLCAnLW1hJywgJzIwMCcsICctbWV0YWxfYmluZGluZycsICctaW1hZScsICc8aW5maWxlLm1hZT4nLCAnLW9tYWUnLCAnPG91dGZpbGUubWFlPic=

> <r_lp_tautomer_probability>
1

> <r_epik_Ionization_Penalty>
3.261e-08

> <r_epik_Ionization_Penalty_Charging>
3.6725e-09

> <r_epik_Ionization_Penalty_Neutral>
2.89375e-08

> <r_epik_State_Penalty>
-0

> <r_epik_Charging_Adjusted_Penalty>
3.6725e-09

> <i_epik_Tot_Q>
0

> <i_epik_Tot_abs_Q>
0

> <r_epik_Metal_State_Penalty>
-0

> <b_epik_Metal_Only>
0

> <s_epik_Chemistry_Notes>
This compound contains an acetal/aminal-like group ( X-CH(R)-Y where X, Y are N, S, or O) that may be acid/base labile, releasing an aldehyde.

> <s_lp_Force_Field>
OPLS_2005

> <r_lp_Energy>
31.2563

> <b_lp_Chiralities_Consistent>
1

> <s_lp_Variant>
AV-unprocessed.smi:139-4

> <Gold.Version>
5.8.1

> <Gold.Id.Protein>
6NUR|6NUR_protein|mol2

> <Gold.PLP.Fitness>
46.5429

> <Gold.PLP.PLP>
-41.4549

> <Gold.PLP.part.hbond>
-2.0000

> <Gold.PLP.part.metal>
0.0000

> <Gold.PLP.part.buried>
-4.1599

> <Gold.PLP.part.nonpolar>
-34.5806

> <Gold.PLP.part.repulsive>
0.1254

> <Gold.PLP.ligand.clash>
0.0000

> <Gold.PLP.ligand.torsion>
0.4911

> <Gold.PLP.Chemscore.Hbond>
2.0000

> <Gold.PLP.Chemscore.CHOScore>
0.0000

> <Gold.PLP.Chemscore.Metal>
0.0000

> <Gold.Chemscore.Hbonds>
donor molecule, donor type, donor heavy atom, donor atom, acceptor molecule, acceptor atom, score
      P1  H  6896  6909       L1     6  1.00
      P1  H  7997  8008       L1     1  1.00

> <Gold.PLP.Chemscore.Internal.Correction>
0.0702

> <Gold.Rescore>
     Score         DG    S(hbond)    S(metal)    S(lipo)     H(rot)  DE(clash)    DE(int)     intcor
     17.58     -20.83       1.99        0.00     114.15       1.82       0.40       2.85       ----

> <Gold.Chemscore.Fitness>
17.5816

> <Gold.Chemscore.DG>
-20.8303

> <Gold.Chemscore.ZeroCoef>
-5.4800

> <Gold.Chemscore.Hbond>
1.9900

> <Gold.Chemscore.Metal>
0.0000

> <Gold.Chemscore.Lipo>
114.1541

> <Gold.Chemscore.Internal_Hbond>
0.0000

> <Gold.Chemscore.DEClash>
0.3994

> <Gold.Chemscore.DEInternal>
2.8494

> <Gold.Chemscore.Rot>
1.8174

> <Gold.Chemscore.Internal.Correction>
   9.000000E+99

> <Gold.Chemscore.Hbonds>
donor molecule, donor type, donor heavy atom, donor atom, acceptor molecule, acceptor atom, score
      P1  H  6896  6909       L1     6  1.00
      P1  H  7997  8008       L1     1  0.99

> <Gold.Chemscore.Hbond.Weighted>
-6.6467

> <Gold.Chemscore.Metal.Weighted>
-0.0000

> <Gold.Chemscore.Lipo.Weighted>
-13.3560

> <Gold.Chemscore.Internal_Hbond.Weighted>
0.0000

> <Gold.Chemscore.DEClash.Weighted>
0.3994

> <Gold.Chemscore.DEInternal.Weighted>
2.8494

> <Gold.Chemscore.Rot.Weighted>
4.6524

> <Gold.Chemscore.Internal.Correction.Weighted>
   9.000000E+99

> <Gold.Protein.RotatedTorsions>
[ 6907 6896 6895 6894 ] final -166.96 input  -60.11 | X-H torsion
[ 7974 7965 7964 7962 ] final -145.03 input  175.53 | X-H torsion
[ 8008 7997 7996 7995 ] final -115.70 input   59.86 | X-H torsion
[ 10167 10162 10161 10158 ] final -140.50 input  -65.29 | X-H torsion
[ 10718 10713 10712 10709 ] final   71.84 input   66.30 | X-H torsion
[ 10763 10752 10751 10750 ] final   83.07 input  -60.55 | X-H torsion
[ 11005 11000 10999 10996 ] final  -18.47 input  -57.11 | X-H torsion

> <Gold.Protein.ActiveResidues>
 VAL166  LYS551  ARG553  GLY616  TRP617  ASP618  TYR619  PRO620  LYS621  CYS622 
 ASP623  PHE694  ASN695  SER759  ASP760  ASP761  ALA762  ILE779  LEU786  VAL792 
 PHE793  MET794  SER795  GLU796  ALA797  LYS798  CYS799  TRP800  GLU811  SER814 

> <Gold.Protein.RotatedAtoms>
  151.4519  133.3615  159.2796 H   0  0  0  0  0  0  0  0  0  0  0  0  # atno 6907 bound_to 6896
  150.9085  134.8502  159.7420 H   0  0  0  0  0  0  0  0  0  0  0  0  # atno 6908 bound_to 6896
  152.4919  134.4446  159.9607 H   0  0  0  0  0  0  0  0  0  0  0  0  # atno 6909 bound_to 6896
  144.8255  140.5635  143.5549 H   0  0  0  0  0  0  0  0  0  0  0  0  # atno 7974 bound_to 7965
  155.0562  140.0393  157.2561 H   0  0  0  0  0  0  0  0  0  0  0  0  # atno 8008 bound_to 7997
  154.7097  140.2690  155.6617 H   0  0  0  0  0  0  0  0  0  0  0  0  # atno 8009 bound_to 7997
  156.2786  140.2724  156.1734 H   0  0  0  0  0  0  0  0  0  0  0  0  # atno 8010 bound_to 7997
  139.8276  143.7490  152.2666 H   0  0  0  0  0  0  0  0  0  0  0  0  # atno 10167 bound_to 10162
  157.6471  130.9548  150.0845 H   0  0  0  0  0  0  0  0  0  0  0  0  # atno 10718 bound_to 10713
  153.1258  135.4705  154.9270 H   0  0  0  0  0  0  0  0  0  0  0  0  # atno 10763 bound_to 10752
  154.7619  135.3134  154.8365 H   0  0  0  0  0  0  0  0  0  0  0  0  # atno 10764 bound_to 10752
  153.8918  135.6884  153.4814 H   0  0  0  0  0  0  0  0  0  0  0  0  # atno 10765 bound_to 10752
  140.8271  133.8024  155.9720 H   0  0  0  0  0  0  0  0  0  0  0  0  # atno 11005 bound_to 11000
  145.5009  139.1483  143.3658 LP  0  0  0  0  0  0  0  0  0  0  0  0  # atno 17320 bound_to 7965
  146.2561  140.5148  142.8873 LP  0  0  0  0  0  0  0  0  0  0  0  0  # atno 17321 bound_to 7965
  139.7688  144.7483  151.0255 LP  0  0  0  0  0  0  0  0  0  0  0  0  # atno 17342 bound_to 10162
  140.7809  143.4668  151.0201 LP  0  0  0  0  0  0  0  0  0  0  0  0  # atno 17343 bound_to 10162
  156.1812  130.3650  149.9033 LP  0  0  0  0  0  0  0  0  0  0  0  0  # atno 17370 bound_to 10713
  156.6985  130.8924  151.3596 LP  0  0  0  0  0  0  0  0  0  0  0  0  # atno 17371 bound_to 10713
  140.9037  134.2346  157.5026 LP  0  0  0  0  0  0  0  0  0  0  0  0  # atno 17394 bound_to 11000
  139.8706  134.9718  156.4752 LP  0  0  0  0  0  0  0  0  0  0  0  0  # atno 17395 bound_to 11000

$$$$
