AV-unprocessed.smi:36|AV-procd|sdf|281|dock3
  -GOLD-   2262016 53D 1   1.00000     0.00000
 Structure written by MMmdl.
 64 67  0  0  0  0  0  0  0  0  1 V2000
  146.0656  134.2487  160.1157 C   0  0  0  0  0  0  0  0  0  0  0  0
  146.6916  133.3866  161.2249 C   0  0  0  0  0  0  0  0  0  0  0  0
  147.6257  134.2476  162.0913 C   0  0  0  0  0  0  0  0  0  0  0  0
  145.5840  132.7796  162.1024 C   0  0  0  0  0  0  0  0  0  0  0  0
  147.7048  131.9723  160.4351 Si  0  0  0  0  0  0  0  0  0  0  0  0
  148.8030  131.1165  161.7288 C   0  0  0  0  0  0  0  0  0  0  0  0
  146.5720  130.6929  159.6035 C   0  0  0  0  0  0  0  0  0  0  0  0
  148.7076  132.6433  159.2496 O   0  0  0  0  0  0  0  0  0  0  0  0
  148.2912  132.8735  157.9198 C   0  0  0  0  0  0  0  0  0  0  0  0
  149.5247  132.9962  157.0156 C   0  0  2  0  0  0  0  0  0  0  0  0
  150.2705  134.1360  157.4440 O   0  0  0  0  0  0  0  0  0  0  0  0
  150.6633  134.8655  156.3312 C   0  0  2  0  0  0  0  0  0  0  0  0
  150.8440  136.2912  156.7320 N   0  0  0  0  0  0  0  0  0  0  0  0
  151.0146  136.7967  158.0014 C   0  0  0  0  0  0  0  0  0  0  0  0
  151.1373  138.0951  158.0747 N   0  0  0  0  0  0  0  0  0  0  0  0
  151.0375  138.5174  156.7550 C   0  0  0  0  0  0  0  0  0  0  0  0
  151.0778  139.7883  156.1244 C   0  0  0  0  0  0  0  0  0  0  0  0
  151.2495  140.9094  156.8636 N   0  0  0  0  0  0  0  0  0  0  0  0
  152.1870  141.1314  157.9504 C   0  0  0  0  0  0  0  0  0  0  0  0
  153.0186  140.2858  158.2817 O   0  0  0  0  0  0  0  0  0  0  0  0
  152.1456  142.4888  158.5900 C   0  0  0  0  0  0  0  0  0  0  0  0
  151.7110  143.6077  157.8446 C   0  0  0  0  0  0  0  0  0  0  0  0
  151.6842  144.8883  158.4306 C   0  0  0  0  0  0  0  0  0  0  0  0
  152.1003  145.0624  159.7639 C   0  0  0  0  0  0  0  0  0  0  0  0
  152.5460  143.9552  160.5102 C   0  0  0  0  0  0  0  0  0  0  0  0
  152.5722  142.6737  159.9257 C   0  0  0  0  0  0  0  0  0  0  0  0
  150.9470  139.8193  154.7718 N   0  0  0  0  0  0  0  0  0  0  0  0
  150.7794  138.6848  154.0854 C   0  0  0  0  0  0  0  0  0  0  0  0
  150.7180  137.4334  154.5446 N   0  0  0  0  0  0  0  0  0  0  0  0
  150.8541  137.3935  155.9021 C   0  0  0  0  0  0  0  0  0  0  0  0
  149.5433  134.7067  155.3140 C   0  0  0  0  0  0  0  0  0  0  0  0
  149.1604  133.2555  155.5374 C   0  0  1  0  0  0  0  0  0  0  0  0
  149.9196  132.4149  154.6899 O   0  0  0  0  0  0  0  0  0  0  0  0
  145.4808  135.0687  160.5338 H   0  0  0  0  0  0  0  0  0  0  0  0
  145.4000  133.6610  159.4831 H   0  0  0  0  0  0  0  0  0  0  0  0
  146.8299  134.6861  159.4729 H   0  0  0  0  0  0  0  0  0  0  0  0
  148.4194  134.6983  161.4951 H   0  0  0  0  0  0  0  0  0  0  0  0
  148.0996  133.6534  162.8735 H   0  0  0  0  0  0  0  0  0  0  0  0
  147.0811  135.0580  162.5773 H   0  0  0  0  0  0  0  0  0  0  0  0
  144.9936  133.5563  162.5898 H   0  0  0  0  0  0  0  0  0  0  0  0
  146.0017  132.1441  162.8840 H   0  0  0  0  0  0  0  0  0  0  0  0
  144.8991  132.1689  161.5137 H   0  0  0  0  0  0  0  0  0  0  0  0
  148.2115  130.6912  162.5394 H   0  0  0  0  0  0  0  0  0  0  0  0
  149.5121  131.8131  162.1753 H   0  0  0  0  0  0  0  0  0  0  0  0
  149.3810  130.3038  161.2896 H   0  0  0  0  0  0  0  0  0  0  0  0
  145.8927  130.2320  160.3204 H   0  0  0  0  0  0  0  0  0  0  0  0
  147.1476  129.8916  159.1409 H   0  0  0  0  0  0  0  0  0  0  0  0
  145.9628  131.1455  158.8213 H   0  0  0  0  0  0  0  0  0  0  0  0
  147.6700  132.0377  157.5961 H   0  0  0  0  0  0  0  0  0  0  0  0
  147.6778  133.7741  157.8709 H   0  0  0  0  0  0  0  0  0  0  0  0
  150.1411  132.1005  157.1105 H   0  0  0  0  0  0  0  0  0  0  0  0
  151.6349  134.5275  155.9672 H   0  0  0  0  0  0  0  0  0  0  0  0
  151.0455  136.1673  158.8788 H   0  0  0  0  0  0  0  0  0  0  0  0
  150.6495  141.6876  156.6318 H   0  0  0  0  0  0  0  0  0  0  0  0
  151.3902  143.4909  156.8194 H   0  0  0  0  0  0  0  0  0  0  0  0
  151.3457  145.7376  157.8555 H   0  0  0  0  0  0  0  0  0  0  0  0
  152.0809  146.0448  160.2122 H   0  0  0  0  0  0  0  0  0  0  0  0
  152.8710  144.0891  161.5315 H   0  0  0  0  0  0  0  0  0  0  0  0
  152.9268  141.8391  160.5130 H   0  0  0  0  0  0  0  0  0  0  0  0
  150.6802  138.7961  153.0156 H   0  0  0  0  0  0  0  0  0  0  0  0
  148.7098  135.3594  155.5756 H   0  0  0  0  0  0  0  0  0  0  0  0
  149.8796  134.9424  154.3035 H   0  0  0  0  0  0  0  0  0  0  0  0
  148.1031  133.0877  155.3285 H   0  0  0  0  0  0  0  0  0  0  0  0
  149.9366  131.5470  155.0637 H   0  0  0  0  0  0  0  0  0  0  0  0
  1  2  1  0  0  0  0
  1 34  1  0  0  0  0
  1 35  1  0  0  0  0
  1 36  1  0  0  0  0
  2  3  1  0  0  0  0
  2  4  1  0  0  0  0
  2  5  1  0  0  0  0
  3 37  1  0  0  0  0
  3 38  1  0  0  0  0
  3 39  1  0  0  0  0
  4 40  1  0  0  0  0
  4 41  1  0  0  0  0
  4 42  1  0  0  0  0
  5  6  1  0  0  0  0
  5  7  1  0  0  0  0
  5  8  1  0  0  0  0
  6 43  1  0  0  0  0
  6 44  1  0  0  0  0
  6 45  1  0  0  0  0
  7 46  1  0  0  0  0
  7 47  1  0  0  0  0
  7 48  1  0  0  0  0
  8  9  1  0  0  0  0
  9 10  1  0  0  0  0
  9 49  1  0  0  0  0
  9 50  1  0  0  0  0
 10 32  1  0  0  0  0
 10 11  1  0  0  0  0
 10 51  1  0  0  0  0
 11 12  1  0  0  0  0
 12 13  1  0  0  0  0
 12 31  1  0  0  0  0
 12 52  1  0  0  0  0
 13 30  1  0  0  0  0
 13 14  1  0  0  0  0
 14 15  2  0  0  0  0
 14 53  1  0  0  0  0
 15 16  1  0  0  0  0
 16 30  2  0  0  0  0
 16 17  1  0  0  0  0
 17 18  1  0  0  0  0
 17 27  2  0  0  0  0
 18 19  1  0  0  0  0
 18 54  1  0  0  0  0
 19 20  2  0  0  0  0
 19 21  1  0  0  0  0
 21 26  1  0  0  0  0
 21 22  2  0  0  0  0
 22 23  1  0  0  0  0
 22 55  1  0  0  0  0
 23 24  2  0  0  0  0
 23 56  1  0  0  0  0
 24 25  1  0  0  0  0
 24 57  1  0  0  0  0
 25 26  2  0  0  0  0
 25 58  1  0  0  0  0
 26 59  1  0  0  0  0
 27 28  1  0  0  0  0
 28 29  2  0  0  0  0
 28 60  1  0  0  0  0
 29 30  1  0  0  0  0
 31 32  1  0  0  0  0
 31 61  1  0  0  0  0
 31 62  1  0  0  0  0
 32 33  1  0  0  0  0
 32 63  1  0  0  0  0
 33 64  1  0  0  0  0
M  END
> <s_m_source_file>
AV-unprocessed.smi

> <i_m_source_file_index>
36

> <i_lp_mmshare_version>
43012

> <i_f3d_flags>
0

> <s_epik_input>
W0NIM11DKFtDSDNdKShbQ0gzXSlbU2ldKFtDSDNdKShbQ0gzXSlPW0NIMl1bQ0BASF0xT1tDQEhdKFtDSDJdW0NASF0xW09IXSluKFtjSF1uMiljKGMyMyluW2NIXW5jM1tOSF1DKD1PKWM0W2NIXVtjSF1bY0hdW2NIXVtjSF00

> <s_epik_cmdline>
J2VwaWtfcHl0aG9uJywgJy1waCcsICc3LjAnLCAnLXRuJywgJzgnLCAnLW1hJywgJzIwMCcsICctbWV0YWxfYmluZGluZycsICctaW1hZScsICc8aW5maWxlLm1hZT4nLCAnLW9tYWUnLCAnPG91dGZpbGUubWFlPic=

> <r_lp_tautomer_probability>
1

> <r_epik_Ionization_Penalty>
0.00150433

> <r_epik_Ionization_Penalty_Charging>
0

> <r_epik_Ionization_Penalty_Neutral>
0.00150433

> <r_epik_State_Penalty>
0.00724046

> <r_epik_Charging_Adjusted_Penalty>
0.00724046

> <i_epik_Tot_Q>
0

> <i_epik_Tot_abs_Q>
0

> <r_epik_Metal_State_Penalty>
0.323355

> <b_epik_Metal_Only>
0

> <s_epik_Chemistry_Notes>
This compound contains an acetal/aminal-like group ( X-CH(R)-Y where X, Y are N, S, or O) that may be acid/base labile, releasing an aldehyde.

> <s_lp_Force_Field>
OPLS_2005

> <r_lp_Energy>
37.1131

> <b_lp_Chiralities_Consistent>
1

> <s_lp_Variant>
AV-unprocessed.smi:36-3

> <Gold.Version>
5.8.1

> <Gold.Id.Protein>
6NUR|6NUR_protein|mol2

> <Gold.PLP.Fitness>
58.4485

> <Gold.PLP.PLP>
-51.1770

> <Gold.PLP.part.hbond>
-3.5972

> <Gold.PLP.part.metal>
0.0000

> <Gold.PLP.part.buried>
-7.4211

> <Gold.PLP.part.nonpolar>
-39.8289

> <Gold.PLP.part.repulsive>
0.3532

> <Gold.PLP.ligand.clash>
0.0000

> <Gold.PLP.ligand.torsion>
1.9844

> <Gold.PLP.Chemscore.Hbond>
2.6239

> <Gold.PLP.Chemscore.CHOScore>
0.9923

> <Gold.PLP.Chemscore.Metal>
0.0000

> <Gold.Chemscore.Hbonds>
donor molecule, donor type, donor heavy atom, donor atom, acceptor molecule, acceptor atom, score
      P1  H  6896  6909       L1    11  0.72
      P1  H  7989  7998       L1    27  1.00
      P1  H  7997  8008       L1    20  0.91
      L1  C    28    60       P1  7957  1.00

> <Gold.PLP.Chemscore.Internal.Correction>
0.3919

> <Gold.Rescore>
     Score         DG    S(hbond)    S(metal)    S(lipo)     H(rot)  DE(clash)    DE(int)     intcor
     17.21     -21.39       2.56        0.00     122.13       2.70       0.48       3.70       ----

> <Gold.Chemscore.Fitness>
17.2082

> <Gold.Chemscore.DG>
-21.3916

> <Gold.Chemscore.ZeroCoef>
-5.4800

> <Gold.Chemscore.Hbond>
2.5584

> <Gold.Chemscore.Metal>
0.0000

> <Gold.Chemscore.Lipo>
122.1278

> <Gold.Chemscore.Internal_Hbond>
0.0000

> <Gold.Chemscore.DEClash>
0.4815

> <Gold.Chemscore.DEInternal>
3.7019

> <Gold.Chemscore.Rot>
2.7041

> <Gold.Chemscore.Internal.Correction>
   9.000000E+99

> <Gold.Chemscore.Hbonds>
donor molecule, donor type, donor heavy atom, donor atom, acceptor molecule, acceptor atom, score
      P1  H  6896  6909       L1    11  0.36
      P1  H  7989  7998       L1    27  0.26
      P1  H  7997  8008       L1    20  0.78

> <Gold.Chemscore.Hbond.Weighted>
-8.5451

> <Gold.Chemscore.Metal.Weighted>
-0.0000

> <Gold.Chemscore.Lipo.Weighted>
-14.2890

> <Gold.Chemscore.Internal_Hbond.Weighted>
0.0000

> <Gold.Chemscore.DEClash.Weighted>
0.4815

> <Gold.Chemscore.DEInternal.Weighted>
3.7019

> <Gold.Chemscore.Rot.Weighted>
6.9225

> <Gold.Chemscore.Internal.Correction.Weighted>
   9.000000E+99

> <Gold.Protein.RotatedTorsions>
[ 6907 6896 6895 6894 ] final  -10.74 input  -60.11 | X-H torsion
[ 7974 7965 7964 7962 ] final   25.39 input  175.53 | X-H torsion
[ 8008 7997 7996 7995 ] final  -87.29 input   59.86 | X-H torsion
[ 10167 10162 10161 10158 ] final -163.08 input  -65.29 | X-H torsion
[ 10718 10713 10712 10709 ] final   35.18 input   66.30 | X-H torsion
[ 10763 10752 10751 10750 ] final   -3.46 input  -60.55 | X-H torsion
[ 11005 11000 10999 10996 ] final -140.36 input  -57.11 | X-H torsion

> <Gold.Protein.ActiveResidues>
 VAL166  LYS551  ARG553  GLY616  TRP617  ASP618  TYR619  PRO620  LYS621  CYS622 
 ASP623  PHE694  ASN695  SER759  ASP760  ASP761  ALA762  ILE779  LEU786  VAL792 
 PHE793  MET794  SER795  GLU796  ALA797  LYS798  CYS799  TRP800  GLU811  SER814 

> <Gold.Protein.RotatedAtoms>
  151.3972  135.0965  159.9544 H   0  0  0  0  0  0  0  0  0  0  0  0  # atno 6907 bound_to 6896
  152.5061  133.8923  159.7410 H   0  0  0  0  0  0  0  0  0  0  0  0  # atno 6908 bound_to 6896
  150.9389  133.6623  159.2823 H   0  0  0  0  0  0  0  0  0  0  0  0  # atno 6909 bound_to 6896
  146.1891  139.7472  142.8845 H   0  0  0  0  0  0  0  0  0  0  0  0  # atno 7974 bound_to 7965
  154.6616  140.0567  157.0068 H   0  0  0  0  0  0  0  0  0  0  0  0  # atno 8008 bound_to 7997
  155.1220  140.3248  155.4476 H   0  0  0  0  0  0  0  0  0  0  0  0  # atno 8009 bound_to 7997
  156.2620  140.1996  156.6342 H   0  0  0  0  0  0  0  0  0  0  0  0  # atno 8010 bound_to 7997
  139.6346  144.0375  152.2043 H   0  0  0  0  0  0  0  0  0  0  0  0  # atno 10167 bound_to 10162
  157.3195  130.7440  149.6776 H   0  0  0  0  0  0  0  0  0  0  0  0  # atno 10718 bound_to 10713
  153.3716  135.6995  153.6633 H   0  0  0  0  0  0  0  0  0  0  0  0  # atno 10763 bound_to 10752
  153.5281  135.3598  155.2663 H   0  0  0  0  0  0  0  0  0  0  0  0  # atno 10764 bound_to 10752
  154.8682  135.4174  154.2996 H   0  0  0  0  0  0  0  0  0  0  0  0  # atno 10765 bound_to 10752
  140.8430  134.2379  157.4800 H   0  0  0  0  0  0  0  0  0  0  0  0  # atno 11005 bound_to 11000
  145.3849  141.0364  143.3157 LP  0  0  0  0  0  0  0  0  0  0  0  0  # atno 17320 bound_to 7965
  144.8452  139.5408  143.6882 LP  0  0  0  0  0  0  0  0  0  0  0  0  # atno 17321 bound_to 7965
  140.0049  144.6266  150.7698 LP  0  0  0  0  0  0  0  0  0  0  0  0  # atno 17342 bound_to 10162
  140.7458  143.2881  151.3407 LP  0  0  0  0  0  0  0  0  0  0  0  0  # atno 17343 bound_to 10162
  155.9684  130.4227  150.4530 LP  0  0  0  0  0  0  0  0  0  0  0  0  # atno 17370 bound_to 10713
  157.2543  131.0553  151.2360 LP  0  0  0  0  0  0  0  0  0  0  0  0  # atno 17371 bound_to 10713
  139.8703  134.9645  156.4497 LP  0  0  0  0  0  0  0  0  0  0  0  0  # atno 17394 bound_to 11000
  140.8874  133.7873  155.9534 LP  0  0  0  0  0  0  0  0  0  0  0  0  # atno 17395 bound_to 11000

$$$$
