AV-unprocessed.smi:2043|AV-procd|sdf|8296|dock5
  -GOLD-   2272010563D 1   1.00000     0.00000
 Structure written by MMmdl.
 29 30  0  0  0  0  0  0  0  0  1 V2000
  146.8385  138.9752  152.4528 C   0  0  0  0  0  0  0  0  0  0  0  0
  147.7776  139.6204  153.4138 C   0  0  0  0  0  0  0  0  0  0  0  0
  148.7357  138.9417  154.0566 N   0  0  0  0  0  0  0  0  0  0  0  0
  149.4803  139.7542  154.9005 N   0  0  0  0  0  0  0  0  0  0  0  0
  149.0583  141.0258  154.8702 C   0  0  0  0  0  0  0  0  0  0  0  0
  149.6394  142.0693  155.6380 N   0  0  0  0  0  0  0  0  0  0  0  0
  150.7497  142.0283  156.3955 C   0  0  0  0  0  0  0  0  0  0  0  0
  151.4751  141.0444  156.5426 O   0  0  0  0  0  0  0  0  0  0  0  0
  150.9782  143.2120  156.9830 N   0  0  0  0  0  0  0  0  0  0  0  0
  152.0997  143.5135  157.8655 C   0  0  0  0  0  0  0  0  0  0  0  0
  151.6577  143.5805  159.3253 C   0  0  0  0  0  0  0  0  0  0  0  0
  151.7659  144.8993  160.1077 C   0  0  0  0  0  0  0  0  0  0  0  0
  152.1025  144.0785  161.3553 C   0  0  0  0  0  0  0  0  0  0  0  0
  152.5466  142.9575  160.4121 C   0  0  0  0  0  0  0  0  0  0  0  0
  147.7046  141.3361  153.7966 S   0  0  0  0  0  0  0  0  0  0  0  0
  147.2520  138.0354  152.0856 H   0  0  0  0  0  0  0  0  0  0  0  0
  146.6620  139.6333  151.6019 H   0  0  0  0  0  0  0  0  0  0  0  0
  145.8866  138.7722  152.9434 H   0  0  0  0  0  0  0  0  0  0  0  0
  149.1485  142.9505  155.6107 H   0  0  0  0  0  0  0  0  0  0  0  0
  150.3290  143.9641  156.8046 H   0  0  0  0  0  0  0  0  0  0  0  0
  152.8445  142.7280  157.7378 H   0  0  0  0  0  0  0  0  0  0  0  0
  152.5872  144.4417  157.5627 H   0  0  0  0  0  0  0  0  0  0  0  0
  150.6456  143.1861  159.4408 H   0  0  0  0  0  0  0  0  0  0  0  0
  152.5995  145.5217  159.7777 H   0  0  0  0  0  0  0  0  0  0  0  0
  150.8391  145.4705  160.1699 H   0  0  0  0  0  0  0  0  0  0  0  0
  152.8957  144.4945  161.9771 H   0  0  0  0  0  0  0  0  0  0  0  0
  151.2202  143.8156  161.9409 H   0  0  0  0  0  0  0  0  0  0  0  0
  152.2524  141.9548  160.7235 H   0  0  0  0  0  0  0  0  0  0  0  0
  153.6100  143.0081  160.1715 H   0  0  0  0  0  0  0  0  0  0  0  0
  1  2  1  0  0  0  0
  1 16  1  0  0  0  0
  1 17  1  0  0  0  0
  1 18  1  0  0  0  0
  2 15  1  0  0  0  0
  2  3  2  0  0  0  0
  3  4  1  0  0  0  0
  4  5  2  0  0  0  0
  5  6  1  0  0  0  0
  5 15  1  0  0  0  0
  6  7  1  0  0  0  0
  6 19  1  0  0  0  0
  7  8  2  0  0  0  0
  7  9  1  0  0  0  0
  9 10  1  0  0  0  0
  9 20  1  0  0  0  0
 10 11  1  0  0  0  0
 10 21  1  0  0  0  0
 10 22  1  0  0  0  0
 11 14  1  0  0  0  0
 11 12  1  0  0  0  0
 11 23  1  0  0  0  0
 12 13  1  0  0  0  0
 12 24  1  0  0  0  0
 12 25  1  0  0  0  0
 13 14  1  0  0  0  0
 13 26  1  0  0  0  0
 13 27  1  0  0  0  0
 14 28  1  0  0  0  0
 14 29  1  0  0  0  0
M  END
> <s_m_source_file>
AV-unprocessed.smi

> <i_m_source_file_index>
2043

> <i_lp_mmshare_version>
43012

> <i_f3d_flags>
0

> <s_epik_input>
W0NIM11jMW5uYyhzMSlbTkhdQyg9TylbTkhdW0NIMl1bQ0hdMltDSDJdW0NIMl1bQ0gyXTI=

> <s_epik_cmdline>
J2VwaWtfcHl0aG9uJywgJy1waCcsICc3LjAnLCAnLXRuJywgJzgnLCAnLW1hJywgJzIwMCcsICctbWV0YWxfYmluZGluZycsICctaW1hZScsICc8aW5maWxlLm1hZT4nLCAnLW9tYWUnLCAnPG91dGZpbGUubWFlPic=

> <r_lp_tautomer_probability>
1

> <r_epik_Ionization_Penalty>
0.000387707

> <r_epik_Ionization_Penalty_Charging>
0

> <r_epik_Ionization_Penalty_Neutral>
0.000387707

> <r_epik_State_Penalty>
-0

> <r_epik_Charging_Adjusted_Penalty>
0

> <i_epik_Tot_Q>
0

> <i_epik_Tot_abs_Q>
0

> <r_epik_Metal_State_Penalty>
0.190371

> <b_epik_Metal_Only>
0

> <s_lp_Force_Field>
OPLS_2005

> <r_lp_Energy>
11.3872

> <b_lp_Chiralities_Consistent>
1

> <s_lp_Variant>
AV-unprocessed.smi:2043-1

> <Gold.Version>
5.8.1

> <Gold.Id.Protein>
6NUR|6NUR_protein|mol2

> <Gold.PLP.Fitness>
39.0426

> <Gold.PLP.PLP>
-34.5465

> <Gold.PLP.part.hbond>
-2.0000

> <Gold.PLP.part.metal>
0.0000

> <Gold.PLP.part.buried>
-3.6261

> <Gold.PLP.part.nonpolar>
-29.3426

> <Gold.PLP.part.repulsive>
0.4626

> <Gold.PLP.ligand.clash>
0.0000

> <Gold.PLP.ligand.torsion>
0.7690

> <Gold.PLP.Chemscore.Hbond>
1.9920

> <Gold.PLP.Chemscore.CHOScore>
0.0000

> <Gold.PLP.Chemscore.Metal>
0.0000

> <Gold.Chemscore.Hbonds>
donor molecule, donor type, donor heavy atom, donor atom, acceptor molecule, acceptor atom, score
      L1  H     6    19       P1  8028  1.00
      L1  H     9    20       P1  8028  0.99

> <Gold.PLP.Chemscore.Internal.Correction>
0.0580

> <Gold.Rescore>
     Score         DG    S(hbond)    S(metal)    S(lipo)     H(rot)  DE(clash)    DE(int)     intcor
     16.22     -18.25       1.93        0.00      81.78       1.27       0.25       1.78       ----

> <Gold.Chemscore.Fitness>
16.2219

> <Gold.Chemscore.DG>
-18.2469

> <Gold.Chemscore.ZeroCoef>
-5.4800

> <Gold.Chemscore.Hbond>
1.9349

> <Gold.Chemscore.Metal>
0.0000

> <Gold.Chemscore.Lipo>
81.7811

> <Gold.Chemscore.Internal_Hbond>
0.0000

> <Gold.Chemscore.DEClash>
0.2456

> <Gold.Chemscore.DEInternal>
1.7794

> <Gold.Chemscore.Rot>
1.2750

> <Gold.Chemscore.Internal.Correction>
   9.000000E+99

> <Gold.Chemscore.Hbonds>
donor molecule, donor type, donor heavy atom, donor atom, acceptor molecule, acceptor atom, score
      L1  H     6    19       P1  8028  1.00
      L1  H     9    20       P1  8028  0.91

> <Gold.Chemscore.Hbond.Weighted>
-6.4625

> <Gold.Chemscore.Metal.Weighted>
-0.0000

> <Gold.Chemscore.Lipo.Weighted>
-9.5684

> <Gold.Chemscore.Internal_Hbond.Weighted>
0.0000

> <Gold.Chemscore.DEClash.Weighted>
0.2456

> <Gold.Chemscore.DEInternal.Weighted>
1.7794

> <Gold.Chemscore.Rot.Weighted>
3.2640

> <Gold.Chemscore.Internal.Correction.Weighted>
   9.000000E+99

> <Gold.Protein.RotatedTorsions>
[ 6907 6896 6895 6894 ] final   45.38 input  -60.11 | X-H torsion
[ 7974 7965 7964 7962 ] final  127.97 input  175.53 | X-H torsion
[ 8008 7997 7996 7995 ] final   81.14 input   59.86 | X-H torsion
[ 10167 10162 10161 10158 ] final  -61.89 input  -65.29 | X-H torsion
[ 10718 10713 10712 10709 ] final   -9.87 input   66.30 | X-H torsion
[ 10763 10752 10751 10750 ] final  -53.25 input  -60.55 | X-H torsion
[ 11005 11000 10999 10996 ] final -124.51 input  -57.11 | X-H torsion

> <Gold.Protein.ActiveResidues>
 VAL166  LYS551  ARG553  GLY616  TRP617  ASP618  TYR619  PRO620  LYS621  CYS622 
 ASP623  PHE694  ASN695  SER759  ASP760  ASP761  ALA762  ILE779  LEU786  VAL792 
 PHE793  MET794  SER795  GLU796  ALA797  LYS798  CYS799  TRP800  GLU811  SER814 

> <Gold.Protein.RotatedAtoms>
  152.2439  134.8201  160.0456 H   0  0  0  0  0  0  0  0  0  0  0  0  # atno 6907 bound_to 6896
  151.8906  133.3510  159.3805 H   0  0  0  0  0  0  0  0  0  0  0  0  # atno 6908 bound_to 6896
  150.7062  134.4854  159.5534 H   0  0  0  0  0  0  0  0  0  0  0  0  # atno 6909 bound_to 6896
  145.0447  139.3933  143.5084 H   0  0  0  0  0  0  0  0  0  0  0  0  # atno 7974 bound_to 7965
  155.8931  140.3437  155.5970 H   0  0  0  0  0  0  0  0  0  0  0  0  # atno 8008 bound_to 7997
  155.7588  140.0830  157.2184 H   0  0  0  0  0  0  0  0  0  0  0  0  # atno 8009 bound_to 7997
  154.4035  140.1539  156.2796 H   0  0  0  0  0  0  0  0  0  0  0  0  # atno 8010 bound_to 7997
  140.5976  143.2354  151.6001 H   0  0  0  0  0  0  0  0  0  0  0  0  # atno 10167 bound_to 10162
  156.6818  130.5039  149.5969 H   0  0  0  0  0  0  0  0  0  0  0  0  # atno 10718 bound_to 10713
  154.1558  135.6483  153.4974 H   0  0  0  0  0  0  0  0  0  0  0  0  # atno 10763 bound_to 10752
  153.0125  135.5349  154.6762 H   0  0  0  0  0  0  0  0  0  0  0  0  # atno 10764 bound_to 10752
  154.6062  135.2949  155.0454 H   0  0  0  0  0  0  0  0  0  0  0  0  # atno 10765 bound_to 10752
  140.9835  134.0640  157.3738 H   0  0  0  0  0  0  0  0  0  0  0  0  # atno 11005 bound_to 11000
  146.3512  140.0066  142.8671 LP  0  0  0  0  0  0  0  0  0  0  0  0  # atno 17320 bound_to 7965
  145.1603  140.9669  143.4381 LP  0  0  0  0  0  0  0  0  0  0  0  0  # atno 17321 bound_to 7965
  139.5269  144.3033  152.1055 LP  0  0  0  0  0  0  0  0  0  0  0  0  # atno 17342 bound_to 10162
  140.2208  144.4468  150.6343 LP  0  0  0  0  0  0  0  0  0  0  0  0  # atno 17343 bound_to 10162
  156.1862  130.6530  151.1009 LP  0  0  0  0  0  0  0  0  0  0  0  0  # atno 17370 bound_to 10713
  157.7041  131.0764  150.6725 LP  0  0  0  0  0  0  0  0  0  0  0  0  # atno 17371 bound_to 10713
  139.8960  135.0144  156.7031 LP  0  0  0  0  0  0  0  0  0  0  0  0  # atno 17394 bound_to 11000
  140.7150  133.9190  155.8109 LP  0  0  0  0  0  0  0  0  0  0  0  0  # atno 17395 bound_to 11000

$$$$
