AV-unprocessed.smi:148|AV-procd|sdf|1207|dock10
  -GOLD-   2262018383D 1   1.00000     0.00000
 Structure written by MMmdl.
 63 67  0  0  0  0  0  0  0  0  1 V2000
  150.8941  140.4570  155.2678 O   0  0  0  0  0  0  0  0  0  0  0  0
  151.5924  141.0766  156.3285 C   0  0  0  0  0  0  0  0  0  0  0  0
  150.7293  142.1442  157.0498 C   0  0  1  0  0  0  0  0  0  0  0  0
  149.6816  141.5057  158.0022 C   0  0  0  0  0  0  0  0  0  0  0  0
  149.5129  140.0773  157.8090 N   0  0  0  0  0  0  0  0  0  0  0  0
  148.6010  139.4529  156.9878 C   0  0  0  0  0  0  0  0  0  0  0  0
  148.6356  138.1482  157.0098 N   0  0  0  0  0  0  0  0  0  0  0  0
  149.6544  137.8535  157.9082 C   0  0  0  0  0  0  0  0  0  0  0  0
  150.2066  136.6490  158.4281 C   0  0  0  0  0  0  0  0  0  0  0  0
  149.7805  135.4081  158.1095 N   0  0  0  0  0  0  0  0  0  0  0  0
  149.9225  135.2069  156.6663 C   0  0  0  0  0  0  0  0  0  0  0  0
  149.7402  133.7346  156.2857 C   0  0  0  0  0  0  0  0  0  0  0  0
  148.3902  133.2302  156.7967 C   0  0  0  0  0  0  0  0  0  0  0  0
  148.2821  133.4664  158.3084 C   0  0  0  0  0  0  0  0  0  0  0  0
  148.5059  134.9520  158.7054 C   0  0  1  0  0  0  0  0  0  0  0  0
  148.4353  135.1122  160.2654 C   0  0  1  0  0  0  0  0  0  0  0  0
  148.1266  136.5220  160.8175 C   0  0  0  0  0  0  0  0  0  0  0  0
  147.5201  136.3400  162.2160 C   0  0  0  0  0  0  0  0  0  0  0  0
  147.3027  134.8352  162.3927 C   0  0  0  0  0  0  0  0  0  0  0  0
  147.3732  134.2505  160.9815 C   0  0  1  0  0  0  0  0  0  0  0  0
  146.1009  134.3888  160.3739 O   0  0  0  0  0  0  0  0  0  0  0  0
  151.2374  136.7439  159.3037 N   0  0  0  0  0  0  0  0  0  0  0  0
  151.6874  137.9467  159.6744 C   0  0  0  0  0  0  0  0  0  0  0  0
  151.2562  139.1529  159.2979 N   0  0  0  0  0  0  0  0  0  0  0  0
  150.2289  139.0559  158.4056 C   0  0  0  0  0  0  0  0  0  0  0  0
  151.6107  143.1580  157.8264 C   0  0  2  0  0  0  0  0  0  0  0  0
  152.3328  142.5713  159.0395 C   0  0  0  0  0  0  0  0  0  0  0  0
  152.3545  143.7006  160.0742 C   0  0  0  0  0  0  0  0  0  0  0  0
  151.7703  144.8202  159.4271 O   0  0  0  0  0  0  0  0  0  0  0  0
  150.8566  144.3289  158.4630 C   0  0  0  0  0  0  0  0  0  0  0  0
  150.2450  139.8758  155.6339 H   0  0  0  0  0  0  0  0  0  0  0  0
  151.9389  140.3183  157.0314 H   0  0  0  0  0  0  0  0  0  0  0  0
  152.4815  141.5175  155.8818 H   0  0  0  0  0  0  0  0  0  0  0  0
  150.1956  142.7114  156.2852 H   0  0  0  0  0  0  0  0  0  0  0  0
  149.9620  141.6839  159.0412 H   0  0  0  0  0  0  0  0  0  0  0  0
  148.7017  141.9635  157.8677 H   0  0  0  0  0  0  0  0  0  0  0  0
  147.8937  139.9988  156.3807 H   0  0  0  0  0  0  0  0  0  0  0  0
  149.1842  135.8130  156.1394 H   0  0  0  0  0  0  0  0  0  0  0  0
  150.9056  135.5453  156.3342 H   0  0  0  0  0  0  0  0  0  0  0  0
  149.8021  133.6153  155.2038 H   0  0  0  0  0  0  0  0  0  0  0  0
  150.5470  133.1391  156.7147 H   0  0  0  0  0  0  0  0  0  0  0  0
  147.5807  133.7493  156.2823 H   0  0  0  0  0  0  0  0  0  0  0  0
  148.2755  132.1691  156.5725 H   0  0  0  0  0  0  0  0  0  0  0  0
  147.3008  133.1184  158.6272 H   0  0  0  0  0  0  0  0  0  0  0  0
  149.0118  132.8388  158.8220 H   0  0  0  0  0  0  0  0  0  0  0  0
  147.7006  135.5378  158.2605 H   0  0  0  0  0  0  0  0  0  0  0  0
  149.4030  134.8099  160.6704 H   0  0  0  0  0  0  0  0  0  0  0  0
  149.0116  137.1542  160.8723 H   0  0  0  0  0  0  0  0  0  0  0  0
  147.4012  137.0249  160.1771 H   0  0  0  0  0  0  0  0  0  0  0  0
  148.1781  136.7309  162.9929 H   0  0  0  0  0  0  0  0  0  0  0  0
  146.5752  136.8800  162.2865 H   0  0  0  0  0  0  0  0  0  0  0  0
  148.1184  134.4254  162.9902 H   0  0  0  0  0  0  0  0  0  0  0  0
  146.3724  134.5995  162.9114 H   0  0  0  0  0  0  0  0  0  0  0  0
  147.6442  133.1945  161.0093 H   0  0  0  0  0  0  0  0  0  0  0  0
  146.0767  135.2157  159.9172 H   0  0  0  0  0  0  0  0  0  0  0  0
  152.5055  137.9419  160.3794 H   0  0  0  0  0  0  0  0  0  0  0  0
  152.3610  143.5728  157.1513 H   0  0  0  0  0  0  0  0  0  0  0  0
  151.7964  141.7142  159.4492 H   0  0  0  0  0  0  0  0  0  0  0  0
  153.3386  142.2399  158.7794 H   0  0  0  0  0  0  0  0  0  0  0  0
  151.7553  143.4335  160.9458 H   0  0  0  0  0  0  0  0  0  0  0  0
  153.3630  143.9360  160.4142 H   0  0  0  0  0  0  0  0  0  0  0  0
  150.5990  145.1113  157.7491 H   0  0  0  0  0  0  0  0  0  0  0  0
  149.9430  143.9942  158.9576 H   0  0  0  0  0  0  0  0  0  0  0  0
  1  2  1  0  0  0  0
  1 31  1  0  0  0  0
  2  3  1  0  0  0  0
  2 32  1  0  0  0  0
  2 33  1  0  0  0  0
  3  4  1  0  0  0  0
  3 26  1  0  0  0  0
  3 34  1  0  0  0  0
  4  5  1  0  0  0  0
  4 35  1  0  0  0  0
  4 36  1  0  0  0  0
  5 25  1  0  0  0  0
  5  6  1  0  0  0  0
  6  7  2  0  0  0  0
  6 37  1  0  0  0  0
  7  8  1  0  0  0  0
  8 25  2  0  0  0  0
  8  9  1  0  0  0  0
  9 10  1  0  0  0  0
  9 22  2  0  0  0  0
 10 15  1  0  0  0  0
 10 11  1  0  0  0  0
 11 12  1  0  0  0  0
 11 38  1  0  0  0  0
 11 39  1  0  0  0  0
 12 13  1  0  0  0  0
 12 40  1  0  0  0  0
 12 41  1  0  0  0  0
 13 14  1  0  0  0  0
 13 42  1  0  0  0  0
 13 43  1  0  0  0  0
 14 15  1  0  0  0  0
 14 44  1  0  0  0  0
 14 45  1  0  0  0  0
 15 16  1  0  0  0  0
 15 46  1  0  0  0  0
 16 20  1  0  0  0  0
 16 17  1  0  0  0  0
 16 47  1  0  0  0  0
 17 18  1  0  0  0  0
 17 48  1  0  0  0  0
 17 49  1  0  0  0  0
 18 19  1  0  0  0  0
 18 50  1  0  0  0  0
 18 51  1  0  0  0  0
 19 20  1  0  0  0  0
 19 52  1  0  0  0  0
 19 53  1  0  0  0  0
 20 21  1  0  0  0  0
 20 54  1  0  0  0  0
 21 55  1  0  0  0  0
 22 23  1  0  0  0  0
 23 24  2  0  0  0  0
 23 56  1  0  0  0  0
 24 25  1  0  0  0  0
 26 30  1  0  0  0  0
 26 27  1  0  0  0  0
 26 57  1  0  0  0  0
 27 28  1  0  0  0  0
 27 58  1  0  0  0  0
 27 59  1  0  0  0  0
 28 29  1  0  0  0  0
 28 60  1  0  0  0  0
 28 61  1  0  0  0  0
 29 30  1  0  0  0  0
 30 62  1  0  0  0  0
 30 63  1  0  0  0  0
M  END
> <s_m_source_file>
AV-unprocessed.smi

> <i_m_source_file_index>
148

> <i_lp_mmshare_version>
43012

> <i_f3d_flags>
0

> <s_epik_input>
W0NIMl0xT1tDSDJdW0NIMl1bQ0BIXTFbQ0BIXShbQ0gyXVtPSF0pW0NIMl1uKFtjSF1uMiljKGMyMyluW2NIXW5jM040W0NIMl1bQ0gyXVtDSDJdW0NIMl1bQ0BIXTRbQ0BASF01W0NIMl1bQ0gyXVtDSDJdW0NASF01W09IXQ==

> <s_epik_cmdline>
J2VwaWtfcHl0aG9uJywgJy1waCcsICc3LjAnLCAnLXRuJywgJzgnLCAnLW1hJywgJzIwMCcsICctbWV0YWxfYmluZGluZycsICctaW1hZScsICc8aW5maWxlLm1hZT4nLCAnLW9tYWUnLCAnPG91dGZpbGUubWFlPic=

> <r_lp_tautomer_probability>
1

> <r_epik_Ionization_Penalty>
0.00556303

> <r_epik_Ionization_Penalty_Charging>
0

> <r_epik_Ionization_Penalty_Neutral>
0.00556303

> <r_epik_State_Penalty>
0.00401767

> <r_epik_Charging_Adjusted_Penalty>
0.00401767

> <i_epik_Tot_Q>
0

> <i_epik_Tot_abs_Q>
0

> <r_epik_Metal_State_Penalty>
-0

> <b_epik_Metal_Only>
0

> <s_lp_Force_Field>
OPLS_2005

> <r_lp_Energy>
70.4735

> <b_lp_Chiralities_Consistent>
1

> <s_lp_Variant>
AV-unprocessed.smi:148-6

> <Gold.Version>
5.8.1

> <Gold.Id.Protein>
6NUR|6NUR_protein|mol2

> <Gold.PLP.Fitness>
47.9142

> <Gold.PLP.PLP>
-44.9814

> <Gold.PLP.part.hbond>
-2.8784

> <Gold.PLP.part.metal>
0.0000

> <Gold.PLP.part.buried>
-7.7897

> <Gold.PLP.part.nonpolar>
-34.6411

> <Gold.PLP.part.repulsive>
0.0450

> <Gold.PLP.ligand.clash>
0.0000

> <Gold.PLP.ligand.torsion>
1.7834

> <Gold.PLP.Chemscore.Hbond>
2.0000

> <Gold.PLP.Chemscore.CHOScore>
0.0000

> <Gold.PLP.Chemscore.Metal>
0.0000

> <Gold.Chemscore.Hbonds>
donor molecule, donor type, donor heavy atom, donor atom, acceptor molecule, acceptor atom, score
      P1  H  6896  6908       L1    22  0.75
      P1  H  7989  7998       L1     1  1.00

> <Gold.PLP.Chemscore.Internal.Correction>
0.4997

> <Gold.Rescore>
     Score         DG    S(hbond)    S(metal)    S(lipo)     H(rot)  DE(clash)    DE(int)     intcor
     12.99     -15.58       1.83        0.00     106.63       3.32       0.01       2.57       ----

> <Gold.Chemscore.Fitness>
12.9906

> <Gold.Chemscore.DG>
-15.5789

> <Gold.Chemscore.ZeroCoef>
-5.4800

> <Gold.Chemscore.Hbond>
1.8332

> <Gold.Chemscore.Metal>
0.0000

> <Gold.Chemscore.Lipo>
106.6317

> <Gold.Chemscore.Internal_Hbond>
0.0000

> <Gold.Chemscore.DEClash>
0.0149

> <Gold.Chemscore.DEInternal>
2.5735

> <Gold.Chemscore.Rot>
3.3203

> <Gold.Chemscore.Internal.Correction>
   9.000000E+99

> <Gold.Chemscore.Hbonds>
donor molecule, donor type, donor heavy atom, donor atom, acceptor molecule, acceptor atom, score
      P1  H  6896  6908       L1    22  0.09
      P1  H  7989  7998       L1     1  0.79

> <Gold.Chemscore.Hbond.Weighted>
-6.1230

> <Gold.Chemscore.Metal.Weighted>
-0.0000

> <Gold.Chemscore.Lipo.Weighted>
-12.4759

> <Gold.Chemscore.Internal_Hbond.Weighted>
0.0000

> <Gold.Chemscore.DEClash.Weighted>
0.0149

> <Gold.Chemscore.DEInternal.Weighted>
2.5735

> <Gold.Chemscore.Rot.Weighted>
8.5000

> <Gold.Chemscore.Internal.Correction.Weighted>
   9.000000E+99

> <Gold.Protein.RotatedTorsions>
[ 6907 6896 6895 6894 ] final -148.73 input  -60.11 | X-H torsion
[ 7974 7965 7964 7962 ] final   24.36 input  175.53 | X-H torsion
[ 8008 7997 7996 7995 ] final -128.98 input   59.86 | X-H torsion
[ 10167 10162 10161 10158 ] final  116.40 input  -65.29 | X-H torsion
[ 10718 10713 10712 10709 ] final    6.73 input   66.30 | X-H torsion
[ 10763 10752 10751 10750 ] final -141.02 input  -60.55 | X-H torsion
[ 11005 11000 10999 10996 ] final   66.34 input  -57.11 | X-H torsion

> <Gold.Protein.ActiveResidues>
 VAL166  LYS551  ARG553  GLY616  TRP617  ASP618  TYR619  PRO620  LYS621  CYS622 
 ASP623  PHE694  ASN695  SER759  ASP760  ASP761  ALA762  ILE779  LEU786  VAL792 
 PHE793  MET794  SER795  GLU796  ALA797  LYS798  CYS799  TRP800  GLU811  SER814 

> <Gold.Protein.RotatedAtoms>
  151.1740  133.4766  159.2593 H   0  0  0  0  0  0  0  0  0  0  0  0  # atno 6907 bound_to 6896
  151.1327  135.0138  159.8600 H   0  0  0  0  0  0  0  0  0  0  0  0  # atno 6908 bound_to 6896
  152.5460  134.1641  159.8623 H   0  0  0  0  0  0  0  0  0  0  0  0  # atno 6909 bound_to 6896
  146.1941  139.7616  142.8810 H   0  0  0  0  0  0  0  0  0  0  0  0  # atno 7974 bound_to 7965
  155.2717  140.0440  157.3007 H   0  0  0  0  0  0  0  0  0  0  0  0  # atno 8008 bound_to 7997
  154.5649  140.2357  155.8247 H   0  0  0  0  0  0  0  0  0  0  0  0  # atno 8009 bound_to 7997
  156.2077  140.3008  155.9671 H   0  0  0  0  0  0  0  0  0  0  0  0  # atno 8010 bound_to 7997
  139.6250  144.7107  151.2553 H   0  0  0  0  0  0  0  0  0  0  0  0  # atno 10167 bound_to 10162
  156.9265  130.5810  149.5648 H   0  0  0  0  0  0  0  0  0  0  0  0  # atno 10718 bound_to 10713
  154.8559  135.3536  154.5801 H   0  0  0  0  0  0  0  0  0  0  0  0  # atno 10763 bound_to 10752
  153.6413  135.6998  153.5245 H   0  0  0  0  0  0  0  0  0  0  0  0  # atno 10764 bound_to 10752
  153.2969  135.4218  155.1176 H   0  0  0  0  0  0  0  0  0  0  0  0  # atno 10765 bound_to 10752
  139.9838  134.6701  156.0214 H   0  0  0  0  0  0  0  0  0  0  0  0  # atno 11005 bound_to 11000
  145.3699  141.0341  143.3237 LP  0  0  0  0  0  0  0  0  0  0  0  0  # atno 17320 bound_to 7965
  144.8545  139.5270  143.6841 LP  0  0  0  0  0  0  0  0  0  0  0  0  # atno 17321 bound_to 7965
  140.7405  143.6585  150.8185 LP  0  0  0  0  0  0  0  0  0  0  0  0  # atno 17342 bound_to 10162
  140.0202  143.5551  152.2803 LP  0  0  0  0  0  0  0  0  0  0  0  0  # atno 17343 bound_to 10162
  156.0467  130.5542  150.8896 LP  0  0  0  0  0  0  0  0  0  0  0  0  # atno 17370 bound_to 10713
  157.5874  131.0945  150.9173 LP  0  0  0  0  0  0  0  0  0  0  0  0  # atno 17371 bound_to 10713
  141.1506  133.6549  156.4001 LP  0  0  0  0  0  0  0  0  0  0  0  0  # atno 17394 bound_to 11000
  140.5044  134.6455  157.5261 LP  0  0  0  0  0  0  0  0  0  0  0  0  # atno 17395 bound_to 11000

$$$$
