AV-unprocessed.smi:1965|AV-procd|sdf|7939|dock2
  -GOLD-   2272010103D 1   1.00000     0.00000
 Structure written by MMmdl.
 37 39  0  0  0  0  0  0  0  0  2 V2000
  145.8459  137.7260  154.3605 O   0  0  0  0  0  0  0  0  0  0  0  0
  146.7405  137.3082  153.6274 C   0  0  0  0  0  0  0  0  0  0  0  0
  147.8987  137.9873  153.4856 N   0  0  0  0  0  0  0  0  0  0  0  0
  148.3568  139.2068  154.0645 C   0  0  0  0  0  0  0  0  0  0  0  0
  149.4871  139.3523  154.7684 N   0  0  0  0  0  0  0  0  0  0  0  0
  149.6633  140.6627  155.2204 C   0  0  0  0  0  0  0  0  0  0  0  0
  148.6471  141.5092  154.8554 C   0  0  0  0  0  0  0  0  0  0  0  0
  147.4225  140.6896  153.9243 S   0  0  0  0  0  0  0  0  0  0  0  0
  146.6286  136.1693  152.9244 N   0  0  0  0  0  0  0  0  0  0  0  0
  145.4724  135.2791  152.9234 C   0  0  1  0  0  0  0  0  0  0  0  0
  144.1467  136.0236  153.0293 C   0  0  0  0  0  0  0  0  0  0  0  0
  143.1510  134.9847  152.5108 C   0  0  0  0  0  0  0  0  0  0  0  0
  143.8708  134.2137  151.4710 N   0  3  2  0  0  0  0  0  0  0  0  0
  143.5069  132.7770  151.4058 C   0  0  0  0  0  0  0  0  0  0  0  0
  144.2917  132.0662  150.2875 C   0  0  0  0  0  0  0  0  0  0  0  0
  145.8088  132.3427  150.3422 C   0  0  0  0  0  0  0  0  0  0  0  0
  146.2011  133.2278  151.5354 C   0  0  0  0  0  0  0  0  0  0  0  0
  145.3275  134.5010  151.6048 C   0  0  2  0  0  0  0  0  0  0  0  0
  148.5497  137.5678  152.8374 H   0  0  0  0  0  0  0  0  0  0  0  0
  150.5424  140.9057  155.7986 H   0  0  0  0  0  0  0  0  0  0  0  0
  148.5443  142.5610  155.0782 H   0  0  0  0  0  0  0  0  0  0  0  0
  147.4126  135.9009  152.3459 H   0  0  0  0  0  0  0  0  0  0  0  0
  145.5296  134.5810  153.7613 H   0  0  0  0  0  0  0  0  0  0  0  0
  143.9235  136.3546  154.0440 H   0  0  0  0  0  0  0  0  0  0  0  0
  144.1464  136.8994  152.3779 H   0  0  0  0  0  0  0  0  0  0  0  0
  142.8628  134.3245  153.3307 H   0  0  0  0  0  0  0  0  0  0  0  0
  142.2424  135.4380  152.1136 H   0  0  0  0  0  0  0  0  0  0  0  0
  143.7100  132.3017  152.3669 H   0  0  0  0  0  0  0  0  0  0  0  0
  142.4352  132.6809  151.2287 H   0  0  0  0  0  0  0  0  0  0  0  0
  144.1077  130.9926  150.3414 H   0  0  0  0  0  0  0  0  0  0  0  0
  143.9067  132.3865  149.3185 H   0  0  0  0  0  0  0  0  0  0  0  0
  146.3610  131.4031  150.3811 H   0  0  0  0  0  0  0  0  0  0  0  0
  146.1154  132.8345  149.4183 H   0  0  0  0  0  0  0  0  0  0  0  0
  146.0998  132.6533  152.4572 H   0  0  0  0  0  0  0  0  0  0  0  0
  147.2548  133.4986  151.4642 H   0  0  0  0  0  0  0  0  0  0  0  0
  145.5832  135.1539  150.7684 H   0  0  0  0  0  0  0  0  0  0  0  0
  143.6017  134.6116  150.5823 H   0  0  0  0  0  0  0  0  0  0  0  0
  1  2  2  0  0  0  0
  2  3  1  0  0  0  0
  2  9  1  0  0  0  0
  3  4  1  0  0  0  0
  3 19  1  0  0  0  0
  4  8  1  0  0  0  0
  4  5  2  0  0  0  0
  5  6  1  0  0  0  0
  6  7  2  0  0  0  0
  6 20  1  0  0  0  0
  7  8  1  0  0  0  0
  7 21  1  0  0  0  0
  9 10  1  0  0  0  0
  9 22  1  0  0  0  0
 10 18  1  0  0  0  0
 10 11  1  0  0  0  0
 10 23  1  0  0  0  0
 11 12  1  0  0  0  0
 11 24  1  0  0  0  0
 11 25  1  0  0  0  0
 12 13  1  0  0  0  0
 12 26  1  0  0  0  0
 12 27  1  0  0  0  0
 13 18  1  0  0  0  0
 13 14  1  0  0  0  0
 13 37  1  0  0  0  0
 14 15  1  0  0  0  0
 14 28  1  0  0  0  0
 14 29  1  0  0  0  0
 15 16  1  0  0  0  0
 15 30  1  0  0  0  0
 15 31  1  0  0  0  0
 16 17  1  0  0  0  0
 16 32  1  0  0  0  0
 16 33  1  0  0  0  0
 17 18  1  0  0  0  0
 17 34  1  0  0  0  0
 17 35  1  0  0  0  0
 18 36  1  0  0  0  0
M  CHG  1  13   1
M  END
> <s_m_source_file>
AV-unprocessed.smi

> <i_m_source_file_index>
1965

> <i_lp_mmshare_version>
43012

> <i_f3d_flags>
0

> <s_epik_input>
czFbY0hdW2NIXW5jMVtOSF1DKD1PKVtOSF1bQ0BIXShbQ0gyXVtDSDJdMilbQ0BASF0oTjIzKVtDSDJdW0NIMl1bQ0gyXVtDSDJdMw==

> <s_epik_cmdline>
J2VwaWtfcHl0aG9uJywgJy1waCcsICc3LjAnLCAnLXRuJywgJzgnLCAnLW1hJywgJzIwMCcsICctbWV0YWxfYmluZGluZycsICctaW1hZScsICc8aW5maWxlLm1hZT4nLCAnLW9tYWUnLCAnPG91dGZpbGUubWFlPic=

> <r_lp_tautomer_probability>
1

> <r_epik_Ionization_Penalty>
0.00125962

> <r_epik_Ionization_Penalty_Charging>
0.00107044

> <r_epik_Ionization_Penalty_Neutral>
0.000189176

> <r_epik_State_Penalty>
-0

> <r_epik_Charging_Adjusted_Penalty>
0.00107044

> <i_epik_Tot_Q>
1

> <i_epik_Tot_abs_Q>
1

> <r_epik_Metal_State_Penalty>
0.0179285

> <b_epik_Metal_Only>
0

> <s_lp_Force_Field>
OPLS_2005

> <r_lp_Energy>
40.5286

> <b_lp_Chiralities_Consistent>
1

> <s_lp_Variant>
AV-unprocessed.smi:1965-8

> <Gold.Version>
5.8.1

> <Gold.Id.Protein>
6NUR|6NUR_protein|mol2

> <Gold.PLP.Fitness>
37.5580

> <Gold.PLP.PLP>
-30.3629

> <Gold.PLP.part.hbond>
-2.0000

> <Gold.PLP.part.metal>
0.0000

> <Gold.PLP.part.buried>
-2.8604

> <Gold.PLP.part.nonpolar>
-25.9824

> <Gold.PLP.part.repulsive>
0.2937

> <Gold.PLP.ligand.clash>
0.0318

> <Gold.PLP.ligand.torsion>
0.8664

> <Gold.PLP.Chemscore.Hbond>
1.9840

> <Gold.PLP.Chemscore.CHOScore>
1.0000

> <Gold.PLP.Chemscore.Metal>
0.0000

> <Gold.Chemscore.Hbonds>
donor molecule, donor type, donor heavy atom, donor atom, acceptor molecule, acceptor atom, score
      L1  H     3    19       P1  7948  0.99
      L1  H     9    22       P1  7948  0.98
      L1  C     7    21       P1  8028  1.00

> <Gold.PLP.Chemscore.Internal.Correction>
0.0078

> <Gold.Rescore>
     Score         DG    S(hbond)    S(metal)    S(lipo)     H(rot)  DE(clash)    DE(int)     intcor
     14.83     -17.01       1.89        0.00      66.50       1.00       0.00       2.18       ----

> <Gold.Chemscore.Fitness>
14.8320

> <Gold.Chemscore.DG>
-17.0140

> <Gold.Chemscore.ZeroCoef>
-5.4800

> <Gold.Chemscore.Hbond>
1.8901

> <Gold.Chemscore.Metal>
0.0000

> <Gold.Chemscore.Lipo>
66.5039

> <Gold.Chemscore.Internal_Hbond>
0.0000

> <Gold.Chemscore.DEClash>
0.0000

> <Gold.Chemscore.DEInternal>
2.1820

> <Gold.Chemscore.Rot>
1.0000

> <Gold.Chemscore.Internal.Correction>
   9.000000E+99

> <Gold.Chemscore.Hbonds>
donor molecule, donor type, donor heavy atom, donor atom, acceptor molecule, acceptor atom, score
      L1  H     3    19       P1  7948  0.93
      L1  H     9    22       P1  7948  0.93

> <Gold.Chemscore.Hbond.Weighted>
-6.3130

> <Gold.Chemscore.Metal.Weighted>
-0.0000

> <Gold.Chemscore.Lipo.Weighted>
-7.7810

> <Gold.Chemscore.Internal_Hbond.Weighted>
0.0000

> <Gold.Chemscore.DEClash.Weighted>
0.0000

> <Gold.Chemscore.DEInternal.Weighted>
2.1820

> <Gold.Chemscore.Rot.Weighted>
2.5600

> <Gold.Chemscore.Internal.Correction.Weighted>
   9.000000E+99

> <Gold.Protein.RotatedTorsions>
[ 6907 6896 6895 6894 ] final  164.61 input  -60.11 | X-H torsion
[ 7974 7965 7964 7962 ] final   -7.15 input  175.53 | X-H torsion
[ 8008 7997 7996 7995 ] final   19.08 input   59.86 | X-H torsion
[ 10167 10162 10161 10158 ] final  146.59 input  -65.29 | X-H torsion
[ 10718 10713 10712 10709 ] final  -42.71 input   66.30 | X-H torsion
[ 10763 10752 10751 10750 ] final  116.34 input  -60.55 | X-H torsion
[ 11005 11000 10999 10996 ] final  129.25 input  -57.11 | X-H torsion

> <Gold.Protein.ActiveResidues>
 VAL166  LYS551  ARG553  GLY616  TRP617  ASP618  TYR619  PRO620  LYS621  CYS622 
 ASP623  PHE694  ASN695  SER759  ASP760  ASP761  ALA762  ILE779  LEU786  VAL792 
 PHE793  MET794  SER795  GLU796  ALA797  LYS798  CYS799  TRP800  GLU811  SER814 

> <Gold.Protein.RotatedAtoms>
  151.9072  133.3552  159.3850 H   0  0  0  0  0  0  0  0  0  0  0  0  # atno 6907 bound_to 6896
  150.7066  134.4768  159.5461 H   0  0  0  0  0  0  0  0  0  0  0  0  # atno 6908 bound_to 6896
  152.2368  134.8268  160.0517 H   0  0  0  0  0  0  0  0  0  0  0  0  # atno 6909 bound_to 6896
  146.2314  140.2276  142.8339 H   0  0  0  0  0  0  0  0  0  0  0  0  # atno 7974 bound_to 7965
  154.9155  140.3020  155.5244 H   0  0  0  0  0  0  0  0  0  0  0  0  # atno 8008 bound_to 7997
  156.3012  140.2381  156.4135 H   0  0  0  0  0  0  0  0  0  0  0  0  # atno 8009 bound_to 7997
  154.8383  140.0415  157.1513 H   0  0  0  0  0  0  0  0  0  0  0  0  # atno 8010 bound_to 7997
  139.4904  144.5818  151.6857 H   0  0  0  0  0  0  0  0  0  0  0  0  # atno 10167 bound_to 10162
  156.2567  130.4193  149.8588 H   0  0  0  0  0  0  0  0  0  0  0  0  # atno 10718 bound_to 10713
  153.5357  135.3569  155.2696 H   0  0  0  0  0  0  0  0  0  0  0  0  # atno 10763 bound_to 10752
  154.8722  135.4079  154.3100 H   0  0  0  0  0  0  0  0  0  0  0  0  # atno 10764 bound_to 10752
  153.3798  135.7067  153.6642 H   0  0  0  0  0  0  0  0  0  0  0  0  # atno 10765 bound_to 10752
  139.9605  134.9603  156.9120 H   0  0  0  0  0  0  0  0  0  0  0  0  # atno 11005 bound_to 11000
  144.9583  140.8249  143.5529 LP  0  0  0  0  0  0  0  0  0  0  0  0  # atno 17320 bound_to 7965
  145.2244  139.2144  143.5076 LP  0  0  0  0  0  0  0  0  0  0  0  0  # atno 17321 bound_to 7965
  140.5426  144.0555  150.6094 LP  0  0  0  0  0  0  0  0  0  0  0  0  # atno 17342 bound_to 10162
  140.3582  143.2923  152.0413 LP  0  0  0  0  0  0  0  0  0  0  0  0  # atno 17343 bound_to 10162
  156.6118  130.8590  151.3456 LP  0  0  0  0  0  0  0  0  0  0  0  0  # atno 17370 bound_to 10713
  157.7235  130.9591  150.1537 LP  0  0  0  0  0  0  0  0  0  0  0  0  # atno 17371 bound_to 10713
  140.5511  134.0626  155.7369 LP  0  0  0  0  0  0  0  0  0  0  0  0  # atno 17394 bound_to 11000
  141.1281  133.9348  157.2592 LP  0  0  0  0  0  0  0  0  0  0  0  0  # atno 17395 bound_to 11000

$$$$
