AV-unprocessed.smi:2896|AV-procd|sdf|11137|dock5
  -GOLD-   2272016 13D 1   1.00000     0.00000
 Structure written by MMmdl.
 50 51  0  0  0  0  0  0  0  0  2 V2000
  149.5047  130.8298  154.1713 C   0  0  0  0  0  0  0  0  0  0  0  0
  148.6348  132.0103  154.6473 C   0  0  1  0  0  0  0  0  0  0  0  0
  149.3474  132.8345  155.7417 C   0  0  0  0  0  0  0  0  0  0  0  0
  148.4581  133.8096  156.3632 N   0  0  0  0  0  0  0  0  0  0  0  0
  148.3564  134.0356  157.6848 C   0  0  0  0  0  0  0  0  0  0  0  0
  148.9900  133.3807  158.5140 O   0  0  0  0  0  0  0  0  0  0  0  0
  147.4053  135.1718  158.1367 C   0  0  0  0  0  0  0  0  0  0  0  0
  147.8858  136.4768  157.4595 C   0  0  0  0  0  0  0  0  0  0  0  0
  145.9629  134.9007  157.6424 C   0  0  0  0  0  0  0  0  0  0  0  0
  147.4054  135.2458  159.6782 C   0  0  0  0  0  0  0  0  0  0  0  0
  146.9617  134.1426  160.4473 C   0  0  0  0  0  0  0  0  0  0  0  0
  146.9834  134.2196  161.8519 C   0  0  0  0  0  0  0  0  0  0  0  0
  147.4473  135.4062  162.4486 C   0  0  0  0  0  0  0  0  0  0  0  0
  147.8731  136.4708  161.7384 N   0  0  0  0  0  0  0  0  0  0  0  0
  147.8487  136.3880  160.3908 C   0  0  0  0  0  0  0  0  0  0  0  0
  148.2317  132.9218  153.4677 C   0  0  0  0  0  0  0  0  0  0  0  0
  147.4793  132.2019  152.4081 N   0  3  0  0  0  0  0  0  0  0  0  0
  146.5707  131.1510  152.9311 C   0  0  0  0  0  0  0  0  0  0  0  0
  145.8646  130.4266  151.7726 C   0  0  0  0  0  0  0  0  0  0  0  0
  145.1594  131.3711  150.9772 O   0  0  0  0  0  0  0  0  0  0  0  0
  146.0306  132.3338  150.3975 C   0  0  0  0  0  0  0  0  0  0  0  0
  146.7418  133.1223  151.5103 C   0  0  0  0  0  0  0  0  0  0  0  0
  150.4363  131.1797  153.7257 H   0  0  0  0  0  0  0  0  0  0  0  0
  148.9859  130.2270  153.4260 H   0  0  0  0  0  0  0  0  0  0  0  0
  149.7627  130.1627  154.9933 H   0  0  0  0  0  0  0  0  0  0  0  0
  147.7299  131.5996  155.0943 H   0  0  0  0  0  0  0  0  0  0  0  0
  149.7251  132.1732  156.5224 H   0  0  0  0  0  0  0  0  0  0  0  0
  150.2182  133.3477  155.3297 H   0  0  0  0  0  0  0  0  0  0  0  0
  147.9024  134.3825  155.7440 H   0  0  0  0  0  0  0  0  0  0  0  0
  148.9101  136.7306  157.7360 H   0  0  0  0  0  0  0  0  0  0  0  0
  147.2493  137.3217  157.7253 H   0  0  0  0  0  0  0  0  0  0  0  0
  147.8632  136.3916  156.3720 H   0  0  0  0  0  0  0  0  0  0  0  0
  145.5820  133.9357  157.9778 H   0  0  0  0  0  0  0  0  0  0  0  0
  145.9010  134.9077  156.5530 H   0  0  0  0  0  0  0  0  0  0  0  0
  145.2762  135.6656  158.0066 H   0  0  0  0  0  0  0  0  0  0  0  0
  146.6185  133.2363  159.9705 H   0  0  0  0  0  0  0  0  0  0  0  0
  146.6532  133.3887  162.4576 H   0  0  0  0  0  0  0  0  0  0  0  0
  147.4788  135.5021  163.5238 H   0  0  0  0  0  0  0  0  0  0  0  0
  148.2049  137.2721  159.8854 H   0  0  0  0  0  0  0  0  0  0  0  0
  147.6342  133.7653  153.8175 H   0  0  0  0  0  0  0  0  0  0  0  0
  149.1400  133.3515  153.0422 H   0  0  0  0  0  0  0  0  0  0  0  0
  147.1243  130.4224  153.5221 H   0  0  0  0  0  0  0  0  0  0  0  0
  145.8300  131.6021  153.5931 H   0  0  0  0  0  0  0  0  0  0  0  0
  146.5823  129.8793  151.1594 H   0  0  0  0  0  0  0  0  0  0  0  0
  145.1567  129.6955  152.1634 H   0  0  0  0  0  0  0  0  0  0  0  0
  146.7535  131.8423  149.7444 H   0  0  0  0  0  0  0  0  0  0  0  0
  145.4452  133.0093  149.7732 H   0  0  0  0  0  0  0  0  0  0  0  0
  146.0141  133.6942  152.0885 H   0  0  0  0  0  0  0  0  0  0  0  0
  147.4329  133.8386  151.0648 H   0  0  0  0  0  0  0  0  0  0  0  0
  148.1676  131.7391  151.8316 H   0  0  0  0  0  0  0  0  0  0  0  0
  1  2  1  0  0  0  0
  1 23  1  0  0  0  0
  1 24  1  0  0  0  0
  1 25  1  0  0  0  0
  2  3  1  0  0  0  0
  2 16  1  0  0  0  0
  2 26  1  0  0  0  0
  3  4  1  0  0  0  0
  3 27  1  0  0  0  0
  3 28  1  0  0  0  0
  4  5  1  0  0  0  0
  4 29  1  0  0  0  0
  5  6  2  0  0  0  0
  5  7  1  0  0  0  0
  7  8  1  0  0  0  0
  7  9  1  0  0  0  0
  7 10  1  0  0  0  0
  8 30  1  0  0  0  0
  8 31  1  0  0  0  0
  8 32  1  0  0  0  0
  9 33  1  0  0  0  0
  9 34  1  0  0  0  0
  9 35  1  0  0  0  0
 10 15  1  0  0  0  0
 10 11  2  0  0  0  0
 11 12  1  0  0  0  0
 11 36  1  0  0  0  0
 12 13  2  0  0  0  0
 12 37  1  0  0  0  0
 13 14  1  0  0  0  0
 13 38  1  0  0  0  0
 14 15  2  0  0  0  0
 15 39  1  0  0  0  0
 16 17  1  0  0  0  0
 16 40  1  0  0  0  0
 16 41  1  0  0  0  0
 17 22  1  0  0  0  0
 17 18  1  0  0  0  0
 17 50  1  0  0  0  0
 18 19  1  0  0  0  0
 18 42  1  0  0  0  0
 18 43  1  0  0  0  0
 19 20  1  0  0  0  0
 19 44  1  0  0  0  0
 19 45  1  0  0  0  0
 20 21  1  0  0  0  0
 21 22  1  0  0  0  0
 21 46  1  0  0  0  0
 21 47  1  0  0  0  0
 22 48  1  0  0  0  0
 22 49  1  0  0  0  0
M  CHG  1  17   1
M  END
> <s_m_source_file>
AV-unprocessed.smi

> <i_m_source_file_index>
2896

> <i_lp_mmshare_version>
43012

> <i_f3d_flags>
0

> <s_epik_input>
W0NIMl0xW0NIMl1PW0NIMl1bQ0gyXU4xW0NIMl1bQ0BIXShbQ0gzXSlbQ0gyXVtOSF1DKD1PKUMoW0NIM10pKFtDSDNdKWMyW2NIXVtjSF1bY0hdbltjSF0y

> <s_epik_cmdline>
J2VwaWtfcHl0aG9uJywgJy1waCcsICc3LjAnLCAnLXRuJywgJzgnLCAnLW1hJywgJzIwMCcsICctbWV0YWxfYmluZGluZycsICctaW1hZScsICc8aW5maWxlLm1hZT4nLCAnLW9tYWUnLCAnPG91dGZpbGUubWFlPic=

> <r_epik_Ionization_Penalty>
0.378644

> <r_epik_Ionization_Penalty_Charging>
0.372108

> <r_epik_Ionization_Penalty_Neutral>
0.0065361

> <r_epik_State_Penalty>
0.380038

> <r_epik_Charging_Adjusted_Penalty>
0.752147

> <i_epik_Tot_Q>
1

> <i_epik_Tot_abs_Q>
1

> <r_epik_Metal_State_Penalty>
0.375202

> <b_epik_Metal_Only>
0

> <s_lp_Force_Field>
OPLS_2005

> <r_lp_Energy>
23.8301

> <b_lp_Chiralities_Consistent>
1

> <s_lp_Variant>
AV-unprocessed.smi:2896-2

> <Gold.Version>
5.8.1

> <Gold.Id.Protein>
6NUR|6NUR_protein|mol2

> <Gold.PLP.Fitness>
43.7344

> <Gold.PLP.PLP>
-35.2631

> <Gold.PLP.part.hbond>
-3.0000

> <Gold.PLP.part.metal>
0.0000

> <Gold.PLP.part.buried>
-5.9514

> <Gold.PLP.part.nonpolar>
-26.8041

> <Gold.PLP.part.repulsive>
0.1420

> <Gold.PLP.ligand.clash>
0.0000

> <Gold.PLP.ligand.torsion>
0.3540

> <Gold.PLP.Chemscore.Hbond>
3.0000

> <Gold.PLP.Chemscore.CHOScore>
0.0000

> <Gold.PLP.Chemscore.Metal>
0.0000

> <Gold.Chemscore.Hbonds>
donor molecule, donor type, donor heavy atom, donor atom, acceptor molecule, acceptor atom, score
      L1  H    17    50       P1 10747  1.00
      P1  H  6896  6908       L1     6  1.00
      P1  H  6931  6943       L1    14  0.69

> <Gold.PLP.Chemscore.Internal.Correction>
0.1794

> <Gold.Rescore>
     Score         DG    S(hbond)    S(metal)    S(lipo)     H(rot)  DE(clash)    DE(int)     intcor
     19.47     -21.03       2.95        0.00      87.54       1.78       0.09       1.47       ----

> <Gold.Chemscore.Fitness>
19.4729

> <Gold.Chemscore.DG>
-21.0275

> <Gold.Chemscore.ZeroCoef>
-5.4800

> <Gold.Chemscore.Hbond>
2.9506

> <Gold.Chemscore.Metal>
0.0000

> <Gold.Chemscore.Lipo>
87.5357

> <Gold.Chemscore.Internal_Hbond>
0.0000

> <Gold.Chemscore.DEClash>
0.0872

> <Gold.Chemscore.DEInternal>
1.4674

> <Gold.Chemscore.Rot>
1.7771

> <Gold.Chemscore.Internal.Correction>
   9.000000E+99

> <Gold.Chemscore.Hbonds>
donor molecule, donor type, donor heavy atom, donor atom, acceptor molecule, acceptor atom, score
      L1  H    17    50       P1 10747  0.98
      P1  H  6896  6908       L1     6  0.95
      P1  H  6931  6943       L1    14  0.13

> <Gold.Chemscore.Hbond.Weighted>
-9.8552

> <Gold.Chemscore.Metal.Weighted>
-0.0000

> <Gold.Chemscore.Lipo.Weighted>
-10.2417

> <Gold.Chemscore.Internal_Hbond.Weighted>
0.0000

> <Gold.Chemscore.DEClash.Weighted>
0.0872

> <Gold.Chemscore.DEInternal.Weighted>
1.4674

> <Gold.Chemscore.Rot.Weighted>
4.5494

> <Gold.Chemscore.Internal.Correction.Weighted>
   9.000000E+99

> <Gold.Protein.RotatedTorsions>
[ 6907 6896 6895 6894 ] final  115.92 input  -60.11 | X-H torsion
[ 7974 7965 7964 7962 ] final   -9.55 input  175.53 | X-H torsion
[ 8008 7997 7996 7995 ] final   62.33 input   59.86 | X-H torsion
[ 10167 10162 10161 10158 ] final  100.89 input  -65.29 | X-H torsion
[ 10718 10713 10712 10709 ] final   73.92 input   66.30 | X-H torsion
[ 10763 10752 10751 10750 ] final  -46.91 input  -60.55 | X-H torsion
[ 11005 11000 10999 10996 ] final -118.82 input  -57.11 | X-H torsion

> <Gold.Protein.ActiveResidues>
 VAL166  LYS551  ARG553  GLY616  TRP617  ASP618  TYR619  PRO620  LYS621  CYS622 
 ASP623  PHE694  ASN695  SER759  ASP760  ASP761  ALA762  ILE779  LEU786  VAL792 
 PHE793  MET794  SER795  GLU796  ALA797  LYS798  CYS799  TRP800  GLU811  SER814 

> <Gold.Protein.RotatedAtoms>
  152.4711  133.8031  159.6963 H   0  0  0  0  0  0  0  0  0  0  0  0  # atno 6907 bound_to 6896
  150.8700  133.7509  159.2970 H   0  0  0  0  0  0  0  0  0  0  0  0  # atno 6908 bound_to 6896
  151.5047  135.1066  159.9890 H   0  0  0  0  0  0  0  0  0  0  0  0  # atno 6909 bound_to 6896
  146.2248  140.2633  142.8353 H   0  0  0  0  0  0  0  0  0  0  0  0  # atno 7974 bound_to 7965
  155.6126  140.3495  155.4627 H   0  0  0  0  0  0  0  0  0  0  0  0  # atno 8008 bound_to 7997
  156.0142  140.1240  157.0447 H   0  0  0  0  0  0  0  0  0  0  0  0  # atno 8009 bound_to 7997
  154.4292  140.1075  156.5859 H   0  0  0  0  0  0  0  0  0  0  0  0  # atno 8010 bound_to 7997
  139.7486  144.6990  151.0466 H   0  0  0  0  0  0  0  0  0  0  0  0  # atno 10167 bound_to 10162
  157.6569  130.9652  150.1137 H   0  0  0  0  0  0  0  0  0  0  0  0  # atno 10718 bound_to 10713
  154.0528  135.6629  153.4802 H   0  0  0  0  0  0  0  0  0  0  0  0  # atno 10763 bound_to 10752
  153.0457  135.5116  154.7734 H   0  0  0  0  0  0  0  0  0  0  0  0  # atno 10764 bound_to 10752
  154.6746  135.3035  154.9662 H   0  0  0  0  0  0  0  0  0  0  0  0  # atno 10765 bound_to 10752
  141.0259  134.0054  157.3215 H   0  0  0  0  0  0  0  0  0  0  0  0  # atno 11005 bound_to 11000
  144.9323  140.7988  143.5682 LP  0  0  0  0  0  0  0  0  0  0  0  0  # atno 17320 bound_to 7965
  145.2578  139.2005  143.4908 LP  0  0  0  0  0  0  0  0  0  0  0  0  # atno 17321 bound_to 7965
  140.7795  143.4836  150.9985 LP  0  0  0  0  0  0  0  0  0  0  0  0  # atno 17342 bound_to 10162
  139.8524  143.7421  152.3177 LP  0  0  0  0  0  0  0  0  0  0  0  0  # atno 17343 bound_to 10162
  156.2027  130.3661  149.8768 LP  0  0  0  0  0  0  0  0  0  0  0  0  # atno 17370 bound_to 10713
  156.6668  130.8804  151.3556 LP  0  0  0  0  0  0  0  0  0  0  0  0  # atno 17371 bound_to 10713
  139.9176  135.0198  156.7940 LP  0  0  0  0  0  0  0  0  0  0  0  0  # atno 17394 bound_to 11000
  140.6492  133.9747  155.7746 LP  0  0  0  0  0  0  0  0  0  0  0  0  # atno 17395 bound_to 11000

$$$$
