AV-unprocessed.smi:404|AV-procd|sdf|2497|dock4
  -GOLD-   2262022443D 1   1.00000     0.00000
 Structure written by MMmdl.
 44 45  0  0  0  0  0  0  0  0  1 V2000
  157.5755  137.9509  164.8791 C   0  0  0  0  0  0  0  0  0  0  0  0
  157.3363  139.4171  165.1010 C   0  0  0  0  0  0  0  0  0  0  0  0
  157.2751  139.8847  166.3369 N   0  0  0  0  0  0  0  0  0  0  0  0
  157.0478  141.2058  166.1943 N   0  0  0  0  0  0  0  0  0  0  0  0
  156.9207  142.0376  167.3751 C   0  0  0  0  0  0  0  0  0  0  0  0
  156.9622  141.5731  164.8657 C   0  0  0  0  0  0  0  0  0  0  0  0
  156.7059  142.9844  164.4452 C   0  0  0  0  0  0  0  0  0  0  0  0
  157.1465  140.4373  164.1229 C   0  0  0  0  0  0  0  0  0  0  0  0
  157.1451  140.2825  162.6234 C   0  0  0  0  0  0  0  0  0  0  0  0
  155.7148  140.0600  162.1328 C   0  0  0  0  0  0  0  0  0  0  0  0
  155.1973  138.9477  162.2326 O   0  0  0  0  0  0  0  0  0  0  0  0
  155.0914  141.1250  161.6047 N   0  0  0  0  0  0  0  0  0  0  0  0
  153.7414  141.1317  161.0487 C   0  0  0  0  0  0  0  0  0  0  0  0
  153.2909  142.5386  160.6017 C   0  0  0  0  0  0  0  0  0  0  0  0
  152.6185  143.3448  161.7365 C   0  0  0  0  0  0  0  0  0  0  0  0
  152.1503  144.7289  161.2575 C   0  0  0  0  0  0  0  0  0  0  0  0
  151.2154  144.6160  160.0446 C   0  0  0  0  0  0  0  0  0  0  0  0
  151.8831  143.8285  158.9081 C   0  0  0  0  0  0  0  0  0  0  0  0
  152.3422  142.4426  159.3888 C   0  0  0  0  0  0  0  0  0  0  0  0
  156.6794  137.4662  164.4919 H   0  0  0  0  0  0  0  0  0  0  0  0
  157.8551  137.4417  165.8024 H   0  0  0  0  0  0  0  0  0  0  0  0
  158.3779  137.7906  164.1591 H   0  0  0  0  0  0  0  0  0  0  0  0
  157.5945  142.8914  167.2984 H   0  0  0  0  0  0  0  0  0  0  0  0
  157.1711  141.4721  168.2740 H   0  0  0  0  0  0  0  0  0  0  0  0
  155.8951  142.3987  167.4585 H   0  0  0  0  0  0  0  0  0  0  0  0
  156.5670  143.0574  163.3667 H   0  0  0  0  0  0  0  0  0  0  0  0
  157.5420  143.6278  164.7202 H   0  0  0  0  0  0  0  0  0  0  0  0
  155.8063  143.3738  164.9224 H   0  0  0  0  0  0  0  0  0  0  0  0
  157.5523  141.1659  162.1306 H   0  0  0  0  0  0  0  0  0  0  0  0
  157.7741  139.4495  162.3071 H   0  0  0  0  0  0  0  0  0  0  0  0
  155.5997  141.9967  161.5683 H   0  0  0  0  0  0  0  0  0  0  0  0
  153.7478  140.4612  160.1888 H   0  0  0  0  0  0  0  0  0  0  0  0
  153.0240  140.7079  161.7538 H   0  0  0  0  0  0  0  0  0  0  0  0
  154.1792  143.0863  160.2826 H   0  0  0  0  0  0  0  0  0  0  0  0
  151.7664  142.7874  162.1276 H   0  0  0  0  0  0  0  0  0  0  0  0
  153.3077  143.4782  162.5701 H   0  0  0  0  0  0  0  0  0  0  0  0
  151.6429  145.2501  162.0697 H   0  0  0  0  0  0  0  0  0  0  0  0
  153.0173  145.3362  160.9947 H   0  0  0  0  0  0  0  0  0  0  0  0
  150.2900  144.1198  160.3401 H   0  0  0  0  0  0  0  0  0  0  0  0
  150.9362  145.6104  159.6952 H   0  0  0  0  0  0  0  0  0  0  0  0
  151.1901  143.7217  158.0731 H   0  0  0  0  0  0  0  0  0  0  0  0
  152.7399  144.3872  158.5294 H   0  0  0  0  0  0  0  0  0  0  0  0
  152.8372  141.9221  158.5684 H   0  0  0  0  0  0  0  0  0  0  0  0
  151.4692  141.8431  159.6509 H   0  0  0  0  0  0  0  0  0  0  0  0
  1  2  1  0  0  0  0
  1 20  1  0  0  0  0
  1 21  1  0  0  0  0
  1 22  1  0  0  0  0
  2  8  1  0  0  0  0
  2  3  2  0  0  0  0
  3  4  1  0  0  0  0
  4  5  1  0  0  0  0
  4  6  1  0  0  0  0
  5 23  1  0  0  0  0
  5 24  1  0  0  0  0
  5 25  1  0  0  0  0
  6  7  1  0  0  0  0
  6  8  2  0  0  0  0
  7 26  1  0  0  0  0
  7 27  1  0  0  0  0
  7 28  1  0  0  0  0
  8  9  1  0  0  0  0
  9 10  1  0  0  0  0
  9 29  1  0  0  0  0
  9 30  1  0  0  0  0
 10 11  2  0  0  0  0
 10 12  1  0  0  0  0
 12 13  1  0  0  0  0
 12 31  1  0  0  0  0
 13 14  1  0  0  0  0
 13 32  1  0  0  0  0
 13 33  1  0  0  0  0
 14 19  1  0  0  0  0
 14 15  1  0  0  0  0
 14 34  1  0  0  0  0
 15 16  1  0  0  0  0
 15 35  1  0  0  0  0
 15 36  1  0  0  0  0
 16 17  1  0  0  0  0
 16 37  1  0  0  0  0
 16 38  1  0  0  0  0
 17 18  1  0  0  0  0
 17 39  1  0  0  0  0
 17 40  1  0  0  0  0
 18 19  1  0  0  0  0
 18 41  1  0  0  0  0
 18 42  1  0  0  0  0
 19 43  1  0  0  0  0
 19 44  1  0  0  0  0
M  END
> <s_m_source_file>
AV-unprocessed.smi

> <i_m_source_file_index>
404

> <i_lp_mmshare_version>
43012

> <i_f3d_flags>
0

> <s_epik_input>
W0NIM11jMW5uKFtDSDNdKWMoW0NIM10pYzFbQ0gyXUMoPU8pW05IXVtDSDJdW0NIXTJbQ0gyXVtDSDJdW0NIMl1bQ0gyXVtDSDJdMg==

> <s_epik_cmdline>
J2VwaWtfcHl0aG9uJywgJy1waCcsICc3LjAnLCAnLXRuJywgJzgnLCAnLW1hJywgJzIwMCcsICctbWV0YWxfYmluZGluZycsICctaW1hZScsICc8aW5maWxlLm1hZT4nLCAnLW9tYWUnLCAnPG91dGZpbGUubWFlPic=

> <r_lp_tautomer_probability>
1

> <r_epik_Ionization_Penalty>
0.00317479

> <r_epik_Ionization_Penalty_Charging>
0

> <r_epik_Ionization_Penalty_Neutral>
0.00317479

> <r_epik_State_Penalty>
0.00223767

> <r_epik_Charging_Adjusted_Penalty>
0.00223767

> <i_epik_Tot_Q>
0

> <i_epik_Tot_abs_Q>
0

> <r_epik_Metal_State_Penalty>
-0

> <b_epik_Metal_Only>
0

> <s_lp_Force_Field>
OPLS_2005

> <r_lp_Energy>
5.4513

> <b_lp_Chiralities_Consistent>
1

> <s_lp_Variant>
AV-unprocessed.smi:404-1

> <Gold.Version>
5.8.1

> <Gold.Id.Protein>
6NUR|6NUR_protein|mol2

> <Gold.PLP.Fitness>
44.2770

> <Gold.PLP.PLP>
-46.2961

> <Gold.PLP.part.hbond>
-1.1497

> <Gold.PLP.part.metal>
0.0000

> <Gold.PLP.part.buried>
-4.0304

> <Gold.PLP.part.nonpolar>
-40.3197

> <Gold.PLP.part.repulsive>
0.1017

> <Gold.PLP.ligand.clash>
0.0000

> <Gold.PLP.ligand.torsion>
1.0146

> <Gold.PLP.Chemscore.Hbond>
0.0000

> <Gold.PLP.Chemscore.CHOScore>
0.0000

> <Gold.PLP.Chemscore.Metal>
0.0000

> <Gold.PLP.Chemscore.Internal.Correction>
0.0102

> <Gold.Rescore>
     Score         DG    S(hbond)    S(metal)    S(lipo)     H(rot)  DE(clash)    DE(int)     intcor
     15.19     -16.14       0.00        0.00     121.22       1.38       0.24       0.71       ----

> <Gold.Chemscore.Fitness>
15.1889

> <Gold.Chemscore.DG>
-16.1384

> <Gold.Chemscore.ZeroCoef>
-5.4800

> <Gold.Chemscore.Hbond>
0.0000

> <Gold.Chemscore.Metal>
0.0000

> <Gold.Chemscore.Lipo>
121.2210

> <Gold.Chemscore.Internal_Hbond>
0.0000

> <Gold.Chemscore.DEClash>
0.2363

> <Gold.Chemscore.DEInternal>
0.7131

> <Gold.Chemscore.Rot>
1.3768

> <Gold.Chemscore.Internal.Correction>
   9.000000E+99

> <Gold.Chemscore.Hbond.Weighted>
-0.0000

> <Gold.Chemscore.Metal.Weighted>
-0.0000

> <Gold.Chemscore.Lipo.Weighted>
-14.1829

> <Gold.Chemscore.Internal_Hbond.Weighted>
0.0000

> <Gold.Chemscore.DEClash.Weighted>
0.2363

> <Gold.Chemscore.DEInternal.Weighted>
0.7131

> <Gold.Chemscore.Rot.Weighted>
3.5245

> <Gold.Chemscore.Internal.Correction.Weighted>
   9.000000E+99

> <Gold.Protein.RotatedTorsions>
[ 6907 6896 6895 6894 ] final  114.09 input  -60.11 | X-H torsion
[ 7974 7965 7964 7962 ] final   58.19 input  175.53 | X-H torsion
[ 8008 7997 7996 7995 ] final   84.23 input   59.86 | X-H torsion
[ 10167 10162 10161 10158 ] final  -89.71 input  -65.29 | X-H torsion
[ 10718 10713 10712 10709 ] final  -15.15 input   66.30 | X-H torsion
[ 10763 10752 10751 10750 ] final   74.25 input  -60.55 | X-H torsion
[ 11005 11000 10999 10996 ] final  -86.23 input  -57.11 | X-H torsion

> <Gold.Protein.ActiveResidues>
 VAL166  LYS551  ARG553  GLY616  TRP617  ASP618  TYR619  PRO620  LYS621  CYS622 
 ASP623  PHE694  ASN695  SER759  ASP760  ASP761  ALA762  ILE779  LEU786  VAL792 
 PHE793  MET794  SER795  GLU796  ALA797  LYS798  CYS799  TRP800  GLU811  SER814 

> <Gold.Protein.RotatedAtoms>
  152.4823  133.8284  159.7090 H   0  0  0  0  0  0  0  0  0  0  0  0  # atno 6907 bound_to 6896
  150.8882  133.7270  159.2919 H   0  0  0  0  0  0  0  0  0  0  0  0  # atno 6908 bound_to 6896
  151.4752  135.1052  159.9814 H   0  0  0  0  0  0  0  0  0  0  0  0  # atno 6909 bound_to 6896
  145.9208  139.3728  143.0479 H   0  0  0  0  0  0  0  0  0  0  0  0  # atno 7974 bound_to 7965
  155.9344  140.3412  155.6275 H   0  0  0  0  0  0  0  0  0  0  0  0  # atno 8008 bound_to 7997
  155.7118  140.0772  157.2386 H   0  0  0  0  0  0  0  0  0  0  0  0  # atno 8009 bound_to 7997
  154.4091  140.1621  156.2292 H   0  0  0  0  0  0  0  0  0  0  0  0  # atno 8010 bound_to 7997
  140.3622  143.2836  151.9601 H   0  0  0  0  0  0  0  0  0  0  0  0  # atno 10167 bound_to 10162
  156.6059  130.4836  149.6221 H   0  0  0  0  0  0  0  0  0  0  0  0  # atno 10718 bound_to 10713
  153.0574  135.5032  154.8015 H   0  0  0  0  0  0  0  0  0  0  0  0  # atno 10763 bound_to 10752
  154.6830  135.2971  154.9589 H   0  0  0  0  0  0  0  0  0  0  0  0  # atno 10764 bound_to 10752
  154.0369  135.6722  153.4839 H   0  0  0  0  0  0  0  0  0  0  0  0  # atno 10765 bound_to 10752
  141.1632  133.7443  156.9131 H   0  0  0  0  0  0  0  0  0  0  0  0  # atno 11005 bound_to 11000
  145.8552  140.9507  143.0729 LP  0  0  0  0  0  0  0  0  0  0  0  0  # atno 17320 bound_to 7965
  144.6753  140.0458  143.7480 LP  0  0  0  0  0  0  0  0  0  0  0  0  # atno 17321 bound_to 7965
  139.4813  144.5983  151.7651 LP  0  0  0  0  0  0  0  0  0  0  0  0  # atno 17342 bound_to 10162
  140.5116  144.1016  150.5997 LP  0  0  0  0  0  0  0  0  0  0  0  0  # atno 17343 bound_to 10162
  156.2430  130.6862  151.1574 LP  0  0  0  0  0  0  0  0  0  0  0  0  # atno 17370 bound_to 10713
  157.7267  131.0644  150.5897 LP  0  0  0  0  0  0  0  0  0  0  0  0  # atno 17371 bound_to 10713
  140.1503  134.9234  157.2584 LP  0  0  0  0  0  0  0  0  0  0  0  0  # atno 17394 bound_to 11000
  140.2731  134.3437  155.7367 LP  0  0  0  0  0  0  0  0  0  0  0  0  # atno 17395 bound_to 11000

$$$$
