AV-unprocessed.smi:114|AV-procd|sdf|1108|dock1
  -GOLD-   2262018223D 1   1.00000     0.00000
 Structure written by MMmdl.
 32 34  0  0  0  0  0  0  0  0  1 V2000
  152.2509  139.5063  159.0784 N   0  0  0  0  0  0  0  0  0  0  0  0
  151.9060  139.6704  157.7936 C   0  0  0  0  0  0  0  0  0  0  0  0
  152.7102  139.1479  156.8382 N   0  0  0  0  0  0  0  0  0  0  0  0
  152.4006  139.2871  155.5429 C   0  0  0  0  0  0  0  0  0  0  0  0
  153.2596  138.7316  154.6565 F   0  0  0  0  0  0  0  0  0  0  0  0
  151.3383  139.9139  155.0249 N   0  0  0  0  0  0  0  0  0  0  0  0
  150.5286  140.4444  155.9865 C   0  0  0  0  0  0  0  0  0  0  0  0
  150.7392  140.3636  157.3879 C   0  0  0  0  0  0  0  0  0  0  0  0
  149.7070  141.0057  158.0579 N   0  0  0  0  0  0  0  0  0  0  0  0
  148.9300  141.4368  157.0996 C   0  0  0  0  0  0  0  0  0  0  0  0
  149.3619  141.1584  155.8182 N   0  0  0  0  0  0  0  0  0  0  0  0
  148.7219  141.4805  154.5008 C   0  0  1  0  0  0  0  0  0  0  0  0
  148.6351  140.3117  153.7469 O   0  0  0  0  0  0  0  0  0  0  0  0
  147.3872  139.6815  154.0039 C   0  0  2  0  0  0  0  0  0  0  0  0
  147.0584  138.6943  152.8745 C   0  0  0  0  0  0  0  0  0  0  0  0
  147.1251  139.3505  151.6265 O   0  0  0  0  0  0  0  0  0  0  0  0
  146.4332  140.8775  154.0725 C   0  0  1  0  0  0  0  0  0  0  0  0
  145.3186  140.5695  154.8854 O   0  0  0  0  0  0  0  0  0  0  0  0
  147.2789  141.9783  154.7117 C   0  0  2  0  0  0  0  0  0  0  0  0
  147.0565  143.2132  154.0625 O   0  0  0  0  0  0  0  0  0  0  0  0
  149.3969  142.2052  154.0436 H   0  0  0  0  0  0  0  0  0  0  0  0
  147.4179  139.1755  154.9711 H   0  0  0  0  0  0  0  0  0  0  0  0
  146.1095  141.1617  153.0694 H   0  0  0  0  0  0  0  0  0  0  0  0
  147.0683  142.0834  155.7776 H   0  0  0  0  0  0  0  0  0  0  0  0
  151.6651  139.8870  159.8079 H   0  0  0  0  0  0  0  0  0  0  0  0
  153.0949  139.0050  159.3148 H   0  0  0  0  0  0  0  0  0  0  0  0
  148.0160  141.9728  157.3105 H   0  0  0  0  0  0  0  0  0  0  0  0
  147.7900  137.8858  152.8584 H   0  0  0  0  0  0  0  0  0  0  0  0
  146.0766  138.2412  153.0147 H   0  0  0  0  0  0  0  0  0  0  0  0
  148.0273  139.5689  151.4494 H   0  0  0  0  0  0  0  0  0  0  0  0
  144.5516  140.5238  154.3349 H   0  0  0  0  0  0  0  0  0  0  0  0
  147.7224  143.8222  154.3442 H   0  0  0  0  0  0  0  0  0  0  0  0
  1  2  1  0  0  0  0
  1 25  1  0  0  0  0
  1 26  1  0  0  0  0
  2  8  1  0  0  0  0
  2  3  2  0  0  0  0
  3  4  1  0  0  0  0
  4  5  1  0  0  0  0
  4  6  2  0  0  0  0
  6  7  1  0  0  0  0
  7 11  1  0  0  0  0
  7  8  2  0  0  0  0
  8  9  1  0  0  0  0
  9 10  2  0  0  0  0
 10 11  1  0  0  0  0
 10 27  1  0  0  0  0
 11 12  1  0  0  0  0
 12 21  1  0  0  0  0
 12 19  1  0  0  0  0
 12 13  1  0  0  0  0
 13 14  1  0  0  0  0
 14 22  1  0  0  0  0
 14 15  1  0  0  0  0
 14 17  1  0  0  0  0
 15 16  1  0  0  0  0
 15 28  1  0  0  0  0
 15 29  1  0  0  0  0
 16 30  1  0  0  0  0
 17 23  1  0  0  0  0
 17 18  1  0  0  0  0
 17 19  1  0  0  0  0
 18 31  1  0  0  0  0
 19 24  1  0  0  0  0
 19 20  1  0  0  0  0
 20 32  1  0  0  0  0
M  END
> <s_m_source_file>
AV-unprocessed.smi

> <i_m_source_file_index>
114

> <i_lp_mmshare_version>
43012

> <i_f3d_flags>
0

> <s_epik_input>
RmMobjEpbmMoW05IMl0pYyhjMTIpbltjSF1uMltDQEBIXTNPW0NASF0oW0NIMl1bT0hdKVtDQEBIXShbT0hdKVtDQEBIXTNbT0hd

> <s_epik_cmdline>
J2VwaWtfcHl0aG9uJywgJy1waCcsICc3LjAnLCAnLXRuJywgJzgnLCAnLW1hJywgJzIwMCcsICctbWV0YWxfYmluZGluZycsICctaW1hZScsICc8aW5maWxlLm1hZT4nLCAnLW9tYWUnLCAnPG91dGZpbGUubWFlPic=

> <r_lp_tautomer_probability>
1

> <r_epik_Ionization_Penalty>
1.13199e-05

> <r_epik_Ionization_Penalty_Charging>
0

> <r_epik_Ionization_Penalty_Neutral>
1.13199e-05

> <r_epik_State_Penalty>
-0

> <r_epik_Charging_Adjusted_Penalty>
0

> <i_epik_Tot_Q>
0

> <i_epik_Tot_abs_Q>
0

> <r_epik_Metal_State_Penalty>
-0

> <b_epik_Metal_Only>
0

> <s_epik_Chemistry_Notes>
This compound contains an acetal/aminal-like group ( X-CH(R)-Y where X, Y are N, S, or O) that may be acid/base labile, releasing an aldehyde.

> <s_lp_Force_Field>
OPLS_2005

> <r_lp_Energy>
32.1203

> <b_lp_Chiralities_Consistent>
1

> <s_lp_Variant>
AV-unprocessed.smi:114-2

> <Gold.Version>
5.8.1

> <Gold.Id.Protein>
6NUR|6NUR_protein|mol2

> <Gold.PLP.Fitness>
45.6261

> <Gold.PLP.PLP>
-31.0776

> <Gold.PLP.part.hbond>
-6.0752

> <Gold.PLP.part.metal>
0.0000

> <Gold.PLP.part.buried>
-3.5208

> <Gold.PLP.part.nonpolar>
-23.9347

> <Gold.PLP.part.repulsive>
2.7741

> <Gold.PLP.ligand.clash>
0.0000

> <Gold.PLP.ligand.torsion>
0.2276

> <Gold.PLP.Chemscore.Hbond>
4.9913

> <Gold.PLP.Chemscore.CHOScore>
0.0000

> <Gold.PLP.Chemscore.Metal>
0.0000

> <Gold.Chemscore.Hbonds>
donor molecule, donor type, donor heavy atom, donor atom, acceptor molecule, acceptor atom, score
      L1  H    16    30       P1  7957  1.00
      L1  H    18    31       P1 10175  0.98
      L1  H    20    32       P1  8028  1.00
      P1  H  7989  7998       L1     6  1.00
      P1  H  7997  8009       L1     3  1.00

> <Gold.PLP.Chemscore.Internal.Correction>
0.0299

> <Gold.Rescore>
     Score         DG    S(hbond)    S(metal)    S(lipo)     H(rot)  DE(clash)    DE(int)     intcor
      7.07      -9.72       3.39        0.00      27.66       4.03       1.55       1.10       ----

> <Gold.Chemscore.Fitness>
7.0653

> <Gold.Chemscore.DG>
-9.7181

> <Gold.Chemscore.ZeroCoef>
-5.4800

> <Gold.Chemscore.Hbond>
3.3869

> <Gold.Chemscore.Metal>
0.0000

> <Gold.Chemscore.Lipo>
27.6641

> <Gold.Chemscore.Internal_Hbond>
0.0000

> <Gold.Chemscore.DEClash>
1.5514

> <Gold.Chemscore.DEInternal>
1.1014

> <Gold.Chemscore.Rot>
4.0277

> <Gold.Chemscore.Internal.Correction>
   9.000000E+99

> <Gold.Chemscore.Hbonds>
donor molecule, donor type, donor heavy atom, donor atom, acceptor molecule, acceptor atom, score
      L1  H    16    30       P1  7957  0.98
      L1  H    18    31       P1 10175  0.89
      L1  H    20    32       P1  8028  0.25
      P1  H  7989  7998       L1     6  0.89
      P1  H  7997  8009       L1     3  0.18

> <Gold.Chemscore.Hbond.Weighted>
-11.3124

> <Gold.Chemscore.Metal.Weighted>
-0.0000

> <Gold.Chemscore.Lipo.Weighted>
-3.2367

> <Gold.Chemscore.Internal_Hbond.Weighted>
0.0000

> <Gold.Chemscore.DEClash.Weighted>
1.5514

> <Gold.Chemscore.DEInternal.Weighted>
1.1014

> <Gold.Chemscore.Rot.Weighted>
10.3110

> <Gold.Chemscore.Internal.Correction.Weighted>
   9.000000E+99

> <Gold.Protein.RotatedTorsions>
[ 6907 6896 6895 6894 ] final  168.22 input  -60.11 | X-H torsion
[ 7974 7965 7964 7962 ] final   12.95 input  175.53 | X-H torsion
[ 8008 7997 7996 7995 ] final  162.73 input   59.86 | X-H torsion
[ 10167 10162 10161 10158 ] final  107.70 input  -65.29 | X-H torsion
[ 10718 10713 10712 10709 ] final -132.75 input   66.30 | X-H torsion
[ 10763 10752 10751 10750 ] final   32.06 input  -60.55 | X-H torsion
[ 11005 11000 10999 10996 ] final   74.11 input  -57.11 | X-H torsion

> <Gold.Protein.ActiveResidues>
 VAL166  LYS551  ARG553  GLY616  TRP617  ASP618  TYR619  PRO620  LYS621  CYS622 
 ASP623  PHE694  ASN695  SER759  ASP760  ASP761  ALA762  ILE779  LEU786  VAL792 
 PHE793  MET794  SER795  GLU796  ALA797  LYS798  CYS799  TRP800  GLU811  SER814 

> <Gold.Protein.RotatedAtoms>
  151.8511  133.3440  159.3673 H   0  0  0  0  0  0  0  0  0  0  0  0  # atno 6907 bound_to 6896
  150.7206  134.5298  159.5704 H   0  0  0  0  0  0  0  0  0  0  0  0  # atno 6908 bound_to 6896
  152.2792  134.7848  160.0451 H   0  0  0  0  0  0  0  0  0  0  0  0  # atno 6909 bound_to 6896
  146.2340  139.9261  142.8503 H   0  0  0  0  0  0  0  0  0  0  0  0  # atno 7974 bound_to 7965
  156.2010  140.1742  156.7899 H   0  0  0  0  0  0  0  0  0  0  0  0  # atno 8008 bound_to 7997
  154.5591  140.0703  156.8822 H   0  0  0  0  0  0  0  0  0  0  0  0  # atno 8009 bound_to 7997
  155.2881  140.3353  155.4256 H   0  0  0  0  0  0  0  0  0  0  0  0  # atno 8010 bound_to 7997
  139.6906  144.7108  151.1355 H   0  0  0  0  0  0  0  0  0  0  0  0  # atno 10167 bound_to 10162
  156.2377  130.7077  151.0925 H   0  0  0  0  0  0  0  0  0  0  0  0  # atno 10718 bound_to 10713
  153.0282  135.6423  154.1296 H   0  0  0  0  0  0  0  0  0  0  0  0  # atno 10763 bound_to 10752
  154.1022  135.2859  155.3250 H   0  0  0  0  0  0  0  0  0  0  0  0  # atno 10764 bound_to 10752
  154.6390  135.5466  153.7831 H   0  0  0  0  0  0  0  0  0  0  0  0  # atno 10765 bound_to 10752
  139.9407  134.7404  156.1108 H   0  0  0  0  0  0  0  0  0  0  0  0  # atno 11005 bound_to 11000
  145.2089  140.9887  143.4112 LP  0  0  0  0  0  0  0  0  0  0  0  0  # atno 17320 bound_to 7965
  144.9708  139.3882  143.6310 LP  0  0  0  0  0  0  0  0  0  0  0  0  # atno 17321 bound_to 7965
  140.7681  143.5565  150.9146 LP  0  0  0  0  0  0  0  0  0  0  0  0  # atno 17342 bound_to 10162
  139.9242  143.6569  152.3090 LP  0  0  0  0  0  0  0  0  0  0  0  0  # atno 17343 bound_to 10162
  157.7162  131.0708  150.6318 LP  0  0  0  0  0  0  0  0  0  0  0  0  # atno 17370 bound_to 10713
  156.6390  130.4453  149.5759 LP  0  0  0  0  0  0  0  0  0  0  0  0  # atno 17371 bound_to 10713
  141.1040  133.6667  156.2820 LP  0  0  0  0  0  0  0  0  0  0  0  0  # atno 17394 bound_to 11000
  140.5959  134.5603  157.5508 LP  0  0  0  0  0  0  0  0  0  0  0  0  # atno 17395 bound_to 11000

$$$$
