AV-unprocessed.smi:2592|AV-procd|sdf|10161|dock5
  -GOLD-   2272014173D 1   1.00000     0.00000
 Structure written by MMmdl.
 42 43  0  0  0  0  0  0  0  0  3 V2000
  151.7538  144.2262  158.0486 C   0  0  0  0  0  0  0  0  0  0  0  0
  151.6146  142.7698  157.7281 C   0  0  0  0  0  0  0  0  0  0  0  0
  151.0685  142.3802  156.5024 N   0  0  0  0  0  0  0  0  0  0  0  0
  151.0096  141.0550  156.3384 C   0  0  0  0  0  0  0  0  0  0  0  0
  150.5162  140.4738  155.2327 N   0  5  0  0  0  0  0  0  0  0  0  0
  149.1861  140.2614  155.1167 C   0  0  0  0  0  0  0  0  0  0  0  0
  148.3706  140.2057  156.0403 O   0  0  0  0  0  0  0  0  0  0  0  0
  148.7723  140.1125  153.8500 N   0  0  0  0  0  0  0  0  0  0  0  0
  147.3944  139.8984  153.4219 C   0  0  0  0  0  0  0  0  0  0  0  0
  146.9330  138.4616  153.7156 C   0  0  0  0  0  0  0  0  0  0  0  0
  145.8418  137.9853  152.7437 C   0  0  0  0  0  0  0  0  0  0  0  0
  146.0167  136.5639  152.3540 N   0  3  0  0  0  0  0  0  0  0  0  0
  145.9191  135.6433  153.5120 C   0  0  0  0  0  0  0  0  0  0  0  0
  146.1608  134.1904  153.0682 C   0  0  0  0  0  0  0  0  0  0  0  0
  145.2296  133.8408  152.0523 O   0  0  0  0  0  0  0  0  0  0  0  0
  145.3703  134.6595  150.8980 C   0  0  0  0  0  0  0  0  0  0  0  0
  145.1027  136.1279  151.2687 C   0  0  0  0  0  0  0  0  0  0  0  0
  151.6288  140.1905  157.7457 S   0  0  0  0  0  0  0  0  0  0  0  0
  151.9720  141.7113  158.5260 C   0  0  0  0  0  0  0  0  0  0  0  0
  152.5796  141.7556  159.8884 C   0  0  0  0  0  0  0  0  0  0  0  0
  151.0856  144.5139  158.8604 H   0  0  0  0  0  0  0  0  0  0  0  0
  151.5162  144.8534  157.1886 H   0  0  0  0  0  0  0  0  0  0  0  0
  152.7718  144.4650  158.3567 H   0  0  0  0  0  0  0  0  0  0  0  0
  149.4746  140.1603  153.1262 H   0  0  0  0  0  0  0  0  0  0  0  0
  146.7625  140.6097  153.9539 H   0  0  0  0  0  0  0  0  0  0  0  0
  147.2930  140.1265  152.3595 H   0  0  0  0  0  0  0  0  0  0  0  0
  147.7939  137.7957  153.6649 H   0  0  0  0  0  0  0  0  0  0  0  0
  146.5587  138.4050  154.7385 H   0  0  0  0  0  0  0  0  0  0  0  0
  144.8760  138.1018  153.2378 H   0  0  0  0  0  0  0  0  0  0  0  0
  145.8121  138.6159  151.8537 H   0  0  0  0  0  0  0  0  0  0  0  0
  146.6530  135.9201  154.2699 H   0  0  0  0  0  0  0  0  0  0  0  0
  144.9332  135.7357  153.9702 H   0  0  0  0  0  0  0  0  0  0  0  0
  147.1814  134.0575  152.7059 H   0  0  0  0  0  0  0  0  0  0  0  0
  146.0322  133.5133  153.9130 H   0  0  0  0  0  0  0  0  0  0  0  0
  146.3678  134.5409  150.4716 H   0  0  0  0  0  0  0  0  0  0  0  0
  144.6595  134.3275  150.1411 H   0  0  0  0  0  0  0  0  0  0  0  0
  144.0669  136.2471  151.5906 H   0  0  0  0  0  0  0  0  0  0  0  0
  145.2350  136.7484  150.3834 H   0  0  0  0  0  0  0  0  0  0  0  0
  153.6293  142.0443  159.8319 H   0  0  0  0  0  0  0  0  0  0  0  0
  152.5227  140.7828  160.3771 H   0  0  0  0  0  0  0  0  0  0  0  0
  152.0635  142.4783  160.5207 H   0  0  0  0  0  0  0  0  0  0  0  0
  146.9590  136.4765  152.0007 H   0  0  0  0  0  0  0  0  0  0  0  0
  1  2  1  0  0  0  0
  1 21  1  0  0  0  0
  1 22  1  0  0  0  0
  1 23  1  0  0  0  0
  2 19  2  0  0  0  0
  2  3  1  0  0  0  0
  3  4  2  0  0  0  0
  4  5  1  0  0  0  0
  4 18  1  0  0  0  0
  5  6  1  0  0  0  0
  6  7  2  0  0  0  0
  6  8  1  0  0  0  0
  8  9  1  0  0  0  0
  8 24  1  0  0  0  0
  9 10  1  0  0  0  0
  9 25  1  0  0  0  0
  9 26  1  0  0  0  0
 10 11  1  0  0  0  0
 10 27  1  0  0  0  0
 10 28  1  0  0  0  0
 11 12  1  0  0  0  0
 11 29  1  0  0  0  0
 11 30  1  0  0  0  0
 12 17  1  0  0  0  0
 12 13  1  0  0  0  0
 12 42  1  0  0  0  0
 13 14  1  0  0  0  0
 13 31  1  0  0  0  0
 13 32  1  0  0  0  0
 14 15  1  0  0  0  0
 14 33  1  0  0  0  0
 14 34  1  0  0  0  0
 15 16  1  0  0  0  0
 16 17  1  0  0  0  0
 16 35  1  0  0  0  0
 16 36  1  0  0  0  0
 17 37  1  0  0  0  0
 17 38  1  0  0  0  0
 18 19  1  0  0  0  0
 19 20  1  0  0  0  0
 20 39  1  0  0  0  0
 20 40  1  0  0  0  0
 20 41  1  0  0  0  0
M  CHG  1   5  -1
M  CHG  1  12   1
M  END
> <s_m_source_file>
AV-unprocessed.smi

> <i_m_source_file_index>
2592

> <i_lp_mmshare_version>
43012

> <i_f3d_flags>
0

> <s_epik_input>
W0NIM11jMW5jKHNjMVtDSDNdKVtOSF1DKD1PKVtOSF1bQ0gyXVtDSDJdW0NIMl1OMltDSDJdW0NIMl1PW0NIMl1bQ0gyXTI=

> <s_epik_cmdline>
J2VwaWtfcHl0aG9uJywgJy1waCcsICc3LjAnLCAnLXRuJywgJzgnLCAnLW1hJywgJzIwMCcsICctbWV0YWxfYmluZGluZycsICctaW1hZScsICc8aW5maWxlLm1hZT4nLCAnLW9tYWUnLCAnPG91dGZpbGUubWFlPic=

> <r_lp_tautomer_probability>
0.999

> <r_epik_Ionization_Penalty>
7.73516

> <r_epik_Ionization_Penalty_Charging>
6.31615

> <r_epik_Ionization_Penalty_Neutral>
1.41901

> <r_epik_State_Penalty>
6.31054

> <r_epik_Charging_Adjusted_Penalty>
12.6267

> <i_epik_Tot_Q>
0

> <i_epik_Tot_abs_Q>
2

> <r_epik_Metal_State_Penalty>
2.25864

> <b_epik_Metal_Only>
1

> <s_lp_Force_Field>
OPLS_2005

> <r_lp_Energy>
6.70997

> <b_lp_Chiralities_Consistent>
1

> <s_lp_Variant>
AV-unprocessed.smi:2592-3

> <Gold.Version>
5.8.1

> <Gold.Id.Protein>
6NUR|6NUR_protein|mol2

> <Gold.PLP.Fitness>
43.1267

> <Gold.PLP.PLP>
-34.6021

> <Gold.PLP.part.hbond>
-3.0000

> <Gold.PLP.part.metal>
0.0000

> <Gold.PLP.part.buried>
-4.0915

> <Gold.PLP.part.nonpolar>
-27.4783

> <Gold.PLP.part.repulsive>
0.4748

> <Gold.PLP.ligand.clash>
0.0000

> <Gold.PLP.ligand.torsion>
1.3904

> <Gold.PLP.Chemscore.Hbond>
3.7440

> <Gold.PLP.Chemscore.CHOScore>
0.0000

> <Gold.PLP.Chemscore.Metal>
0.0000

> <Gold.Chemscore.Hbonds>
donor molecule, donor type, donor heavy atom, donor atom, acceptor molecule, acceptor atom, score
      L1  H     8    24       P1  7957  0.78
      L1  H    12    42       P1  7948  2.00
      P1  H  7989  7998       L1     5  0.83

> <Gold.PLP.Chemscore.Internal.Correction>
0.0734

> <Gold.Rescore>
     Score         DG    S(hbond)    S(metal)    S(lipo)     H(rot)  DE(clash)    DE(int)     intcor
     17.71     -19.32       2.60        0.00      81.65       1.72       0.14       1.47       ----

> <Gold.Chemscore.Fitness>
17.7099

> <Gold.Chemscore.DG>
-19.3220

> <Gold.Chemscore.ZeroCoef>
-5.4800

> <Gold.Chemscore.Hbond>
2.5988

> <Gold.Chemscore.Metal>
0.0000

> <Gold.Chemscore.Lipo>
81.6529

> <Gold.Chemscore.Internal_Hbond>
0.0000

> <Gold.Chemscore.DEClash>
0.1410

> <Gold.Chemscore.DEInternal>
1.4711

> <Gold.Chemscore.Rot>
1.7154

> <Gold.Chemscore.Internal.Correction>
   9.000000E+99

> <Gold.Chemscore.Hbonds>
donor molecule, donor type, donor heavy atom, donor atom, acceptor molecule, acceptor atom, score
      L1  H     8    24       P1  7957  0.78
      L1  H    12    42       P1  7948  0.97
      P1  H  7989  7998       L1     5  0.64

> <Gold.Chemscore.Hbond.Weighted>
-8.6799

> <Gold.Chemscore.Metal.Weighted>
-0.0000

> <Gold.Chemscore.Lipo.Weighted>
-9.5534

> <Gold.Chemscore.Internal_Hbond.Weighted>
0.0000

> <Gold.Chemscore.DEClash.Weighted>
0.1410

> <Gold.Chemscore.DEInternal.Weighted>
1.4711

> <Gold.Chemscore.Rot.Weighted>
4.3914

> <Gold.Chemscore.Internal.Correction.Weighted>
   9.000000E+99

> <Gold.Protein.RotatedTorsions>
[ 6907 6896 6895 6894 ] final    3.12 input  -60.11 | X-H torsion
[ 7974 7965 7964 7962 ] final  -46.21 input  175.53 | X-H torsion
[ 8008 7997 7996 7995 ] final   98.44 input   59.86 | X-H torsion
[ 10167 10162 10161 10158 ] final   97.93 input  -65.29 | X-H torsion
[ 10718 10713 10712 10709 ] final -177.17 input   66.30 | X-H torsion
[ 10763 10752 10751 10750 ] final   65.01 input  -60.55 | X-H torsion
[ 11005 11000 10999 10996 ] final    8.11 input  -57.11 | X-H torsion

> <Gold.Protein.ActiveResidues>
 VAL166  LYS551  ARG553  GLY616  TRP617  ASP618  TYR619  PRO620  LYS621  CYS622 
 ASP623  PHE694  ASN695  SER759  ASP760  ASP761  ALA762  ILE779  LEU786  VAL792 
 PHE793  MET794  SER795  GLU796  ALA797  LYS798  CYS799  TRP800  GLU811  SER814 

> <Gold.Protein.RotatedAtoms>
  151.6200  135.1033  160.0099 H   0  0  0  0  0  0  0  0  0  0  0  0  # atno 6907 bound_to 6896
  152.4163  133.7039  159.6450 H   0  0  0  0  0  0  0  0  0  0  0  0  # atno 6908 bound_to 6896
  150.8051  133.8451  159.3231 H   0  0  0  0  0  0  0  0  0  0  0  0  # atno 6909 bound_to 6896
  145.9743  140.7351  142.9395 H   0  0  0  0  0  0  0  0  0  0  0  0  # atno 7974 bound_to 7965
  156.1004  140.3244  155.7934 H   0  0  0  0  0  0  0  0  0  0  0  0  # atno 8008 bound_to 7997
  155.4846  140.0556  157.2979 H   0  0  0  0  0  0  0  0  0  0  0  0  # atno 8009 bound_to 7997
  154.4693  140.2004  156.0051 H   0  0  0  0  0  0  0  0  0  0  0  0  # atno 8010 bound_to 7997
  139.7756  144.6907  151.0094 H   0  0  0  0  0  0  0  0  0  0  0  0  # atno 10167 bound_to 10162
  156.8255  130.9635  151.3109 H   0  0  0  0  0  0  0  0  0  0  0  0  # atno 10718 bound_to 10713
  153.0078  135.5372  154.6599 H   0  0  0  0  0  0  0  0  0  0  0  0  # atno 10763 bound_to 10752
  154.5810  135.2850  155.0734 H   0  0  0  0  0  0  0  0  0  0  0  0  # atno 10764 bound_to 10752
  154.1863  135.6507  153.5100 H   0  0  0  0  0  0  0  0  0  0  0  0  # atno 10765 bound_to 10752
  140.5407  134.0377  155.7903 H   0  0  0  0  0  0  0  0  0  0  0  0  # atno 11005 bound_to 11000
  144.6844  140.2801  143.7293 LP  0  0  0  0  0  0  0  0  0  0  0  0  # atno 17320 bound_to 7965
  145.7862  139.1909  143.2129 LP  0  0  0  0  0  0  0  0  0  0  0  0  # atno 17321 bound_to 7965
  140.7816  143.4540  151.0372 LP  0  0  0  0  0  0  0  0  0  0  0  0  # atno 17342 bound_to 10162
  139.8222  143.7804  152.3177 LP  0  0  0  0  0  0  0  0  0  0  0  0  # atno 17343 bound_to 10162
  157.6434  130.8824  149.9492 LP  0  0  0  0  0  0  0  0  0  0  0  0  # atno 17370 bound_to 10713
  156.0964  130.3659  150.0298 LP  0  0  0  0  0  0  0  0  0  0  0  0  # atno 17371 bound_to 10713
  141.1229  133.9432  157.2694 LP  0  0  0  0  0  0  0  0  0  0  0  0  # atno 17394 bound_to 11000
  139.9505  135.0176  156.8980 LP  0  0  0  0  0  0  0  0  0  0  0  0  # atno 17395 bound_to 11000

$$$$
