#       Name:                AV-unprocessed.smi:1843
#       Creating user name   scv26
#       Creation time:       Fri Mar 27 09:21:11 2020


#       File generated by GOLD software.
#

@<TRIPOS>MOLECULE
AV-unprocessed.smi:1843
    43    45     1
SMALL
NO_CHARGES


@<TRIPOS>ATOM
      1 ****         0.6047   1.0626   0.1459 O.2            1 S1                 0.0000
      2 ****        -0.0062   0.1095   0.6348 C.2            1 S1                 0.0000
      3 ****         0.5429  -1.0075   1.1639 N.pl3          1 S1                -1.0000
      4 ****         1.8782  -1.1510   1.1921 C.2            1 S1                 0.0000
      5 ****         2.6048  -0.8980   2.2898 N.2            1 S1                 0.0000
      6 ****         3.9628  -1.1134   2.1053 N.2            1 S1                 0.0000
      7 ****         4.2425  -1.5379   0.8708 C.2            1 S1                 0.0000
      8 ****         5.6341  -1.8419   0.4265 C.3            1 S1                 0.0000
      9 ****         5.9298  -2.9694  -0.5383 C.3            1 S1                 0.0000
     10 ****         6.3442  -3.0871   0.9061 C.3            1 S1                 0.0000
     11 ****         2.8421  -1.7060  -0.1761 S.3            1 S1                 0.0000
     12 ****        -1.3465   0.1191   0.6693 N.am           1 S1                 0.0000
     13 ****        -2.2153   1.1786   0.1593 C.3            1 S1                 0.0000
     14 ****        -3.5953   1.1170   0.8421 C.3            1 S1                 0.0000
     15 ****        -4.5215   2.2293   0.3249 C.3            1 S1                 0.0000
     16 ****        -4.6647   2.1717  -1.2043 C.3            1 S1                 0.0000
     17 ****        -3.2926   2.2200  -1.9014 C.3            1 S1                 0.0000
     18 ****        -2.3368   1.1273  -1.3839 C.3            1 S1                 0.0000
     19 ****        -2.8058  -0.1384  -1.8117 O.3            1 S1                 0.0000
     20 ****         6.2151  -0.9267   0.3312 H              1 S1                 0.0000
     21 ****         5.1029  -3.5941  -0.8702 H              1 S1                 0.0000
     22 ****         6.7139  -2.8054  -1.2745 H              1 S1                 0.0000
     23 ****         7.4046  -3.0035   1.1343 H              1 S1                 0.0000
     24 ****         5.7848  -3.7795   1.5320 H              1 S1                 0.0000
     25 ****        -1.8025  -0.6812   1.0820 H              1 S1                 0.0000
     26 ****        -1.7675   2.1367   0.4303 H              1 S1                 0.0000
     27 ****        -4.0578   0.1450   0.6655 H              1 S1                 0.0000
     28 ****        -3.4804   1.2109   1.9226 H              1 S1                 0.0000
     29 ****        -5.5021   2.1435   0.7936 H              1 S1                 0.0000
     30 ****        -4.1230   3.2014   0.6179 H              1 S1                 0.0000
     31 ****        -5.1887   1.2577  -1.4867 H              1 S1                 0.0000
     32 ****        -5.2845   2.9991  -1.5505 H              1 S1                 0.0000
     33 ****        -3.4178   2.1322  -2.9812 H              1 S1                 0.0000
     34 ****        -2.8416   3.1977  -1.7270 H              1 S1                 0.0000
     35 ****        -1.3554   1.2771  -1.8352 H              1 S1                 0.0000
     36 ****        -2.2025  -0.7961  -1.4992 H              1 S1                 0.0000
     37 ****         1.6042   1.0534   0.1158 LP             1 S1                 0.0000
     38 ****         0.1006   1.8447  -0.2204 LP             1 S1                 0.0000
     39 ****        -0.0451  -1.7266   1.5341 LP             1 S1                 0.0000
     40 ****         2.2086  -0.5859   3.1533 LP             1 S1                 0.0000
     41 ****         4.6523  -0.9676   2.8148 LP             1 S1                 0.0000
     42 ****        -2.8481  -0.1644  -2.8105 LP             1 S1                 0.0000
     43 ****        -3.7165  -0.3075  -1.4350 LP             1 S1                 0.0000
@<TRIPOS>BOND
    1    1    2 2     
    2    2    3 1     
    3    2   12 am    
    4    3    4 1     
    5    4   11 1     
    6    4    5 2     
    7    5    6 1     
    8    6    7 2     
    9    7    8 1     
   10    7   11 1     
   11    8   10 1     
   12    8    9 1     
   13    8   20 1     
   14    9   10 1     
   15    9   21 1     
   16    9   22 1     
   17   10   23 1     
   18   10   24 1     
   19   12   13 1     
   20   12   25 1     
   21   13   18 1     
   22   13   14 1     
   23   13   26 1     
   24   14   15 1     
   25   14   27 1     
   26   14   28 1     
   27   15   16 1     
   28   15   29 1     
   29   15   30 1     
   30   16   17 1     
   31   16   31 1     
   32   16   32 1     
   33   17   18 1     
   34   17   33 1     
   35   17   34 1     
   36   18   19 1     
   37   18   35 1     
   38   19   36 1     
   39    1   37 1     
   40    1   38 1     
   41    3   39 1     
   42    5   40 1     
   43    6   41 1     
   44   19   42 1     
   45   19   43 1     
@<TRIPOS>SUBSTRUCTURE
      1 S1             1
@<TRIPOS>SET
LONE_PAIRS      STATIC     ATOMS    <user>   **** ""
7 37 38 39 40 41 42 43
DONOR_HYDROGENS      STATIC     ATOMS    <user>   **** ""
2 25 36
ATOM$BLUE        STATIC     ATOMS    COLORGROUP SYSTEM
7 37 38 39 40 41 42 43
ATOM$RED        STATIC     ATOMS    COLORGROUP SYSTEM
2 25 36
