AV-unprocessed.smi:3314|AV-procd|sdf|12738|dock9
  -GOLD-   2272019 83D 1   1.00000     0.00000
 Structure written by MMmdl.
 38 39  0  0  0  0  0  0  0  0  2 V2000
  151.4105  145.5118  159.6654 C   0  0  0  0  0  0  0  0  0  0  0  0
  151.8698  144.1102  159.3190 C   0  0  0  0  0  0  0  0  0  0  0  0
  152.8822  143.4480  160.1235 C   0  0  0  0  0  0  0  0  0  0  0  0
  153.2728  142.2033  159.8027 C   0  0  0  0  0  0  0  0  0  0  0  0
  154.3224  141.4365  160.5800 C   0  0  0  0  0  0  0  0  0  0  0  0
  152.7208  141.5415  158.7125 N   0  0  0  0  0  0  0  0  0  0  0  0
  151.7448  142.1167  157.8798 C   0  0  0  0  0  0  0  0  0  0  0  0
  151.2063  141.5475  156.8407 N   0  0  0  0  0  0  0  0  0  0  0  0
  151.5353  140.2580  156.4310 C   0  0  0  0  0  0  0  0  0  0  0  0
  152.5610  139.6087  156.6553 O   0  0  0  0  0  0  0  0  0  0  0  0
  150.4139  139.6313  155.5741 C   0  0  1  0  0  0  0  0  0  0  0  0
  149.0869  139.3680  156.3267 C   0  0  0  0  0  0  0  0  0  0  0  0
  148.3787  140.6346  156.6298 N   0  3  2  0  0  0  0  0  0  0  0  0
  147.1312  140.4218  157.3938 C   0  0  0  0  0  0  0  0  0  0  0  0
  148.1654  141.4262  155.3973 C   0  0  0  0  0  0  0  0  0  0  0  0
  149.5035  141.6750  154.6836 C   0  0  0  0  0  0  0  0  0  0  0  0
  150.1428  140.4275  154.4151 O   0  0  0  0  0  0  0  0  0  0  0  0
  151.3398  143.4630  158.2543 C   0  0  0  0  0  0  0  0  0  0  0  0
  151.9211  145.8870  160.5527 H   0  0  0  0  0  0  0  0  0  0  0  0
  150.3378  145.5220  159.8608 H   0  0  0  0  0  0  0  0  0  0  0  0
  151.6167  146.1934  158.8400 H   0  0  0  0  0  0  0  0  0  0  0  0
  153.3204  143.9522  160.9727 H   0  0  0  0  0  0  0  0  0  0  0  0
  155.2710  141.9737  160.5623 H   0  0  0  0  0  0  0  0  0  0  0  0
  154.4866  140.4427  160.1614 H   0  0  0  0  0  0  0  0  0  0  0  0
  154.0133  141.3215  161.6193 H   0  0  0  0  0  0  0  0  0  0  0  0
  150.7968  138.6726  155.2220 H   0  0  0  0  0  0  0  0  0  0  0  0
  148.4421  138.7358  155.7140 H   0  0  0  0  0  0  0  0  0  0  0  0
  149.2712  138.8152  157.2492 H   0  0  0  0  0  0  0  0  0  0  0  0
  146.4128  139.8364  156.8182 H   0  0  0  0  0  0  0  0  0  0  0  0
  146.6691  141.3761  157.6488 H   0  0  0  0  0  0  0  0  0  0  0  0
  147.3367  139.8926  158.3247 H   0  0  0  0  0  0  0  0  0  0  0  0
  147.4819  140.8939  154.7337 H   0  0  0  0  0  0  0  0  0  0  0  0
  147.6960  142.3786  155.6458 H   0  0  0  0  0  0  0  0  0  0  0  0
  149.3319  142.1891  153.7380 H   0  0  0  0  0  0  0  0  0  0  0  0
  150.1460  142.3261  155.2772 H   0  0  0  0  0  0  0  0  0  0  0  0
  150.5904  143.9873  157.6785 H   0  0  0  0  0  0  0  0  0  0  0  0
  153.0713  140.6107  158.5369 H   0  0  0  0  0  0  0  0  0  0  0  0
  148.9922  141.1765  157.2220 H   0  0  0  0  0  0  0  0  0  0  0  0
  1  2  1  0  0  0  0
  1 19  1  0  0  0  0
  1 20  1  0  0  0  0
  1 21  1  0  0  0  0
  2 18  2  0  0  0  0
  2  3  1  0  0  0  0
  3  4  2  0  0  0  0
  3 22  1  0  0  0  0
  4  5  1  0  0  0  0
  4  6  1  0  0  0  0
  5 23  1  0  0  0  0
  5 24  1  0  0  0  0
  5 25  1  0  0  0  0
  6  7  1  0  0  0  0
  6 37  1  0  0  0  0
  7  8  2  0  0  0  0
  7 18  1  0  0  0  0
  8  9  1  0  0  0  0
  9 10  2  0  0  0  0
  9 11  1  0  0  0  0
 11 17  1  0  0  0  0
 11 12  1  0  0  0  0
 11 26  1  0  0  0  0
 12 13  1  0  0  0  0
 12 27  1  0  0  0  0
 12 28  1  0  0  0  0
 13 14  1  0  0  0  0
 13 15  1  0  0  0  0
 13 38  1  0  0  0  0
 14 29  1  0  0  0  0
 14 30  1  0  0  0  0
 14 31  1  0  0  0  0
 15 16  1  0  0  0  0
 15 32  1  0  0  0  0
 15 33  1  0  0  0  0
 16 17  1  0  0  0  0
 16 34  1  0  0  0  0
 16 35  1  0  0  0  0
 18 36  1  0  0  0  0
M  CHG  1  13   1
M  END
> <s_m_source_file>
AV-unprocessed.smi

> <i_m_source_file_index>
3314

> <i_lp_mmshare_version>
43012

> <i_f3d_flags>
0

> <s_epik_input>
W0NIM11jMVtjSF1jKFtDSDNdKW5jKFtjSF0xKVtOSF1DKD1PKVtDQEBIXTJbQ0gyXU4oW0NIM10pW0NIMl1bQ0gyXU8y

> <s_epik_cmdline>
J2VwaWtfcHl0aG9uJywgJy1waCcsICc3LjAnLCAnLXRuJywgJzgnLCAnLW1hJywgJzIwMCcsICctbWV0YWxfYmluZGluZycsICctaW1hZScsICc8aW5maWxlLm1hZT4nLCAnLW9tYWUnLCAnPG91dGZpbGUubWFlPic=

> <r_epik_Ionization_Penalty>
0.519783

> <r_epik_Ionization_Penalty_Charging>
0.519783

> <r_epik_Ionization_Penalty_Neutral>
1.74183e-13

> <r_epik_State_Penalty>
2.39351

> <r_epik_Charging_Adjusted_Penalty>
2.91329

> <i_epik_Tot_Q>
1

> <i_epik_Tot_abs_Q>
1

> <r_epik_Metal_State_Penalty>
2.41924

> <b_epik_Metal_Only>
0

> <s_lp_Force_Field>
OPLS_2005

> <r_lp_Energy>
32.167

> <b_lp_Chiralities_Consistent>
1

> <s_lp_Variant>
AV-unprocessed.smi:3314-8

> <Gold.Version>
5.8.1

> <Gold.Id.Protein>
6NUR|6NUR_protein|mol2

> <Gold.PLP.Fitness>
41.2388

> <Gold.PLP.PLP>
-35.7323

> <Gold.PLP.part.hbond>
-2.0000

> <Gold.PLP.part.metal>
0.0000

> <Gold.PLP.part.buried>
-3.5452

> <Gold.PLP.part.nonpolar>
-29.5088

> <Gold.PLP.part.repulsive>
0.2751

> <Gold.PLP.ligand.clash>
0.0000

> <Gold.PLP.ligand.torsion>
0.1489

> <Gold.PLP.Chemscore.Hbond>
1.9280

> <Gold.PLP.Chemscore.CHOScore>
0.0000

> <Gold.PLP.Chemscore.Metal>
0.0000

> <Gold.Chemscore.Hbonds>
donor molecule, donor type, donor heavy atom, donor atom, acceptor molecule, acceptor atom, score
      P1  H  7989  7998       L1    17  0.93
      P1  H  7997  8009       L1    10  1.00

> <Gold.PLP.Chemscore.Internal.Correction>
0.0203

> <Gold.Rescore>
     Score         DG    S(hbond)    S(metal)    S(lipo)     H(rot)  DE(clash)    DE(int)     intcor
     15.55     -18.56       1.63        0.00      87.22       1.00       0.06       2.94       ----

> <Gold.Chemscore.Fitness>
15.5519

> <Gold.Chemscore.DG>
-18.5568

> <Gold.Chemscore.ZeroCoef>
-5.4800

> <Gold.Chemscore.Hbond>
1.6262

> <Gold.Chemscore.Metal>
0.0000

> <Gold.Chemscore.Lipo>
87.2250

> <Gold.Chemscore.Internal_Hbond>
0.0000

> <Gold.Chemscore.DEClash>
0.0623

> <Gold.Chemscore.DEInternal>
2.9426

> <Gold.Chemscore.Rot>
1.0000

> <Gold.Chemscore.Internal.Correction>
   9.000000E+99

> <Gold.Chemscore.Hbonds>
donor molecule, donor type, donor heavy atom, donor atom, acceptor molecule, acceptor atom, score
      P1  H  7989  7998       L1    17  0.35
      P1  H  7997  8009       L1    10  0.99

> <Gold.Chemscore.Hbond.Weighted>
-5.4315

> <Gold.Chemscore.Metal.Weighted>
-0.0000

> <Gold.Chemscore.Lipo.Weighted>
-10.2053

> <Gold.Chemscore.Internal_Hbond.Weighted>
0.0000

> <Gold.Chemscore.DEClash.Weighted>
0.0623

> <Gold.Chemscore.DEInternal.Weighted>
2.9426

> <Gold.Chemscore.Rot.Weighted>
2.5600

> <Gold.Chemscore.Internal.Correction.Weighted>
   9.000000E+99

> <Gold.Protein.RotatedTorsions>
[ 6907 6896 6895 6894 ] final -102.39 input  -60.11 | X-H torsion
[ 7974 7965 7964 7962 ] final    0.99 input  175.53 | X-H torsion
[ 8008 7997 7996 7995 ] final -157.73 input   59.86 | X-H torsion
[ 10167 10162 10161 10158 ] final  105.33 input  -65.29 | X-H torsion
[ 10718 10713 10712 10709 ] final  -45.27 input   66.30 | X-H torsion
[ 10763 10752 10751 10750 ] final  -10.24 input  -60.55 | X-H torsion
[ 11005 11000 10999 10996 ] final -152.61 input  -57.11 | X-H torsion

> <Gold.Protein.ActiveResidues>
 VAL166  LYS551  ARG553  GLY616  TRP617  ASP618  TYR619  PRO620  LYS621  CYS622 
 ASP623  PHE694  ASN695  SER759  ASP760  ASP761  ALA762  ILE779  LEU786  VAL792 
 PHE793  MET794  SER795  GLU796  ALA797  LYS798  CYS799  TRP800  GLU811  SER814 

> <Gold.Protein.RotatedAtoms>
  150.7194  134.0589  159.3824 H   0  0  0  0  0  0  0  0  0  0  0  0  # atno 6907 bound_to 6896
  151.8568  135.0536  160.0474 H   0  0  0  0  0  0  0  0  0  0  0  0  # atno 6908 bound_to 6896
  152.2748  133.5379  159.5497 H   0  0  0  0  0  0  0  0  0  0  0  0  # atno 6909 bound_to 6896
  146.2438  140.1054  142.8346 H   0  0  0  0  0  0  0  0  0  0  0  0  # atno 7974 bound_to 7965
  155.7369  140.0809  157.2263 H   0  0  0  0  0  0  0  0  0  0  0  0  # atno 8008 bound_to 7997
  154.4026  140.1585  156.2627 H   0  0  0  0  0  0  0  0  0  0  0  0  # atno 8009 bound_to 7997
  155.9057  140.3407  155.6063 H   0  0  0  0  0  0  0  0  0  0  0  0  # atno 8010 bound_to 7997
  139.7101  144.7079  151.1041 H   0  0  0  0  0  0  0  0  0  0  0  0  # atno 10167 bound_to 10162
  156.2300  130.4172  149.8886 H   0  0  0  0  0  0  0  0  0  0  0  0  # atno 10718 bound_to 10713
  153.4664  135.7016  153.6020 H   0  0  0  0  0  0  0  0  0  0  0  0  # atno 10763 bound_to 10752
  153.4292  135.3806  155.2160 H   0  0  0  0  0  0  0  0  0  0  0  0  # atno 10764 bound_to 10752
  154.8726  135.3946  154.4096 H   0  0  0  0  0  0  0  0  0  0  0  0  # atno 10765 bound_to 10752
  140.7171  134.3769  157.5189 H   0  0  0  0  0  0  0  0  0  0  0  0  # atno 11005 bound_to 11000
  145.0532  140.9033  143.4983 LP  0  0  0  0  0  0  0  0  0  0  0  0  # atno 17320 bound_to 7965
  145.1156  139.2728  143.5615 LP  0  0  0  0  0  0  0  0  0  0  0  0  # atno 17321 bound_to 7965
  140.7731  143.5304  150.9430 LP  0  0  0  0  0  0  0  0  0  0  0  0  # atno 17342 bound_to 10162
  139.8989  143.6860  152.3134 LP  0  0  0  0  0  0  0  0  0  0  0  0  # atno 17343 bound_to 10162
  156.6504  130.8741  151.3530 LP  0  0  0  0  0  0  0  0  0  0  0  0  # atno 17370 bound_to 10713
  157.7128  130.9461  150.1150 LP  0  0  0  0  0  0  0  0  0  0  0  0  # atno 17371 bound_to 10713
  139.8857  134.8929  156.2627 LP  0  0  0  0  0  0  0  0  0  0  0  0  # atno 17394 bound_to 11000
  141.0035  133.7137  156.0998 LP  0  0  0  0  0  0  0  0  0  0  0  0  # atno 17395 bound_to 11000

$$$$
