AV-unprocessed.smi:1234|AV-procd|sdf|5173|dock8
  -GOLD-   22720 4243D 1   1.00000     0.00000
 Structure written by MMmdl.
 33 34  0  0  0  0  0  0  0  0  1 V2000
  151.7199  136.0680  155.4454 O   0  0  0  0  0  0  0  0  0  0  0  0
  150.8886  136.2123  154.5483 C   0  0  0  0  0  0  0  0  0  0  0  0
  150.6065  137.3971  153.9875 N   0  0  0  0  0  0  0  0  0  0  0  0
  151.2434  138.6609  154.3410 C   0  0  0  0  0  0  0  0  0  0  0  0
  150.7387  139.1910  155.6983 C   0  0  0  0  0  0  0  0  0  0  0  0
  151.8501  139.7908  156.5762 C   0  0  0  0  0  0  0  0  0  0  0  0
  152.9979  139.3498  156.4991 O   0  0  0  0  0  0  0  0  0  0  0  0
  151.5261  140.7954  157.4166 N   0  0  0  0  0  0  0  0  0  0  0  0
  152.4404  141.4682  158.3391 C   0  0  0  0  0  0  0  0  0  0  0  0
  151.5590  142.3501  159.2246 C   0  0  0  0  0  0  0  0  0  0  0  0
  150.3239  142.6173  158.3756 C   0  0  0  0  0  0  0  0  0  0  0  0
  150.1816  141.3601  157.5179 C   0  0  0  0  0  0  0  0  0  0  0  0
  150.1519  135.2275  154.0044 N   0  0  0  0  0  0  0  0  0  0  0  0
  150.1715  133.8416  154.3133 C   0  0  0  0  0  0  0  0  0  0  0  0
  150.9373  133.3043  155.2761 N   0  0  0  0  0  0  0  0  0  0  0  0
  150.7678  131.9291  155.3679 N   0  0  0  0  0  0  0  0  0  0  0  0
  149.8820  131.4838  154.4726 C   0  0  0  0  0  0  0  0  0  0  0  0
  149.1658  132.7014  153.4307 S   0  0  0  0  0  0  0  0  0  0  0  0
  149.9103  137.4272  153.2570 H   0  0  0  0  0  0  0  0  0  0  0  0
  152.3282  138.5385  154.3516 H   0  0  0  0  0  0  0  0  0  0  0  0
  151.0191  139.3771  153.5499 H   0  0  0  0  0  0  0  0  0  0  0  0
  149.9783  139.9542  155.5294 H   0  0  0  0  0  0  0  0  0  0  0  0
  150.2601  138.3800  156.2486 H   0  0  0  0  0  0  0  0  0  0  0  0
  153.0164  140.7639  158.9406 H   0  0  0  0  0  0  0  0  0  0  0  0
  153.1390  142.0805  157.7669 H   0  0  0  0  0  0  0  0  0  0  0  0
  151.2715  141.7977  160.1203 H   0  0  0  0  0  0  0  0  0  0  0  0
  152.0600  143.2645  159.5433 H   0  0  0  0  0  0  0  0  0  0  0  0
  149.4356  142.8251  158.9729 H   0  0  0  0  0  0  0  0  0  0  0  0
  150.5034  143.4800  157.7326 H   0  0  0  0  0  0  0  0  0  0  0  0
  149.7591  141.5937  156.5394 H   0  0  0  0  0  0  0  0  0  0  0  0
  149.5284  140.6344  158.0049 H   0  0  0  0  0  0  0  0  0  0  0  0
  149.5087  135.4992  153.2756 H   0  0  0  0  0  0  0  0  0  0  0  0
  149.6486  130.4303  154.4258 H   0  0  0  0  0  0  0  0  0  0  0  0
  1  2  2  0  0  0  0
  2  3  1  0  0  0  0
  2 13  1  0  0  0  0
  3  4  1  0  0  0  0
  3 19  1  0  0  0  0
  4  5  1  0  0  0  0
  4 20  1  0  0  0  0
  4 21  1  0  0  0  0
  5  6  1  0  0  0  0
  5 22  1  0  0  0  0
  5 23  1  0  0  0  0
  6  7  2  0  0  0  0
  6  8  1  0  0  0  0
  8 12  1  0  0  0  0
  8  9  1  0  0  0  0
  9 10  1  0  0  0  0
  9 24  1  0  0  0  0
  9 25  1  0  0  0  0
 10 11  1  0  0  0  0
 10 26  1  0  0  0  0
 10 27  1  0  0  0  0
 11 12  1  0  0  0  0
 11 28  1  0  0  0  0
 11 29  1  0  0  0  0
 12 30  1  0  0  0  0
 12 31  1  0  0  0  0
 13 14  1  0  0  0  0
 13 32  1  0  0  0  0
 14 18  1  0  0  0  0
 14 15  2  0  0  0  0
 15 16  1  0  0  0  0
 16 17  2  0  0  0  0
 17 18  1  0  0  0  0
 17 33  1  0  0  0  0
M  END
> <s_m_source_file>
AV-unprocessed.smi

> <i_m_source_file_index>
1234

> <i_lp_mmshare_version>
43012

> <i_f3d_flags>
0

> <s_epik_input>
czFbY0hdbm5jMVtOSF1DKD1PKVtOSF1bQ0gyXVtDSDJdQyg9TylOMltDSDJdW0NIMl1bQ0gyXVtDSDJdMg==

> <s_epik_cmdline>
J2VwaWtfcHl0aG9uJywgJy1waCcsICc3LjAnLCAnLXRuJywgJzgnLCAnLW1hJywgJzIwMCcsICctbWV0YWxfYmluZGluZycsICctaW1hZScsICc8aW5maWxlLm1hZT4nLCAnLW9tYWUnLCAnPG91dGZpbGUubWFlPic=

> <r_lp_tautomer_probability>
1

> <r_epik_Ionization_Penalty>
0.00246339

> <r_epik_Ionization_Penalty_Charging>
0

> <r_epik_Ionization_Penalty_Neutral>
0.00246339

> <r_epik_State_Penalty>
-0

> <r_epik_Charging_Adjusted_Penalty>
0

> <i_epik_Tot_Q>
0

> <i_epik_Tot_abs_Q>
0

> <r_epik_Metal_State_Penalty>
0.351039

> <b_epik_Metal_Only>
0

> <s_lp_Force_Field>
OPLS_2005

> <r_lp_Energy>
26.1559

> <b_lp_Chiralities_Consistent>
1

> <s_lp_Variant>
AV-unprocessed.smi:1234-1

> <Gold.Version>
5.8.1

> <Gold.Id.Protein>
6NUR|6NUR_protein|mol2

> <Gold.PLP.Fitness>
40.2407

> <Gold.PLP.PLP>
-30.1157

> <Gold.PLP.part.hbond>
-5.8811

> <Gold.PLP.part.metal>
0.0000

> <Gold.PLP.part.buried>
-3.4757

> <Gold.PLP.part.nonpolar>
-20.4035

> <Gold.PLP.part.repulsive>
0.1927

> <Gold.PLP.ligand.clash>
0.0000

> <Gold.PLP.ligand.torsion>
0.7510

> <Gold.PLP.Chemscore.Hbond>
3.8723

> <Gold.PLP.Chemscore.CHOScore>
0.0000

> <Gold.PLP.Chemscore.Metal>
0.0000

> <Gold.Chemscore.Hbonds>
donor molecule, donor type, donor heavy atom, donor atom, acceptor molecule, acceptor atom, score
      L1  H     3    19       P1  7948  0.83
      L1  H    13    32       P1  7948  0.65
      P1  H  7997  8009       L1     7  1.00
      P1  H 10752 10764       L1     1  1.00

> <Gold.PLP.Chemscore.Internal.Correction>
0.0100

> <Gold.Rescore>
     Score         DG    S(hbond)    S(metal)    S(lipo)     H(rot)  DE(clash)    DE(int)     intcor
     15.31     -17.26       3.12        0.00      50.63       1.79       0.00       1.94       ----

> <Gold.Chemscore.Fitness>
15.3148

> <Gold.Chemscore.DG>
-17.2626

> <Gold.Chemscore.ZeroCoef>
-5.4800

> <Gold.Chemscore.Hbond>
3.1235

> <Gold.Chemscore.Metal>
0.0000

> <Gold.Chemscore.Lipo>
50.6281

> <Gold.Chemscore.Internal_Hbond>
0.0000

> <Gold.Chemscore.DEClash>
0.0029

> <Gold.Chemscore.DEInternal>
1.9449

> <Gold.Chemscore.Rot>
1.7865

> <Gold.Chemscore.Internal.Correction>
   9.000000E+99

> <Gold.Chemscore.Hbonds>
donor molecule, donor type, donor heavy atom, donor atom, acceptor molecule, acceptor atom, score
      L1  H     3    19       P1  7948  0.31
      L1  H    13    32       P1  7948  0.06
      P1  H  7997  8009       L1     7  0.96
      P1  H 10752 10764       L1     1  0.90

> <Gold.Chemscore.Hbond.Weighted>
-10.4326

> <Gold.Chemscore.Metal.Weighted>
-0.0000

> <Gold.Chemscore.Lipo.Weighted>
-5.9235

> <Gold.Chemscore.Internal_Hbond.Weighted>
0.0000

> <Gold.Chemscore.DEClash.Weighted>
0.0029

> <Gold.Chemscore.DEInternal.Weighted>
1.9449

> <Gold.Chemscore.Rot.Weighted>
4.5735

> <Gold.Chemscore.Internal.Correction.Weighted>
   9.000000E+99

> <Gold.Protein.RotatedTorsions>
[ 6907 6896 6895 6894 ] final -111.73 input  -60.11 | X-H torsion
[ 7974 7965 7964 7962 ] final   12.78 input  175.53 | X-H torsion
[ 8008 7997 7996 7995 ] final -160.17 input   59.86 | X-H torsion
[ 10167 10162 10161 10158 ] final  132.77 input  -65.29 | X-H torsion
[ 10718 10713 10712 10709 ] final  142.29 input   66.30 | X-H torsion
[ 10763 10752 10751 10750 ] final  -27.68 input  -60.55 | X-H torsion
[ 11005 11000 10999 10996 ] final -159.46 input  -57.11 | X-H torsion

> <Gold.Protein.ActiveResidues>
 VAL166  LYS551  ARG553  GLY616  TRP617  ASP618  TYR619  PRO620  LYS621  CYS622 
 ASP623  PHE694  ASN695  SER759  ASP760  ASP761  ALA762  ILE779  LEU786  VAL792 
 PHE793  MET794  SER795  GLU796  ALA797  LYS798  CYS799  TRP800  GLU811  SER814 

> <Gold.Protein.RotatedAtoms>
  150.7710  133.9192  159.3392 H   0  0  0  0  0  0  0  0  0  0  0  0  # atno 6907 bound_to 6896
  151.7078  135.0916  160.0272 H   0  0  0  0  0  0  0  0  0  0  0  0  # atno 6908 bound_to 6896
  152.3728  133.6403  159.6136 H   0  0  0  0  0  0  0  0  0  0  0  0  # atno 6909 bound_to 6896
  146.2344  139.9285  142.8499 H   0  0  0  0  0  0  0  0  0  0  0  0  # atno 7974 bound_to 7965
  155.7735  140.0855  157.2096 H   0  0  0  0  0  0  0  0  0  0  0  0  # atno 8008 bound_to 7997
  154.3994  140.1521  156.3026 H   0  0  0  0  0  0  0  0  0  0  0  0  # atno 8009 bound_to 7997
  155.8724  140.3425  155.5833 H   0  0  0  0  0  0  0  0  0  0  0  0  # atno 8010 bound_to 7997
  139.5325  144.6647  151.4899 H   0  0  0  0  0  0  0  0  0  0  0  0  # atno 10167 bound_to 10162
  157.3822  131.0993  151.0727 H   0  0  0  0  0  0  0  0  0  0  0  0  # atno 10718 bound_to 10713
  153.7360  135.6935  153.4978 H   0  0  0  0  0  0  0  0  0  0  0  0  # atno 10763 bound_to 10752
  153.2102  135.4405  155.0370 H   0  0  0  0  0  0  0  0  0  0  0  0  # atno 10764 bound_to 10752
  154.8237  135.3435  154.6888 H   0  0  0  0  0  0  0  0  0  0  0  0  # atno 10765 bound_to 10752
  140.6423  134.4538  157.5233 H   0  0  0  0  0  0  0  0  0  0  0  0  # atno 11005 bound_to 11000
  145.2067  140.9878  143.4124 LP  0  0  0  0  0  0  0  0  0  0  0  0  # atno 17320 bound_to 7965
  144.9726  139.3864  143.6301 LP  0  0  0  0  0  0  0  0  0  0  0  0  # atno 17321 bound_to 7965
  140.6513  143.8691  150.6788 LP  0  0  0  0  0  0  0  0  0  0  0  0  # atno 17342 bound_to 10162
  140.2057  143.3924  152.1757 LP  0  0  0  0  0  0  0  0  0  0  0  0  # atno 17343 bound_to 10162
  157.1792  130.6302  149.5666 LP  0  0  0  0  0  0  0  0  0  0  0  0  # atno 17370 bound_to 10713
  155.9778  130.4759  150.6618 LP  0  0  0  0  0  0  0  0  0  0  0  0  # atno 17371 bound_to 10713
  139.9075  134.8416  156.1649 LP  0  0  0  0  0  0  0  0  0  0  0  0  # atno 17394 bound_to 11000
  141.0597  133.6847  156.1929 LP  0  0  0  0  0  0  0  0  0  0  0  0  # atno 17395 bound_to 11000

$$$$
