AV-unprocessed.smi:1757|AV-procd|sdf|7076|dock1
  -GOLD-   22720 8293D 1   1.00000     0.00000
 Structure written by MMmdl.
 40 41  0  0  0  0  0  0  0  0  2 V2000
  147.0859  137.1913  154.8916 C   0  0  0  0  0  0  0  0  0  0  0  0
  148.5088  137.2288  154.4904 N   0  3  2  0  0  0  0  0  0  0  0  0
  149.3340  136.2491  155.2396 C   0  0  0  0  0  0  0  0  0  0  0  0
  150.7775  136.2177  154.7050 C   0  0  0  0  0  0  0  0  0  0  0  0
  151.4287  137.6129  154.7107 C   0  0  2  0  0  0  0  0  0  0  0  0
  151.7174  138.0430  156.0796 N   0  0  0  0  0  0  0  0  0  0  0  0
  151.9388  139.3034  156.4813 C   0  0  0  0  0  0  0  0  0  0  0  0
  151.9146  140.2718  155.7226 O   0  0  0  0  0  0  0  0  0  0  0  0
  152.2068  139.3434  157.7995 N   0  0  0  0  0  0  0  0  0  0  0  0
  152.4857  140.4519  158.6166 C   0  0  0  0  0  0  0  0  0  0  0  0
  151.8808  141.6644  158.5142 C   0  0  0  0  0  0  0  0  0  0  0  0
  152.2147  142.7685  159.3999 C   0  0  0  0  0  0  0  0  0  0  0  0
  151.5593  144.1355  159.2829 C   0  0  0  0  0  0  0  0  0  0  0  0
  151.2989  144.6253  160.4947 F   0  0  0  0  0  0  0  0  0  0  0  0
  152.3763  144.9866  158.6626 F   0  0  0  0  0  0  0  0  0  0  0  0
  150.4161  144.0786  158.5995 F   0  0  0  0  0  0  0  0  0  0  0  0
  153.1484  142.5256  160.3371 C   0  0  0  0  0  0  0  0  0  0  0  0
  153.7654  141.2785  160.4569 N   0  0  0  0  0  0  0  0  0  0  0  0
  153.4966  140.2191  159.6616 C   0  0  0  0  0  0  0  0  0  0  0  0
  154.0805  139.1493  159.8327 O   0  0  0  0  0  0  0  0  0  0  0  0
  150.5143  138.6278  154.0011 C   0  0  0  0  0  0  0  0  0  0  0  0
  149.0776  138.5982  154.5534 C   0  0  0  0  0  0  0  0  0  0  0  0
  154.4536  141.1749  161.1887 H   0  0  0  0  0  0  0  0  0  0  0  0
  146.9640  137.4927  155.9329 H   0  0  0  0  0  0  0  0  0  0  0  0
  146.6788  136.1862  154.7760 H   0  0  0  0  0  0  0  0  0  0  0  0
  146.4930  137.8622  154.2691 H   0  0  0  0  0  0  0  0  0  0  0  0
  149.3270  136.4997  156.3017 H   0  0  0  0  0  0  0  0  0  0  0  0
  148.8935  135.2556  155.1477 H   0  0  0  0  0  0  0  0  0  0  0  0
  151.3783  135.5167  155.2858 H   0  0  0  0  0  0  0  0  0  0  0  0
  150.7685  135.8330  153.6843 H   0  0  0  0  0  0  0  0  0  0  0  0
  152.3588  137.5489  154.1438 H   0  0  0  0  0  0  0  0  0  0  0  0
  151.7628  137.3178  156.7802 H   0  0  0  0  0  0  0  0  0  0  0  0
  152.2612  138.4537  158.2737 H   0  0  0  0  0  0  0  0  0  0  0  0
  151.1156  141.8372  157.7756 H   0  0  0  0  0  0  0  0  0  0  0  0
  153.4897  143.2575  161.0547 H   0  0  0  0  0  0  0  0  0  0  0  0
  150.9285  139.6334  154.0838 H   0  0  0  0  0  0  0  0  0  0  0  0
  150.4883  138.3988  152.9349 H   0  0  0  0  0  0  0  0  0  0  0  0
  148.4535  139.2792  153.9735 H   0  0  0  0  0  0  0  0  0  0  0  0
  149.0598  138.9552  155.5844 H   0  0  0  0  0  0  0  0  0  0  0  0
  148.5392  136.9482  153.5203 H   0  0  0  0  0  0  0  0  0  0  0  0
  1  2  1  0  0  0  0
  1 24  1  0  0  0  0
  1 25  1  0  0  0  0
  1 26  1  0  0  0  0
  2 22  1  0  0  0  0
  2  3  1  0  0  0  0
  2 40  1  0  0  0  0
  3  4  1  0  0  0  0
  3 27  1  0  0  0  0
  3 28  1  0  0  0  0
  4  5  1  0  0  0  0
  4 29  1  0  0  0  0
  4 30  1  0  0  0  0
  5  6  1  0  0  0  0
  5 21  1  0  0  0  0
  5 31  1  0  0  0  0
  6  7  1  0  0  0  0
  6 32  1  0  0  0  0
  7  8  2  0  0  0  0
  7  9  1  0  0  0  0
  9 10  1  0  0  0  0
  9 33  1  0  0  0  0
 10 19  1  0  0  0  0
 10 11  2  0  0  0  0
 11 12  1  0  0  0  0
 11 34  1  0  0  0  0
 12 13  1  0  0  0  0
 12 17  2  0  0  0  0
 13 14  1  0  0  0  0
 13 15  1  0  0  0  0
 13 16  1  0  0  0  0
 17 18  1  0  0  0  0
 17 35  1  0  0  0  0
 18 23  1  0  0  0  0
 18 19  1  0  0  0  0
 19 20  2  0  0  0  0
 21 22  1  0  0  0  0
 21 36  1  0  0  0  0
 21 37  1  0  0  0  0
 22 38  1  0  0  0  0
 22 39  1  0  0  0  0
M  CHG  1   2   1
M  END
> <s_m_source_file>
AV-unprocessed.smi

> <i_m_source_file_index>
1757

> <i_lp_mmshare_version>
43012

> <i_f3d_flags>
0

> <s_epik_input>
W0NIM11OMVtDSDJdW0NIMl1bQ0hdKFtDSDJdW0NIMl0xKVtOSF1DKD1PKVtOSF1jMltjSF1jKEMoRikoRilGKVtjSF1bbkhdYzI9Tw==

> <s_epik_cmdline>
J2VwaWtfcHl0aG9uJywgJy1waCcsICc3LjAnLCAnLXRuJywgJzgnLCAnLW1hJywgJzIwMCcsICctbWV0YWxfYmluZGluZycsICctaW1hZScsICc8aW5maWxlLm1hZT4nLCAnLW9tYWUnLCAnPG91dGZpbGUubWFlPic=

> <r_lp_tautomer_probability>
1

> <r_epik_Ionization_Penalty>
0.00859077

> <r_epik_Ionization_Penalty_Charging>
0.00857233

> <r_epik_Ionization_Penalty_Neutral>
1.84472e-05

> <r_epik_State_Penalty>
-0

> <r_epik_Charging_Adjusted_Penalty>
0.00857233

> <i_epik_Tot_Q>
1

> <i_epik_Tot_abs_Q>
1

> <r_epik_Metal_State_Penalty>
0.377538

> <b_epik_Metal_Only>
0

> <s_lp_Force_Field>
OPLS_2005

> <r_lp_Energy>
26.4268

> <b_lp_Chiralities_Consistent>
1

> <s_lp_Variant>
AV-unprocessed.smi:1757-2

> <Gold.Version>
5.8.1

> <Gold.Id.Protein>
6NUR|6NUR_protein|mol2

> <Gold.PLP.Fitness>
45.5412

> <Gold.PLP.PLP>
-41.7143

> <Gold.PLP.part.hbond>
-1.5544

> <Gold.PLP.part.metal>
0.0000

> <Gold.PLP.part.buried>
-6.5459

> <Gold.PLP.part.nonpolar>
-35.0216

> <Gold.PLP.part.repulsive>
0.2080

> <Gold.PLP.ligand.clash>
0.0000

> <Gold.PLP.ligand.torsion>
1.3493

> <Gold.PLP.Chemscore.Hbond>
2.1711

> <Gold.PLP.Chemscore.CHOScore>
0.0000

> <Gold.PLP.Chemscore.Metal>
0.0000

> <Gold.Chemscore.Hbonds>
donor molecule, donor type, donor heavy atom, donor atom, acceptor molecule, acceptor atom, score
      L1  H     2    40       P1  7948  2.00
      P1  H  7989  7998       L1     8  0.23

> <Gold.PLP.Chemscore.Internal.Correction>
0.0124

> <Gold.Rescore>
     Score         DG    S(hbond)    S(metal)    S(lipo)     H(rot)  DE(clash)    DE(int)     intcor
     15.26     -17.63       1.55        0.00      81.45       1.00       0.45       1.92       ----

> <Gold.Chemscore.Fitness>
15.2632

> <Gold.Chemscore.DG>
-17.6274

> <Gold.Chemscore.ZeroCoef>
-5.4800

> <Gold.Chemscore.Hbond>
1.5501

> <Gold.Chemscore.Metal>
0.0000

> <Gold.Chemscore.Lipo>
81.4545

> <Gold.Chemscore.Internal_Hbond>
0.0000

> <Gold.Chemscore.DEClash>
0.4477

> <Gold.Chemscore.DEInternal>
1.9165

> <Gold.Chemscore.Rot>
1.0000

> <Gold.Chemscore.Internal.Correction>
   9.000000E+99

> <Gold.Chemscore.Hbonds>
donor molecule, donor type, donor heavy atom, donor atom, acceptor molecule, acceptor atom, score
      L1  H     2    40       P1  7948  1.00
      P1  H  7989  7998       L1     8  0.23

> <Gold.Chemscore.Hbond.Weighted>
-5.1772

> <Gold.Chemscore.Metal.Weighted>
-0.0000

> <Gold.Chemscore.Lipo.Weighted>
-9.5302

> <Gold.Chemscore.Internal_Hbond.Weighted>
0.0000

> <Gold.Chemscore.DEClash.Weighted>
0.4477

> <Gold.Chemscore.DEInternal.Weighted>
1.9165

> <Gold.Chemscore.Rot.Weighted>
2.5600

> <Gold.Chemscore.Internal.Correction.Weighted>
   9.000000E+99

> <Gold.Protein.RotatedTorsions>
[ 6907 6896 6895 6894 ] final   -5.71 input  -60.11 | X-H torsion
[ 7974 7965 7964 7962 ] final  -63.50 input  175.53 | X-H torsion
[ 8008 7997 7996 7995 ] final   82.15 input   59.86 | X-H torsion
[ 10167 10162 10161 10158 ] final -149.11 input  -65.29 | X-H torsion
[ 10718 10713 10712 10709 ] final  124.79 input   66.30 | X-H torsion
[ 10763 10752 10751 10750 ] final  141.93 input  -60.55 | X-H torsion
[ 11005 11000 10999 10996 ] final   59.12 input  -57.11 | X-H torsion

> <Gold.Protein.ActiveResidues>
 VAL166  LYS551  ARG553  GLY616  TRP617  ASP618  TYR619  PRO620  LYS621  CYS622 
 ASP623  PHE694  ASN695  SER759  ASP760  ASP761  ALA762  ILE779  LEU786  VAL792 
 PHE793  MET794  SER795  GLU796  ALA797  LYS798  CYS799  TRP800  GLU811  SER814 

> <Gold.Protein.RotatedAtoms>
  151.4772  135.1050  159.9767 H   0  0  0  0  0  0  0  0  0  0  0  0  # atno 6907 bound_to 6896
  152.4793  133.8211  159.7064 H   0  0  0  0  0  0  0  0  0  0  0  0  # atno 6908 bound_to 6896
  150.8853  133.7254  159.2946 H   0  0  0  0  0  0  0  0  0  0  0  0  # atno 6909 bound_to 6896
  145.7783  140.8776  143.0343 H   0  0  0  0  0  0  0  0  0  0  0  0  # atno 7974 bound_to 7965
  155.9067  140.3430  155.6067 H   0  0  0  0  0  0  0  0  0  0  0  0  # atno 8008 bound_to 7997
  155.7436  140.0811  157.2253 H   0  0  0  0  0  0  0  0  0  0  0  0  # atno 8009 bound_to 7997
  154.4050  140.1566  156.2631 H   0  0  0  0  0  0  0  0  0  0  0  0  # atno 8010 bound_to 7997
  139.7471  143.8574  152.2577 H   0  0  0  0  0  0  0  0  0  0  0  0  # atno 10167 bound_to 10162
  157.5556  131.1092  150.8627 H   0  0  0  0  0  0  0  0  0  0  0  0  # atno 10718 bound_to 10713
  153.9474  135.2973  155.3440 H   0  0  0  0  0  0  0  0  0  0  0  0  # atno 10763 bound_to 10752
  154.7444  135.5009  153.9182 H   0  0  0  0  0  0  0  0  0  0  0  0  # atno 10764 bound_to 10752
  153.1011  135.6734  153.9779 H   0  0  0  0  0  0  0  0  0  0  0  0  # atno 10765 bound_to 10752
  140.0327  134.5988  155.9485 H   0  0  0  0  0  0  0  0  0  0  0  0  # atno 11005 bound_to 11000
  144.6800  139.9953  143.7484 LP  0  0  0  0  0  0  0  0  0  0  0  0  # atno 17320 bound_to 7965
  146.0100  139.3161  143.0876 LP  0  0  0  0  0  0  0  0  0  0  0  0  # atno 17321 bound_to 7965
  139.8541  144.7150  150.9178 LP  0  0  0  0  0  0  0  0  0  0  0  0  # atno 17342 bound_to 10162
  140.7793  143.3873  151.1370 LP  0  0  0  0  0  0  0  0  0  0  0  0  # atno 17343 bound_to 10162
  156.9140  130.5291  149.5280 LP  0  0  0  0  0  0  0  0  0  0  0  0  # atno 17370 bound_to 10713
  156.0615  130.5667  150.9203 LP  0  0  0  0  0  0  0  0  0  0  0  0  # atno 17371 bound_to 10713
  141.1840  133.6552  156.5140 LP  0  0  0  0  0  0  0  0  0  0  0  0  # atno 17394 bound_to 11000
  140.4198  134.7197  157.4883 LP  0  0  0  0  0  0  0  0  0  0  0  0  # atno 17395 bound_to 11000

$$$$
