AV-unprocessed.smi:1807|AV-procd|sdf|7301|dock8
  -GOLD-   22720 8553D 1   1.00000     0.00000
 Structure written by MMmdl.
 44 45  0  0  0  0  0  0  0  0  1 V2000
  151.7799  144.4076  157.7652 C   0  0  0  0  0  0  0  0  0  0  0  0
  151.7076  143.4229  158.9457 C   0  0  2  0  0  0  0  0  0  0  0  0
  152.3513  144.0372  160.2054 C   0  0  0  0  0  0  0  0  0  0  0  0
  152.2794  143.0839  161.4079 C   0  0  0  0  0  0  0  0  0  0  0  0
  152.9314  141.7336  161.0811 C   0  0  0  0  0  0  0  0  0  0  0  0
  152.2937  141.1049  159.8348 C   0  0  0  0  0  0  0  0  0  0  0  0
  152.3536  142.0536  158.6186 C   0  0  1  0  0  0  0  0  0  0  0  0
  151.6767  141.4262  157.4866 N   0  0  0  0  0  0  0  0  0  0  0  0
  152.0645  140.2958  156.8780 C   0  0  0  0  0  0  0  0  0  0  0  0
  153.0981  139.6897  157.1636 O   0  0  0  0  0  0  0  0  0  0  0  0
  151.1321  139.7699  155.7804 C   0  0  0  0  0  0  0  0  0  0  0  0
  150.1611  140.7719  155.3526 N   0  0  0  0  0  0  0  0  0  0  0  0
  148.9532  140.3630  154.7708 C   0  0  0  0  0  0  0  0  0  0  0  0
  147.9776  141.2927  154.3187 C   0  0  0  0  0  0  0  0  0  0  0  0
  147.0012  140.4918  153.7971 C   0  0  0  0  0  0  0  0  0  0  0  0
  147.4106  139.1815  153.9513 N   0  0  0  0  0  0  0  0  0  0  0  0
  146.7305  137.9666  153.5375 C   0  0  0  0  0  0  0  0  0  0  0  0
  146.1157  138.1098  152.1420 C   0  0  0  0  0  0  0  0  0  0  0  0
  144.8286  137.7803  152.0010 N   0  0  0  0  0  0  0  0  0  0  0  0
  146.7983  138.5030  151.1987 O   0  0  0  0  0  0  0  0  0  0  0  0
  148.6083  139.0998  154.5701 N   0  0  0  0  0  0  0  0  0  0  0  0
  152.8124  144.5952  157.4700 H   0  0  0  0  0  0  0  0  0  0  0  0
  151.3302  145.3658  158.0268 H   0  0  0  0  0  0  0  0  0  0  0  0
  151.2476  144.0302  156.8918 H   0  0  0  0  0  0  0  0  0  0  0  0
  150.6521  143.2543  159.1658 H   0  0  0  0  0  0  0  0  0  0  0  0
  153.3941  144.2851  160.0020 H   0  0  0  0  0  0  0  0  0  0  0  0
  151.8564  144.9757  160.4577 H   0  0  0  0  0  0  0  0  0  0  0  0
  152.7708  143.5347  162.2704 H   0  0  0  0  0  0  0  0  0  0  0  0
  151.2375  142.9284  161.6905 H   0  0  0  0  0  0  0  0  0  0  0  0
  154.0009  141.8713  160.9162 H   0  0  0  0  0  0  0  0  0  0  0  0
  152.8322  141.0567  161.9301 H   0  0  0  0  0  0  0  0  0  0  0  0
  152.7930  140.1626  159.6062 H   0  0  0  0  0  0  0  0  0  0  0  0
  151.2543  140.8556  160.0520 H   0  0  0  0  0  0  0  0  0  0  0  0
  153.4006  142.2260  158.3608 H   0  0  0  0  0  0  0  0  0  0  0  0
  150.8174  141.8564  157.1770 H   0  0  0  0  0  0  0  0  0  0  0  0
  151.7037  139.4154  154.9209 H   0  0  0  0  0  0  0  0  0  0  0  0
  150.5898  138.9088  156.1708 H   0  0  0  0  0  0  0  0  0  0  0  0
  150.4781  141.7203  155.2137 H   0  0  0  0  0  0  0  0  0  0  0  0
  147.9953  142.3718  154.3577 H   0  0  0  0  0  0  0  0  0  0  0  0
  146.0621  140.7423  153.3264 H   0  0  0  0  0  0  0  0  0  0  0  0
  147.4420  137.1394  153.5512 H   0  0  0  0  0  0  0  0  0  0  0  0
  145.9499  137.7308  154.2616 H   0  0  0  0  0  0  0  0  0  0  0  0
  144.3838  137.8535  151.0978 H   0  0  0  0  0  0  0  0  0  0  0  0
  144.3060  137.4527  152.8004 H   0  0  0  0  0  0  0  0  0  0  0  0
  1  2  1  0  0  0  0
  1 22  1  0  0  0  0
  1 23  1  0  0  0  0
  1 24  1  0  0  0  0
  2  7  1  0  0  0  0
  2  3  1  0  0  0  0
  2 25  1  0  0  0  0
  3  4  1  0  0  0  0
  3 26  1  0  0  0  0
  3 27  1  0  0  0  0
  4  5  1  0  0  0  0
  4 28  1  0  0  0  0
  4 29  1  0  0  0  0
  5  6  1  0  0  0  0
  5 30  1  0  0  0  0
  5 31  1  0  0  0  0
  6  7  1  0  0  0  0
  6 32  1  0  0  0  0
  6 33  1  0  0  0  0
  7  8  1  0  0  0  0
  7 34  1  0  0  0  0
  8  9  1  0  0  0  0
  8 35  1  0  0  0  0
  9 10  2  0  0  0  0
  9 11  1  0  0  0  0
 11 12  1  0  0  0  0
 11 36  1  0  0  0  0
 11 37  1  0  0  0  0
 12 13  1  0  0  0  0
 12 38  1  0  0  0  0
 13 21  2  0  0  0  0
 13 14  1  0  0  0  0
 14 15  2  0  0  0  0
 14 39  1  0  0  0  0
 15 16  1  0  0  0  0
 15 40  1  0  0  0  0
 16 17  1  0  0  0  0
 16 21  1  0  0  0  0
 17 18  1  0  0  0  0
 17 41  1  0  0  0  0
 17 42  1  0  0  0  0
 18 19  1  0  0  0  0
 18 20  2  0  0  0  0
 19 43  1  0  0  0  0
 19 44  1  0  0  0  0
M  END
> <s_m_source_file>
AV-unprocessed.smi

> <i_m_source_file_index>
1807

> <i_lp_mmshare_version>
43012

> <i_f3d_flags>
0

> <s_epik_input>
W0NIM11bQ0BASF0xW0NIMl1bQ0gyXVtDSDJdW0NIMl1bQ0BIXTFbTkhdQyg9TylbQ0gyXVtOSF1jMltjSF1bY0hdbihuMilbQ0gyXUMoPU8pW05IMl0=

> <s_epik_cmdline>
J2VwaWtfcHl0aG9uJywgJy1waCcsICc3LjAnLCAnLXRuJywgJzgnLCAnLW1hJywgJzIwMCcsICctbWV0YWxfYmluZGluZycsICctaW1hZScsICc8aW5maWxlLm1hZT4nLCAnLW9tYWUnLCAnPG91dGZpbGUubWFlPic=

> <r_lp_tautomer_probability>
1

> <r_epik_Ionization_Penalty>
0.000167642

> <r_epik_Ionization_Penalty_Charging>
0

> <r_epik_Ionization_Penalty_Neutral>
0.000167642

> <r_epik_State_Penalty>
-0

> <r_epik_Charging_Adjusted_Penalty>
0

> <i_epik_Tot_Q>
0

> <i_epik_Tot_abs_Q>
0

> <r_epik_Metal_State_Penalty>
-0

> <b_epik_Metal_Only>
0

> <s_lp_Force_Field>
OPLS_2005

> <r_lp_Energy>
5.76299

> <b_lp_Chiralities_Consistent>
1

> <s_lp_Variant>
AV-unprocessed.smi:1807-1

> <Gold.Version>
5.8.1

> <Gold.Id.Protein>
6NUR|6NUR_protein|mol2

> <Gold.PLP.Fitness>
53.0890

> <Gold.PLP.PLP>
-42.4772

> <Gold.PLP.part.hbond>
-3.7655

> <Gold.PLP.part.metal>
0.0000

> <Gold.PLP.part.buried>
-6.3079

> <Gold.PLP.part.nonpolar>
-35.4927

> <Gold.PLP.part.repulsive>
0.8657

> <Gold.PLP.ligand.clash>
0.0000

> <Gold.PLP.ligand.torsion>
0.6881

> <Gold.PLP.Chemscore.Hbond>
2.9913

> <Gold.PLP.Chemscore.CHOScore>
1.0000

> <Gold.PLP.Chemscore.Metal>
0.0000

> <Gold.Chemscore.Hbonds>
donor molecule, donor type, donor heavy atom, donor atom, acceptor molecule, acceptor atom, score
      L1  H    19    43       P1 10171  1.00
      P1  H  7954  7966       L1    20  1.00
      P1  H  7997  8008       L1    10  0.78
      L1  C    15    40       P1 10175  0.99

> <Gold.PLP.Chemscore.Internal.Correction>
0.0142

> <Gold.Rescore>
     Score         DG    S(hbond)    S(metal)    S(lipo)     H(rot)  DE(clash)    DE(int)     intcor
     18.64     -19.59       2.87        0.00      96.44       2.64       0.43       0.52       ----

> <Gold.Chemscore.Fitness>
18.6373

> <Gold.Chemscore.DG>
-19.5898

> <Gold.Chemscore.ZeroCoef>
-5.4800

> <Gold.Chemscore.Hbond>
2.8671

> <Gold.Chemscore.Metal>
0.0000

> <Gold.Chemscore.Lipo>
96.4438

> <Gold.Chemscore.Internal_Hbond>
0.0000

> <Gold.Chemscore.DEClash>
0.4336

> <Gold.Chemscore.DEInternal>
0.5188

> <Gold.Chemscore.Rot>
2.6369

> <Gold.Chemscore.Internal.Correction>
   9.000000E+99

> <Gold.Chemscore.Hbonds>
donor molecule, donor type, donor heavy atom, donor atom, acceptor molecule, acceptor atom, score
      L1  H    19    43       P1 10171  0.95
      P1  H  7954  7966       L1    20  0.95
      P1  H  7997  8008       L1    10  0.77

> <Gold.Chemscore.Hbond.Weighted>
-9.5762

> <Gold.Chemscore.Metal.Weighted>
-0.0000

> <Gold.Chemscore.Lipo.Weighted>
-11.2839

> <Gold.Chemscore.Internal_Hbond.Weighted>
0.0000

> <Gold.Chemscore.DEClash.Weighted>
0.4336

> <Gold.Chemscore.DEInternal.Weighted>
0.5188

> <Gold.Chemscore.Rot.Weighted>
6.7504

> <Gold.Chemscore.Internal.Correction.Weighted>
   9.000000E+99

> <Gold.Protein.RotatedTorsions>
[ 6907 6896 6895 6894 ] final  -58.49 input  -60.11 | X-H torsion
[ 7974 7965 7964 7962 ] final   38.42 input  175.53 | X-H torsion
[ 8008 7997 7996 7995 ] final  -72.59 input   59.86 | X-H torsion
[ 10167 10162 10161 10158 ] final   57.64 input  -65.29 | X-H torsion
[ 10718 10713 10712 10709 ] final -135.55 input   66.30 | X-H torsion
[ 10763 10752 10751 10750 ] final   49.65 input  -60.55 | X-H torsion
[ 11005 11000 10999 10996 ] final  -59.24 input  -57.11 | X-H torsion

> <Gold.Protein.ActiveResidues>
 VAL166  LYS551  ARG553  GLY616  TRP617  ASP618  TYR619  PRO620  LYS621  CYS622 
 ASP623  PHE694  ASN695  SER759  ASP760  ASP761  ALA762  ILE779  LEU786  VAL792 
 PHE793  MET794  SER795  GLU796  ALA797  LYS798  CYS799  TRP800  GLU811  SER814 

> <Gold.Protein.RotatedAtoms>
  150.8003  134.7091  159.6593 H   0  0  0  0  0  0  0  0  0  0  0  0  # atno 6907 bound_to 6896
  152.4119  134.6106  160.0034 H   0  0  0  0  0  0  0  0  0  0  0  0  # atno 6908 bound_to 6896
  151.6347  133.3293  159.3153 H   0  0  0  0  0  0  0  0  0  0  0  0  # atno 6909 bound_to 6896
  146.1063  139.5774  142.9381 H   0  0  0  0  0  0  0  0  0  0  0  0  # atno 7974 bound_to 7965
  154.5179  140.0794  156.8115 H   0  0  0  0  0  0  0  0  0  0  0  0  # atno 8008 bound_to 7997
  155.3641  140.3419  155.4223 H   0  0  0  0  0  0  0  0  0  0  0  0  # atno 8009 bound_to 7997
  156.1648  140.1600  156.8538 H   0  0  0  0  0  0  0  0  0  0  0  0  # atno 8010 bound_to 7997
  140.1958  144.4039  150.6551 H   0  0  0  0  0  0  0  0  0  0  0  0  # atno 10167 bound_to 10162
  156.2674  130.7245  151.1201 H   0  0  0  0  0  0  0  0  0  0  0  0  # atno 10718 bound_to 10713
  152.9786  135.5905  154.4123 H   0  0  0  0  0  0  0  0  0  0  0  0  # atno 10763 bound_to 10752
  154.3757  135.2767  155.2242 H   0  0  0  0  0  0  0  0  0  0  0  0  # atno 10764 bound_to 10752
  154.4178  135.6066  153.6046 H   0  0  0  0  0  0  0  0  0  0  0  0  # atno 10765 bound_to 10752
  141.1240  133.6615  156.5042 H   0  0  0  0  0  0  0  0  0  0  0  0  # atno 11005 bound_to 11000
  145.5754  141.0389  143.2151 LP  0  0  0  0  0  0  0  0  0  0  0  0  # atno 17320 bound_to 7965
  144.7473  139.7285  143.7287 LP  0  0  0  0  0  0  0  0  0  0  0  0  # atno 17321 bound_to 7965
  140.6425  143.2206  151.6260 LP  0  0  0  0  0  0  0  0  0  0  0  0  # atno 17342 bound_to 10162
  139.5237  144.3125  152.0981 LP  0  0  0  0  0  0  0  0  0  0  0  0  # atno 17343 bound_to 10162
  157.7272  131.0641  150.5876 LP  0  0  0  0  0  0  0  0  0  0  0  0  # atno 17370 bound_to 10713
  156.5969  130.4344  149.5913 LP  0  0  0  0  0  0  0  0  0  0  0  0  # atno 17371 bound_to 10713
  140.4421  134.7006  157.4997 LP  0  0  0  0  0  0  0  0  0  0  0  0  # atno 17394 bound_to 11000
  140.0222  134.6530  155.9224 LP  0  0  0  0  0  0  0  0  0  0  0  0  # atno 17395 bound_to 11000

$$$$
