AV-unprocessed.smi:240|AV-procd|sdf|1824|dock10
  -GOLD-   2262020423D 1   1.00000     0.00000
 Structure written by MMmdl.
 55 59  0  0  0  0  0  0  0  0  1 V2000
  148.9981  142.1282  153.9998 O   0  0  0  0  0  0  0  0  0  0  0  0
  148.1220  141.1543  154.5289 C   0  0  2  0  0  0  0  0  0  0  0  0
  146.7133  141.7168  154.7281 C   0  0  0  0  0  0  0  0  0  0  0  0
  146.0808  140.8365  155.8145 C   0  0  0  0  0  0  0  0  0  0  0  0
  147.2390  140.1111  156.5190 C   0  0  0  0  0  0  0  0  0  0  0  0
  148.5314  140.7112  155.9391 C   0  0  1  0  0  0  0  0  0  0  0  0
  149.8080  139.8202  156.0354 C   0  0  2  0  0  0  0  0  0  0  0  0
  151.1343  140.6087  155.8879 C   0  0  0  0  0  0  0  0  0  0  0  0
  152.2470  139.7301  156.0116 O   0  0  0  0  0  0  0  0  0  0  0  0
  152.2547  138.7380  154.9942 C   0  0  0  0  0  0  0  0  0  0  0  0
  150.9942  137.8743  155.1315 C   0  0  0  0  0  0  0  0  0  0  0  0
  149.7991  138.7078  155.0743 N   0  0  0  0  0  0  0  0  0  0  0  0
  148.6849  137.9428  155.0304 C   0  0  0  0  0  0  0  0  0  0  0  0
  148.4998  137.0676  156.0489 N   0  0  0  0  0  0  0  0  0  0  0  0
  147.4291  136.2682  156.0564 C   0  0  0  0  0  0  0  0  0  0  0  0
  146.4413  136.1870  155.1621 N   0  0  0  0  0  0  0  0  0  0  0  0
  146.6197  137.0750  154.1421 C   0  0  0  0  0  0  0  0  0  0  0  0
  147.7016  137.9887  154.0013 C   0  0  0  0  0  0  0  0  0  0  0  0
  147.5398  138.7395  152.8434 N   0  0  0  0  0  0  0  0  0  0  0  0
  146.4306  138.2890  152.3243 C   0  0  0  0  0  0  0  0  0  0  0  0
  145.8171  137.2811  153.0336 N   0  0  0  0  0  0  0  0  0  0  0  0
  144.5839  136.5951  152.6804 C   0  0  0  0  0  0  0  0  0  0  0  0
  144.7022  135.0544  152.7431 C   0  0  1  0  0  0  0  0  0  0  0  0
  144.6460  134.6433  154.0984 O   0  0  0  0  0  0  0  0  0  0  0  0
  143.6184  134.3120  151.9664 C   0  0  0  0  0  0  0  0  0  0  0  0
  144.3360  133.0525  151.5021 C   0  0  0  0  0  0  0  0  0  0  0  0
  145.6225  133.5398  151.1612 O   0  0  0  0  0  0  0  0  0  0  0  0
  146.0078  134.5145  152.1256 C   0  0  0  0  0  0  0  0  0  0  0  0
  148.7981  142.9616  154.3982 H   0  0  0  0  0  0  0  0  0  0  0  0
  148.0669  140.3065  153.8467 H   0  0  0  0  0  0  0  0  0  0  0  0
  146.7686  142.7447  155.0908 H   0  0  0  0  0  0  0  0  0  0  0  0
  146.1327  141.7256  153.8051 H   0  0  0  0  0  0  0  0  0  0  0  0
  145.5015  141.4401  156.5141 H   0  0  0  0  0  0  0  0  0  0  0  0
  145.4000  140.1090  155.3713 H   0  0  0  0  0  0  0  0  0  0  0  0
  147.1920  140.2294  157.6020 H   0  0  0  0  0  0  0  0  0  0  0  0
  147.1671  139.0445  156.3113 H   0  0  0  0  0  0  0  0  0  0  0  0
  148.7147  141.6341  156.4916 H   0  0  0  0  0  0  0  0  0  0  0  0
  149.8229  139.3837  157.0343 H   0  0  0  0  0  0  0  0  0  0  0  0
  151.1951  141.1309  154.9332 H   0  0  0  0  0  0  0  0  0  0  0  0
  151.2297  141.3607  156.6696 H   0  0  0  0  0  0  0  0  0  0  0  0
  152.3058  139.2043  154.0089 H   0  0  0  0  0  0  0  0  0  0  0  0
  153.1470  138.1217  155.1040 H   0  0  0  0  0  0  0  0  0  0  0  0
  150.9703  137.1294  154.3345 H   0  0  0  0  0  0  0  0  0  0  0  0
  151.0179  137.3326  156.0783 H   0  0  0  0  0  0  0  0  0  0  0  0
  147.3549  135.5948  156.8976 H   0  0  0  0  0  0  0  0  0  0  0  0
  146.0297  138.6768  151.3990 H   0  0  0  0  0  0  0  0  0  0  0  0
  143.7979  136.9379  153.3545 H   0  0  0  0  0  0  0  0  0  0  0  0
  144.2877  136.9128  151.6798 H   0  0  0  0  0  0  0  0  0  0  0  0
  143.8290  134.1896  154.2397 H   0  0  0  0  0  0  0  0  0  0  0  0
  142.7179  134.1080  152.5476 H   0  0  0  0  0  0  0  0  0  0  0  0
  143.3231  134.8868  151.0878 H   0  0  0  0  0  0  0  0  0  0  0  0
  144.4178  132.3240  152.3103 H   0  0  0  0  0  0  0  0  0  0  0  0
  143.8467  132.5761  150.6522 H   0  0  0  0  0  0  0  0  0  0  0  0
  146.5874  135.2945  151.6306 H   0  0  0  0  0  0  0  0  0  0  0  0
  146.6560  134.0528  152.8724 H   0  0  0  0  0  0  0  0  0  0  0  0
  1  2  1  0  0  0  0
  1 29  1  0  0  0  0
  2  6  1  0  0  0  0
  2  3  1  0  0  0  0
  2 30  1  0  0  0  0
  3  4  1  0  0  0  0
  3 31  1  0  0  0  0
  3 32  1  0  0  0  0
  4  5  1  0  0  0  0
  4 33  1  0  0  0  0
  4 34  1  0  0  0  0
  5  6  1  0  0  0  0
  5 35  1  0  0  0  0
  5 36  1  0  0  0  0
  6  7  1  0  0  0  0
  6 37  1  0  0  0  0
  7 12  1  0  0  0  0
  7  8  1  0  0  0  0
  7 38  1  0  0  0  0
  8  9  1  0  0  0  0
  8 39  1  0  0  0  0
  8 40  1  0  0  0  0
  9 10  1  0  0  0  0
 10 11  1  0  0  0  0
 10 41  1  0  0  0  0
 10 42  1  0  0  0  0
 11 12  1  0  0  0  0
 11 43  1  0  0  0  0
 11 44  1  0  0  0  0
 12 13  1  0  0  0  0
 13 18  1  0  0  0  0
 13 14  2  0  0  0  0
 14 15  1  0  0  0  0
 15 16  2  0  0  0  0
 15 45  1  0  0  0  0
 16 17  1  0  0  0  0
 17 21  1  0  0  0  0
 17 18  2  0  0  0  0
 18 19  1  0  0  0  0
 19 20  2  0  0  0  0
 20 21  1  0  0  0  0
 20 46  1  0  0  0  0
 21 22  1  0  0  0  0
 22 23  1  0  0  0  0
 22 47  1  0  0  0  0
 22 48  1  0  0  0  0
 23 28  1  0  0  0  0
 23 24  1  0  0  0  0
 23 25  1  0  0  0  0
 24 49  1  0  0  0  0
 25 26  1  0  0  0  0
 25 50  1  0  0  0  0
 25 51  1  0  0  0  0
 26 27  1  0  0  0  0
 26 52  1  0  0  0  0
 26 53  1  0  0  0  0
 27 28  1  0  0  0  0
 28 54  1  0  0  0  0
 28 55  1  0  0  0  0
M  END
> <s_m_source_file>
AV-unprocessed.smi

> <i_m_source_file_index>
240

> <i_lp_mmshare_version>
43012

> <i_f3d_flags>
0

> <s_epik_input>
W09IXVtDQEBIXTFbQ0gyXVtDSDJdW0NIMl1bQ0BIXTFbQ0BASF0yW0NIMl1PW0NIMl1bQ0gyXU4yYyhuW2NIXW4zKWMoYzM0KW5bY0hdbjRbQ0gyXVtDQEBdNShbT0hdKVtDSDJdW0NIMl1PW0NIMl01

> <s_epik_cmdline>
J2VwaWtfcHl0aG9uJywgJy1waCcsICc3LjAnLCAnLXRuJywgJzgnLCAnLW1hJywgJzIwMCcsICctbWV0YWxfYmluZGluZycsICctaW1hZScsICc8aW5maWxlLm1hZT4nLCAnLW9tYWUnLCAnPG91dGZpbGUubWFlPic=

> <r_lp_tautomer_probability>
1

> <r_epik_Ionization_Penalty>
0.000130618

> <r_epik_Ionization_Penalty_Charging>
0

> <r_epik_Ionization_Penalty_Neutral>
0.000130618

> <r_epik_State_Penalty>
-0

> <r_epik_Charging_Adjusted_Penalty>
0

> <i_epik_Tot_Q>
0

> <i_epik_Tot_abs_Q>
0

> <r_epik_Metal_State_Penalty>
-0

> <b_epik_Metal_Only>
0

> <s_lp_Force_Field>
OPLS_2005

> <r_lp_Energy>
60.7436

> <b_lp_Chiralities_Consistent>
1

> <s_lp_Variant>
AV-unprocessed.smi:240-1

> <Gold.Version>
5.8.1

> <Gold.Id.Protein>
6NUR|6NUR_protein|mol2

> <Gold.PLP.Fitness>
38.5468

> <Gold.PLP.PLP>
-31.0930

> <Gold.PLP.part.hbond>
-2.6230

> <Gold.PLP.part.metal>
0.0000

> <Gold.PLP.part.buried>
-2.3511

> <Gold.PLP.part.nonpolar>
-29.3585

> <Gold.PLP.part.repulsive>
3.5631

> <Gold.PLP.ligand.clash>
0.0000

> <Gold.PLP.ligand.torsion>
0.7574

> <Gold.PLP.Chemscore.Hbond>
2.0030

> <Gold.PLP.Chemscore.CHOScore>
0.9269

> <Gold.PLP.Chemscore.Metal>
0.0000

> <Gold.Chemscore.Hbonds>
donor molecule, donor type, donor heavy atom, donor atom, acceptor molecule, acceptor atom, score
      L1  H     1    29       P1  8028  0.73
      P1  H  7997  8008       L1     9  0.70
      P1  H  8011  8017       L1     1  0.35
      L1  C    20    46       P1 10171  0.66

> <Gold.PLP.Chemscore.Internal.Correction>
0.1789

> <Gold.Rescore>
     Score         DG    S(hbond)    S(metal)    S(lipo)     H(rot)  DE(clash)    DE(int)     intcor
      9.30     -12.54       1.93        0.00      71.00       3.00       1.36       1.88       ----

> <Gold.Chemscore.Fitness>
9.2961

> <Gold.Chemscore.DG>
-12.5384

> <Gold.Chemscore.ZeroCoef>
-5.4800

> <Gold.Chemscore.Hbond>
1.9286

> <Gold.Chemscore.Metal>
0.0000

> <Gold.Chemscore.Lipo>
70.9989

> <Gold.Chemscore.Internal_Hbond>
0.0000

> <Gold.Chemscore.DEClash>
1.3627

> <Gold.Chemscore.DEInternal>
1.8796

> <Gold.Chemscore.Rot>
3.0039

> <Gold.Chemscore.Internal.Correction>
   9.000000E+99

> <Gold.Chemscore.Hbonds>
donor molecule, donor type, donor heavy atom, donor atom, acceptor molecule, acceptor atom, score
      L1  H     1    29       P1  8028  0.73
      P1  H  7997  8008       L1     9  0.21
      P1  H  8011  8017       L1     1  0.22

> <Gold.Chemscore.Hbond.Weighted>
-6.4414

> <Gold.Chemscore.Metal.Weighted>
-0.0000

> <Gold.Chemscore.Lipo.Weighted>
-8.3069

> <Gold.Chemscore.Internal_Hbond.Weighted>
0.0000

> <Gold.Chemscore.DEClash.Weighted>
1.3627

> <Gold.Chemscore.DEInternal.Weighted>
1.8796

> <Gold.Chemscore.Rot.Weighted>
7.6899

> <Gold.Chemscore.Internal.Correction.Weighted>
   9.000000E+99

> <Gold.Protein.RotatedTorsions>
[ 6907 6896 6895 6894 ] final  167.75 input  -60.11 | X-H torsion
[ 7974 7965 7964 7962 ] final   -8.77 input  175.53 | X-H torsion
[ 8008 7997 7996 7995 ] final  -31.91 input   59.86 | X-H torsion
[ 10167 10162 10161 10158 ] final -133.95 input  -65.29 | X-H torsion
[ 10718 10713 10712 10709 ] final  115.15 input   66.30 | X-H torsion
[ 10763 10752 10751 10750 ] final   -1.10 input  -60.55 | X-H torsion
[ 11005 11000 10999 10996 ] final  -17.86 input  -57.11 | X-H torsion

> <Gold.Protein.ActiveResidues>
 VAL166  LYS551  ARG553  GLY616  TRP617  ASP618  TYR619  PRO620  LYS621  CYS622 
 ASP623  PHE694  ASN695  SER759  ASP760  ASP761  ALA762  ILE779  LEU786  VAL792 
 PHE793  MET794  SER795  GLU796  ALA797  LYS798  CYS799  TRP800  GLU811  SER814 

> <Gold.Protein.RotatedAtoms>
  151.8584  133.3452  159.3695 H   0  0  0  0  0  0  0  0  0  0  0  0  # atno 6907 bound_to 6896
  150.7186  134.5230  159.5672 H   0  0  0  0  0  0  0  0  0  0  0  0  # atno 6908 bound_to 6896
  152.2738  134.7904  160.0460 H   0  0  0  0  0  0  0  0  0  0  0  0  # atno 6909 bound_to 6896
  146.2271  140.2517  142.8347 H   0  0  0  0  0  0  0  0  0  0  0  0  # atno 7974 bound_to 7965
  154.4197  140.1751  156.1643 H   0  0  0  0  0  0  0  0  0  0  0  0  # atno 8008 bound_to 7997
  155.9813  140.3377  155.6641 H   0  0  0  0  0  0  0  0  0  0  0  0  # atno 8009 bound_to 7997
  155.6496  140.0689  157.2582 H   0  0  0  0  0  0  0  0  0  0  0  0  # atno 8010 bound_to 7997
  139.8930  143.6699  152.2609 H   0  0  0  0  0  0  0  0  0  0  0  0  # atno 10167 bound_to 10162
  157.6239  131.1008  150.7289 H   0  0  0  0  0  0  0  0  0  0  0  0  # atno 10718 bound_to 10713
  153.3405  135.6980  153.6871 H   0  0  0  0  0  0  0  0  0  0  0  0  # atno 10763 bound_to 10752
  153.5637  135.3530  155.2810 H   0  0  0  0  0  0  0  0  0  0  0  0  # atno 10764 bound_to 10752
  154.8635  135.4255  154.2617 H   0  0  0  0  0  0  0  0  0  0  0  0  # atno 10765 bound_to 10752
  140.8210  133.8068  155.9659 H   0  0  0  0  0  0  0  0  0  0  0  0  # atno 11005 bound_to 11000
  144.9407  140.8075  143.5632 LP  0  0  0  0  0  0  0  0  0  0  0  0  # atno 17320 bound_to 7965
  145.2468  139.2048  143.4963 LP  0  0  0  0  0  0  0  0  0  0  0  0  # atno 17321 bound_to 7965
  139.7092  144.7623  151.1140 LP  0  0  0  0  0  0  0  0  0  0  0  0  # atno 17342 bound_to 10162
  140.7722  143.5353  150.9375 LP  0  0  0  0  0  0  0  0  0  0  0  0  # atno 17343 bound_to 10162
  156.7641  130.4808  149.5431 LP  0  0  0  0  0  0  0  0  0  0  0  0  # atno 17370 bound_to 10713
  156.1399  130.6237  151.0453 LP  0  0  0  0  0  0  0  0  0  0  0  0  # atno 17371 bound_to 10713
  140.9099  134.2274  157.4992 LP  0  0  0  0  0  0  0  0  0  0  0  0  # atno 17394 bound_to 11000
  139.8708  134.9745  156.4849 LP  0  0  0  0  0  0  0  0  0  0  0  0  # atno 17395 bound_to 11000

$$$$
