AV-unprocessed.smi:766|AV-procd|sdf|3653|dock8
  -GOLD-   22720 1 63D 1   1.00000     0.00000
 Structure written by MMmdl.
 48 50  0  0  0  0  0  0  0  0  3 V2000
  152.9626  142.9133  161.4811 C   0  0  0  0  0  0  0  0  0  0  0  0
  152.3919  142.3932  160.1725 C   0  0  0  0  0  0  0  0  0  0  0  0
  152.7125  141.0764  159.7732 C   0  0  0  0  0  0  0  0  0  0  0  0
  152.1731  140.6282  158.5736 C   0  0  0  0  0  0  0  0  0  0  0  0
  152.2997  139.4025  157.9169 N   0  3  0  0  0  0  0  0  0  0  0  0
  151.5798  139.4292  156.7616 C   0  0  0  0  0  0  0  0  0  0  0  0
  150.9969  140.6557  156.6682 N   0  0  0  0  0  0  0  0  0  0  0  0
  150.1123  141.1953  155.6249 C   0  0  0  0  0  0  0  0  0  0  0  0
  150.1894  140.4043  154.3044 C   0  0  2  0  0  0  0  0  0  0  0  0
  149.4726  141.0908  153.2967 O   0  0  0  0  0  0  0  0  0  0  0  0
  149.6014  138.9907  154.4478 C   0  0  0  0  0  0  0  0  0  0  0  0
  148.8577  138.5950  153.2355 N   0  3  0  0  0  0  0  0  0  0  0  0
  147.3984  138.4822  153.4311 C   0  0  0  0  0  0  0  0  0  0  0  0
  146.6527  138.3940  152.0869 C   0  0  0  0  0  0  0  0  0  0  0  0
  145.7542  137.2535  151.9950 N   0  0  0  0  0  0  0  0  0  0  0  0
  145.9605  136.0592  151.3361 C   0  0  0  0  0  0  0  0  0  0  0  0
  144.8607  135.2790  151.5506 C   0  0  0  0  0  0  0  0  0  0  0  0
  144.0305  136.0851  152.3780 C   0  0  0  0  0  0  0  0  0  0  0  0
  144.5718  137.2616  152.6495 N   0  0  0  0  0  0  0  0  0  0  0  0
  151.3396  141.4388  157.7780 C   0  0  0  0  0  0  0  0  0  0  0  0
  151.0167  142.7404  158.1559 C   0  0  0  0  0  0  0  0  0  0  0  0
  151.5556  143.2151  159.3732 C   0  0  0  0  0  0  0  0  0  0  0  0
  151.2206  144.6310  159.8109 C   0  0  0  0  0  0  0  0  0  0  0  0
  153.5915  142.1666  161.9669 H   0  0  0  0  0  0  0  0  0  0  0  0
  152.1602  143.1731  162.1718 H   0  0  0  0  0  0  0  0  0  0  0  0
  153.5727  143.8002  161.3085 H   0  0  0  0  0  0  0  0  0  0  0  0
  153.3496  140.4458  160.3760 H   0  0  0  0  0  0  0  0  0  0  0  0
  151.4866  138.6210  156.0504 H   0  0  0  0  0  0  0  0  0  0  0  0
  149.0962  141.1555  156.0198 H   0  0  0  0  0  0  0  0  0  0  0  0
  150.3357  142.2513  155.4707 H   0  0  0  0  0  0  0  0  0  0  0  0
  151.2332  140.3343  153.9947 H   0  0  0  0  0  0  0  0  0  0  0  0
  149.2757  140.4829  152.5999 H   0  0  0  0  0  0  0  0  0  0  0  0
  150.4049  138.2701  154.6066 H   0  0  0  0  0  0  0  0  0  0  0  0
  148.9471  138.9365  155.3195 H   0  0  0  0  0  0  0  0  0  0  0  0
  149.0259  139.2915  152.5228 H   0  0  0  0  0  0  0  0  0  0  0  0
  147.1869  137.5910  154.0231 H   0  0  0  0  0  0  0  0  0  0  0  0
  147.0408  139.3349  154.0098 H   0  0  0  0  0  0  0  0  0  0  0  0
  146.0746  139.3041  151.9213 H   0  0  0  0  0  0  0  0  0  0  0  0
  147.3692  138.3254  151.2677 H   0  0  0  0  0  0  0  0  0  0  0  0
  146.8622  135.8651  150.7739 H   0  0  0  0  0  0  0  0  0  0  0  0
  144.6799  134.2812  151.1792 H   0  0  0  0  0  0  0  0  0  0  0  0
  143.0601  135.8503  152.7897 H   0  0  0  0  0  0  0  0  0  0  0  0
  150.3840  143.3700  157.5479 H   0  0  0  0  0  0  0  0  0  0  0  0
  150.5692  145.1280  159.0914 H   0  0  0  0  0  0  0  0  0  0  0  0
  152.1281  145.2275  159.9055 H   0  0  0  0  0  0  0  0  0  0  0  0
  150.7085  144.6231  160.7732 H   0  0  0  0  0  0  0  0  0  0  0  0
  149.2135  137.7077  152.9105 H   0  0  0  0  0  0  0  0  0  0  0  0
  152.8348  138.6038  158.2340 H   0  0  0  0  0  0  0  0  0  0  0  0
  1  2  1  0  0  0  0
  1 24  1  0  0  0  0
  1 25  1  0  0  0  0
  1 26  1  0  0  0  0
  2 22  1  0  0  0  0
  2  3  2  0  0  0  0
  3  4  1  0  0  0  0
  3 27  1  0  0  0  0
  4 20  2  0  0  0  0
  4  5  1  0  0  0  0
  5  6  2  0  0  0  0
  5 48  1  0  0  0  0
  6  7  1  0  0  0  0
  6 28  1  0  0  0  0
  7  8  1  0  0  0  0
  7 20  1  0  0  0  0
  8  9  1  0  0  0  0
  8 29  1  0  0  0  0
  8 30  1  0  0  0  0
  9 10  1  0  0  0  0
  9 11  1  0  0  0  0
  9 31  1  0  0  0  0
 10 32  1  0  0  0  0
 11 12  1  0  0  0  0
 11 33  1  0  0  0  0
 11 34  1  0  0  0  0
 12 13  1  0  0  0  0
 12 35  1  0  0  0  0
 12 47  1  0  0  0  0
 13 14  1  0  0  0  0
 13 36  1  0  0  0  0
 13 37  1  0  0  0  0
 14 15  1  0  0  0  0
 14 38  1  0  0  0  0
 14 39  1  0  0  0  0
 15 19  1  0  0  0  0
 15 16  1  0  0  0  0
 16 17  2  0  0  0  0
 16 40  1  0  0  0  0
 17 18  1  0  0  0  0
 17 41  1  0  0  0  0
 18 19  2  0  0  0  0
 18 42  1  0  0  0  0
 20 21  1  0  0  0  0
 21 22  2  0  0  0  0
 21 43  1  0  0  0  0
 22 23  1  0  0  0  0
 23 44  1  0  0  0  0
 23 45  1  0  0  0  0
 23 46  1  0  0  0  0
M  CHG  1   5   1
M  CHG  1  12   1
M  END
> <s_m_source_file>
AV-unprocessed.smi

> <i_m_source_file_index>
766

> <i_lp_mmshare_version>
43012

> <i_f3d_flags>
0

> <s_epik_input>
W0NIM11jKFtjSF0xKWMoW0NIM10pW2NIXWMoYzEyKW4oW2NIXW4yKVtDSDJdW0NASF0oW09IXSlbQ0gyXVtOSF1bQ0gyXVtDSDJdbjNbY0hdW2NIXVtjSF1uMw==

> <s_epik_cmdline>
J2VwaWtfcHl0aG9uJywgJy1waCcsICc3LjAnLCAnLXRuJywgJzgnLCAnLW1hJywgJzIwMCcsICctbWV0YWxfYmluZGluZycsICctaW1hZScsICc8aW5maWxlLm1hZT4nLCAnLW9tYWUnLCAnPG91dGZpbGUubWFlPic=

> <r_lp_tautomer_probability>
1

> <r_epik_Ionization_Penalty>
1.25103

> <r_epik_Ionization_Penalty_Charging>
1.25102

> <r_epik_Ionization_Penalty_Neutral>
6.05394e-06

> <r_epik_State_Penalty>
1.2613

> <r_epik_Charging_Adjusted_Penalty>
2.51232

> <i_epik_Tot_Q>
2

> <i_epik_Tot_abs_Q>
2

> <r_epik_Metal_State_Penalty>
1.33164

> <b_epik_Metal_Only>
0

> <s_lp_Force_Field>
OPLS_2005

> <r_lp_Energy>
19.7351

> <b_lp_Chiralities_Consistent>
1

> <s_lp_Variant>
AV-unprocessed.smi:766-3

> <Gold.Version>
5.8.1

> <Gold.Id.Protein>
6NUR|6NUR_protein|mol2

> <Gold.PLP.Fitness>
63.0578

> <Gold.PLP.PLP>
-49.4612

> <Gold.PLP.part.hbond>
-4.4635

> <Gold.PLP.part.metal>
0.0000

> <Gold.PLP.part.buried>
-2.1258

> <Gold.PLP.part.nonpolar>
-43.5869

> <Gold.PLP.part.repulsive>
0.9140

> <Gold.PLP.ligand.clash>
0.0000

> <Gold.PLP.ligand.torsion>
1.8052

> <Gold.PLP.Chemscore.Hbond>
4.7820

> <Gold.PLP.Chemscore.CHOScore>
0.8882

> <Gold.PLP.Chemscore.Metal>
0.0000

> <Gold.Chemscore.Hbonds>
donor molecule, donor type, donor heavy atom, donor atom, acceptor molecule, acceptor atom, score
      L1  H    10    32       P1  7957  0.91
      L1  H    12    35       P1  7957  1.00
      L1  H    12    47       P1  7948  1.92
      P1  H  8011  8017       L1    10  0.85
      L1  C    16    40       P1  7948  0.79

> <Gold.PLP.Chemscore.Internal.Correction>
0.1964

> <Gold.Rescore>
     Score         DG    S(hbond)    S(metal)    S(lipo)     H(rot)  DE(clash)    DE(int)     intcor
     19.44     -22.77       3.19        0.00     122.94       3.02       1.69       1.64       ----

> <Gold.Chemscore.Fitness>
19.4441

> <Gold.Chemscore.DG>
-22.7725

> <Gold.Chemscore.ZeroCoef>
-5.4800

> <Gold.Chemscore.Hbond>
3.1879

> <Gold.Chemscore.Metal>
0.0000

> <Gold.Chemscore.Lipo>
122.9355

> <Gold.Chemscore.Internal_Hbond>
0.0000

> <Gold.Chemscore.DEClash>
1.6888

> <Gold.Chemscore.DEInternal>
1.6396

> <Gold.Chemscore.Rot>
3.0229

> <Gold.Chemscore.Internal.Correction>
   9.000000E+99

> <Gold.Chemscore.Hbonds>
donor molecule, donor type, donor heavy atom, donor atom, acceptor molecule, acceptor atom, score
      L1  H    10    32       P1  7957  0.83
      L1  H    12    35       P1  7957  0.99
      L1  H    12    47       P1  7948  0.90
      P1  H  8011  8017       L1    10  0.15

> <Gold.Chemscore.Hbond.Weighted>
-10.6476

> <Gold.Chemscore.Metal.Weighted>
-0.0000

> <Gold.Chemscore.Lipo.Weighted>
-14.3835

> <Gold.Chemscore.Internal_Hbond.Weighted>
0.0000

> <Gold.Chemscore.DEClash.Weighted>
1.6888

> <Gold.Chemscore.DEInternal.Weighted>
1.6396

> <Gold.Chemscore.Rot.Weighted>
7.7386

> <Gold.Chemscore.Internal.Correction.Weighted>
   9.000000E+99

> <Gold.Protein.RotatedTorsions>
[ 6907 6896 6895 6894 ] final  179.20 input  -60.11 | X-H torsion
[ 7974 7965 7964 7962 ] final  -39.80 input  175.53 | X-H torsion
[ 8008 7997 7996 7995 ] final  130.26 input   59.86 | X-H torsion
[ 10167 10162 10161 10158 ] final  -82.48 input  -65.29 | X-H torsion
[ 10718 10713 10712 10709 ] final    1.54 input   66.30 | X-H torsion
[ 10763 10752 10751 10750 ] final  -45.63 input  -60.55 | X-H torsion
[ 11005 11000 10999 10996 ] final  -43.27 input  -57.11 | X-H torsion

> <Gold.Protein.ActiveResidues>
 VAL166  LYS551  ARG553  GLY616  TRP617  ASP618  TYR619  PRO620  LYS621  CYS622 
 ASP623  PHE694  ASN695  SER759  ASP760  ASP761  ALA762  ILE779  LEU786  VAL792 
 PHE793  MET794  SER795  GLU796  ALA797  LYS798  CYS799  TRP800  GLU811  SER814 

> <Gold.Protein.RotatedAtoms>
  151.6755  133.3313  159.3206 H   0  0  0  0  0  0  0  0  0  0  0  0  # atno 6907 bound_to 6896
  150.7847  134.6825  159.6461 H   0  0  0  0  0  0  0  0  0  0  0  0  # atno 6908 bound_to 6896
  152.3914  134.6439  160.0158 H   0  0  0  0  0  0  0  0  0  0  0  0  # atno 6909 bound_to 6896
  146.0363  140.6667  142.9108 H   0  0  0  0  0  0  0  0  0  0  0  0  # atno 7974 bound_to 7965
  156.2951  140.2600  156.2732 H   0  0  0  0  0  0  0  0  0  0  0  0  # atno 8008 bound_to 7997
  154.9674  140.0391  157.2237 H   0  0  0  0  0  0  0  0  0  0  0  0  # atno 8009 bound_to 7997
  154.7890  140.2808  155.6010 H   0  0  0  0  0  0  0  0  0  0  0  0  # atno 8010 bound_to 7997
  140.4315  143.2547  151.8752 H   0  0  0  0  0  0  0  0  0  0  0  0  # atno 10167 bound_to 10162
  156.8497  130.5549  149.5670 H   0  0  0  0  0  0  0  0  0  0  0  0  # atno 10718 bound_to 10713
  154.0318  135.6656  153.4781 H   0  0  0  0  0  0  0  0  0  0  0  0  # atno 10763 bound_to 10752
  153.0537  135.5069  154.7926 H   0  0  0  0  0  0  0  0  0  0  0  0  # atno 10764 bound_to 10752
  154.6873  135.3055  154.9494 H   0  0  0  0  0  0  0  0  0  0  0  0  # atno 10765 bound_to 10752
  141.0373  133.6795  156.2710 H   0  0  0  0  0  0  0  0  0  0  0  0  # atno 11005 bound_to 11000
  144.7053  140.3827  143.7123 LP  0  0  0  0  0  0  0  0  0  0  0  0  # atno 17320 bound_to 7965
  145.6958  139.1649  143.2621 LP  0  0  0  0  0  0  0  0  0  0  0  0  # atno 17321 bound_to 7965
  139.4785  144.5329  151.8640 LP  0  0  0  0  0  0  0  0  0  0  0  0  # atno 17342 bound_to 10162
  140.4421  144.1971  150.5892 LP  0  0  0  0  0  0  0  0  0  0  0  0  # atno 17343 bound_to 10162
  156.0835  130.5839  150.9606 LP  0  0  0  0  0  0  0  0  0  0  0  0  # atno 17370 bound_to 10713
  157.6310  131.0921  150.8441 LP  0  0  0  0  0  0  0  0  0  0  0  0  # atno 17371 bound_to 10713
  140.6300  134.5274  157.5558 LP  0  0  0  0  0  0  0  0  0  0  0  0  # atno 17394 bound_to 11000
  139.9249  134.8075  156.1097 LP  0  0  0  0  0  0  0  0  0  0  0  0  # atno 17395 bound_to 11000

$$$$
