AV-unprocessed.smi:1007|AV-procd|sdf|4400|dock1
  -GOLD-   22720 2333D 1   1.00000     0.00000
 Structure written by MMmdl.
 56 58  0  0  0  0  0  0  0  0  2 V2000
  144.2404  134.7492  150.6152 C   0  0  0  0  0  0  0  0  0  0  0  0
  144.3150  135.8100  151.5519 O   0  0  0  0  0  0  0  0  0  0  0  0
  145.6317  136.3161  151.6959 C   0  0  0  0  0  0  0  0  0  0  0  0
  145.6038  137.5150  152.6565 C   0  0  0  0  0  0  0  0  0  0  0  0
  146.9349  137.8089  153.2453 N   0  3  0  0  0  0  0  0  0  0  0  0
  147.0641  137.4024  154.6707 C   0  0  0  0  0  0  0  0  0  0  0  0
  148.4856  137.7033  155.1916 C   0  0  0  0  0  0  0  0  0  0  0  0
  148.8739  139.1055  155.0416 N   0  0  0  0  0  0  0  0  0  0  0  0
  148.1648  139.9919  155.9759 C   0  0  0  0  0  0  0  0  0  0  0  0
  148.5878  141.4779  155.9836 C   0  0  2  0  0  0  0  0  0  0  0  0
  147.6508  142.2604  155.2694 O   0  0  0  0  0  0  0  0  0  0  0  0
  150.0296  141.7325  155.4965 C   0  0  0  0  0  0  0  0  0  0  0  0
  151.0245  141.2247  156.4233 N   0  0  0  0  0  0  0  0  0  0  0  0
  151.7147  140.0721  156.3253 C   0  0  0  0  0  0  0  0  0  0  0  0
  152.5829  139.7984  157.2947 N   0  0  0  0  0  0  0  0  0  0  0  0
  152.4356  140.8996  158.1206 C   0  0  0  0  0  0  0  0  0  0  0  0
  153.0752  141.2266  159.3363 C   0  0  0  0  0  0  0  0  0  0  0  0
  152.7649  142.4241  160.0193 C   0  0  0  0  0  0  0  0  0  0  0  0
  153.4770  142.7360  161.3236 C   0  0  0  0  0  0  0  0  0  0  0  0
  151.8006  143.3170  159.4861 C   0  0  0  0  0  0  0  0  0  0  0  0
  151.4537  144.6112  160.2007 C   0  0  0  0  0  0  0  0  0  0  0  0
  151.1512  143.0051  158.2734 C   0  0  0  0  0  0  0  0  0  0  0  0
  151.4684  141.8104  157.6035 C   0  0  0  0  0  0  0  0  0  0  0  0
  148.7430  139.4695  153.6287 C   0  0  0  0  0  0  0  0  0  0  0  0
  147.3274  139.2310  153.0678 C   0  0  0  0  0  0  0  0  0  0  0  0
  143.2117  134.3958  150.5430 H   0  0  0  0  0  0  0  0  0  0  0  0
  144.8646  133.9079  150.9199 H   0  0  0  0  0  0  0  0  0  0  0  0
  144.5540  135.0766  149.6230 H   0  0  0  0  0  0  0  0  0  0  0  0
  146.2749  135.5384  152.1108 H   0  0  0  0  0  0  0  0  0  0  0  0
  146.0503  136.5883  150.7269 H   0  0  0  0  0  0  0  0  0  0  0  0
  145.2509  138.3852  152.1014 H   0  0  0  0  0  0  0  0  0  0  0  0
  144.8803  137.3458  153.4553 H   0  0  0  0  0  0  0  0  0  0  0  0
  146.3130  137.9134  155.2739 H   0  0  0  0  0  0  0  0  0  0  0  0
  146.8746  136.3352  154.7758 H   0  0  0  0  0  0  0  0  0  0  0  0
  148.5675  137.4055  156.2376 H   0  0  0  0  0  0  0  0  0  0  0  0
  149.1980  137.0786  154.6508 H   0  0  0  0  0  0  0  0  0  0  0  0
  147.0859  139.9221  155.8392 H   0  0  0  0  0  0  0  0  0  0  0  0
  148.3473  139.6175  156.9841 H   0  0  0  0  0  0  0  0  0  0  0  0
  148.5168  141.8200  157.0169 H   0  0  0  0  0  0  0  0  0  0  0  0
  147.8362  143.1725  155.4348 H   0  0  0  0  0  0  0  0  0  0  0  0
  150.1890  141.2544  154.5294 H   0  0  0  0  0  0  0  0  0  0  0  0
  150.2092  142.7984  155.3506 H   0  0  0  0  0  0  0  0  0  0  0  0
  151.5738  139.3972  155.4936 H   0  0  0  0  0  0  0  0  0  0  0  0
  153.8099  140.5465  159.7417 H   0  0  0  0  0  0  0  0  0  0  0  0
  152.7583  142.8351  162.1373 H   0  0  0  0  0  0  0  0  0  0  0  0
  154.0368  143.6677  161.2399 H   0  0  0  0  0  0  0  0  0  0  0  0
  154.1791  141.9464  161.5931 H   0  0  0  0  0  0  0  0  0  0  0  0
  150.6824  145.1665  159.6661 H   0  0  0  0  0  0  0  0  0  0  0  0
  152.3331  145.2508  160.2786 H   0  0  0  0  0  0  0  0  0  0  0  0
  151.0828  144.4069  161.2052 H   0  0  0  0  0  0  0  0  0  0  0  0
  150.4148  143.6759  157.8563 H   0  0  0  0  0  0  0  0  0  0  0  0
  149.0396  140.5051  153.4700 H   0  0  0  0  0  0  0  0  0  0  0  0
  149.4518  138.8785  153.0470 H   0  0  0  0  0  0  0  0  0  0  0  0
  147.3170  139.4814  152.0063 H   0  0  0  0  0  0  0  0  0  0  0  0
  146.5999  139.8845  153.5510 H   0  0  0  0  0  0  0  0  0  0  0  0
  147.6072  137.2656  152.7221 H   0  0  0  0  0  0  0  0  0  0  0  0
  1  2  1  0  0  0  0
  1 26  1  0  0  0  0
  1 27  1  0  0  0  0
  1 28  1  0  0  0  0
  2  3  1  0  0  0  0
  3  4  1  0  0  0  0
  3 29  1  0  0  0  0
  3 30  1  0  0  0  0
  4  5  1  0  0  0  0
  4 31  1  0  0  0  0
  4 32  1  0  0  0  0
  5 25  1  0  0  0  0
  5  6  1  0  0  0  0
  5 56  1  0  0  0  0
  6  7  1  0  0  0  0
  6 33  1  0  0  0  0
  6 34  1  0  0  0  0
  7  8  1  0  0  0  0
  7 35  1  0  0  0  0
  7 36  1  0  0  0  0
  8  9  1  0  0  0  0
  8 24  1  0  0  0  0
  9 10  1  0  0  0  0
  9 37  1  0  0  0  0
  9 38  1  0  0  0  0
 10 11  1  0  0  0  0
 10 12  1  0  0  0  0
 10 39  1  0  0  0  0
 11 40  1  0  0  0  0
 12 13  1  0  0  0  0
 12 41  1  0  0  0  0
 12 42  1  0  0  0  0
 13 23  1  0  0  0  0
 13 14  1  0  0  0  0
 14 15  2  0  0  0  0
 14 43  1  0  0  0  0
 15 16  1  0  0  0  0
 16 23  2  0  0  0  0
 16 17  1  0  0  0  0
 17 18  2  0  0  0  0
 17 44  1  0  0  0  0
 18 19  1  0  0  0  0
 18 20  1  0  0  0  0
 19 45  1  0  0  0  0
 19 46  1  0  0  0  0
 19 47  1  0  0  0  0
 20 21  1  0  0  0  0
 20 22  2  0  0  0  0
 21 48  1  0  0  0  0
 21 49  1  0  0  0  0
 21 50  1  0  0  0  0
 22 23  1  0  0  0  0
 22 51  1  0  0  0  0
 24 25  1  0  0  0  0
 24 52  1  0  0  0  0
 24 53  1  0  0  0  0
 25 54  1  0  0  0  0
 25 55  1  0  0  0  0
M  CHG  1   5   1
M  END
> <s_m_source_file>
AV-unprocessed.smi

> <i_m_source_file_index>
1007

> <i_lp_mmshare_version>
43012

> <i_f3d_flags>
0

> <s_epik_input>
W0NIM11PW0NIMl1bQ0gyXU4xW0NIMl1bQ0gyXU4oW0NIMl1bQ0gyXTEpW0NIMl1bQ0BIXShbT0hdKVtDSDJdbihbY0hdbjIpYyhjMjMpW2NIXWMoW0NIM10pYyhbY0hdMylbQ0gzXQ==

> <s_epik_cmdline>
J2VwaWtfcHl0aG9uJywgJy1waCcsICc3LjAnLCAnLXRuJywgJzgnLCAnLW1hJywgJzIwMCcsICctbWV0YWxfYmluZGluZycsICctaW1hZScsICc8aW5maWxlLm1hZT4nLCAnLW9tYWUnLCAnPG91dGZpbGUubWFlPic=

> <r_epik_Ionization_Penalty>
0.186009

> <r_epik_Ionization_Penalty_Charging>
0.0613973

> <r_epik_Ionization_Penalty_Neutral>
0.124612

> <r_epik_State_Penalty>
1.21927

> <r_epik_Charging_Adjusted_Penalty>
1.28067

> <i_epik_Tot_Q>
1

> <i_epik_Tot_abs_Q>
1

> <r_epik_Metal_State_Penalty>
1.13901

> <b_epik_Metal_Only>
0

> <s_lp_Force_Field>
OPLS_2005

> <r_lp_Energy>
39.6127

> <b_lp_Chiralities_Consistent>
1

> <s_lp_Variant>
AV-unprocessed.smi:1007-3

> <Gold.Version>
5.8.1

> <Gold.Id.Protein>
6NUR|6NUR_protein|mol2

> <Gold.PLP.Fitness>
51.7939

> <Gold.PLP.PLP>
-42.6805

> <Gold.PLP.part.hbond>
-3.0000

> <Gold.PLP.part.metal>
0.0000

> <Gold.PLP.part.buried>
-2.5053

> <Gold.PLP.part.nonpolar>
-37.9361

> <Gold.PLP.part.repulsive>
0.3062

> <Gold.PLP.ligand.clash>
0.0000

> <Gold.PLP.ligand.torsion>
1.6781

> <Gold.PLP.Chemscore.Hbond>
4.0000

> <Gold.PLP.Chemscore.CHOScore>
0.0000

> <Gold.PLP.Chemscore.Metal>
0.0000

> <Gold.Chemscore.Hbonds>
donor molecule, donor type, donor heavy atom, donor atom, acceptor molecule, acceptor atom, score
      L1  H     5    56       P1  7948  2.00
      L1  H    11    40       P1  8028  1.00
      P1  H  7997  8009       L1    15  1.00

> <Gold.PLP.Chemscore.Internal.Correction>
0.4697

> <Gold.Rescore>
     Score         DG    S(hbond)    S(metal)    S(lipo)     H(rot)  DE(clash)    DE(int)     intcor
     18.05     -21.35       2.39        0.00     123.25       2.56       1.74       1.56       ----

> <Gold.Chemscore.Fitness>
18.0472

> <Gold.Chemscore.DG>
-21.3477

> <Gold.Chemscore.ZeroCoef>
-5.4800

> <Gold.Chemscore.Hbond>
2.3950

> <Gold.Chemscore.Metal>
0.0000

> <Gold.Chemscore.Lipo>
123.2537

> <Gold.Chemscore.Internal_Hbond>
0.0000

> <Gold.Chemscore.DEClash>
1.7409

> <Gold.Chemscore.DEInternal>
1.5595

> <Gold.Chemscore.Rot>
2.5594

> <Gold.Chemscore.Internal.Correction>
   9.000000E+99

> <Gold.Chemscore.Hbonds>
donor molecule, donor type, donor heavy atom, donor atom, acceptor molecule, acceptor atom, score
      L1  H     5    56       P1  7948  1.00
      L1  H    11    40       P1  8028  0.55
      P1  H  7997  8009       L1    15  0.18

> <Gold.Chemscore.Hbond.Weighted>
-7.9992

> <Gold.Chemscore.Metal.Weighted>
-0.0000

> <Gold.Chemscore.Lipo.Weighted>
-14.4207

> <Gold.Chemscore.Internal_Hbond.Weighted>
0.0000

> <Gold.Chemscore.DEClash.Weighted>
1.7409

> <Gold.Chemscore.DEInternal.Weighted>
1.5595

> <Gold.Chemscore.Rot.Weighted>
6.5522

> <Gold.Chemscore.Internal.Correction.Weighted>
   9.000000E+99

> <Gold.Protein.RotatedTorsions>
[ 6907 6896 6895 6894 ] final  -58.77 input  -60.11 | X-H torsion
[ 7974 7965 7964 7962 ] final  -51.59 input  175.53 | X-H torsion
[ 8008 7997 7996 7995 ] final -175.67 input   59.86 | X-H torsion
[ 10167 10162 10161 10158 ] final  126.37 input  -65.29 | X-H torsion
[ 10718 10713 10712 10709 ] final   47.74 input   66.30 | X-H torsion
[ 10763 10752 10751 10750 ] final -156.28 input  -60.55 | X-H torsion
[ 11005 11000 10999 10996 ] final -178.15 input  -57.11 | X-H torsion

> <Gold.Protein.ActiveResidues>
 VAL166  LYS551  ARG553  GLY616  TRP617  ASP618  TYR619  PRO620  LYS621  CYS622 
 ASP623  PHE694  ASN695  SER759  ASP760  ASP761  ALA762  ILE779  LEU786  VAL792 
 PHE793  MET794  SER795  GLU796  ALA797  LYS798  CYS799  TRP800  GLU811  SER814 

> <Gold.Protein.RotatedAtoms>
  150.7981  134.7056  159.6574 H   0  0  0  0  0  0  0  0  0  0  0  0  # atno 6907 bound_to 6896
  152.4096  134.6144  160.0044 H   0  0  0  0  0  0  0  0  0  0  0  0  # atno 6908 bound_to 6896
  151.6392  133.3290  159.3162 H   0  0  0  0  0  0  0  0  0  0  0  0  # atno 6909 bound_to 6896
  145.9172  140.7864  142.9665 H   0  0  0  0  0  0  0  0  0  0  0  0  # atno 7974 bound_to 7965
  155.9855  140.1190  157.0687 H   0  0  0  0  0  0  0  0  0  0  0  0  # atno 8008 bound_to 7997
  154.4195  140.1136  156.5561 H   0  0  0  0  0  0  0  0  0  0  0  0  # atno 8009 bound_to 7997
  155.6414  140.3473  155.4718 H   0  0  0  0  0  0  0  0  0  0  0  0  # atno 8010 bound_to 7997
  139.5634  144.6896  151.3977 H   0  0  0  0  0  0  0  0  0  0  0  0  # atno 10167 bound_to 10162
  157.4615  130.8199  149.7892 H   0  0  0  0  0  0  0  0  0  0  0  0  # atno 10718 bound_to 10713
  154.7724  135.3149  154.8161 H   0  0  0  0  0  0  0  0  0  0  0  0  # atno 10763 bound_to 10752
  153.8893  135.6827  153.4766 H   0  0  0  0  0  0  0  0  0  0  0  0  # atno 10764 bound_to 10752
  153.1341  135.4767  154.9329 H   0  0  0  0  0  0  0  0  0  0  0  0  # atno 10765 bound_to 10752
  140.4329  134.6502  157.4721 H   0  0  0  0  0  0  0  0  0  0  0  0  # atno 11005 bound_to 11000
  144.6749  140.1919  143.7396 LP  0  0  0  0  0  0  0  0  0  0  0  0  # atno 17320 bound_to 7965
  145.8596  139.2216  143.1724 LP  0  0  0  0  0  0  0  0  0  0  0  0  # atno 17321 bound_to 7965
  140.6916  143.7847  150.7264 LP  0  0  0  0  0  0  0  0  0  0  0  0  # atno 17342 bound_to 10162
  140.1331  143.4508  152.2241 LP  0  0  0  0  0  0  0  0  0  0  0  0  # atno 17343 bound_to 10162
  156.0031  130.3869  150.2531 LP  0  0  0  0  0  0  0  0  0  0  0  0  # atno 17370 bound_to 10713
  157.0709  131.0116  151.3190 LP  0  0  0  0  0  0  0  0  0  0  0  0  # atno 17371 bound_to 10713
  140.0122  134.6674  155.9364 LP  0  0  0  0  0  0  0  0  0  0  0  0  # atno 17394 bound_to 11000
  141.1738  133.6539  156.4750 LP  0  0  0  0  0  0  0  0  0  0  0  0  # atno 17395 bound_to 11000

$$$$
