AV-unprocessed.smi:974|AV-procd|sdf|4300|dock4
  -GOLD-   22720 2203D 1   1.00000     0.00000
 Structure written by MMmdl.
 31 32  0  0  0  0  0  0  0  0  1 V2000
  151.7608  137.7254  153.8784 N   0  0  0  0  0  0  0  0  0  0  0  0
  150.8248  138.6660  154.3475 C   0  0  0  0  0  0  0  0  0  0  0  0
  149.4889  138.9049  153.9186 C   0  0  0  0  0  0  0  0  0  0  0  0
  148.9026  139.8794  154.5957 N   0  0  0  0  0  0  0  0  0  0  0  0
  149.8414  140.2929  155.4757 N   0  0  0  0  0  0  0  0  0  0  0  0
  149.5405  141.3688  156.4027 C   0  0  0  0  0  0  0  0  0  0  0  0
  150.7383  141.6670  157.3047 C   0  0  0  0  0  0  0  0  0  0  0  0
  151.3416  140.7443  157.8519 O   0  0  0  0  0  0  0  0  0  0  0  0
  151.0702  142.9591  157.4497 N   0  0  0  0  0  0  0  0  0  0  0  0
  152.1674  143.4590  158.2735 C   0  0  0  0  0  0  0  0  0  0  0  0
  152.0992  142.8656  159.6940 C   0  0  0  0  0  0  0  0  0  0  0  0
  152.2609  144.0450  160.6550 C   0  0  0  0  0  0  0  0  0  0  0  0
  151.6777  145.2322  159.8957 C   0  0  0  0  0  0  0  0  0  0  0  0
  152.0977  144.9900  158.4460 C   0  0  0  0  0  0  0  0  0  0  0  0
  151.0132  139.5760  155.3480 C   0  0  0  0  0  0  0  0  0  0  0  0
  152.6884  137.6544  154.2713 H   0  0  0  0  0  0  0  0  0  0  0  0
  151.5402  137.0759  153.1370 H   0  0  0  0  0  0  0  0  0  0  0  0
  148.9311  138.4037  153.1414 H   0  0  0  0  0  0  0  0  0  0  0  0
  149.2745  142.2590  155.8312 H   0  0  0  0  0  0  0  0  0  0  0  0
  148.6702  141.1026  157.0052 H   0  0  0  0  0  0  0  0  0  0  0  0
  150.5139  143.6478  156.9639 H   0  0  0  0  0  0  0  0  0  0  0  0
  153.1194  143.1880  157.8128 H   0  0  0  0  0  0  0  0  0  0  0  0
  151.1290  142.3974  159.8697 H   0  0  0  0  0  0  0  0  0  0  0  0
  152.8584  142.0999  159.8577 H   0  0  0  0  0  0  0  0  0  0  0  0
  151.7699  143.8763  161.6139 H   0  0  0  0  0  0  0  0  0  0  0  0
  153.3202  144.2193  160.8490 H   0  0  0  0  0  0  0  0  0  0  0  0
  150.5895  145.2175  159.9706 H   0  0  0  0  0  0  0  0  0  0  0  0
  152.0265  146.1911  160.2800 H   0  0  0  0  0  0  0  0  0  0  0  0
  153.0905  145.4124  158.2848 H   0  0  0  0  0  0  0  0  0  0  0  0
  151.4254  145.4795  157.7401 H   0  0  0  0  0  0  0  0  0  0  0  0
  151.8713  139.7721  155.9744 H   0  0  0  0  0  0  0  0  0  0  0  0
  1  2  1  0  0  0  0
  1 16  1  0  0  0  0
  1 17  1  0  0  0  0
  2 15  2  0  0  0  0
  2  3  1  0  0  0  0
  3  4  2  0  0  0  0
  3 18  1  0  0  0  0
  4  5  1  0  0  0  0
  5  6  1  0  0  0  0
  5 15  1  0  0  0  0
  6  7  1  0  0  0  0
  6 19  1  0  0  0  0
  6 20  1  0  0  0  0
  7  8  2  0  0  0  0
  7  9  1  0  0  0  0
  9 10  1  0  0  0  0
  9 21  1  0  0  0  0
 10 14  1  0  0  0  0
 10 11  1  0  0  0  0
 10 22  1  0  0  0  0
 11 12  1  0  0  0  0
 11 23  1  0  0  0  0
 11 24  1  0  0  0  0
 12 13  1  0  0  0  0
 12 25  1  0  0  0  0
 12 26  1  0  0  0  0
 13 14  1  0  0  0  0
 13 27  1  0  0  0  0
 13 28  1  0  0  0  0
 14 29  1  0  0  0  0
 14 30  1  0  0  0  0
 15 31  1  0  0  0  0
M  END
> <s_m_source_file>
AV-unprocessed.smi

> <i_m_source_file_index>
974

> <i_lp_mmshare_version>
43012

> <i_f3d_flags>
0

> <s_epik_input>
W05IMl1jMVtjSF1ubihbY0hdMSlbQ0gyXUMoPU8pW05IXVtDSF0yW0NIMl1bQ0gyXVtDSDJdW0NIMl0y

> <s_epik_cmdline>
J2VwaWtfcHl0aG9uJywgJy1waCcsICc3LjAnLCAnLXRuJywgJzgnLCAnLW1hJywgJzIwMCcsICctbWV0YWxfYmluZGluZycsICctaW1hZScsICc8aW5maWxlLm1hZT4nLCAnLW9tYWUnLCAnPG91dGZpbGUubWFlPic=

> <r_lp_tautomer_probability>
1

> <r_epik_Ionization_Penalty>
0.000104856

> <r_epik_Ionization_Penalty_Charging>
0

> <r_epik_Ionization_Penalty_Neutral>
0.000104856

> <r_epik_State_Penalty>
-0

> <r_epik_Charging_Adjusted_Penalty>
0

> <i_epik_Tot_Q>
0

> <i_epik_Tot_abs_Q>
0

> <r_epik_Metal_State_Penalty>
-0

> <b_epik_Metal_Only>
0

> <s_lp_Force_Field>
OPLS_2005

> <r_lp_Energy>
19.843

> <b_lp_Chiralities_Consistent>
1

> <s_lp_Variant>
AV-unprocessed.smi:974-1

> <Gold.Version>
5.8.1

> <Gold.Id.Protein>
6NUR|6NUR_protein|mol2

> <Gold.PLP.Fitness>
41.8421

> <Gold.PLP.PLP>
-34.2978

> <Gold.PLP.part.hbond>
-1.1624

> <Gold.PLP.part.metal>
0.0000

> <Gold.PLP.part.buried>
-2.9635

> <Gold.PLP.part.nonpolar>
-30.6713

> <Gold.PLP.part.repulsive>
0.2597

> <Gold.PLP.ligand.clash>
0.0000

> <Gold.PLP.ligand.torsion>
0.2558

> <Gold.PLP.Chemscore.Hbond>
1.3000

> <Gold.PLP.Chemscore.CHOScore>
1.3843

> <Gold.PLP.Chemscore.Metal>
0.0000

> <Gold.Chemscore.Hbonds>
donor molecule, donor type, donor heavy atom, donor atom, acceptor molecule, acceptor atom, score
      L1  H     1    17       P1  7949  1.00
      L1  H     9    21       P1  8028  0.24
      L1  C     3    18       P1  7948  1.00
      L1  C     3    18       P1  7957  0.25

> <Gold.PLP.Chemscore.Internal.Correction>
0.0031

> <Gold.Rescore>
     Score         DG    S(hbond)    S(metal)    S(lipo)     H(rot)  DE(clash)    DE(int)     intcor
     13.99     -17.32       1.69        0.00      88.21       1.61       0.22       3.11       ----

> <Gold.Chemscore.Fitness>
13.9854

> <Gold.Chemscore.DG>
-17.3179

> <Gold.Chemscore.ZeroCoef>
-5.4800

> <Gold.Chemscore.Hbond>
1.6875

> <Gold.Chemscore.Metal>
0.0000

> <Gold.Chemscore.Lipo>
88.2090

> <Gold.Chemscore.Internal_Hbond>
0.0000

> <Gold.Chemscore.DEClash>
0.2191

> <Gold.Chemscore.DEInternal>
3.1134

> <Gold.Chemscore.Rot>
1.6089

> <Gold.Chemscore.Internal.Correction>
   9.000000E+99

> <Gold.Chemscore.Hbonds>
donor molecule, donor type, donor heavy atom, donor atom, acceptor molecule, acceptor atom, score
      L1  H     1    17       P1  7949  0.88
      L1  H     9    21       P1  8028  0.25

> <Gold.Chemscore.Hbond.Weighted>
-5.6362

> <Gold.Chemscore.Metal.Weighted>
-0.0000

> <Gold.Chemscore.Lipo.Weighted>
-10.3205

> <Gold.Chemscore.Internal_Hbond.Weighted>
0.0000

> <Gold.Chemscore.DEClash.Weighted>
0.2191

> <Gold.Chemscore.DEInternal.Weighted>
3.1134

> <Gold.Chemscore.Rot.Weighted>
4.1188

> <Gold.Chemscore.Internal.Correction.Weighted>
   9.000000E+99

> <Gold.Protein.RotatedTorsions>
[ 6907 6896 6895 6894 ] final  158.45 input  -60.11 | X-H torsion
[ 7974 7965 7964 7962 ] final -136.89 input  175.53 | X-H torsion
[ 8008 7997 7996 7995 ] final -100.87 input   59.86 | X-H torsion
[ 10167 10162 10161 10158 ] final -171.66 input  -65.29 | X-H torsion
[ 10718 10713 10712 10709 ] final   74.45 input   66.30 | X-H torsion
[ 10763 10752 10751 10750 ] final -148.98 input  -60.55 | X-H torsion
[ 11005 11000 10999 10996 ] final  -36.18 input  -57.11 | X-H torsion

> <Gold.Protein.ActiveResidues>
 VAL166  LYS551  ARG553  GLY616  TRP617  ASP618  TYR619  PRO620  LYS621  CYS622 
 ASP623  PHE694  ASN695  SER759  ASP760  ASP761  ALA762  ILE779  LEU786  VAL792 
 PHE793  MET794  SER795  GLU796  ALA797  LYS798  CYS799  TRP800  GLU811  SER814 

> <Gold.Protein.RotatedAtoms>
  152.0002  133.3822  159.4178 H   0  0  0  0  0  0  0  0  0  0  0  0  # atno 6907 bound_to 6896
  150.6911  134.3842  159.5057 H   0  0  0  0  0  0  0  0  0  0  0  0  # atno 6908 bound_to 6896
  152.1588  134.8928  160.0593 H   0  0  0  0  0  0  0  0  0  0  0  0  # atno 6909 bound_to 6896
  144.8888  140.6613  143.5158 H   0  0  0  0  0  0  0  0  0  0  0  0  # atno 7974 bound_to 7965
  154.8347  140.0438  157.1501 H   0  0  0  0  0  0  0  0  0  0  0  0  # atno 8008 bound_to 7997
  154.9113  140.3014  155.5244 H   0  0  0  0  0  0  0  0  0  0  0  0  # atno 8009 bound_to 7997
  156.2989  140.2357  156.4153 H   0  0  0  0  0  0  0  0  0  0  0  0  # atno 8010 bound_to 7997
  139.5789  144.1467  152.1489 H   0  0  0  0  0  0  0  0  0  0  0  0  # atno 10167 bound_to 10162
  157.6592  130.9678  150.1212 H   0  0  0  0  0  0  0  0  0  0  0  0  # atno 10718 bound_to 10713
  154.8203  135.3320  154.7059 H   0  0  0  0  0  0  0  0  0  0  0  0  # atno 10763 bound_to 10752
  153.7693  135.6927  153.4914 H   0  0  0  0  0  0  0  0  0  0  0  0  # atno 10764 bound_to 10752
  153.2056  135.4500  155.0267 H   0  0  0  0  0  0  0  0  0  0  0  0  # atno 10765 bound_to 10752
  140.9855  133.7033  156.1757 H   0  0  0  0  0  0  0  0  0  0  0  0  # atno 11005 bound_to 11000
  145.3820  139.1635  143.4275 LP  0  0  0  0  0  0  0  0  0  0  0  0  # atno 17320 bound_to 7965
  146.3041  140.3901  142.8693 LP  0  0  0  0  0  0  0  0  0  0  0  0  # atno 17321 bound_to 7965
  140.1016  144.5534  150.6985 LP  0  0  0  0  0  0  0  0  0  0  0  0  # atno 17342 bound_to 10162
  140.7070  143.2475  151.4697 LP  0  0  0  0  0  0  0  0  0  0  0  0  # atno 17343 bound_to 10162
  156.2083  130.3665  149.8702 LP  0  0  0  0  0  0  0  0  0  0  0  0  # atno 17370 bound_to 10713
  156.6587  130.8773  151.3544 LP  0  0  0  0  0  0  0  0  0  0  0  0  # atno 17371 bound_to 10713
  140.7122  134.4449  157.5581 LP  0  0  0  0  0  0  0  0  0  0  0  0  # atno 17394 bound_to 11000
  139.8968  134.8650  156.2070 LP  0  0  0  0  0  0  0  0  0  0  0  0  # atno 17395 bound_to 11000

$$$$
