AV-unprocessed.smi:1|AV-procd|sdf|8|dock2
  -GOLD-   2262015 93D 1   1.00000     0.00000
 Structure written by MMmdl.
 57 62  0  0  0  0  0  0  0  0  1 V2000
  143.7541  137.0724  154.2849 O   0  0  0  0  0  0  0  0  0  0  0  0
  143.1003  138.0847  154.5387 C   0  0  0  0  0  0  0  0  0  0  0  0
  143.6871  139.2407  155.1934 N   0  0  0  0  0  0  0  0  0  0  0  0
  144.9437  139.3805  155.6768 C   0  0  0  0  0  0  0  0  0  0  0  0
  145.1937  139.7418  156.9620 N   0  0  0  0  0  0  0  0  0  0  0  0
  146.4515  139.8678  157.3902 C   0  0  0  0  0  0  0  0  0  0  0  0
  147.5846  139.6828  156.7108 N   0  0  0  0  0  0  0  0  0  0  0  0
  147.3486  139.3135  155.4172 C   0  0  0  0  0  0  0  0  0  0  0  0
  146.0604  139.1467  154.8329 C   0  0  0  0  0  0  0  0  0  0  0  0
  146.1884  138.7788  153.5013 N   0  0  0  0  0  0  0  0  0  0  0  0
  147.4782  138.7329  153.3111 C   0  0  0  0  0  0  0  0  0  0  0  0
  148.2560  139.0255  154.4104 N   0  0  0  0  0  0  0  0  0  0  0  0
  149.7598  139.0412  154.4530 C   0  0  1  0  0  0  0  0  0  0  0  0
  150.2191  140.3149  154.7866 O   0  0  0  0  0  0  0  0  0  0  0  0
  150.6010  140.3481  156.1564 C   0  0  2  0  0  0  0  0  0  0  0  0
  151.5618  141.5120  156.4121 C   0  0  0  0  0  0  0  0  0  0  0  0
  151.5583  141.8028  157.7995 O   0  0  0  0  0  0  0  0  0  0  0  0
  152.4526  141.2179  158.6180 C   0  0  0  0  0  0  0  0  0  0  0  0
  153.0739  140.1930  158.3296 O   0  0  0  0  0  0  0  0  0  0  0  0
  152.6071  141.9390  159.9144 C   0  0  0  0  0  0  0  0  0  0  0  0
  151.9443  143.1735  160.1072 C   0  0  0  0  0  0  0  0  0  0  0  0
  152.0761  143.8760  161.3213 C   0  0  0  0  0  0  0  0  0  0  0  0
  152.8710  143.3518  162.3574 C   0  0  0  0  0  0  0  0  0  0  0  0
  153.5332  142.1230  162.1788 C   0  0  0  0  0  0  0  0  0  0  0  0
  153.4021  141.4198  160.9656 C   0  0  0  0  0  0  0  0  0  0  0  0
  151.2243  138.9695  156.3624 C   0  0  1  0  0  0  0  0  0  0  0  0
  151.1577  138.5542  157.7154 O   0  0  0  0  0  0  0  0  0  0  0  0
  149.7538  137.6767  157.9412 S   0  0  0  0  0  0  0  0  0  0  0  0
  150.1218  136.3376  158.4256 O   0  0  0  0  0  0  0  0  0  0  0  0
  148.7800  138.5316  158.6370 O   0  0  0  0  0  0  0  0  0  0  0  0
  149.2831  137.5458  156.3454 O   0  0  0  0  0  0  0  0  0  0  0  0
  150.3114  138.0696  155.5171 C   0  0  1  0  0  0  0  0  0  0  0  0
  141.6675  138.2246  154.1132 C   0  0  0  0  0  0  0  0  0  0  0  0
  140.9420  137.0876  153.6920 C   0  0  0  0  0  0  0  0  0  0  0  0
  139.5925  137.2050  153.3067 C   0  0  0  0  0  0  0  0  0  0  0  0
  138.9547  138.4592  153.3459 C   0  0  0  0  0  0  0  0  0  0  0  0
  139.6664  139.5953  153.7752 C   0  0  0  0  0  0  0  0  0  0  0  0
  141.0161  139.4792  154.1610 C   0  0  0  0  0  0  0  0  0  0  0  0
  143.0749  140.0331  155.3223 H   0  0  0  0  0  0  0  0  0  0  0  0
  146.5637  140.1565  158.4245 H   0  0  0  0  0  0  0  0  0  0  0  0
  147.9055  138.4713  152.3539 H   0  0  0  0  0  0  0  0  0  0  0  0
  150.0587  138.7888  153.4350 H   0  0  0  0  0  0  0  0  0  0  0  0
  149.7127  140.4446  156.7820 H   0  0  0  0  0  0  0  0  0  0  0  0
  152.5702  141.2300  156.1064 H   0  0  0  0  0  0  0  0  0  0  0  0
  151.2712  142.3900  155.8338 H   0  0  0  0  0  0  0  0  0  0  0  0
  151.3297  143.5958  159.3253 H   0  0  0  0  0  0  0  0  0  0  0  0
  151.5661  144.8183  161.4567 H   0  0  0  0  0  0  0  0  0  0  0  0
  152.9716  143.8904  163.2882 H   0  0  0  0  0  0  0  0  0  0  0  0
  154.1420  141.7174  162.9735 H   0  0  0  0  0  0  0  0  0  0  0  0
  153.9184  140.4775  160.8614 H   0  0  0  0  0  0  0  0  0  0  0  0
  152.2482  138.9406  155.9876 H   0  0  0  0  0  0  0  0  0  0  0  0
  150.8581  137.2535  155.0439 H   0  0  0  0  0  0  0  0  0  0  0  0
  141.4170  136.1176  153.6572 H   0  0  0  0  0  0  0  0  0  0  0  0
  139.0467  136.3315  152.9818 H   0  0  0  0  0  0  0  0  0  0  0  0
  137.9198  138.5489  153.0506 H   0  0  0  0  0  0  0  0  0  0  0  0
  139.1758  140.5568  153.8114 H   0  0  0  0  0  0  0  0  0  0  0  0
  141.5401  140.3627  154.4957 H   0  0  0  0  0  0  0  0  0  0  0  0
  1  2  2  0  0  0  0
  2  3  1  0  0  0  0
  2 33  1  0  0  0  0
  3  4  1  0  0  0  0
  3 39  1  0  0  0  0
  4  9  1  0  0  0  0
  4  5  2  0  0  0  0
  5  6  1  0  0  0  0
  6  7  2  0  0  0  0
  6 40  1  0  0  0  0
  7  8  1  0  0  0  0
  8 12  1  0  0  0  0
  8  9  2  0  0  0  0
  9 10  1  0  0  0  0
 10 11  2  0  0  0  0
 11 12  1  0  0  0  0
 11 41  1  0  0  0  0
 12 13  1  0  0  0  0
 13 32  1  0  0  0  0
 13 14  1  0  0  0  0
 13 42  1  0  0  0  0
 14 15  1  0  0  0  0
 15 16  1  0  0  0  0
 15 26  1  0  0  0  0
 15 43  1  0  0  0  0
 16 17  1  0  0  0  0
 16 44  1  0  0  0  0
 16 45  1  0  0  0  0
 17 18  1  0  0  0  0
 18 19  2  0  0  0  0
 18 20  1  0  0  0  0
 20 25  1  0  0  0  0
 20 21  2  0  0  0  0
 21 22  1  0  0  0  0
 21 46  1  0  0  0  0
 22 23  2  0  0  0  0
 22 47  1  0  0  0  0
 23 24  1  0  0  0  0
 23 48  1  0  0  0  0
 24 25  2  0  0  0  0
 24 49  1  0  0  0  0
 25 50  1  0  0  0  0
 26 32  1  0  0  0  0
 26 27  1  0  0  0  0
 26 51  1  0  0  0  0
 27 28  1  0  0  0  0
 28 29  2  0  0  0  0
 28 30  2  0  0  0  0
 28 31  1  0  0  0  0
 31 32  1  0  0  0  0
 32 52  1  0  0  0  0
 33 38  1  0  0  0  0
 33 34  2  0  0  0  0
 34 35  1  0  0  0  0
 34 53  1  0  0  0  0
 35 36  2  0  0  0  0
 35 54  1  0  0  0  0
 36 37  1  0  0  0  0
 36 55  1  0  0  0  0
 37 38  2  0  0  0  0
 37 56  1  0  0  0  0
 38 57  1  0  0  0  0
M  END
> <s_m_source_file>
AV-unprocessed.smi

> <i_m_source_file_index>
1

> <i_lp_mmshare_version>
43012

> <i_f3d_flags>
0

> <s_epik_input>
W2NIXTFbY0hdW2NIXVtjSF1bY0hdYzFDKD1PKVtOSF1jKG5bY0hdbjIpYyhjMjMpbltjSF1uM1tDQEBIXShbQ0BIXShbQ0BIXTQ1KU9TKE81KSg9Tyk9TylPW0NASF00W0NIMl1PQyg9TyljNltjSF1bY0hdW2NIXVtjSF1bY0hdNg==

> <s_epik_cmdline>
J2VwaWtfcHl0aG9uJywgJy1waCcsICc3LjAnLCAnLXRuJywgJzgnLCAnLW1hJywgJzIwMCcsICctbWV0YWxfYmluZGluZycsICctaW1hZScsICc8aW5maWxlLm1hZT4nLCAnLW9tYWUnLCAnPG91dGZpbGUubWFlPic=

> <r_lp_tautomer_probability>
1

> <r_epik_Ionization_Penalty>
0.00195722

> <r_epik_Ionization_Penalty_Charging>
0

> <r_epik_Ionization_Penalty_Neutral>
0.00195722

> <r_epik_State_Penalty>
0.00633741

> <r_epik_Charging_Adjusted_Penalty>
0.00633741

> <i_epik_Tot_Q>
0

> <i_epik_Tot_abs_Q>
0

> <r_epik_Metal_State_Penalty>
0.341185

> <b_epik_Metal_Only>
0

> <s_epik_Chemistry_Notes>
This compound has an ester and may undergo hydrolysis at high or low pH. This compound contains an acetal/aminal-like group ( X-CH(R)-Y where X, Y are N, S, or O) that may be acid/base labile, releasing an aldehyde.

> <s_lp_Force_Field>
OPLS_2005

> <r_lp_Energy>
42.577

> <b_lp_Chiralities_Consistent>
1

> <s_lp_Variant>
AV-unprocessed.smi:1-8

> <Gold.Version>
5.8.1

> <Gold.Id.Protein>
6NUR|6NUR_protein|mol2

> <Gold.PLP.Fitness>
63.6188

> <Gold.PLP.PLP>
-52.5785

> <Gold.PLP.part.hbond>
-4.6887

> <Gold.PLP.part.metal>
0.0000

> <Gold.PLP.part.buried>
-5.5159

> <Gold.PLP.part.nonpolar>
-41.9659

> <Gold.PLP.part.repulsive>
0.4206

> <Gold.PLP.ligand.clash>
0.0000

> <Gold.PLP.ligand.torsion>
1.2902

> <Gold.PLP.Chemscore.Hbond>
2.7897

> <Gold.PLP.Chemscore.CHOScore>
1.6959

> <Gold.PLP.Chemscore.Metal>
0.0000

> <Gold.Chemscore.Hbonds>
donor molecule, donor type, donor heavy atom, donor atom, acceptor molecule, acceptor atom, score
      P1  H  6896  6908       L1    29  0.81
      P1  H  7989  7998       L1    14  1.00
      P1  H  7997  8008       L1    19  0.98
      L1  C    11    41       P1  7948  0.89
      L1  C    11    41       P1  7957  0.75

> <Gold.PLP.Chemscore.Internal.Correction>
0.1638

> <Gold.Rescore>
     Score         DG    S(hbond)    S(metal)    S(lipo)     H(rot)  DE(clash)    DE(int)     intcor
     15.30     -22.58       2.40        0.00     124.18       2.13       0.10       7.18       ----

> <Gold.Chemscore.Fitness>
15.2970

> <Gold.Chemscore.DG>
-22.5766

> <Gold.Chemscore.ZeroCoef>
-5.4800

> <Gold.Chemscore.Hbond>
2.4040

> <Gold.Chemscore.Metal>
0.0000

> <Gold.Chemscore.Lipo>
124.1756

> <Gold.Chemscore.Internal_Hbond>
0.0000

> <Gold.Chemscore.DEClash>
0.1009

> <Gold.Chemscore.DEInternal>
7.1787

> <Gold.Chemscore.Rot>
2.1333

> <Gold.Chemscore.Internal.Correction>
   9.000000E+99

> <Gold.Chemscore.Hbonds>
donor molecule, donor type, donor heavy atom, donor atom, acceptor molecule, acceptor atom, score
      P1  H  6896  6908       L1    29  0.76
      P1  H  7989  7998       L1    14  0.65
      P1  H  7997  8008       L1    19  0.90

> <Gold.Chemscore.Hbond.Weighted>
-8.0294

> <Gold.Chemscore.Metal.Weighted>
-0.0000

> <Gold.Chemscore.Lipo.Weighted>
-14.5285

> <Gold.Chemscore.Internal_Hbond.Weighted>
0.0000

> <Gold.Chemscore.DEClash.Weighted>
0.1009

> <Gold.Chemscore.DEInternal.Weighted>
7.1787

> <Gold.Chemscore.Rot.Weighted>
5.4614

> <Gold.Chemscore.Internal.Correction.Weighted>
   9.000000E+99

> <Gold.Protein.RotatedTorsions>
[ 6907 6896 6895 6894 ] final  178.56 input  -60.11 | X-H torsion
[ 7974 7965 7964 7962 ] final  148.95 input  175.53 | X-H torsion
[ 8008 7997 7996 7995 ] final  -82.38 input   59.86 | X-H torsion
[ 10167 10162 10161 10158 ] final    4.96 input  -65.29 | X-H torsion
[ 10718 10713 10712 10709 ] final -147.33 input   66.30 | X-H torsion
[ 10763 10752 10751 10750 ] final   77.99 input  -60.55 | X-H torsion
[ 11005 11000 10999 10996 ] final  165.47 input  -57.11 | X-H torsion

> <Gold.Protein.ActiveResidues>
 VAL166  LYS551  ARG553  GLY616  TRP617  ASP618  TYR619  PRO620  LYS621  CYS622 
 ASP623  PHE694  ASN695  SER759  ASP760  ASP761  ALA762  ILE779  LEU786  VAL792 
 PHE793  MET794  SER795  GLU796  ALA797  LYS798  CYS799  TRP800  GLU811  SER814 

> <Gold.Protein.RotatedAtoms>
  151.6858  133.3311  159.3230 H   0  0  0  0  0  0  0  0  0  0  0  0  # atno 6907 bound_to 6896
  150.7802  134.6741  159.6417 H   0  0  0  0  0  0  0  0  0  0  0  0  # atno 6908 bound_to 6896
  152.3856  134.6525  160.0179 H   0  0  0  0  0  0  0  0  0  0  0  0  # atno 6909 bound_to 6896
  144.8475  139.6218  143.5989 H   0  0  0  0  0  0  0  0  0  0  0  0  # atno 7974 bound_to 7965
  154.6080  140.0634  156.9457 H   0  0  0  0  0  0  0  0  0  0  0  0  # atno 8008 bound_to 7997
  155.2020  140.3316  155.4323 H   0  0  0  0  0  0  0  0  0  0  0  0  # atno 8009 bound_to 7997
  156.2360  140.1863  156.7102 H   0  0  0  0  0  0  0  0  0  0  0  0  # atno 8010 bound_to 7997
  140.6507  143.7551  150.7571 H   0  0  0  0  0  0  0  0  0  0  0  0  # atno 10167 bound_to 10162
  156.4061  130.7958  151.2172 H   0  0  0  0  0  0  0  0  0  0  0  0  # atno 10718 bound_to 10713
  153.0840  135.4894  154.8559 H   0  0  0  0  0  0  0  0  0  0  0  0  # atno 10763 bound_to 10752
  154.7187  135.3035  154.9085 H   0  0  0  0  0  0  0  0  0  0  0  0  # atno 10764 bound_to 10752
  153.9756  135.6796  153.4801 H   0  0  0  0  0  0  0  0  0  0  0  0  # atno 10765 bound_to 10752
  140.2565  134.7936  157.3550 H   0  0  0  0  0  0  0  0  0  0  0  0  # atno 11005 bound_to 11000
  146.2756  139.6746  142.9265 LP  0  0  0  0  0  0  0  0  0  0  0  0  # atno 17320 bound_to 7965
  145.4567  141.0431  143.2774 LP  0  0  0  0  0  0  0  0  0  0  0  0  # atno 17321 bound_to 7965
  140.1202  143.4619  152.2318 LP  0  0  0  0  0  0  0  0  0  0  0  0  # atno 17342 bound_to 10162
  139.5722  144.7469  151.3860 LP  0  0  0  0  0  0  0  0  0  0  0  0  # atno 17343 bound_to 10162
  157.7505  131.0272  150.3994 LP  0  0  0  0  0  0  0  0  0  0  0  0  # atno 17370 bound_to 10713
  156.4283  130.3967  149.6777 LP  0  0  0  0  0  0  0  0  0  0  0  0  # atno 17371 bound_to 10713
  140.1506  134.4854  155.7964 LP  0  0  0  0  0  0  0  0  0  0  0  0  # atno 17394 bound_to 11000
  141.2195  133.6861  156.7372 LP  0  0  0  0  0  0  0  0  0  0  0  0  # atno 17395 bound_to 11000

$$$$
