#       Name:                AV-unprocessed.smi:2501
#       Creating user name   scv26
#       Creation time:       Fri Mar 27 13:47:04 2020


#       File generated by GOLD software.
#

@<TRIPOS>MOLECULE
AV-unprocessed.smi:2501
    48    49     1
SMALL
NO_CHARGES


@<TRIPOS>ATOM
      1 ****        -2.7289   1.7323   2.4692 C.3            1 S1                 0.0000
      2 ****        -3.8503   1.5227   1.4669 C.ar           1 S1                 0.0000
      3 ****        -5.1887   1.7040   1.8798 C.ar           1 S1                 0.0000
      4 ****        -6.2009   1.5234   1.0047 N.pl3          1 S1                 1.0000
      5 ****        -5.9998   1.1673  -0.2815 C.ar           1 S1                 0.0000
      6 ****        -4.6880   0.9705  -0.7563 C.ar           1 S1                 0.0000
      7 ****        -3.5945   1.1497   0.1209 C.ar           1 S1                 0.0000
      8 ****        -2.1829   0.9312  -0.4026 C.3            1 S1                 0.0000
      9 ****        -1.7100  -0.5169  -0.2134 C.3            1 S1                 0.0000
     10 ****        -0.3526  -0.6814  -0.7159 N.am           1 S1                 0.0000
     11 ****         0.4722  -1.6885  -0.3845 C.2            1 S1                 0.0000
     12 ****         0.1275  -2.5868   0.3846 O.2            1 S1                 0.0000
     13 ****         1.6997  -1.6320  -0.9611 N.am           1 S1                 0.0000
     14 ****         2.2226  -0.5440  -1.8033 C.3            1 S1                 0.0000
     15 ****         3.2536   0.2611  -0.9894 C.3            1 S1                 0.0000
     16 ****         4.3908  -0.6330  -0.4289 C.3            1 S1                 0.0000
     17 ****         5.1954  -1.0411  -1.5216 O.3            1 S1                 0.0000
     18 ****         5.3059   0.1511   0.5422 C.3            1 S1                 0.0000
     19 ****         4.6037   0.5752   1.5936 F              1 S1                 0.0000
     20 ****         6.2950  -0.6242   0.9886 F              1 S1                 0.0000
     21 ****         5.8282   1.2177  -0.0653 F              1 S1                 0.0000
     22 ****         3.8153  -1.9115   0.2342 C.3            1 S1                 0.0000
     23 ****         2.7537  -2.6019  -0.6444 C.3            1 S1                 0.0000
     24 ****        -3.1231   1.9147   3.4695 H              1 S1                 0.0000
     25 ****        -2.1212   2.5923   2.1872 H              1 S1                 0.0000
     26 ****        -2.0852   0.8546   2.5224 H              1 S1                 0.0000
     27 ****        -5.4808   1.9871   2.8808 H              1 S1                 0.0000
     28 ****        -6.8870   1.0512  -0.8868 H              1 S1                 0.0000
     29 ****        -4.5249   0.6831  -1.7850 H              1 S1                 0.0000
     30 ****        -2.1580   1.1890  -1.4624 H              1 S1                 0.0000
     31 ****        -1.4936   1.6216   0.0839 H              1 S1                 0.0000
     32 ****        -1.7513  -0.7864   0.8428 H              1 S1                 0.0000
     33 ****        -2.3695  -1.2040  -0.7451 H              1 S1                 0.0000
     34 ****        -0.0091   0.0203  -1.3555 H              1 S1                 0.0000
     35 ****         2.6955  -0.9724  -2.6882 H              1 S1                 0.0000
     36 ****         1.4537   0.1243  -2.1904 H              1 S1                 0.0000
     37 ****         3.6666   1.0623  -1.6036 H              1 S1                 0.0000
     38 ****         2.7349   0.7508  -0.1643 H              1 S1                 0.0000
     39 ****         5.5920  -0.2731  -1.9041 H              1 S1                 0.0000
     40 ****         4.6170  -2.6134   0.4665 H              1 S1                 0.0000
     41 ****         3.3571  -1.6509   1.1891 H              1 S1                 0.0000
     42 ****         2.3724  -3.4887  -0.1361 H              1 S1                 0.0000
     43 ****         3.2037  -2.9667  -1.5688 H              1 S1                 0.0000
     44 ****        -7.1582   1.6612   1.3299 H              1 S1                 0.0000
     45 ****        -0.7900  -2.5800   0.7821 LP             1 S1                 0.0000
     46 ****         0.7653  -3.3229   0.6115 LP             1 S1                 0.0000
     47 ****         4.6291  -1.5038  -2.2036 LP             1 S1                 0.0000
     48 ****         5.9082  -1.6652  -1.2014 LP             1 S1                 0.0000
@<TRIPOS>BOND
    1    1    2 1     
    2    1   24 1     
    3    1   25 1     
    4    1   26 1     
    5    2    7 ar    
    6    2    3 ar    
    7    3    4 ar    
    8    3   27 1     
    9    4    5 ar    
   10    4   44 1     
   11    5    6 ar    
   12    5   28 1     
   13    6    7 ar    
   14    6   29 1     
   15    7    8 1     
   16    8    9 1     
   17    8   30 1     
   18    8   31 1     
   19    9   10 1     
   20    9   32 1     
   21    9   33 1     
   22   10   11 am    
   23   10   34 1     
   24   11   12 2     
   25   11   13 am    
   26   13   23 1     
   27   13   14 1     
   28   14   15 1     
   29   14   35 1     
   30   14   36 1     
   31   15   16 1     
   32   15   37 1     
   33   15   38 1     
   34   16   17 1     
   35   16   18 1     
   36   16   22 1     
   37   17   39 1     
   38   18   19 1     
   39   18   20 1     
   40   18   21 1     
   41   22   23 1     
   42   22   40 1     
   43   22   41 1     
   44   23   42 1     
   45   23   43 1     
   46   12   45 1     
   47   12   46 1     
   48   17   47 1     
   49   17   48 1     
@<TRIPOS>SUBSTRUCTURE
      1 S1             1
@<TRIPOS>SET
LONE_PAIRS      STATIC     ATOMS    <user>   **** ""
4 45 46 47 48
DONOR_HYDROGENS      STATIC     ATOMS    <user>   **** ""
3 44 34 39
ATOM$BLUE        STATIC     ATOMS    COLORGROUP SYSTEM
4 45 46 47 48
ATOM$RED        STATIC     ATOMS    COLORGROUP SYSTEM
3 44 34 39
