#       Name:                AV-unprocessed.smi:1406
#       Creating user name   scv26
#       Creation time:       Fri Mar 27 05:34:40 2020


#       File generated by GOLD software.
#

@<TRIPOS>MOLECULE
AV-unprocessed.smi:1406
    45    47     1
SMALL
NO_CHARGES


@<TRIPOS>ATOM
      1 ****        -2.7628  -2.7980   2.2305 C.3            1 S1                 0.0000
      2 ****        -2.3649  -1.8819   1.0551 C.3            1 S1                 0.0000
      3 ****        -0.8665  -1.5187   1.0569 C.2            1 S1                 0.0000
      4 ****        -0.1591  -1.7716   2.0329 O.2            1 S1                 0.0000
      5 ****        -0.3905  -0.9001  -0.0366 N.am           1 S1                 0.0000
      6 ****         0.9958  -0.4838  -0.2257 C.3            1 S1                 0.0000
      7 ****         1.3377  -0.1681  -1.6876 C.3            1 S1                 0.0000
      8 ****         2.4090   0.9347  -1.6185 C.3            1 S1                 0.0000
      9 ****         2.6049   1.2310  -0.1815 N.4            1 S1                 1.0000
     10 ****         3.1083   2.5884   0.1511 C.3            1 S1                 0.0000
     11 ****         2.0061   3.6597   0.1007 C.3            1 S1                 0.0000
     12 ****         0.8154   3.2526   0.9747 C.3            1 S1                 0.0000
     13 ****         0.2772   1.8966   0.5070 C.3            1 S1                 0.0000
     14 ****         1.3765   0.8032   0.5251 C.3            1 S1                 0.0000
     15 ****        -2.7767  -2.4518  -0.2242 N.pl3          1 S1                 0.0000
     16 ****        -3.4972  -1.9152  -1.2116 C.2            1 S1                 0.0000
     17 ****        -3.6498  -2.7111  -2.2605 N.2            1 S1                 0.0000
     18 ****        -2.9495  -3.8002  -1.8246 C.2            1 S1                 0.0000
     19 ****        -2.3994  -3.6947  -0.6151 N.2            1 S1                 0.0000
     20 ****        -2.5483  -2.3281   3.1909 H              1 S1                 0.0000
     21 ****        -2.2309  -3.7500   2.2011 H              1 S1                 0.0000
     22 ****        -3.8311  -3.0153   2.2098 H              1 S1                 0.0000
     23 ****        -2.9074  -0.9431   1.1751 H              1 S1                 0.0000
     24 ****        -1.0305  -0.7233  -0.7975 H              1 S1                 0.0000
     25 ****         1.6579  -1.2876   0.1039 H              1 S1                 0.0000
     26 ****         1.6905  -1.0534  -2.2179 H              1 S1                 0.0000
     27 ****         0.4624   0.2056  -2.2214 H              1 S1                 0.0000
     28 ****         3.3514   0.6161  -2.0652 H              1 S1                 0.0000
     29 ****         2.0677   1.8191  -2.1574 H              1 S1                 0.0000
     30 ****         3.5251   2.5522   1.1583 H              1 S1                 0.0000
     31 ****         3.9314   2.8505  -0.5145 H              1 S1                 0.0000
     32 ****         2.4045   4.6171   0.4380 H              1 S1                 0.0000
     33 ****         1.6746   3.8113  -0.9270 H              1 S1                 0.0000
     34 ****         1.1202   3.1933   2.0203 H              1 S1                 0.0000
     35 ****         0.0312   4.0082   0.9180 H              1 S1                 0.0000
     36 ****        -0.5584   1.5997   1.1416 H              1 S1                 0.0000
     37 ****        -0.1287   2.0075  -0.4993 H              1 S1                 0.0000
     38 ****         1.6286   0.5769   1.5622 H              1 S1                 0.0000
     39 ****        -3.9128  -0.9192  -1.1656 H              1 S1                 0.0000
     40 ****        -2.8357  -4.6948  -2.4192 H              1 S1                 0.0000
     41 ****         3.3220   0.5850   0.1169 H              1 S1                 0.0000
     42 ****        -0.5554  -2.2172   2.8357 LP             1 S1                 0.0000
     43 ****         0.8116  -1.5313   2.0226 LP             1 S1                 0.0000
     44 ****        -4.1361  -2.5587  -3.1208 LP             1 S1                 0.0000
     45 ****        -1.8465  -4.3646  -0.1195 LP             1 S1                 0.0000
@<TRIPOS>BOND
    1    1    2 1     
    2    1   20 1     
    3    1   21 1     
    4    1   22 1     
    5    2    3 1     
    6    2   15 1     
    7    2   23 1     
    8    3    4 2     
    9    3    5 am    
   10    5    6 1     
   11    5   24 1     
   12    6   14 1     
   13    6    7 1     
   14    6   25 1     
   15    7    8 1     
   16    7   26 1     
   17    7   27 1     
   18    8    9 1     
   19    8   28 1     
   20    8   29 1     
   21    9   14 1     
   22    9   10 1     
   23    9   41 1     
   24   10   11 1     
   25   10   30 1     
   26   10   31 1     
   27   11   12 1     
   28   11   32 1     
   29   11   33 1     
   30   12   13 1     
   31   12   34 1     
   32   12   35 1     
   33   13   14 1     
   34   13   36 1     
   35   13   37 1     
   36   14   38 1     
   37   15   19 1     
   38   15   16 1     
   39   16   17 2     
   40   16   39 1     
   41   17   18 1     
   42   18   19 2     
   43   18   40 1     
   44    4   42 1     
   45    4   43 1     
   46   17   44 1     
   47   19   45 1     
@<TRIPOS>SUBSTRUCTURE
      1 S1             1
@<TRIPOS>SET
LONE_PAIRS      STATIC     ATOMS    <user>   **** ""
4 42 43 44 45
DONOR_HYDROGENS      STATIC     ATOMS    <user>   **** ""
2 24 41
ATOM$BLUE        STATIC     ATOMS    COLORGROUP SYSTEM
4 42 43 44 45
ATOM$RED        STATIC     ATOMS    COLORGROUP SYSTEM
2 24 41
