AV-unprocessed.smi:100|AV-procd|sdf|899|dock5
  -GOLD-   2262017393D 1   1.00000     0.00000
 Structure written by MMmdl.
 31 33  0  0  0  0  0  0  0  0  1 V2000
  145.1990  138.5877  153.1795 N   0  0  0  0  0  0  0  0  0  0  0  0
  146.4049  138.6687  153.7585 C   0  0  0  0  0  0  0  0  0  0  0  0
  147.0026  137.5231  154.1630 N   0  0  0  0  0  0  0  0  0  0  0  0
  148.2064  137.5766  154.7432 C   0  0  0  0  0  0  0  0  0  0  0  0
  148.9620  138.6474  155.0047 N   0  0  0  0  0  0  0  0  0  0  0  0
  148.3537  139.8004  154.5987 C   0  0  0  0  0  0  0  0  0  0  0  0
  147.0829  139.8960  153.9680 C   0  0  0  0  0  0  0  0  0  0  0  0
  146.7911  141.2257  153.6925 N   0  0  0  0  0  0  0  0  0  0  0  0
  147.8337  141.8753  154.1380 C   0  0  0  0  0  0  0  0  0  0  0  0
  148.8186  141.0931  154.7028 N   0  0  0  0  0  0  0  0  0  0  0  0
  150.1222  141.5177  155.2929 C   0  0  2  0  0  0  0  0  0  0  0  0
  151.0345  140.4831  155.0751 O   0  0  0  0  0  0  0  0  0  0  0  0
  151.7909  140.2719  156.2579 C   0  0  2  0  0  0  0  0  0  0  0  0
  152.4289  138.8739  156.2608 C   0  0  0  0  0  0  0  0  0  0  0  0
  153.2600  138.7166  157.3912 O   0  0  0  0  0  0  0  0  0  0  0  0
  150.7805  140.5432  157.3741 C   0  0  2  0  0  0  0  0  0  0  0  0
  149.9764  139.4931  157.5534 F   0  0  0  0  0  0  0  0  0  0  0  0
  149.9708  141.7023  156.8142 C   0  0  1  0  0  0  0  0  0  0  0  0
  150.5003  142.9368  157.2545 O   0  0  0  0  0  0  0  0  0  0  0  0
  144.7327  139.4282  152.8699 H   0  0  0  0  0  0  0  0  0  0  0  0
  144.7580  137.6878  153.0569 H   0  0  0  0  0  0  0  0  0  0  0  0
  148.6230  136.6259  155.0419 H   0  0  0  0  0  0  0  0  0  0  0  0
  147.9128  142.9505  154.0669 H   0  0  0  0  0  0  0  0  0  0  0  0
  150.4134  142.4201  154.7530 H   0  0  0  0  0  0  0  0  0  0  0  0
  152.5735  141.0328  156.2860 H   0  0  0  0  0  0  0  0  0  0  0  0
  151.6699  138.0915  156.2503 H   0  0  0  0  0  0  0  0  0  0  0  0
  153.0378  138.7402  155.3662 H   0  0  0  0  0  0  0  0  0  0  0  0
  152.8513  138.1012  157.9805 H   0  0  0  0  0  0  0  0  0  0  0  0
  151.2483  140.7559  158.3361 H   0  0  0  0  0  0  0  0  0  0  0  0
  148.9236  141.6523  157.1176 H   0  0  0  0  0  0  0  0  0  0  0  0
  150.1054  143.6294  156.7467 H   0  0  0  0  0  0  0  0  0  0  0  0
  1  2  1  0  0  0  0
  1 20  1  0  0  0  0
  1 21  1  0  0  0  0
  2  7  1  0  0  0  0
  2  3  2  0  0  0  0
  3  4  1  0  0  0  0
  4  5  2  0  0  0  0
  4 22  1  0  0  0  0
  5  6  1  0  0  0  0
  6 10  1  0  0  0  0
  6  7  2  0  0  0  0
  7  8  1  0  0  0  0
  8  9  2  0  0  0  0
  9 10  1  0  0  0  0
  9 23  1  0  0  0  0
 10 11  1  0  0  0  0
 11 18  1  0  0  0  0
 11 12  1  0  0  0  0
 11 24  1  0  0  0  0
 12 13  1  0  0  0  0
 13 14  1  0  0  0  0
 13 16  1  0  0  0  0
 13 25  1  0  0  0  0
 14 15  1  0  0  0  0
 14 26  1  0  0  0  0
 14 27  1  0  0  0  0
 15 28  1  0  0  0  0
 16 17  1  0  0  0  0
 16 18  1  0  0  0  0
 16 29  1  0  0  0  0
 18 19  1  0  0  0  0
 18 30  1  0  0  0  0
 19 31  1  0  0  0  0
M  END
> <s_m_source_file>
AV-unprocessed.smi

> <i_m_source_file_index>
100

> <i_lp_mmshare_version>
43012

> <i_f3d_flags>
0

> <s_epik_input>
bjFbY0hdbmMoW05IMl0pYyhjMTIpbltjSF1uMltDQEBIXTNPW0NAQEhdKFtDSDJdW09IXSlbQ0BIXShGKVtDQEhdM1tPSF0=

> <s_epik_cmdline>
J2VwaWtfcHl0aG9uJywgJy1waCcsICc3LjAnLCAnLXRuJywgJzgnLCAnLW1hJywgJzIwMCcsICctbWV0YWxfYmluZGluZycsICctaW1hZScsICc8aW5maWxlLm1hZT4nLCAnLW9tYWUnLCAnPG91dGZpbGUubWFlPic=

> <r_lp_tautomer_probability>
1

> <r_epik_Ionization_Penalty>
0.000750324

> <r_epik_Ionization_Penalty_Charging>
0

> <r_epik_Ionization_Penalty_Neutral>
0.000750324

> <r_epik_State_Penalty>
-0

> <r_epik_Charging_Adjusted_Penalty>
0

> <i_epik_Tot_Q>
0

> <i_epik_Tot_abs_Q>
0

> <r_epik_Metal_State_Penalty>
-0

> <b_epik_Metal_Only>
0

> <s_epik_Chemistry_Notes>
This compound contains an acetal/aminal-like group ( X-CH(R)-Y where X, Y are N, S, or O) that may be acid/base labile, releasing an aldehyde.

> <s_lp_Force_Field>
OPLS_2005

> <r_lp_Energy>
28.7864

> <b_lp_Chiralities_Consistent>
1

> <s_lp_Variant>
AV-unprocessed.smi:100-3

> <Gold.Version>
5.8.1

> <Gold.Id.Protein>
6NUR|6NUR_protein|mol2

> <Gold.PLP.Fitness>
39.2183

> <Gold.PLP.PLP>
-25.7103

> <Gold.PLP.part.hbond>
-3.9622

> <Gold.PLP.part.metal>
0.0000

> <Gold.PLP.part.buried>
-3.4837

> <Gold.PLP.part.nonpolar>
-18.1411

> <Gold.PLP.part.repulsive>
0.4609

> <Gold.PLP.ligand.clash>
0.0000

> <Gold.PLP.ligand.torsion>
0.7518

> <Gold.PLP.Chemscore.Hbond>
4.0000

> <Gold.PLP.Chemscore.CHOScore>
1.0000

> <Gold.PLP.Chemscore.Metal>
0.0000

> <Gold.Chemscore.Hbonds>
donor molecule, donor type, donor heavy atom, donor atom, acceptor molecule, acceptor atom, score
      L1  H     1    20       P1 10175  1.00
      L1  H    19    31       P1  8028  1.00
      P1  H  7989  7998       L1    12  1.00
      P1  H  7997  8008       L1    15  1.00
      L1  C     9    23       P1  8028  1.00

> <Gold.PLP.Chemscore.Internal.Correction>
0.0117

> <Gold.Rescore>
     Score         DG    S(hbond)    S(metal)    S(lipo)     H(rot)  DE(clash)    DE(int)     intcor
      8.94     -12.43       3.57        0.00      27.32       3.19       0.08       3.40       ----

> <Gold.Chemscore.Fitness>
8.9416

> <Gold.Chemscore.DG>
-12.4274

> <Gold.Chemscore.ZeroCoef>
-5.4800

> <Gold.Chemscore.Hbond>
3.5682

> <Gold.Chemscore.Metal>
0.0000

> <Gold.Chemscore.Lipo>
27.3184

> <Gold.Chemscore.Internal_Hbond>
0.0000

> <Gold.Chemscore.DEClash>
0.0810

> <Gold.Chemscore.DEInternal>
3.4048

> <Gold.Chemscore.Rot>
3.1901

> <Gold.Chemscore.Internal.Correction>
   9.000000E+99

> <Gold.Chemscore.Hbonds>
donor molecule, donor type, donor heavy atom, donor atom, acceptor molecule, acceptor atom, score
      L1  H     1    20       P1 10175  0.93
      L1  H    19    31       P1  8028  0.99
      P1  H  7989  7998       L1    12  0.29
      P1  H  7997  8008       L1    15  0.33

> <Gold.Chemscore.Hbond.Weighted>
-11.9178

> <Gold.Chemscore.Metal.Weighted>
-0.0000

> <Gold.Chemscore.Lipo.Weighted>
-3.1963

> <Gold.Chemscore.Internal_Hbond.Weighted>
0.0000

> <Gold.Chemscore.DEClash.Weighted>
0.0810

> <Gold.Chemscore.DEInternal.Weighted>
3.4048

> <Gold.Chemscore.Rot.Weighted>
8.1667

> <Gold.Chemscore.Internal.Correction.Weighted>
   9.000000E+99

> <Gold.Protein.RotatedTorsions>
[ 6907 6896 6895 6894 ] final  -40.99 input  -60.11 | X-H torsion
[ 7974 7965 7964 7962 ] final  163.54 input  175.53 | X-H torsion
[ 8008 7997 7996 7995 ] final  -89.89 input   59.86 | X-H torsion
[ 10167 10162 10161 10158 ] final -160.56 input  -65.29 | X-H torsion
[ 10718 10713 10712 10709 ] final  -40.93 input   66.30 | X-H torsion
[ 10763 10752 10751 10750 ] final  106.51 input  -60.55 | X-H torsion
[ 11005 11000 10999 10996 ] final   61.47 input  -57.11 | X-H torsion

> <Gold.Protein.ActiveResidues>
 VAL166  LYS551  ARG553  GLY616  TRP617  ASP618  TYR619  PRO620  LYS621  CYS622 
 ASP623  PHE694  ASN695  SER759  ASP760  ASP761  ALA762  ILE779  LEU786  VAL792 
 PHE793  MET794  SER795  GLU796  ALA797  LYS798  CYS799  TRP800  GLU811  SER814 

> <Gold.Protein.RotatedAtoms>
  150.9720  134.9091  159.7793 H   0  0  0  0  0  0  0  0  0  0  0  0  # atno 6907 bound_to 6896
  152.5193  134.3528  159.9267 H   0  0  0  0  0  0  0  0  0  0  0  0  # atno 6908 bound_to 6896
  151.3537  133.3875  159.2717 H   0  0  0  0  0  0  0  0  0  0  0  0  # atno 6909 bound_to 6896
  144.7585  139.8197  143.6341 H   0  0  0  0  0  0  0  0  0  0  0  0  # atno 7974 bound_to 7965
  154.6920  140.0536  157.0373 H   0  0  0  0  0  0  0  0  0  0  0  0  # atno 8008 bound_to 7997
  155.0804  140.3209  155.4584 H   0  0  0  0  0  0  0  0  0  0  0  0  # atno 8009 bound_to 7997
  156.2731  140.2066  156.5931 H   0  0  0  0  0  0  0  0  0  0  0  0  # atno 8010 bound_to 7997
  139.6530  144.0050  152.2174 H   0  0  0  0  0  0  0  0  0  0  0  0  # atno 10167 bound_to 10162
  156.2760  130.4212  149.8387 H   0  0  0  0  0  0  0  0  0  0  0  0  # atno 10718 bound_to 10713
  153.3940  135.3874  155.1942 H   0  0  0  0  0  0  0  0  0  0  0  0  # atno 10763 bound_to 10752
  154.8722  135.3755  154.4702 H   0  0  0  0  0  0  0  0  0  0  0  0  # atno 10764 bound_to 10752
  153.5192  135.7087  153.5802 H   0  0  0  0  0  0  0  0  0  0  0  0  # atno 10765 bound_to 10752
  140.0159  134.6226  155.9711 H   0  0  0  0  0  0  0  0  0  0  0  0  # atno 11005 bound_to 11000
  146.1622  139.4741  142.9981 LP  0  0  0  0  0  0  0  0  0  0  0  0  # atno 17320 bound_to 7965
  145.6698  141.0219  143.1664 LP  0  0  0  0  0  0  0  0  0  0  0  0  # atno 17321 bound_to 7965
  139.9769  144.6455  150.7937 LP  0  0  0  0  0  0  0  0  0  0  0  0  # atno 17342 bound_to 10162
  140.7546  143.3031  151.3031 LP  0  0  0  0  0  0  0  0  0  0  0  0  # atno 17343 bound_to 10162
  156.5852  130.8483  151.3393 LP  0  0  0  0  0  0  0  0  0  0  0  0  # atno 17370 bound_to 10713
  157.7299  130.9678  150.1809 LP  0  0  0  0  0  0  0  0  0  0  0  0  # atno 17371 bound_to 10713
  141.1742  133.6539  156.4765 LP  0  0  0  0  0  0  0  0  0  0  0  0  # atno 17394 bound_to 11000
  140.4472  134.6961  157.5022 LP  0  0  0  0  0  0  0  0  0  0  0  0  # atno 17395 bound_to 11000

$$$$
