AV-unprocessed.smi:3338|AV-procd|sdf|12873|dock8
  -GOLD-   2272019273D 1   1.00000     0.00000
 Structure written by MMmdl.
 44 45  0  0  0  0  0  0  0  0  2 V2000
  144.3542  135.6400  152.2554 C   0  0  0  0  0  0  0  0  0  0  0  0
  145.7533  135.0097  152.2075 C   0  0  2  0  0  0  0  0  0  0  0  0
  145.6891  133.5315  151.7870 C   0  0  0  0  0  0  0  0  0  0  0  0
  147.0949  132.9176  151.7793 C   0  0  0  0  0  0  0  0  0  0  0  0
  147.7882  133.1108  153.1374 C   0  0  0  0  0  0  0  0  0  0  0  0
  147.8425  134.5482  153.5086 N   0  3  2  0  0  0  0  0  0  0  0  0
  148.6265  134.7828  154.7466 C   0  0  0  0  0  0  0  0  0  0  0  0
  147.7711  134.6204  156.0179 C   0  0  0  0  0  0  0  0  0  0  0  0
  148.3768  135.3068  157.1522 N   0  0  0  0  0  0  0  0  0  0  0  0
  147.8021  135.4433  158.3580 C   0  0  0  0  0  0  0  0  0  0  0  0
  146.6746  135.0176  158.6126 O   0  0  0  0  0  0  0  0  0  0  0  0
  148.6347  136.1589  159.4341 C   0  0  1  0  0  0  0  0  0  0  0  0
  149.0060  137.6023  159.0398 C   0  0  0  0  0  0  0  0  0  0  0  0
  147.9544  136.1064  160.7232 N   0  0  0  0  0  0  0  0  0  0  0  0
  147.5916  134.9892  161.4482 C   0  0  0  0  0  0  0  0  0  0  0  0
  146.9606  135.4204  162.5798 C   0  0  0  0  0  0  0  0  0  0  0  0
  146.9759  136.8373  162.4561 C   0  0  0  0  0  0  0  0  0  0  0  0
  147.5636  137.2445  161.3432 N   0  0  0  0  0  0  0  0  0  0  0  0
  146.4823  135.1496  153.5592 C   0  0  0  0  0  0  0  0  0  0  0  0
  143.7191  135.1422  152.9894 H   0  0  0  0  0  0  0  0  0  0  0  0
  143.8590  135.5710  151.2863 H   0  0  0  0  0  0  0  0  0  0  0  0
  144.4074  136.6955  152.5232 H   0  0  0  0  0  0  0  0  0  0  0  0
  146.3316  135.5505  151.4565 H   0  0  0  0  0  0  0  0  0  0  0  0
  145.0509  132.9756  152.4755 H   0  0  0  0  0  0  0  0  0  0  0  0
  145.2376  133.4376  150.7984 H   0  0  0  0  0  0  0  0  0  0  0  0
  147.0356  131.8555  151.5387 H   0  0  0  0  0  0  0  0  0  0  0  0
  147.6929  133.3806  150.9932 H   0  0  0  0  0  0  0  0  0  0  0  0
  147.2626  132.5521  153.9134 H   0  0  0  0  0  0  0  0  0  0  0  0
  148.7989  132.7043  153.0818 H   0  0  0  0  0  0  0  0  0  0  0  0
  149.4917  134.1179  154.7627 H   0  0  0  0  0  0  0  0  0  0  0  0
  149.0236  135.7991  154.7394 H   0  0  0  0  0  0  0  0  0  0  0  0
  146.7792  135.0433  155.8551 H   0  0  0  0  0  0  0  0  0  0  0  0
  147.6208  133.5701  156.2700 H   0  0  0  0  0  0  0  0  0  0  0  0
  149.3024  135.6888  157.0193 H   0  0  0  0  0  0  0  0  0  0  0  0
  149.5692  135.6051  159.5395 H   0  0  0  0  0  0  0  0  0  0  0  0
  149.5529  137.6249  158.0965 H   0  0  0  0  0  0  0  0  0  0  0  0
  149.6439  138.0590  159.7971 H   0  0  0  0  0  0  0  0  0  0  0  0
  148.1254  138.2360  158.9266 H   0  0  0  0  0  0  0  0  0  0  0  0
  147.8121  133.9897  161.1040 H   0  0  0  0  0  0  0  0  0  0  0  0
  146.5501  134.8157  163.3748 H   0  0  0  0  0  0  0  0  0  0  0  0
  146.5783  137.5770  163.1354 H   0  0  0  0  0  0  0  0  0  0  0  0
  146.5505  136.2059  153.8182 H   0  0  0  0  0  0  0  0  0  0  0  0
  145.9032  134.6709  154.3509 H   0  0  0  0  0  0  0  0  0  0  0  0
  148.3423  135.0103  152.7625 H   0  0  0  0  0  0  0  0  0  0  0  0
  1  2  1  0  0  0  0
  1 20  1  0  0  0  0
  1 21  1  0  0  0  0
  1 22  1  0  0  0  0
  2 19  1  0  0  0  0
  2  3  1  0  0  0  0
  2 23  1  0  0  0  0
  3  4  1  0  0  0  0
  3 24  1  0  0  0  0
  3 25  1  0  0  0  0
  4  5  1  0  0  0  0
  4 26  1  0  0  0  0
  4 27  1  0  0  0  0
  5  6  1  0  0  0  0
  5 28  1  0  0  0  0
  5 29  1  0  0  0  0
  6  7  1  0  0  0  0
  6 19  1  0  0  0  0
  6 44  1  0  0  0  0
  7  8  1  0  0  0  0
  7 30  1  0  0  0  0
  7 31  1  0  0  0  0
  8  9  1  0  0  0  0
  8 32  1  0  0  0  0
  8 33  1  0  0  0  0
  9 10  1  0  0  0  0
  9 34  1  0  0  0  0
 10 11  2  0  0  0  0
 10 12  1  0  0  0  0
 12 13  1  0  0  0  0
 12 14  1  0  0  0  0
 12 35  1  0  0  0  0
 13 36  1  0  0  0  0
 13 37  1  0  0  0  0
 13 38  1  0  0  0  0
 14 18  1  0  0  0  0
 14 15  1  0  0  0  0
 15 16  2  0  0  0  0
 15 39  1  0  0  0  0
 16 17  1  0  0  0  0
 16 40  1  0  0  0  0
 17 18  2  0  0  0  0
 17 41  1  0  0  0  0
 19 42  1  0  0  0  0
 19 43  1  0  0  0  0
M  CHG  1   6   1
M  END
> <s_m_source_file>
AV-unprocessed.smi

> <i_m_source_file_index>
3338

> <i_lp_mmshare_version>
43012

> <i_f3d_flags>
0

> <s_epik_input>
W0NIM11bQ0BASF0xW0NIMl1bQ0gyXVtDSDJdTihbQ0gyXTEpW0NIMl1bQ0gyXVtOSF1DKD1PKVtDQEhdKFtDSDNdKW4yW2NIXVtjSF1bY0hdbjI=

> <s_epik_cmdline>
J2VwaWtfcHl0aG9uJywgJy1waCcsICc3LjAnLCAnLXRuJywgJzgnLCAnLW1hJywgJzIwMCcsICctbWV0YWxfYmluZGluZycsICctaW1hZScsICc8aW5maWxlLm1hZT4nLCAnLW9tYWUnLCAnPG91dGZpbGUubWFlPic=

> <r_lp_tautomer_probability>
1

> <r_epik_Ionization_Penalty>
0.00225707

> <r_epik_Ionization_Penalty_Charging>
0.00223709

> <r_epik_Ionization_Penalty_Neutral>
1.99775e-05

> <r_epik_State_Penalty>
0.00153978

> <r_epik_Charging_Adjusted_Penalty>
0.00377687

> <i_epik_Tot_Q>
1

> <i_epik_Tot_abs_Q>
1

> <r_epik_Metal_State_Penalty>
-0

> <b_epik_Metal_Only>
0

> <s_lp_Force_Field>
OPLS_2005

> <r_lp_Energy>
19.822

> <b_lp_Chiralities_Consistent>
1

> <s_lp_Variant>
AV-unprocessed.smi:3338-5

> <Gold.Version>
5.8.1

> <Gold.Id.Protein>
6NUR|6NUR_protein|mol2

> <Gold.PLP.Fitness>
42.0883

> <Gold.PLP.PLP>
-31.3249

> <Gold.PLP.part.hbond>
-3.0000

> <Gold.PLP.part.metal>
0.0000

> <Gold.PLP.part.buried>
-2.1551

> <Gold.PLP.part.nonpolar>
-25.6477

> <Gold.PLP.part.repulsive>
0.0356

> <Gold.PLP.ligand.clash>
0.0000

> <Gold.PLP.ligand.torsion>
0.4466

> <Gold.PLP.Chemscore.Hbond>
3.8480

> <Gold.PLP.Chemscore.CHOScore>
0.0000

> <Gold.PLP.Chemscore.Metal>
0.0000

> <Gold.Chemscore.Hbonds>
donor molecule, donor type, donor heavy atom, donor atom, acceptor molecule, acceptor atom, score
      L1  H     6    44       P1  7948  2.00
      P1  H  6931  6943       L1    18  0.91
      P1  H  6934  6947       L1    18  0.86

> <Gold.PLP.Chemscore.Internal.Correction>
0.1125

> <Gold.Rescore>
     Score         DG    S(hbond)    S(metal)    S(lipo)     H(rot)  DE(clash)    DE(int)     intcor
     14.93     -16.58       2.33        0.00      66.78       1.76       0.04       1.60       ----

> <Gold.Chemscore.Fitness>
14.9330

> <Gold.Chemscore.DG>
-16.5764

> <Gold.Chemscore.ZeroCoef>
-5.4800

> <Gold.Chemscore.Hbond>
2.3296

> <Gold.Chemscore.Metal>
0.0000

> <Gold.Chemscore.Lipo>
66.7814

> <Gold.Chemscore.Internal_Hbond>
0.0000

> <Gold.Chemscore.DEClash>
0.0386

> <Gold.Chemscore.DEInternal>
1.6048

> <Gold.Chemscore.Rot>
1.7570

> <Gold.Chemscore.Internal.Correction>
   9.000000E+99

> <Gold.Chemscore.Hbonds>
donor molecule, donor type, donor heavy atom, donor atom, acceptor molecule, acceptor atom, score
      L1  H     6    44       P1  7948  0.73
      P1  H  6931  6943       L1    18  0.37
      P1  H  6934  6947       L1    18  0.72

> <Gold.Chemscore.Hbond.Weighted>
-7.7808

> <Gold.Chemscore.Metal.Weighted>
-0.0000

> <Gold.Chemscore.Lipo.Weighted>
-7.8134

> <Gold.Chemscore.Internal_Hbond.Weighted>
0.0000

> <Gold.Chemscore.DEClash.Weighted>
0.0386

> <Gold.Chemscore.DEInternal.Weighted>
1.6048

> <Gold.Chemscore.Rot.Weighted>
4.4979

> <Gold.Chemscore.Internal.Correction.Weighted>
   9.000000E+99

> <Gold.Protein.RotatedTorsions>
[ 6907 6896 6895 6894 ] final  169.28 input  -60.11 | X-H torsion
[ 7974 7965 7964 7962 ] final  150.69 input  175.53 | X-H torsion
[ 8008 7997 7996 7995 ] final -143.71 input   59.86 | X-H torsion
[ 10167 10162 10161 10158 ] final  -22.91 input  -65.29 | X-H torsion
[ 10718 10713 10712 10709 ] final   39.93 input   66.30 | X-H torsion
[ 10763 10752 10751 10750 ] final  -22.52 input  -60.55 | X-H torsion
[ 11005 11000 10999 10996 ] final  142.72 input  -57.11 | X-H torsion

> <Gold.Protein.ActiveResidues>
 VAL166  LYS551  ARG553  GLY616  TRP617  ASP618  TYR619  PRO620  LYS621  CYS622 
 ASP623  PHE694  ASN695  SER759  ASP760  ASP761  ALA762  ILE779  LEU786  VAL792 
 PHE793  MET794  SER795  GLU796  ALA797  LYS798  CYS799  TRP800  GLU811  SER814 

> <Gold.Protein.RotatedAtoms>
  151.8344  133.3413  159.3623 H   0  0  0  0  0  0  0  0  0  0  0  0  # atno 6907 bound_to 6896
  150.7254  134.5452  159.5776 H   0  0  0  0  0  0  0  0  0  0  0  0  # atno 6908 bound_to 6896
  152.2912  134.7720  160.0428 H   0  0  0  0  0  0  0  0  0  0  0  0  # atno 6909 bound_to 6896
  144.8346  139.6440  143.6043 H   0  0  0  0  0  0  0  0  0  0  0  0  # atno 7974 bound_to 7965
  155.5151  140.0586  157.2916 H   0  0  0  0  0  0  0  0  0  0  0  0  # atno 8008 bound_to 7997
  154.4538  140.1962  156.0388 H   0  0  0  0  0  0  0  0  0  0  0  0  # atno 8009 bound_to 7997
  156.0757  140.3254  155.7635 H   0  0  0  0  0  0  0  0  0  0  0  0  # atno 8010 bound_to 7997
  140.7287  143.4491  151.0543 H   0  0  0  0  0  0  0  0  0  0  0  0  # atno 10167 bound_to 10162
  157.3763  130.7729  149.7158 H   0  0  0  0  0  0  0  0  0  0  0  0  # atno 10718 bound_to 10713
  153.6533  135.6980  153.5202 H   0  0  0  0  0  0  0  0  0  0  0  0  # atno 10763 bound_to 10752
  153.2689  135.4221  155.0968 H   0  0  0  0  0  0  0  0  0  0  0  0  # atno 10764 bound_to 10752
  154.8471  135.3573  154.6077 H   0  0  0  0  0  0  0  0  0  0  0  0  # atno 10765 bound_to 10752
  140.0498  134.9261  157.0996 H   0  0  0  0  0  0  0  0  0  0  0  0  # atno 11005 bound_to 11000
  146.2646  139.6490  142.9338 LP  0  0  0  0  0  0  0  0  0  0  0  0  # atno 17320 bound_to 7965
  145.4822  141.0438  143.2639 LP  0  0  0  0  0  0  0  0  0  0  0  0  # atno 17321 bound_to 7965
  139.8165  143.7878  152.3174 LP  0  0  0  0  0  0  0  0  0  0  0  0  # atno 17342 bound_to 10162
  139.7946  144.7397  150.9908 LP  0  0  0  0  0  0  0  0  0  0  0  0  # atno 17343 bound_to 10162
  155.9766  130.4073  150.3769 LP  0  0  0  0  0  0  0  0  0  0  0  0  # atno 17370 bound_to 10713
  157.1867  131.0405  151.2721 LP  0  0  0  0  0  0  0  0  0  0  0  0  # atno 17371 bound_to 10713
  140.3935  134.2159  155.7165 LP  0  0  0  0  0  0  0  0  0  0  0  0  # atno 17394 bound_to 11000
  141.1925  133.8172  157.0838 LP  0  0  0  0  0  0  0  0  0  0  0  0  # atno 17395 bound_to 11000

$$$$
