AV-unprocessed.smi:2020|AV-procd|sdf|8173|dock2
  -GOLD-   2272010423D 1   1.00000     0.00000
 Structure written by MMmdl.
 40 41  0  0  0  0  0  0  0  0  1 V2000
  150.5180  139.7203  157.7368 C   0  0  0  0  0  0  0  0  0  0  0  0
  150.7202  138.7862  156.5932 C   0  0  0  0  0  0  0  0  0  0  0  0
  150.4932  137.4720  156.6629 N   0  0  0  0  0  0  0  0  0  0  0  0
  150.7571  136.8154  155.4566 C   0  0  0  0  0  0  0  0  0  0  0  0
  150.5503  135.3354  155.3478 C   0  0  0  0  0  0  0  0  0  0  0  0
  149.0619  134.9535  155.4066 C   0  0  0  0  0  0  0  0  0  0  0  0
  148.4956  134.7707  154.0747 N   0  0  0  0  0  0  0  0  0  0  0  0
  147.5210  133.9026  153.7689 C   0  0  0  0  0  0  0  0  0  0  0  0
  146.9804  133.1596  154.5884 O   0  0  0  0  0  0  0  0  0  0  0  0
  147.2113  133.9438  152.4651 N   0  0  0  0  0  0  0  0  0  0  0  0
  146.2000  133.1253  151.8009 C   0  0  2  0  0  0  0  0  0  0  0  0
  146.6246  132.8573  150.3443 C   0  0  0  0  0  0  0  0  0  0  0  0
  145.5490  132.0678  149.5809 C   0  0  0  0  0  0  0  0  0  0  0  0
  144.1906  132.7877  149.6359 C   0  0  1  0  0  0  0  0  0  0  0  0
  143.2141  132.0029  148.9848 O   0  0  0  0  0  0  0  0  0  0  0  0
  143.7585  133.0450  151.0899 C   0  0  0  0  0  0  0  0  0  0  0  0
  144.8328  133.8341  151.8563 C   0  0  0  0  0  0  0  0  0  0  0  0
  151.1884  137.6597  154.4641 C   0  0  0  0  0  0  0  0  0  0  0  0
  151.2823  139.3111  155.0109 S   0  0  0  0  0  0  0  0  0  0  0  0
  150.2146  139.1743  158.6309 H   0  0  0  0  0  0  0  0  0  0  0  0
  149.7432  140.4468  157.4911 H   0  0  0  0  0  0  0  0  0  0  0  0
  151.4445  140.2529  157.9507 H   0  0  0  0  0  0  0  0  0  0  0  0
  150.9876  134.9730  154.4166 H   0  0  0  0  0  0  0  0  0  0  0  0
  151.0887  134.8255  156.1478 H   0  0  0  0  0  0  0  0  0  0  0  0
  148.9391  134.0202  155.9571 H   0  0  0  0  0  0  0  0  0  0  0  0
  148.4951  135.7112  155.9505 H   0  0  0  0  0  0  0  0  0  0  0  0
  148.8803  135.3384  153.3339 H   0  0  0  0  0  0  0  0  0  0  0  0
  147.7190  134.5924  151.8814 H   0  0  0  0  0  0  0  0  0  0  0  0
  146.1024  132.1617  152.3047 H   0  0  0  0  0  0  0  0  0  0  0  0
  146.8086  133.8025  149.8314 H   0  0  0  0  0  0  0  0  0  0  0  0
  147.5661  132.3070  150.3253 H   0  0  0  0  0  0  0  0  0  0  0  0
  145.8594  131.9295  148.5446 H   0  0  0  0  0  0  0  0  0  0  0  0
  145.4590  131.0702  150.0134 H   0  0  0  0  0  0  0  0  0  0  0  0
  144.2638  133.7388  149.1067 H   0  0  0  0  0  0  0  0  0  0  0  0
  142.3770  132.4333  149.0695 H   0  0  0  0  0  0  0  0  0  0  0  0
  142.8150  133.5918  151.1101 H   0  0  0  0  0  0  0  0  0  0  0  0
  143.5776  132.0963  151.5973 H   0  0  0  0  0  0  0  0  0  0  0  0
  144.5218  133.9651  152.8934 H   0  0  0  0  0  0  0  0  0  0  0  0
  144.9163  134.8351  151.4300 H   0  0  0  0  0  0  0  0  0  0  0  0
  151.4534  137.4103  153.4472 H   0  0  0  0  0  0  0  0  0  0  0  0
  1  2  1  0  0  0  0
  1 20  1  0  0  0  0
  1 21  1  0  0  0  0
  1 22  1  0  0  0  0
  2 19  1  0  0  0  0
  2  3  2  0  0  0  0
  3  4  1  0  0  0  0
  4  5  1  0  0  0  0
  4 18  2  0  0  0  0
  5  6  1  0  0  0  0
  5 23  1  0  0  0  0
  5 24  1  0  0  0  0
  6  7  1  0  0  0  0
  6 25  1  0  0  0  0
  6 26  1  0  0  0  0
  7  8  1  0  0  0  0
  7 27  1  0  0  0  0
  8  9  2  0  0  0  0
  8 10  1  0  0  0  0
 10 11  1  0  0  0  0
 10 28  1  0  0  0  0
 11 17  1  0  0  0  0
 11 12  1  0  0  0  0
 11 29  1  0  0  0  0
 12 13  1  0  0  0  0
 12 30  1  0  0  0  0
 12 31  1  0  0  0  0
 13 14  1  0  0  0  0
 13 32  1  0  0  0  0
 13 33  1  0  0  0  0
 14 15  1  0  0  0  0
 14 16  1  0  0  0  0
 14 34  1  0  0  0  0
 15 35  1  0  0  0  0
 16 17  1  0  0  0  0
 16 36  1  0  0  0  0
 16 37  1  0  0  0  0
 17 38  1  0  0  0  0
 17 39  1  0  0  0  0
 18 19  1  0  0  0  0
 18 40  1  0  0  0  0
M  END
> <s_m_source_file>
AV-unprocessed.smi

> <i_m_source_file_index>
2020

> <i_lp_mmshare_version>
43012

> <i_f3d_flags>
0

> <s_epik_input>
W0NIM11jMW5jKFtjSF1zMSlbQ0gyXVtDSDJdW05IXUMoPU8pW05IXVtDQEBIXTJbQ0gyXVtDSDJdW0NAQEhdKFtPSF0pW0NIMl1bQ0gyXTI=

> <s_epik_cmdline>
J2VwaWtfcHl0aG9uJywgJy1waCcsICc3LjAnLCAnLXRuJywgJzgnLCAnLW1hJywgJzIwMCcsICctbWV0YWxfYmluZGluZycsICctaW1hZScsICc8aW5maWxlLm1hZT4nLCAnLW9tYWUnLCAnPG91dGZpbGUubWFlPic=

> <r_epik_Ionization_Penalty>
0.00202099

> <r_epik_Ionization_Penalty_Charging>
0

> <r_epik_Ionization_Penalty_Neutral>
0.00202099

> <r_epik_State_Penalty>
0.00133629

> <r_epik_Charging_Adjusted_Penalty>
0.00133629

> <i_epik_Tot_Q>
0

> <i_epik_Tot_abs_Q>
0

> <r_epik_Metal_State_Penalty>
-0

> <b_epik_Metal_Only>
0

> <s_lp_Force_Field>
OPLS_2005

> <r_lp_Energy>
0.764429

> <b_lp_Chiralities_Consistent>
1

> <s_lp_Variant>
AV-unprocessed.smi:2020-1

> <Gold.Version>
5.8.1

> <Gold.Id.Protein>
6NUR|6NUR_protein|mol2

> <Gold.PLP.Fitness>
47.5054

> <Gold.PLP.PLP>
-35.7776

> <Gold.PLP.part.hbond>
-4.8858

> <Gold.PLP.part.metal>
0.0000

> <Gold.PLP.part.buried>
-5.0972

> <Gold.PLP.part.nonpolar>
-26.7234

> <Gold.PLP.part.repulsive>
0.0523

> <Gold.PLP.ligand.clash>
0.0000

> <Gold.PLP.ligand.torsion>
0.8956

> <Gold.PLP.Chemscore.Hbond>
3.5040

> <Gold.PLP.Chemscore.CHOScore>
1.0000

> <Gold.PLP.Chemscore.Metal>
0.0000

> <Gold.Chemscore.Hbonds>
donor molecule, donor type, donor heavy atom, donor atom, acceptor molecule, acceptor atom, score
      L1  H     7    27       P1  7948  1.00
      L1  H    10    28       P1  7948  0.93
      P1  H 10785 10796       L1    15  1.00
      L1  C    18    40       P1  7949  1.00

> <Gold.PLP.Chemscore.Internal.Correction>
0.0070

> <Gold.Rescore>
     Score         DG    S(hbond)    S(metal)    S(lipo)     H(rot)  DE(clash)    DE(int)     intcor
     18.72     -19.38       2.82        0.00      84.19       2.10       0.07       0.60       ----

> <Gold.Chemscore.Fitness>
18.7209

> <Gold.Chemscore.DG>
-19.3817

> <Gold.Chemscore.ZeroCoef>
-5.4800

> <Gold.Chemscore.Hbond>
2.8225

> <Gold.Chemscore.Metal>
0.0000

> <Gold.Chemscore.Lipo>
84.1861

> <Gold.Chemscore.Internal_Hbond>
0.0000

> <Gold.Chemscore.DEClash>
0.0650

> <Gold.Chemscore.DEInternal>
0.5957

> <Gold.Chemscore.Rot>
2.0997

> <Gold.Chemscore.Internal.Correction>
   9.000000E+99

> <Gold.Chemscore.Hbonds>
donor molecule, donor type, donor heavy atom, donor atom, acceptor molecule, acceptor atom, score
      L1  H     7    27       P1  7948  0.70
      L1  H    10    28       P1  7948  0.30
      L1  H    15    35       P1 10186  0.05
      P1  H 10785 10796       L1    15  0.90

> <Gold.Chemscore.Hbond.Weighted>
-9.4271

> <Gold.Chemscore.Metal.Weighted>
-0.0000

> <Gold.Chemscore.Lipo.Weighted>
-9.8498

> <Gold.Chemscore.Internal_Hbond.Weighted>
0.0000

> <Gold.Chemscore.DEClash.Weighted>
0.0650

> <Gold.Chemscore.DEInternal.Weighted>
0.5957

> <Gold.Chemscore.Rot.Weighted>
5.3752

> <Gold.Chemscore.Internal.Correction.Weighted>
   9.000000E+99

> <Gold.Protein.RotatedTorsions>
[ 6907 6896 6895 6894 ] final   -3.87 input  -60.11 | X-H torsion
[ 7974 7965 7964 7962 ] final  115.44 input  175.53 | X-H torsion
[ 8008 7997 7996 7995 ] final   89.06 input   59.86 | X-H torsion
[ 10167 10162 10161 10158 ] final  134.06 input  -65.29 | X-H torsion
[ 10718 10713 10712 10709 ] final -161.89 input   66.30 | X-H torsion
[ 10763 10752 10751 10750 ] final  163.93 input  -60.55 | X-H torsion
[ 11005 11000 10999 10996 ] final   92.27 input  -57.11 | X-H torsion

> <Gold.Protein.ActiveResidues>
 VAL166  LYS551  ARG553  GLY616  TRP617  ASP618  TYR619  PRO620  LYS621  CYS622 
 ASP623  PHE694  ASN695  SER759  ASP760  ASP761  ALA762  ILE779  LEU786  VAL792 
 PHE793  MET794  SER795  GLU796  ALA797  LYS798  CYS799  TRP800  GLU811  SER814 

> <Gold.Protein.RotatedAtoms>
  151.5068  135.1063  159.9843 H   0  0  0  0  0  0  0  0  0  0  0  0  # atno 6907 bound_to 6896
  152.4679  133.7959  159.6937 H   0  0  0  0  0  0  0  0  0  0  0  0  # atno 6908 bound_to 6896
  150.8672  133.7495  159.2999 H   0  0  0  0  0  0  0  0  0  0  0  0  # atno 6909 bound_to 6896
  145.1920  139.2995  143.4363 H   0  0  0  0  0  0  0  0  0  0  0  0  # atno 7974 bound_to 7965
  155.9953  140.3365  155.6793 H   0  0  0  0  0  0  0  0  0  0  0  0  # atno 8008 bound_to 7997
  155.6364  140.0690  157.2650 H   0  0  0  0  0  0  0  0  0  0  0  0  # atno 8009 bound_to 7997
  154.4232  140.1750  156.1514 H   0  0  0  0  0  0  0  0  0  0  0  0  # atno 8010 bound_to 7997
  139.5271  144.6586  151.5085 H   0  0  0  0  0  0  0  0  0  0  0  0  # atno 10167 bound_to 10162
  156.6027  130.8817  151.2917 H   0  0  0  0  0  0  0  0  0  0  0  0  # atno 10718 bound_to 10713
  154.3012  135.2759  155.2610 H   0  0  0  0  0  0  0  0  0  0  0  0  # atno 10763 bound_to 10752
  154.5046  135.5799  153.6561 H   0  0  0  0  0  0  0  0  0  0  0  0  # atno 10764 bound_to 10752
  152.9900  135.6166  154.3183 H   0  0  0  0  0  0  0  0  0  0  0  0  # atno 10765 bound_to 10752
  139.8826  134.8723  156.3548 H   0  0  0  0  0  0  0  0  0  0  0  0  # atno 11005 bound_to 11000
  146.3434  140.2135  142.8590 LP  0  0  0  0  0  0  0  0  0  0  0  0  # atno 17320 bound_to 7965
  145.0032  140.8650  143.5269 LP  0  0  0  0  0  0  0  0  0  0  0  0  # atno 17321 bound_to 7965
  140.6423  143.8865  150.6703 LP  0  0  0  0  0  0  0  0  0  0  0  0  # atno 17342 bound_to 10162
  140.2203  143.3814  152.1648 LP  0  0  0  0  0  0  0  0  0  0  0  0  # atno 17343 bound_to 10162
  157.7275  130.9644  150.1703 LP  0  0  0  0  0  0  0  0  0  0  0  0  # atno 17370 bound_to 10713
  156.2456  130.3695  149.8289 LP  0  0  0  0  0  0  0  0  0  0  0  0  # atno 17371 bound_to 10713
  140.9570  133.7414  156.0349 LP  0  0  0  0  0  0  0  0  0  0  0  0  # atno 17394 bound_to 11000
  140.8037  134.3480  157.5432 LP  0  0  0  0  0  0  0  0  0  0  0  0  # atno 17395 bound_to 11000

$$$$
