AV-unprocessed.smi:364|AV-procd|sdf|2426|dock9
  -GOLD-   2262022363D 1   1.00000     0.00000
 Structure written by MMmdl.
 37 38  0  0  0  0  0  0  0  0  1 V2000
  152.6321  143.1100  162.2096 C   0  0  0  0  0  0  0  0  0  0  0  0
  152.4802  143.8276  160.8609 C   0  0  2  0  0  0  0  0  0  0  0  0
  151.0632  144.4111  160.6948 C   0  0  0  0  0  0  0  0  0  0  0  0
  150.8862  145.1041  159.3309 C   0  0  0  0  0  0  0  0  0  0  0  0
  151.2305  144.1682  158.1570 C   0  0  2  0  0  0  0  0  0  0  0  0
  150.2555  143.0854  158.0895 N   0  0  0  0  0  0  0  0  0  0  0  0
  150.1789  142.1118  157.1686 C   0  0  0  0  0  0  0  0  0  0  0  0
  150.9540  142.0216  156.2178 O   0  0  0  0  0  0  0  0  0  0  0  0
  149.0673  141.0610  157.3396 C   0  0  0  0  0  0  0  0  0  0  0  0
  148.2221  140.8690  156.1457 N   0  0  0  0  0  0  0  0  0  0  0  0
  148.4187  141.7521  155.0707 C   0  0  0  0  0  0  0  0  0  0  0  0
  147.7198  141.6206  153.9344 C   0  0  0  0  0  0  0  0  0  0  0  0
  146.7542  140.5153  153.8868 C   0  0  0  0  0  0  0  0  0  0  0  0
  146.5723  139.7082  154.8646 N   0  0  0  0  0  0  0  0  0  0  0  0
  147.3086  139.8475  156.0563 C   0  0  0  0  0  0  0  0  0  0  0  0
  147.1496  139.0666  156.9945 O   0  0  0  0  0  0  0  0  0  0  0  0
  152.6494  143.5918  158.3257 C   0  0  0  0  0  0  0  0  0  0  0  0
  152.8295  142.8924  159.6863 C   0  0  0  0  0  0  0  0  0  0  0  0
  151.9493  142.2631  162.2862 H   0  0  0  0  0  0  0  0  0  0  0  0
  152.4201  143.7844  163.0397 H   0  0  0  0  0  0  0  0  0  0  0  0
  153.6465  142.7328  162.3422 H   0  0  0  0  0  0  0  0  0  0  0  0
  153.1872  144.6585  160.8478 H   0  0  0  0  0  0  0  0  0  0  0  0
  150.3214  143.6186  160.8040 H   0  0  0  0  0  0  0  0  0  0  0  0
  150.8614  145.1269  161.4924 H   0  0  0  0  0  0  0  0  0  0  0  0
  149.8644  145.4724  159.2309 H   0  0  0  0  0  0  0  0  0  0  0  0
  151.5304  145.9833  159.2896 H   0  0  0  0  0  0  0  0  0  0  0  0
  151.1957  144.7507  157.2350 H   0  0  0  0  0  0  0  0  0  0  0  0
  149.5687  143.0653  158.8294 H   0  0  0  0  0  0  0  0  0  0  0  0
  149.5259  140.1174  157.6401 H   0  0  0  0  0  0  0  0  0  0  0  0
  148.4479  141.3567  158.1875 H   0  0  0  0  0  0  0  0  0  0  0  0
  149.1648  142.5178  155.2272 H   0  0  0  0  0  0  0  0  0  0  0  0
  147.8254  142.2605  153.0709 H   0  0  0  0  0  0  0  0  0  0  0  0
  146.1945  140.4238  152.9526 H   0  0  0  0  0  0  0  0  0  0  0  0
  152.8715  142.8953  157.5161 H   0  0  0  0  0  0  0  0  0  0  0  0
  153.3773  144.3996  158.2397 H   0  0  0  0  0  0  0  0  0  0  0  0
  153.8589  142.5455  159.7818 H   0  0  0  0  0  0  0  0  0  0  0  0
  152.2033  141.9998  159.7262 H   0  0  0  0  0  0  0  0  0  0  0  0
  1  2  1  0  0  0  0
  1 19  1  0  0  0  0
  1 20  1  0  0  0  0
  1 21  1  0  0  0  0
  2 18  1  0  0  0  0
  2  3  1  0  0  0  0
  2 22  1  0  0  0  0
  3  4  1  0  0  0  0
  3 23  1  0  0  0  0
  3 24  1  0  0  0  0
  4  5  1  0  0  0  0
  4 25  1  0  0  0  0
  4 26  1  0  0  0  0
  5  6  1  0  0  0  0
  5 17  1  0  0  0  0
  5 27  1  0  0  0  0
  6  7  1  0  0  0  0
  6 28  1  0  0  0  0
  7  8  2  0  0  0  0
  7  9  1  0  0  0  0
  9 10  1  0  0  0  0
  9 29  1  0  0  0  0
  9 30  1  0  0  0  0
 10 15  1  0  0  0  0
 10 11  1  0  0  0  0
 11 12  2  0  0  0  0
 11 31  1  0  0  0  0
 12 13  1  0  0  0  0
 12 32  1  0  0  0  0
 13 14  2  0  0  0  0
 13 33  1  0  0  0  0
 14 15  1  0  0  0  0
 15 16  2  0  0  0  0
 17 18  1  0  0  0  0
 17 34  1  0  0  0  0
 17 35  1  0  0  0  0
 18 36  1  0  0  0  0
 18 37  1  0  0  0  0
M  END
> <s_m_source_file>
AV-unprocessed.smi

> <i_m_source_file_index>
364

> <i_lp_mmshare_version>
43012

> <i_f3d_flags>
0

> <s_epik_input>
W0NIM11bQ0BASF0xW0NIMl1bQ0gyXVtDQEhdKFtDSDJdW0NIMl0xKVtOSF1DKD1PKVtDSDJdbjJbY0hdW2NIXVtjSF1uYzI9Tw==

> <s_epik_cmdline>
J2VwaWtfcHl0aG9uJywgJy1waCcsICc3LjAnLCAnLXRuJywgJzgnLCAnLW1hJywgJzIwMCcsICctbWV0YWxfYmluZGluZycsICctaW1hZScsICc8aW5maWxlLm1hZT4nLCAnLW9tYWUnLCAnPG91dGZpbGUubWFlPic=

> <r_lp_tautomer_probability>
1

> <r_epik_Ionization_Penalty>
7.65306e-06

> <r_epik_Ionization_Penalty_Charging>
1.81354e-08

> <r_epik_Ionization_Penalty_Neutral>
7.63492e-06

> <r_epik_State_Penalty>
-0

> <r_epik_Charging_Adjusted_Penalty>
1.81354e-08

> <i_epik_Tot_Q>
0

> <i_epik_Tot_abs_Q>
0

> <r_epik_Metal_State_Penalty>
-0

> <b_epik_Metal_Only>
0

> <s_lp_Force_Field>
OPLS_2005

> <r_lp_Energy>
9.99244

> <b_lp_Chiralities_Consistent>
1

> <s_lp_Variant>
AV-unprocessed.smi:364-2

> <Gold.Version>
5.8.1

> <Gold.Id.Protein>
6NUR|6NUR_protein|mol2

> <Gold.PLP.Fitness>
40.8567

> <Gold.PLP.PLP>
-35.1500

> <Gold.PLP.part.hbond>
-0.3677

> <Gold.PLP.part.metal>
0.0000

> <Gold.PLP.part.buried>
-3.5443

> <Gold.PLP.part.nonpolar>
-31.5971

> <Gold.PLP.part.repulsive>
0.1980

> <Gold.PLP.ligand.clash>
0.0000

> <Gold.PLP.ligand.torsion>
0.1238

> <Gold.PLP.Chemscore.Hbond>
0.0000

> <Gold.PLP.Chemscore.CHOScore>
1.9832

> <Gold.PLP.Chemscore.Metal>
0.0000

> <Gold.Chemscore.Hbonds>
donor molecule, donor type, donor heavy atom, donor atom, acceptor molecule, acceptor atom, score
      L1  C    11    31       P1  8028  0.98
      L1  C    13    33       P1 10175  0.95

> <Gold.PLP.Chemscore.Internal.Correction>
0.0047

> <Gold.Rescore>
     Score         DG    S(hbond)    S(metal)    S(lipo)     H(rot)  DE(clash)    DE(int)     intcor
     12.62     -14.16       0.00        0.00     106.98       1.50       0.01       1.53       ----

> <Gold.Chemscore.Fitness>
12.6216

> <Gold.Chemscore.DG>
-14.1631

> <Gold.Chemscore.ZeroCoef>
-5.4800

> <Gold.Chemscore.Hbond>
0.0000

> <Gold.Chemscore.Metal>
0.0000

> <Gold.Chemscore.Lipo>
106.9847

> <Gold.Chemscore.Internal_Hbond>
0.0000

> <Gold.Chemscore.DEClash>
0.0132

> <Gold.Chemscore.DEInternal>
1.5283

> <Gold.Chemscore.Rot>
1.4977

> <Gold.Chemscore.Internal.Correction>
   9.000000E+99

> <Gold.Chemscore.Hbond.Weighted>
-0.0000

> <Gold.Chemscore.Metal.Weighted>
-0.0000

> <Gold.Chemscore.Lipo.Weighted>
-12.5172

> <Gold.Chemscore.Internal_Hbond.Weighted>
0.0000

> <Gold.Chemscore.DEClash.Weighted>
0.0132

> <Gold.Chemscore.DEInternal.Weighted>
1.5283

> <Gold.Chemscore.Rot.Weighted>
3.8341

> <Gold.Chemscore.Internal.Correction.Weighted>
   9.000000E+99

> <Gold.Protein.RotatedTorsions>
[ 6907 6896 6895 6894 ] final   82.77 input  -60.11 | X-H torsion
[ 7974 7965 7964 7962 ] final -134.72 input  175.53 | X-H torsion
[ 8008 7997 7996 7995 ] final -176.51 input   59.86 | X-H torsion
[ 10167 10162 10161 10158 ] final  -17.90 input  -65.29 | X-H torsion
[ 10718 10713 10712 10709 ] final  152.05 input   66.30 | X-H torsion
[ 10763 10752 10751 10750 ] final  -23.27 input  -60.55 | X-H torsion
[ 11005 11000 10999 10996 ] final -110.86 input  -57.11 | X-H torsion

> <Gold.Protein.ActiveResidues>
 VAL166  LYS551  ARG553  GLY616  TRP617  ASP618  TYR619  PRO620  LYS621  CYS622 
 ASP623  PHE694  ASN695  SER759  ASP760  ASP761  ALA762  ILE779  LEU786  VAL792 
 PHE793  MET794  SER795  GLU796  ALA797  LYS798  CYS799  TRP800  GLU811  SER814 

> <Gold.Protein.RotatedAtoms>
  152.5308  134.2999  159.9074 H   0  0  0  0  0  0  0  0  0  0  0  0  # atno 6907 bound_to 6896
  151.2950  133.4142  159.2643 H   0  0  0  0  0  0  0  0  0  0  0  0  # atno 6908 bound_to 6896
  151.0168  134.9455  159.8095 H   0  0  0  0  0  0  0  0  0  0  0  0  # atno 6909 bound_to 6896
  144.9077  140.6855  143.5044 H   0  0  0  0  0  0  0  0  0  0  0  0  # atno 7974 bound_to 7965
  155.9957  140.1210  157.0596 H   0  0  0  0  0  0  0  0  0  0  0  0  # atno 8008 bound_to 7997
  154.4226  140.1117  156.5695 H   0  0  0  0  0  0  0  0  0  0  0  0  # atno 8009 bound_to 7997
  155.6282  140.3473  155.4676 H   0  0  0  0  0  0  0  0  0  0  0  0  # atno 8010 bound_to 7997
  140.7252  143.4970  150.9918 H   0  0  0  0  0  0  0  0  0  0  0  0  # atno 10167 bound_to 10162
  157.2628  131.0801  151.1653 H   0  0  0  0  0  0  0  0  0  0  0  0  # atno 10718 bound_to 10713
  153.6651  135.6974  153.5165 H   0  0  0  0  0  0  0  0  0  0  0  0  # atno 10763 bound_to 10752
  153.2601  135.4247  155.0884 H   0  0  0  0  0  0  0  0  0  0  0  0  # atno 10764 bound_to 10752
  154.8441  135.3553  154.6196 H   0  0  0  0  0  0  0  0  0  0  0  0  # atno 10765 bound_to 10752
  141.0767  133.9289  157.2374 H   0  0  0  0  0  0  0  0  0  0  0  0  # atno 11005 bound_to 11000
  145.3507  139.1707  143.4436 LP  0  0  0  0  0  0  0  0  0  0  0  0  # atno 17320 bound_to 7965
  146.3142  140.3558  142.8660 LP  0  0  0  0  0  0  0  0  0  0  0  0  # atno 17321 bound_to 7965
  139.8677  143.7232  152.3169 LP  0  0  0  0  0  0  0  0  0  0  0  0  # atno 17342 bound_to 10162
  139.7470  144.7544  151.0564 LP  0  0  0  0  0  0  0  0  0  0  0  0  # atno 17343 bound_to 10162
  157.3156  130.6911  149.6240 LP  0  0  0  0  0  0  0  0  0  0  0  0  # atno 17370 bound_to 10713
  155.9664  130.4350  150.5075 LP  0  0  0  0  0  0  0  0  0  0  0  0  # atno 17371 bound_to 10713
  139.9580  135.0161  156.9181 LP  0  0  0  0  0  0  0  0  0  0  0  0  # atno 17394 bound_to 11000
  140.5557  134.0584  155.7383 LP  0  0  0  0  0  0  0  0  0  0  0  0  # atno 17395 bound_to 11000

$$$$
