AV-unprocessed.smi:1511|AV-procd|sdf|6099|dock8
  -GOLD-   22720 6233D 1   1.00000     0.00000
 Structure written by MMmdl.
 32 33  0  0  0  0  0  0  0  0  1 V2000
  149.3249  132.6096  155.2347 O   0  0  0  0  0  0  0  0  0  0  0  0
  149.2670  133.4507  154.3381 C   0  0  0  0  0  0  0  0  0  0  0  0
  148.9141  133.0257  152.9137 C   0  0  0  0  0  0  0  0  0  0  0  0
  147.4725  132.9913  152.7408 N   0  0  0  0  0  0  0  0  0  0  0  0
  146.7543  132.7890  151.5806 C   0  0  0  0  0  0  0  0  0  0  0  0
  145.4300  132.8699  151.9028 C   0  0  0  0  0  0  0  0  0  0  0  0
  145.4376  133.1279  153.3021 C   0  0  0  0  0  0  0  0  0  0  0  0
  146.6611  133.2006  153.8012 N   0  0  0  0  0  0  0  0  0  0  0  0
  149.5394  134.7525  154.5181 N   0  0  0  0  0  0  0  0  0  0  0  0
  150.0704  135.3451  155.7407 C   0  0  0  0  0  0  0  0  0  0  0  0
  150.0727  136.8834  155.6527 C   0  0  1  0  0  0  0  0  0  0  0  0
  150.4029  137.5528  157.0007 C   0  0  0  0  0  0  0  0  0  0  0  0
  150.6310  139.0494  156.7621 C   0  0  0  0  0  0  0  0  0  0  0  0
  151.3849  139.1776  155.0974 S   0  0  0  0  0  0  0  0  0  0  0  0
  150.5756  140.0902  154.2757 O   0  0  0  0  0  0  0  0  0  0  0  0
  152.8381  139.3625  155.2275 O   0  0  0  0  0  0  0  0  0  0  0  0
  151.0465  137.4467  154.6025 C   0  0  0  0  0  0  0  0  0  0  0  0
  149.3386  133.7289  152.1959 H   0  0  0  0  0  0  0  0  0  0  0  0
  149.3357  132.0434  152.6935 H   0  0  0  0  0  0  0  0  0  0  0  0
  147.2415  132.6125  150.6327 H   0  0  0  0  0  0  0  0  0  0  0  0
  144.5846  132.7633  151.2395 H   0  0  0  0  0  0  0  0  0  0  0  0
  144.5960  133.2653  153.9651 H   0  0  0  0  0  0  0  0  0  0  0  0
  149.4584  135.3624  153.7171 H   0  0  0  0  0  0  0  0  0  0  0  0
  149.4409  135.0247  156.5714 H   0  0  0  0  0  0  0  0  0  0  0  0
  151.0733  134.9739  155.9579 H   0  0  0  0  0  0  0  0  0  0  0  0
  149.0702  137.2098  155.3707 H   0  0  0  0  0  0  0  0  0  0  0  0
  149.6193  137.3830  157.7397 H   0  0  0  0  0  0  0  0  0  0  0  0
  151.3190  137.1171  157.4021 H   0  0  0  0  0  0  0  0  0  0  0  0
  149.6831  139.5878  156.7452 H   0  0  0  0  0  0  0  0  0  0  0  0
  151.2805  139.5075  157.5080 H   0  0  0  0  0  0  0  0  0  0  0  0
  151.9930  136.9052  154.6155 H   0  0  0  0  0  0  0  0  0  0  0  0
  150.6454  137.4182  153.5888 H   0  0  0  0  0  0  0  0  0  0  0  0
  1  2  2  0  0  0  0
  2  3  1  0  0  0  0
  2  9  1  0  0  0  0
  3  4  1  0  0  0  0
  3 18  1  0  0  0  0
  3 19  1  0  0  0  0
  4  8  1  0  0  0  0
  4  5  1  0  0  0  0
  5  6  2  0  0  0  0
  5 20  1  0  0  0  0
  6  7  1  0  0  0  0
  6 21  1  0  0  0  0
  7  8  2  0  0  0  0
  7 22  1  0  0  0  0
  9 10  1  0  0  0  0
  9 23  1  0  0  0  0
 10 11  1  0  0  0  0
 10 24  1  0  0  0  0
 10 25  1  0  0  0  0
 11 17  1  0  0  0  0
 11 12  1  0  0  0  0
 11 26  1  0  0  0  0
 12 13  1  0  0  0  0
 12 27  1  0  0  0  0
 12 28  1  0  0  0  0
 13 14  1  0  0  0  0
 13 29  1  0  0  0  0
 13 30  1  0  0  0  0
 14 15  2  0  0  0  0
 14 16  2  0  0  0  0
 14 17  1  0  0  0  0
 17 31  1  0  0  0  0
 17 32  1  0  0  0  0
M  END
> <s_m_source_file>
AV-unprocessed.smi

> <i_m_source_file_index>
1511

> <i_lp_mmshare_version>
43012

> <i_f3d_flags>
0

> <s_epik_input>
bjFbY0hdW2NIXVtjSF1uMVtDSDJdQyg9TylbTkhdW0NIMl1bQ0BASF0oW0NIMl0yKVtDSDJdW0NIMl1TMig9Tyk9Tw==

> <s_epik_cmdline>
J2VwaWtfcHl0aG9uJywgJy1waCcsICc3LjAnLCAnLXRuJywgJzgnLCAnLW1hJywgJzIwMCcsICctbWV0YWxfYmluZGluZycsICctaW1hZScsICc8aW5maWxlLm1hZT4nLCAnLW9tYWUnLCAnPG91dGZpbGUubWFlPic=

> <r_lp_tautomer_probability>
1

> <r_epik_Ionization_Penalty>
1.34373e-05

> <r_epik_Ionization_Penalty_Charging>
0

> <r_epik_Ionization_Penalty_Neutral>
1.34373e-05

> <r_epik_State_Penalty>
-0

> <r_epik_Charging_Adjusted_Penalty>
0

> <i_epik_Tot_Q>
0

> <i_epik_Tot_abs_Q>
0

> <r_epik_Metal_State_Penalty>
-0

> <b_epik_Metal_Only>
0

> <s_lp_Force_Field>
OPLS_2005

> <r_lp_Energy>
3.15153

> <b_lp_Chiralities_Consistent>
1

> <s_lp_Variant>
AV-unprocessed.smi:1511-2

> <Gold.Version>
5.8.1

> <Gold.Id.Protein>
6NUR|6NUR_protein|mol2

> <Gold.PLP.Fitness>
39.2182

> <Gold.PLP.PLP>
-25.5936

> <Gold.PLP.part.hbond>
-3.3207

> <Gold.PLP.part.metal>
0.0000

> <Gold.PLP.part.buried>
-4.9058

> <Gold.PLP.part.nonpolar>
-19.4020

> <Gold.PLP.part.repulsive>
0.2467

> <Gold.PLP.ligand.clash>
0.0000

> <Gold.PLP.ligand.torsion>
0.4541

> <Gold.PLP.Chemscore.Hbond>
2.9500

> <Gold.PLP.Chemscore.CHOScore>
1.8918

> <Gold.PLP.Chemscore.Metal>
0.0000

> <Gold.Chemscore.Hbonds>
donor molecule, donor type, donor heavy atom, donor atom, acceptor molecule, acceptor atom, score
      L1  H     9    23       P1  7948  0.85
      P1  H  7989  7998       L1    15  0.98
      P1  H  7997  8009       L1    16  1.00
      L1  C     5    20       P1 10747  0.89
      L1  C     7    22       P1 10957  0.89

> <Gold.PLP.Chemscore.Internal.Correction>
0.0074

> <Gold.Rescore>
     Score         DG    S(hbond)    S(metal)    S(lipo)     H(rot)  DE(clash)    DE(int)     intcor
     13.98     -14.50       2.71        0.00      39.53       1.82       0.00       0.51       ----

> <Gold.Chemscore.Fitness>
13.9830

> <Gold.Chemscore.DG>
-14.5009

> <Gold.Chemscore.ZeroCoef>
-5.4800

> <Gold.Chemscore.Hbond>
2.7093

> <Gold.Chemscore.Metal>
0.0000

> <Gold.Chemscore.Lipo>
39.5346

> <Gold.Chemscore.Internal_Hbond>
0.0000

> <Gold.Chemscore.DEClash>
0.0048

> <Gold.Chemscore.DEInternal>
0.5131

> <Gold.Chemscore.Rot>
1.8178

> <Gold.Chemscore.Internal.Correction>
   9.000000E+99

> <Gold.Chemscore.Hbonds>
donor molecule, donor type, donor heavy atom, donor atom, acceptor molecule, acceptor atom, score
      L1  H     9    23       P1  7948  0.19
      P1  H  7989  7998       L1    15  0.37
      P1  H  7997  8009       L1    16  0.99

> <Gold.Chemscore.Hbond.Weighted>
-9.0490

> <Gold.Chemscore.Metal.Weighted>
-0.0000

> <Gold.Chemscore.Lipo.Weighted>
-4.6256

> <Gold.Chemscore.Internal_Hbond.Weighted>
0.0000

> <Gold.Chemscore.DEClash.Weighted>
0.0048

> <Gold.Chemscore.DEInternal.Weighted>
0.5131

> <Gold.Chemscore.Rot.Weighted>
4.6537

> <Gold.Chemscore.Internal.Correction.Weighted>
   9.000000E+99

> <Gold.Protein.RotatedTorsions>
[ 6907 6896 6895 6894 ] final   97.79 input  -60.11 | X-H torsion
[ 7974 7965 7964 7962 ] final  112.67 input  175.53 | X-H torsion
[ 8008 7997 7996 7995 ] final -131.97 input   59.86 | X-H torsion
[ 10167 10162 10161 10158 ] final -126.81 input  -65.29 | X-H torsion
[ 10718 10713 10712 10709 ] final  147.00 input   66.30 | X-H torsion
[ 10763 10752 10751 10750 ] final   86.79 input  -60.55 | X-H torsion
[ 11005 11000 10999 10996 ] final  -92.39 input  -57.11 | X-H torsion

> <Gold.Protein.ActiveResidues>
 VAL166  LYS551  ARG553  GLY616  TRP617  ASP618  TYR619  PRO620  LYS621  CYS622 
 ASP623  PHE694  ASN695  SER759  ASP760  ASP761  ALA762  ILE779  LEU786  VAL792 
 PHE793  MET794  SER795  GLU796  ALA797  LYS798  CYS799  TRP800  GLU811  SER814 

> <Gold.Protein.RotatedAtoms>
  152.5418  134.0680  159.8180 H   0  0  0  0  0  0  0  0  0  0  0  0  # atno 6907 bound_to 6896
  151.0798  133.5392  159.2628 H   0  0  0  0  0  0  0  0  0  0  0  0  # atno 6908 bound_to 6896
  151.2223  135.0531  159.9009 H   0  0  0  0  0  0  0  0  0  0  0  0  # atno 6909 bound_to 6896
  145.2266  139.2838  143.4190 H   0  0  0  0  0  0  0  0  0  0  0  0  # atno 7974 bound_to 7965
  155.3211  140.0462  157.3039 H   0  0  0  0  0  0  0  0  0  0  0  0  # atno 8008 bound_to 7997
  154.5379  140.2278  155.8657 H   0  0  0  0  0  0  0  0  0  0  0  0  # atno 8009 bound_to 7997
  156.1853  140.3064  155.9233 H   0  0  0  0  0  0  0  0  0  0  0  0  # atno 8010 bound_to 7997
  139.9676  143.5881  152.2424 H   0  0  0  0  0  0  0  0  0  0  0  0  # atno 10167 bound_to 10162
  157.3263  131.0913  151.1199 H   0  0  0  0  0  0  0  0  0  0  0  0  # atno 10718 bound_to 10713
  153.1604  135.4567  154.9764 H   0  0  0  0  0  0  0  0  0  0  0  0  # atno 10763 bound_to 10752
  154.7893  135.3215  154.7816 H   0  0  0  0  0  0  0  0  0  0  0  0  # atno 10764 bound_to 10752
  153.8307  135.6939  153.4869 H   0  0  0  0  0  0  0  0  0  0  0  0  # atno 10765 bound_to 10752
  141.1523  133.7818  157.0013 H   0  0  0  0  0  0  0  0  0  0  0  0  # atno 11005 bound_to 11000
  146.3363  140.2589  142.8601 LP  0  0  0  0  0  0  0  0  0  0  0  0  # atno 17320 bound_to 7965
  144.9715  140.8373  143.5452 LP  0  0  0  0  0  0  0  0  0  0  0  0  # atno 17321 bound_to 7965
  139.6506  144.7660  151.2156 LP  0  0  0  0  0  0  0  0  0  0  0  0  # atno 17342 bound_to 10162
  140.7533  143.6167  150.8553 LP  0  0  0  0  0  0  0  0  0  0  0  0  # atno 17343 bound_to 10162
  157.2465  130.6594  149.5912 LP  0  0  0  0  0  0  0  0  0  0  0  0  # atno 17370 bound_to 10713
  155.9691  130.4552  150.5878 LP  0  0  0  0  0  0  0  0  0  0  0  0  # atno 17371 bound_to 10713
  140.0938  134.9577  157.1817 LP  0  0  0  0  0  0  0  0  0  0  0  0  # atno 17394 bound_to 11000
  140.3410  134.2704  155.7212 LP  0  0  0  0  0  0  0  0  0  0  0  0  # atno 17395 bound_to 11000

$$$$
