AV-unprocessed.smi:1856|AV-procd|sdf|7535|dock2
  -GOLD-   22720 9253D 1   1.00000     0.00000
 Structure written by MMmdl.
 44 45  0  0  0  0  0  0  0  0  1 V2000
  147.1816  134.9416  162.0539 C   0  0  0  0  0  0  0  0  0  0  0  0
  147.8748  135.1467  160.6984 C   0  0  0  0  0  0  0  0  0  0  0  0
  148.3386  136.5905  160.4225 C   0  0  0  0  0  0  0  0  0  0  0  0
  149.3381  136.7025  159.2673 C   0  0  0  0  0  0  0  0  0  0  0  0
  149.6258  135.7096  158.5989 O   0  0  0  0  0  0  0  0  0  0  0  0
  149.8425  137.9236  159.0323 N   0  0  0  0  0  0  0  0  0  0  0  0
  150.7830  138.2681  157.9689 C   0  0  2  0  0  0  0  0  0  0  0  0
  152.0145  137.3521  158.0112 C   0  0  0  0  0  0  0  0  0  0  0  0
  151.1431  139.7216  158.1362 C   0  0  0  0  0  0  0  0  0  0  0  0
  151.7731  140.1709  159.2254 N   0  0  0  0  0  0  0  0  0  0  0  0
  151.9038  141.5212  158.9723 C   0  0  0  0  0  0  0  0  0  0  0  0
  152.4884  142.5477  159.7481 C   0  0  0  0  0  0  0  0  0  0  0  0
  152.5036  143.8771  159.2778 C   0  0  0  0  0  0  0  0  0  0  0  0
  151.9350  144.1981  158.0284 C   0  0  0  0  0  0  0  0  0  0  0  0
  151.3473  143.1901  157.2402 C   0  0  0  0  0  0  0  0  0  0  0  0
  151.3360  141.8637  157.7133 C   0  0  0  0  0  0  0  0  0  0  0  0
  150.8482  140.6639  157.2022 N   0  0  0  0  0  0  0  0  0  0  0  0
  150.1680  140.4930  155.9249 C   0  0  0  0  0  0  0  0  0  0  0  0
  148.9091  141.3747  155.7938 C   0  0  1  0  0  0  0  0  0  0  0  0
  148.2993  141.3839  154.3836 C   0  0  0  0  0  0  0  0  0  0  0  0
  147.9383  140.9003  156.7020 O   0  0  0  0  0  0  0  0  0  0  0  0
  146.9655  133.8860  162.2190 H   0  0  0  0  0  0  0  0  0  0  0  0
  146.2348  135.4788  162.1105 H   0  0  0  0  0  0  0  0  0  0  0  0
  147.8131  135.2828  162.8746 H   0  0  0  0  0  0  0  0  0  0  0  0
  148.7462  134.4924  160.6549 H   0  0  0  0  0  0  0  0  0  0  0  0
  147.2129  134.8120  159.8984 H   0  0  0  0  0  0  0  0  0  0  0  0
  147.4773  137.2226  160.2032 H   0  0  0  0  0  0  0  0  0  0  0  0
  148.7899  137.0009  161.3270 H   0  0  0  0  0  0  0  0  0  0  0  0
  149.5412  138.6826  159.6266 H   0  0  0  0  0  0  0  0  0  0  0  0
  150.2976  138.1212  157.0060 H   0  0  0  0  0  0  0  0  0  0  0  0
  152.7180  137.6098  157.2192 H   0  0  0  0  0  0  0  0  0  0  0  0
  151.7317  136.3079  157.8743 H   0  0  0  0  0  0  0  0  0  0  0  0
  152.5405  137.4328  158.9632 H   0  0  0  0  0  0  0  0  0  0  0  0
  152.9258  142.3119  160.7069 H   0  0  0  0  0  0  0  0  0  0  0  0
  152.9527  144.6542  159.8786 H   0  0  0  0  0  0  0  0  0  0  0  0
  151.9498  145.2190  157.6753 H   0  0  0  0  0  0  0  0  0  0  0  0
  150.9091  143.4356  156.2844 H   0  0  0  0  0  0  0  0  0  0  0  0
  150.8712  140.7306  155.1259 H   0  0  0  0  0  0  0  0  0  0  0  0
  149.9212  139.4390  155.7942 H   0  0  0  0  0  0  0  0  0  0  0  0
  149.1472  142.4003  156.0762 H   0  0  0  0  0  0  0  0  0  0  0  0
  148.9909  141.8056  153.6541 H   0  0  0  0  0  0  0  0  0  0  0  0
  147.3908  141.9859  154.3529 H   0  0  0  0  0  0  0  0  0  0  0  0
  148.0429  140.3757  154.0559 H   0  0  0  0  0  0  0  0  0  0  0  0
  147.8444  141.5319  157.3986 H   0  0  0  0  0  0  0  0  0  0  0  0
  1  2  1  0  0  0  0
  1 22  1  0  0  0  0
  1 23  1  0  0  0  0
  1 24  1  0  0  0  0
  2  3  1  0  0  0  0
  2 25  1  0  0  0  0
  2 26  1  0  0  0  0
  3  4  1  0  0  0  0
  3 27  1  0  0  0  0
  3 28  1  0  0  0  0
  4  5  2  0  0  0  0
  4  6  1  0  0  0  0
  6  7  1  0  0  0  0
  6 29  1  0  0  0  0
  7  8  1  0  0  0  0
  7  9  1  0  0  0  0
  7 30  1  0  0  0  0
  8 31  1  0  0  0  0
  8 32  1  0  0  0  0
  8 33  1  0  0  0  0
  9 17  1  0  0  0  0
  9 10  2  0  0  0  0
 10 11  1  0  0  0  0
 11 16  2  0  0  0  0
 11 12  1  0  0  0  0
 12 13  2  0  0  0  0
 12 34  1  0  0  0  0
 13 14  1  0  0  0  0
 13 35  1  0  0  0  0
 14 15  2  0  0  0  0
 14 36  1  0  0  0  0
 15 16  1  0  0  0  0
 15 37  1  0  0  0  0
 16 17  1  0  0  0  0
 17 18  1  0  0  0  0
 18 19  1  0  0  0  0
 18 38  1  0  0  0  0
 18 39  1  0  0  0  0
 19 20  1  0  0  0  0
 19 21  1  0  0  0  0
 19 40  1  0  0  0  0
 20 41  1  0  0  0  0
 20 42  1  0  0  0  0
 20 43  1  0  0  0  0
 21 44  1  0  0  0  0
M  END
> <s_m_source_file>
AV-unprocessed.smi

> <i_m_source_file_index>
1856

> <i_lp_mmshare_version>
43012

> <i_f3d_flags>
0

> <s_epik_input>
W0NIM11bQ0gyXVtDSDJdQyg9TylbTkhdW0NASF0oW0NIM10pYyhuMSluKFtDSDJdW0NASF0oW0NIM10pW09IXSljKGMxMilbY0hdW2NIXVtjSF1bY0hdMg==

> <s_epik_cmdline>
J2VwaWtfcHl0aG9uJywgJy1waCcsICc3LjAnLCAnLXRuJywgJzgnLCAnLW1hJywgJzIwMCcsICctbWV0YWxfYmluZGluZycsICctaW1hZScsICc8aW5maWxlLm1hZT4nLCAnLW9tYWUnLCAnPG91dGZpbGUubWFlPic=

> <r_epik_Ionization_Penalty>
0.134222

> <r_epik_Ionization_Penalty_Charging>
0

> <r_epik_Ionization_Penalty_Neutral>
0.134222

> <r_epik_State_Penalty>
0.123585

> <r_epik_Charging_Adjusted_Penalty>
0.123585

> <i_epik_Tot_Q>
0

> <i_epik_Tot_abs_Q>
0

> <r_epik_Metal_State_Penalty>
0.100548

> <b_epik_Metal_Only>
0

> <s_lp_Force_Field>
OPLS_2005

> <r_lp_Energy>
3.90486

> <b_lp_Chiralities_Consistent>
1

> <s_lp_Variant>
AV-unprocessed.smi:1856-3

> <Gold.Version>
5.8.1

> <Gold.Id.Protein>
6NUR|6NUR_protein|mol2

> <Gold.PLP.Fitness>
43.8908

> <Gold.PLP.PLP>
-41.1271

> <Gold.PLP.part.hbond>
-1.0000

> <Gold.PLP.part.metal>
0.0000

> <Gold.PLP.part.buried>
-5.6577

> <Gold.PLP.part.nonpolar>
-35.8117

> <Gold.PLP.part.repulsive>
0.2220

> <Gold.PLP.ligand.clash>
0.0000

> <Gold.PLP.ligand.torsion>
0.1645

> <Gold.PLP.Chemscore.Hbond>
1.0000

> <Gold.PLP.Chemscore.CHOScore>
0.0000

> <Gold.PLP.Chemscore.Metal>
0.0000

> <Gold.Chemscore.Hbonds>
donor molecule, donor type, donor heavy atom, donor atom, acceptor molecule, acceptor atom, score
      P1  H  6896  6907       L1     5  1.00

> <Gold.PLP.Chemscore.Internal.Correction>
0.0927

> <Gold.Rescore>
     Score         DG    S(hbond)    S(metal)    S(lipo)     H(rot)  DE(clash)    DE(int)     intcor
     14.20     -15.66       0.95        0.00     113.29       2.45       0.01       1.45       ----

> <Gold.Chemscore.Fitness>
14.1998

> <Gold.Chemscore.DG>
-15.6578

> <Gold.Chemscore.ZeroCoef>
-5.4800

> <Gold.Chemscore.Hbond>
0.9535

> <Gold.Chemscore.Metal>
0.0000

> <Gold.Chemscore.Lipo>
113.2875

> <Gold.Chemscore.Internal_Hbond>
0.0000

> <Gold.Chemscore.DEClash>
0.0110

> <Gold.Chemscore.DEInternal>
1.4470

> <Gold.Chemscore.Rot>
2.4459

> <Gold.Chemscore.Internal.Correction>
   9.000000E+99

> <Gold.Chemscore.Hbonds>
donor molecule, donor type, donor heavy atom, donor atom, acceptor molecule, acceptor atom, score
      P1  H  6896  6907       L1     5  0.45

> <Gold.Chemscore.Hbond.Weighted>
-3.1846

> <Gold.Chemscore.Metal.Weighted>
-0.0000

> <Gold.Chemscore.Lipo.Weighted>
-13.2546

> <Gold.Chemscore.Internal_Hbond.Weighted>
0.0000

> <Gold.Chemscore.DEClash.Weighted>
0.0110

> <Gold.Chemscore.DEInternal.Weighted>
1.4470

> <Gold.Chemscore.Rot.Weighted>
6.2614

> <Gold.Chemscore.Internal.Correction.Weighted>
   9.000000E+99

> <Gold.Protein.RotatedTorsions>
[ 6907 6896 6895 6894 ] final  -55.07 input  -60.11 | X-H torsion
[ 7974 7965 7964 7962 ] final  132.31 input  175.53 | X-H torsion
[ 8008 7997 7996 7995 ] final -171.23 input   59.86 | X-H torsion
[ 10167 10162 10161 10158 ] final  142.13 input  -65.29 | X-H torsion
[ 10718 10713 10712 10709 ] final  -87.02 input   66.30 | X-H torsion
[ 10763 10752 10751 10750 ] final  -54.99 input  -60.55 | X-H torsion
[ 11005 11000 10999 10996 ] final  157.31 input  -57.11 | X-H torsion

> <Gold.Protein.ActiveResidues>
 VAL166  LYS551  ARG553  GLY616  TRP617  ASP618  TYR619  PRO620  LYS621  CYS622 
 ASP623  PHE694  ASN695  SER759  ASP760  ASP761  ALA762  ILE779  LEU786  VAL792 
 PHE793  MET794  SER795  GLU796  ALA797  LYS798  CYS799  TRP800  GLU811  SER814 

> <Gold.Protein.RotatedAtoms>
  150.8283  134.7524  159.6831 H   0  0  0  0  0  0  0  0  0  0  0  0  # atno 6907 bound_to 6896
  152.4391  134.5624  159.9907 H   0  0  0  0  0  0  0  0  0  0  0  0  # atno 6908 bound_to 6896
  151.5791  133.3342  159.3040 H   0  0  0  0  0  0  0  0  0  0  0  0  # atno 6909 bound_to 6896
  144.9981  139.4339  143.5305 H   0  0  0  0  0  0  0  0  0  0  0  0  # atno 7974 bound_to 7965
  155.9288  140.1087  157.1148 H   0  0  0  0  0  0  0  0  0  0  0  0  # atno 8008 bound_to 7997
  154.4067  140.1241  156.4841 H   0  0  0  0  0  0  0  0  0  0  0  0  # atno 8009 bound_to 7997
  155.7105  140.3471  155.4974 H   0  0  0  0  0  0  0  0  0  0  0  0  # atno 8010 bound_to 7997
  139.5002  144.6127  151.6235 H   0  0  0  0  0  0  0  0  0  0  0  0  # atno 10167 bound_to 10162
  155.9987  130.4785  150.4804 H   0  0  0  0  0  0  0  0  0  0  0  0  # atno 10718 bound_to 10713
  154.1837  135.6439  153.5041 H   0  0  0  0  0  0  0  0  0  0  0  0  # atno 10763 bound_to 10752
  153.0052  135.5412  154.6487 H   0  0  0  0  0  0  0  0  0  0  0  0  # atno 10764 bound_to 10752
  154.5858  135.2929  155.0659 H   0  0  0  0  0  0  0  0  0  0  0  0  # atno 10765 bound_to 10752
  140.1758  134.8511  157.2744 H   0  0  0  0  0  0  0  0  0  0  0  0  # atno 11005 bound_to 11000
  146.3446  139.9354  142.8748 LP  0  0  0  0  0  0  0  0  0  0  0  0  # atno 17320 bound_to 7965
  145.2191  140.9927  143.4056 LP  0  0  0  0  0  0  0  0  0  0  0  0  # atno 17321 bound_to 7965
  140.5806  143.9953  150.6266 LP  0  0  0  0  0  0  0  0  0  0  0  0  # atno 17342 bound_to 10162
  140.3100  143.3204  152.0888 LP  0  0  0  0  0  0  0  0  0  0  0  0  # atno 17343 bound_to 10162
  157.2810  131.0607  151.2198 LP  0  0  0  0  0  0  0  0  0  0  0  0  # atno 17370 bound_to 10713
  157.3244  130.6953  149.6288 LP  0  0  0  0  0  0  0  0  0  0  0  0  # atno 17371 bound_to 10713
  140.2325  134.3892  155.7515 LP  0  0  0  0  0  0  0  0  0  0  0  0  # atno 17394 bound_to 11000
  141.2220  133.7222  156.8662 LP  0  0  0  0  0  0  0  0  0  0  0  0  # atno 17395 bound_to 11000

$$$$
