#       Name:                AV-unprocessed.smi:2228
#       Creating user name   scv26
#       Creation time:       Fri Mar 27 12:22:57 2020


#       File generated by GOLD software.
#

@<TRIPOS>MOLECULE
AV-unprocessed.smi:2228
    45    46     1
SMALL
NO_CHARGES


@<TRIPOS>ATOM
      1 ****        -2.2484  -2.6894  -1.7008 C.3            1 S1                 0.0000
      2 ****        -2.1456  -2.1670  -0.3862 O.3            1 S1                 0.0000
      3 ****        -3.1500  -1.2067  -0.0690 C.3            1 S1                 0.0000
      4 ****        -4.3786  -1.9360   0.4856 C.3            1 S1                 0.0000
      5 ****        -4.0325  -2.1875   1.9504 C.3            1 S1                 0.0000
      6 ****        -3.2547  -0.9431   2.3865 C.3            1 S1                 0.0000
      7 ****        -2.6799  -0.3131   1.1023 C.3            1 S1                 0.0000
      8 ****        -1.2261  -0.1844   1.1796 N.am           1 S1                 0.0000
      9 ****        -0.4782   0.5504   0.3441 C.2            1 S1                 0.0000
     10 ****        -0.9492   1.2163  -0.5788 O.2            1 S1                 0.0000
     11 ****         0.8275   0.4555   0.6497 N.am           1 S1                 0.0000
     12 ****         1.9300   1.0554  -0.0143 C.ar           1 S1                 0.0000
     13 ****         3.1927   0.7847   0.5586 C.ar           1 S1                 0.0000
     14 ****         4.3528   1.3306  -0.0267 C.ar           1 S1                 0.0000
     15 ****         5.7157   1.0504   0.5704 C.3            1 S1                 0.0000
     16 ****         4.2168   2.1348  -1.1745 C.ar           1 S1                 0.0000
     17 ****         2.9215   2.3543  -1.6826 C.ar           1 S1                 0.0000
     18 ****         2.7027   3.2025  -2.9177 C.3            1 S1                 0.0000
     19 ****         1.8111   1.8310  -1.1204 N.ar           1 S1                 0.0000
     20 ****        -1.4579  -3.4219  -1.8634 H              1 S1                 0.0000
     21 ****        -2.1306  -1.9008  -2.4450 H              1 S1                 0.0000
     22 ****        -3.2046  -3.1858  -1.8670 H              1 S1                 0.0000
     23 ****        -3.3896  -0.5961  -0.9416 H              1 S1                 0.0000
     24 ****        -5.2481  -1.2802   0.4271 H              1 S1                 0.0000
     25 ****        -4.6234  -2.8529  -0.0502 H              1 S1                 0.0000
     26 ****        -4.9149  -2.3666   2.5648 H              1 S1                 0.0000
     27 ****        -3.3909  -3.0663   2.0271 H              1 S1                 0.0000
     28 ****        -3.9295  -0.2350   2.8688 H              1 S1                 0.0000
     29 ****        -2.4861  -1.1994   3.1169 H              1 S1                 0.0000
     30 ****        -3.1195   0.6800   0.9906 H              1 S1                 0.0000
     31 ****        -0.7604  -0.7063   1.9072 H              1 S1                 0.0000
     32 ****         1.0612  -0.1210   1.4442 H              1 S1                 0.0000
     33 ****         3.2741   0.1640   1.4394 H              1 S1                 0.0000
     34 ****         6.4991   1.5983   0.0460 H              1 S1                 0.0000
     35 ****         5.9422  -0.0140   0.5079 H              1 S1                 0.0000
     36 ****         5.7376   1.3458   1.6196 H              1 S1                 0.0000
     37 ****         5.0816   2.5697  -1.6539 H              1 S1                 0.0000
     38 ****         3.6210   3.7081  -3.2174 H              1 S1                 0.0000
     39 ****         1.9428   3.9618  -2.7304 H              1 S1                 0.0000
     40 ****         2.3691   2.5793  -3.7479 H              1 S1                 0.0000
     41 ****        -1.2508  -1.7312  -0.2891 LP             1 S1                 0.0000
     42 ****        -2.2189  -2.9256   0.2612 LP             1 S1                 0.0000
     43 ****        -1.9370   1.2266  -0.7345 LP             1 S1                 0.0000
     44 ****        -0.3439   1.7467  -1.1723 LP             1 S1                 0.0000
     45 ****         0.9107   2.0134  -1.5153 LP             1 S1                 0.0000
@<TRIPOS>BOND
    1    1    2 1     
    2    1   20 1     
    3    1   21 1     
    4    1   22 1     
    5    2    3 1     
    6    3    7 1     
    7    3    4 1     
    8    3   23 1     
    9    4    5 1     
   10    4   24 1     
   11    4   25 1     
   12    5    6 1     
   13    5   26 1     
   14    5   27 1     
   15    6    7 1     
   16    6   28 1     
   17    6   29 1     
   18    7    8 1     
   19    7   30 1     
   20    8    9 am    
   21    8   31 1     
   22    9   10 2     
   23    9   11 am    
   24   11   12 1     
   25   11   32 1     
   26   12   19 ar    
   27   12   13 ar    
   28   13   14 ar    
   29   13   33 1     
   30   14   15 1     
   31   14   16 ar    
   32   15   34 1     
   33   15   35 1     
   34   15   36 1     
   35   16   17 ar    
   36   16   37 1     
   37   17   18 1     
   38   17   19 ar    
   39   18   38 1     
   40   18   39 1     
   41   18   40 1     
   42    2   41 1     
   43    2   42 1     
   44   10   43 1     
   45   10   44 1     
   46   19   45 1     
@<TRIPOS>SUBSTRUCTURE
      1 S1             1
@<TRIPOS>SET
LONE_PAIRS      STATIC     ATOMS    <user>   **** ""
5 41 42 43 44 45
DONOR_HYDROGENS      STATIC     ATOMS    <user>   **** ""
2 31 32
ATOM$BLUE        STATIC     ATOMS    COLORGROUP SYSTEM
5 41 42 43 44 45
ATOM$RED        STATIC     ATOMS    COLORGROUP SYSTEM
2 31 32
