AV-unprocessed.smi:2473|AV-procd|sdf|9746|dock1
  -GOLD-   2272013383D 1   1.00000     0.00000
 Structure written by MMmdl.
 48 49  0  0  0  0  0  0  0  0  2 V2000
  150.7969  135.1875  156.2178 C   0  0  0  0  0  0  0  0  0  0  0  0
  150.2216  136.6109  156.1937 C   0  0  1  0  0  0  0  0  0  0  0  0
  150.2152  137.1827  154.7617 C   0  0  0  0  0  0  0  0  0  0  0  0
  149.6113  138.6029  154.6676 C   0  0  2  0  0  0  0  0  0  0  0  0
  150.5764  139.7283  155.0861 C   0  0  0  0  0  0  0  0  0  0  0  0
  151.7774  139.6733  154.8205 O   0  0  0  0  0  0  0  0  0  0  0  0
  150.0235  140.7750  155.7169 N   0  0  0  0  0  0  0  0  0  0  0  0
  150.7646  141.9380  156.1836 C   0  0  0  0  0  0  0  0  0  0  0  0
  151.0621  141.8222  157.6837 C   0  0  0  0  0  0  0  0  0  0  0  0
  151.3573  143.1460  158.3173 C   0  0  0  0  0  0  0  0  0  0  0  0
  150.8333  144.3193  157.9433 N   0  3  0  0  0  0  0  0  0  0  0  0
  151.3027  145.3274  158.7408 C   0  0  0  0  0  0  0  0  0  0  0  0
  152.1467  144.7419  159.6481 C   0  0  0  0  0  0  0  0  0  0  0  0
  152.1579  143.3998  159.3659 N   0  0  0  0  0  0  0  0  0  0  0  0
  152.9164  142.3660  160.0735 C   0  0  0  0  0  0  0  0  0  0  0  0
  148.2341  138.6718  155.3759 C   0  0  0  0  0  0  0  0  0  0  0  0
  148.1627  138.0573  156.8009 C   0  0  0  0  0  0  0  0  0  0  0  0
  148.8284  138.9624  157.8611 C   0  0  0  0  0  0  0  0  0  0  0  0
  146.6775  137.9191  157.1934 C   0  0  0  0  0  0  0  0  0  0  0  0
  148.8018  136.6472  156.7929 C   0  0  0  0  0  0  0  0  0  0  0  0
  150.1999  134.5063  155.6105 H   0  0  0  0  0  0  0  0  0  0  0  0
  150.8229  134.7918  157.2336 H   0  0  0  0  0  0  0  0  0  0  0  0
  151.8167  135.1707  155.8328 H   0  0  0  0  0  0  0  0  0  0  0  0
  150.8760  137.2202  156.8151 H   0  0  0  0  0  0  0  0  0  0  0  0
  151.2280  137.1770  154.3558 H   0  0  0  0  0  0  0  0  0  0  0  0
  149.6388  136.5173  154.1174 H   0  0  0  0  0  0  0  0  0  0  0  0
  149.4285  138.7847  153.6073 H   0  0  0  0  0  0  0  0  0  0  0  0
  149.0285  140.7579  155.8892 H   0  0  0  0  0  0  0  0  0  0  0  0
  151.6955  142.0192  155.6200 H   0  0  0  0  0  0  0  0  0  0  0  0
  150.1871  142.8417  155.9843 H   0  0  0  0  0  0  0  0  0  0  0  0
  150.2225  141.3792  158.2203 H   0  0  0  0  0  0  0  0  0  0  0  0
  151.9301  141.1851  157.8593 H   0  0  0  0  0  0  0  0  0  0  0  0
  151.0073  146.3582  158.6077 H   0  0  0  0  0  0  0  0  0  0  0  0
  152.7242  145.1709  160.4543 H   0  0  0  0  0  0  0  0  0  0  0  0
  153.4211  142.8070  160.9337 H   0  0  0  0  0  0  0  0  0  0  0  0
  153.6596  141.9397  159.3997 H   0  0  0  0  0  0  0  0  0  0  0  0
  152.2371  141.5857  160.4176 H   0  0  0  0  0  0  0  0  0  0  0  0
  147.8708  139.7003  155.4006 H   0  0  0  0  0  0  0  0  0  0  0  0
  147.5255  138.1414  154.7379 H   0  0  0  0  0  0  0  0  0  0  0  0
  148.6804  138.5638  158.8653 H   0  0  0  0  0  0  0  0  0  0  0  0
  148.4054  139.9672  157.8449 H   0  0  0  0  0  0  0  0  0  0  0  0
  149.9022  139.0609  157.7236 H   0  0  0  0  0  0  0  0  0  0  0  0
  146.5668  137.4777  158.1846 H   0  0  0  0  0  0  0  0  0  0  0  0
  146.1336  137.2836  156.4938 H   0  0  0  0  0  0  0  0  0  0  0  0
  146.1782  138.8886  157.2085 H   0  0  0  0  0  0  0  0  0  0  0  0
  148.1687  135.9697  156.2173 H   0  0  0  0  0  0  0  0  0  0  0  0
  148.8201  136.2461  157.8072 H   0  0  0  0  0  0  0  0  0  0  0  0
  150.1816  144.4406  157.1782 H   0  0  0  0  0  0  0  0  0  0  0  0
  1  2  1  0  0  0  0
  1 21  1  0  0  0  0
  1 22  1  0  0  0  0
  1 23  1  0  0  0  0
  2 20  1  0  0  0  0
  2  3  1  0  0  0  0
  2 24  1  0  0  0  0
  3  4  1  0  0  0  0
  3 25  1  0  0  0  0
  3 26  1  0  0  0  0
  4  5  1  0  0  0  0
  4 16  1  0  0  0  0
  4 27  1  0  0  0  0
  5  6  2  0  0  0  0
  5  7  1  0  0  0  0
  7  8  1  0  0  0  0
  7 28  1  0  0  0  0
  8  9  1  0  0  0  0
  8 29  1  0  0  0  0
  8 30  1  0  0  0  0
  9 10  1  0  0  0  0
  9 31  1  0  0  0  0
  9 32  1  0  0  0  0
 10 14  1  0  0  0  0
 10 11  2  0  0  0  0
 11 12  1  0  0  0  0
 11 48  1  0  0  0  0
 12 13  2  0  0  0  0
 12 33  1  0  0  0  0
 13 14  1  0  0  0  0
 13 34  1  0  0  0  0
 14 15  1  0  0  0  0
 15 35  1  0  0  0  0
 15 36  1  0  0  0  0
 15 37  1  0  0  0  0
 16 17  1  0  0  0  0
 16 38  1  0  0  0  0
 16 39  1  0  0  0  0
 17 18  1  0  0  0  0
 17 19  1  0  0  0  0
 17 20  1  0  0  0  0
 18 40  1  0  0  0  0
 18 41  1  0  0  0  0
 18 42  1  0  0  0  0
 19 43  1  0  0  0  0
 19 44  1  0  0  0  0
 19 45  1  0  0  0  0
 20 46  1  0  0  0  0
 20 47  1  0  0  0  0
M  CHG  1  11   1
M  END
> <s_m_source_file>
AV-unprocessed.smi

> <i_m_source_file_index>
2473

> <i_lp_mmshare_version>
43012

> <i_f3d_flags>
0

> <s_epik_input>
W0NIM11bQ0BASF0oW0NIMl0xKVtDSDJdW0NASF0oW0NIMl1DMShbQ0gzXSlbQ0gzXSlDKD1PKVtOSF1bQ0gyXVtDSDJdYzJuW2NIXVtjSF1uMltDSDNd

> <s_epik_cmdline>
J2VwaWtfcHl0aG9uJywgJy1waCcsICc3LjAnLCAnLXRuJywgJzgnLCAnLW1hJywgJzIwMCcsICctbWV0YWxfYmluZGluZycsICctaW1hZScsICc8aW5maWxlLm1hZT4nLCAnLW9tYWUnLCAnPG91dGZpbGUubWFlPic=

> <r_lp_tautomer_probability>
1

> <r_epik_Ionization_Penalty>
0.0796112

> <r_epik_Ionization_Penalty_Charging>
0

> <r_epik_Ionization_Penalty_Neutral>
0.0796112

> <r_epik_State_Penalty>
0.0704541

> <r_epik_Charging_Adjusted_Penalty>
0.0704541

> <i_epik_Tot_Q>
1

> <i_epik_Tot_abs_Q>
1

> <r_epik_Metal_State_Penalty>
0.409899

> <b_epik_Metal_Only>
0

> <s_lp_Force_Field>
OPLS_2005

> <r_lp_Energy>
17.0115

> <b_lp_Chiralities_Consistent>
1

> <s_lp_Variant>
AV-unprocessed.smi:2473-4

> <Gold.Version>
5.8.1

> <Gold.Id.Protein>
6NUR|6NUR_protein|mol2

> <Gold.PLP.Fitness>
43.4680

> <Gold.PLP.PLP>
-36.6630

> <Gold.PLP.part.hbond>
-2.0000

> <Gold.PLP.part.metal>
0.0000

> <Gold.PLP.part.buried>
-4.6445

> <Gold.PLP.part.nonpolar>
-29.6316

> <Gold.PLP.part.repulsive>
0.2190

> <Gold.PLP.ligand.clash>
0.0000

> <Gold.PLP.ligand.torsion>
1.1469

> <Gold.PLP.Chemscore.Hbond>
3.0000

> <Gold.PLP.Chemscore.CHOScore>
0.0000

> <Gold.PLP.Chemscore.Metal>
0.0000

> <Gold.Chemscore.Hbonds>
donor molecule, donor type, donor heavy atom, donor atom, acceptor molecule, acceptor atom, score
      L1  H    11    48       P1  8028  2.00
      P1  H  7989  7998       L1     6  0.70

> <Gold.PLP.Chemscore.Internal.Correction>
0.0988

> <Gold.Rescore>
     Score         DG    S(hbond)    S(metal)    S(lipo)     H(rot)  DE(clash)    DE(int)     intcor
     13.95     -15.86       1.69        0.00      75.04       1.58       0.04       1.87       ----

> <Gold.Chemscore.Fitness>
13.9526

> <Gold.Chemscore.DG>
-15.8615

> <Gold.Chemscore.ZeroCoef>
-5.4800

> <Gold.Chemscore.Hbond>
1.6918

> <Gold.Chemscore.Metal>
0.0000

> <Gold.Chemscore.Lipo>
75.0444

> <Gold.Chemscore.Internal_Hbond>
0.0000

> <Gold.Chemscore.DEClash>
0.0380

> <Gold.Chemscore.DEInternal>
1.8709

> <Gold.Chemscore.Rot>
1.5818

> <Gold.Chemscore.Internal.Correction>
   9.000000E+99

> <Gold.Chemscore.Hbonds>
donor molecule, donor type, donor heavy atom, donor atom, acceptor molecule, acceptor atom, score
      L1  H    11    48       P1  8028  0.59
      P1  H  7989  7998       L1     6  0.07

> <Gold.Chemscore.Hbond.Weighted>
-5.6508

> <Gold.Chemscore.Metal.Weighted>
-0.0000

> <Gold.Chemscore.Lipo.Weighted>
-8.7802

> <Gold.Chemscore.Internal_Hbond.Weighted>
0.0000

> <Gold.Chemscore.DEClash.Weighted>
0.0380

> <Gold.Chemscore.DEInternal.Weighted>
1.8709

> <Gold.Chemscore.Rot.Weighted>
4.0495

> <Gold.Chemscore.Internal.Correction.Weighted>
   9.000000E+99

> <Gold.Protein.RotatedTorsions>
[ 6907 6896 6895 6894 ] final   91.78 input  -60.11 | X-H torsion
[ 7974 7965 7964 7962 ] final  -27.32 input  175.53 | X-H torsion
[ 8008 7997 7996 7995 ] final  137.13 input   59.86 | X-H torsion
[ 10167 10162 10161 10158 ] final  -56.97 input  -65.29 | X-H torsion
[ 10718 10713 10712 10709 ] final  169.91 input   66.30 | X-H torsion
[ 10763 10752 10751 10750 ] final  130.23 input  -60.55 | X-H torsion
[ 11005 11000 10999 10996 ] final    8.50 input  -57.11 | X-H torsion

> <Gold.Protein.ActiveResidues>
 VAL166  LYS551  ARG553  GLY616  TRP617  ASP618  TYR619  PRO620  LYS621  CYS622 
 ASP623  PHE694  ASN695  SER759  ASP760  ASP761  ALA762  ILE779  LEU786  VAL792 
 PHE793  MET794  SER795  GLU796  ALA797  LYS798  CYS799  TRP800  GLU811  SER814 

> <Gold.Protein.RotatedAtoms>
  152.5451  134.1604  159.8555 H   0  0  0  0  0  0  0  0  0  0  0  0  # atno 6907 bound_to 6896
  151.1623  133.4830  159.2601 H   0  0  0  0  0  0  0  0  0  0  0  0  # atno 6908 bound_to 6896
  151.1360  135.0166  159.8659 H   0  0  0  0  0  0  0  0  0  0  0  0  # atno 6909 bound_to 6896
  146.1366  140.5136  142.8670 H   0  0  0  0  0  0  0  0  0  0  0  0  # atno 7974 bound_to 7965
  156.3003  140.2427  156.3859 H   0  0  0  0  0  0  0  0  0  0  0  0  # atno 8008 bound_to 7997
  154.8658  140.0418  157.1713 H   0  0  0  0  0  0  0  0  0  0  0  0  # atno 8009 bound_to 7997
  154.8847  140.2954  155.5408 H   0  0  0  0  0  0  0  0  0  0  0  0  # atno 8010 bound_to 7997
  140.6286  143.2449  151.5300 H   0  0  0  0  0  0  0  0  0  0  0  0  # atno 10167 bound_to 10162
  157.0158  131.0217  151.2789 H   0  0  0  0  0  0  0  0  0  0  0  0  # atno 10718 bound_to 10713
  153.7546  135.3205  155.3327 H   0  0  0  0  0  0  0  0  0  0  0  0  # atno 10763 bound_to 10752
  154.8251  135.4575  154.0898 H   0  0  0  0  0  0  0  0  0  0  0  0  # atno 10764 bound_to 10752
  153.2111  135.6936  153.8196 H   0  0  0  0  0  0  0  0  0  0  0  0  # atno 10765 bound_to 10752
  140.5363  134.0418  155.7889 H   0  0  0  0  0  0  0  0  0  0  0  0  # atno 11005 bound_to 11000
  144.7746  140.5712  143.6647 LP  0  0  0  0  0  0  0  0  0  0  0  0  # atno 17320 bound_to 7965
  145.5142  139.1478  143.3588 LP  0  0  0  0  0  0  0  0  0  0  0  0  # atno 17321 bound_to 7965
  139.5503  144.2413  152.1518 LP  0  0  0  0  0  0  0  0  0  0  0  0  # atno 17342 bound_to 10162
  140.1651  144.4989  150.6610 LP  0  0  0  0  0  0  0  0  0  0  0  0  # atno 17343 bound_to 10162
  157.5287  130.8044  149.7891 LP  0  0  0  0  0  0  0  0  0  0  0  0  # atno 17370 bound_to 10713
  156.0120  130.3829  150.2234 LP  0  0  0  0  0  0  0  0  0  0  0  0  # atno 17371 bound_to 10713
  141.1253  133.9393  157.2648 LP  0  0  0  0  0  0  0  0  0  0  0  0  # atno 17394 bound_to 11000
  139.9528  135.0172  156.9042 LP  0  0  0  0  0  0  0  0  0  0  0  0  # atno 17395 bound_to 11000

$$$$
