#       Name:                AV-unprocessed.smi:187
#       Creating user name   scv26
#       Creation time:       Thu Mar 26 19:28:18 2020


#       File generated by GOLD software.
#

@<TRIPOS>MOLECULE
AV-unprocessed.smi:187
    63    66     1
SMALL
NO_CHARGES


@<TRIPOS>ATOM
      1 ****        -2.7001   0.5991  -3.1289 C.3            1 S1                 0.0000
      2 ****        -3.1552  -0.1829  -1.8798 C.3            1 S1                 0.0000
      3 ****        -4.6615  -0.4986  -1.9795 C.3            1 S1                 0.0000
      4 ****        -5.1628  -1.2492  -0.7380 C.3            1 S1                 0.0000
      5 ****        -4.8403  -0.4443   0.5350 C.3            1 S1                 0.0000
      6 ****        -5.2922  -1.1970   1.7928 C.2            1 S1                 0.0000
      7 ****        -6.2136  -0.6062   2.5577 N.am           1 S1                 0.0000
      8 ****        -4.8180  -2.2965   2.0732 O.2            1 S1                 0.0000
      9 ****        -3.3294  -0.1462   0.5895 C.3            1 S1                 0.0000
     10 ****        -2.8753   0.5303  -0.6250 N.3            1 S1                 0.0000
     11 ****        -1.6147   0.9934  -0.4723 C.ar           1 S1                 0.0000
     12 ****        -1.4669   2.3252  -0.2679 N.ar           1 S1                 0.0000
     13 ****        -0.2453   2.8449  -0.1147 C.ar           1 S1                 0.0000
     14 ****         0.9348   2.2209  -0.1239 N.ar           1 S1                 0.0000
     15 ****         0.7864   0.8784  -0.3162 C.ar           1 S1                 0.0000
     16 ****        -0.4428   0.1860  -0.5022 C.ar           1 S1                 0.0000
     17 ****        -0.2013  -1.1706  -0.6803 N.2            1 S1                 0.0000
     18 ****         1.0980  -1.2732  -0.6128 C.2            1 S1                 0.0000
     19 ****         1.7682  -0.0958  -0.3670 N.pl3          1 S1                 0.0000
     20 ****         3.1877   0.0832  -0.2813 C.3            1 S1                 0.0000
     21 ****         4.0948  -1.0183   0.2727 C.3            1 S1                 0.0000
     22 ****         5.0423   0.0606   0.8455 C.3            1 S1                 0.0000
     23 ****         5.5869  -0.2164   2.2565 C.3            1 S1                 0.0000
     24 ****         6.0648   0.9674   2.8625 O.3            1 S1                 0.0000
     25 ****         6.2077   0.4721  -0.0768 C.3            1 S1                 0.0000
     26 ****         7.1076  -0.5982  -0.2811 O.3            1 S1                 0.0000
     27 ****         3.8058   0.9840   0.7902 C.3            1 S1                 0.0000
     28 ****        -2.9732   0.0679  -4.0409 H              1 S1                 0.0000
     29 ****        -1.6189   0.7360  -3.1538 H              1 S1                 0.0000
     30 ****        -3.1634   1.5855  -3.1687 H              1 S1                 0.0000
     31 ****        -2.6191  -1.1322  -1.8573 H              1 S1                 0.0000
     32 ****        -5.2253   0.4287  -2.0929 H              1 S1                 0.0000
     33 ****        -4.8621  -1.0930  -2.8714 H              1 S1                 0.0000
     34 ****        -6.2371  -1.4194  -0.8187 H              1 S1                 0.0000
     35 ****        -4.6919  -2.2328  -0.6967 H              1 S1                 0.0000
     36 ****        -5.3751   0.5063   0.4866 H              1 S1                 0.0000
     37 ****        -6.5422  -1.0634   3.3958 H              1 S1                 0.0000
     38 ****        -6.5788   0.2975   2.2939 H              1 S1                 0.0000
     39 ****        -3.1098   0.4753   1.4595 H              1 S1                 0.0000
     40 ****        -2.7668  -1.0734   0.7128 H              1 S1                 0.0000
     41 ****        -0.2083   3.9134   0.0381 H              1 S1                 0.0000
     42 ****         1.6038  -2.2200  -0.7338 H              1 S1                 0.0000
     43 ****         3.5134   0.3877  -1.2775 H              1 S1                 0.0000
     44 ****         3.6053  -1.6094   1.0492 H              1 S1                 0.0000
     45 ****         4.5319  -1.6648  -0.4887 H              1 S1                 0.0000
     46 ****         4.8060  -0.6247   2.8988 H              1 S1                 0.0000
     47 ****         6.3876  -0.9562   2.2417 H              1 S1                 0.0000
     48 ****         6.3783   0.7557   3.7287 H              1 S1                 0.0000
     49 ****         5.8444   0.7914  -1.0538 H              1 S1                 0.0000
     50 ****         6.7586   1.3203   0.3306 H              1 S1                 0.0000
     51 ****         6.6399  -1.3090  -0.6921 H              1 S1                 0.0000
     52 ****         4.0090   2.0040   0.4616 H              1 S1                 0.0000
     53 ****         3.2304   0.9811   1.7181 H              1 S1                 0.0000
     54 ****        -4.1291  -2.7104   1.4782 LP             1 S1                 0.0000
     55 ****        -5.1214  -2.7767   2.8963 LP             1 S1                 0.0000
     56 ****        -3.4520   1.3384  -0.7451 LP             1 S1                 0.0000
     57 ****        -2.2713   2.9183  -0.2318 LP             1 S1                 0.0000
     58 ****         1.8155   2.6792  -0.0050 LP             1 S1                 0.0000
     59 ****        -0.8693  -1.9003  -0.8265 LP             1 S1                 0.0000
     60 ****         5.3242   1.6364   2.9260 LP             1 S1                 0.0000
     61 ****         6.8117   1.3477   2.3171 LP             1 S1                 0.0000
     62 ****         7.4768  -0.9008   0.5976 LP             1 S1                 0.0000
     63 ****         7.8568  -0.3007  -0.8728 LP             1 S1                 0.0000
@<TRIPOS>BOND
    1    1    2 1     
    2    1   28 1     
    3    1   29 1     
    4    1   30 1     
    5    2   10 1     
    6    2    3 1     
    7    2   31 1     
    8    3    4 1     
    9    3   32 1     
   10    3   33 1     
   11    4    5 1     
   12    4   34 1     
   13    4   35 1     
   14    5    6 1     
   15    5    9 1     
   16    5   36 1     
   17    6    7 am    
   18    6    8 2     
   19    7   37 1     
   20    7   38 1     
   21    9   10 1     
   22    9   39 1     
   23    9   40 1     
   24   10   11 1     
   25   11   16 ar    
   26   11   12 ar    
   27   12   13 ar    
   28   13   14 ar    
   29   13   41 1     
   30   14   15 ar    
   31   15   19 1     
   32   15   16 ar    
   33   16   17 1     
   34   17   18 2     
   35   18   19 1     
   36   18   42 1     
   37   19   20 1     
   38   20   27 1     
   39   20   21 1     
   40   20   43 1     
   41   21   22 1     
   42   21   44 1     
   43   21   45 1     
   44   22   23 1     
   45   22   25 1     
   46   22   27 1     
   47   23   24 1     
   48   23   46 1     
   49   23   47 1     
   50   24   48 1     
   51   25   26 1     
   52   25   49 1     
   53   25   50 1     
   54   26   51 1     
   55   27   52 1     
   56   27   53 1     
   57    8   54 1     
   58    8   55 1     
   59   10   56 1     
   60   12   57 1     
   61   14   58 1     
   62   17   59 1     
   63   24   60 1     
   64   24   61 1     
   65   26   62 1     
   66   26   63 1     
@<TRIPOS>SUBSTRUCTURE
      1 S1             1
@<TRIPOS>SET
LONE_PAIRS      STATIC     ATOMS    <user>   **** ""
10 54 55 56 57 58 59 60 61 62 63
DONOR_HYDROGENS      STATIC     ATOMS    <user>   **** ""
4 37 38 48 51
ATOM$BLUE        STATIC     ATOMS    COLORGROUP SYSTEM
10 54 55 56 57 58 59 60 61 62 63
ATOM$RED        STATIC     ATOMS    COLORGROUP SYSTEM
4 37 38 48 51
