AV-unprocessed.smi:1836|AV-procd|sdf|7480|dock9
  -GOLD-   22720 9173D 1   1.00000     0.00000
 Structure written by MMmdl.
 32 33  0  0  0  0  0  0  0  0  2 V2000
  148.1533  139.2864  156.4233 C   0  0  0  0  0  0  0  0  0  0  0  0
  148.9160  138.2047  157.1997 C   0  0  1  0  0  0  0  0  0  0  0  0
  150.4011  138.5931  157.3782 C   0  0  0  0  0  0  0  0  0  0  0  0
  150.6068  140.0410  157.3504 N   0  0  0  0  0  0  0  0  0  0  0  0
  150.6789  140.8028  158.5860 C   0  0  0  0  0  0  0  0  0  0  0  0
  150.6606  142.2727  158.1444 C   0  0  0  0  0  0  0  0  0  0  0  0
  150.9839  142.2590  156.6469 C   0  0  0  0  0  0  0  0  0  0  0  0
  150.8171  140.7980  156.2659 C   0  0  0  0  0  0  0  0  0  0  0  0
  150.8730  140.4033  155.1022 O   0  0  0  0  0  0  0  0  0  0  0  0
  148.2604  138.0168  158.4939 N   0  0  0  0  0  0  0  0  0  0  0  0
  148.5966  137.1190  159.4327 C   0  0  0  0  0  0  0  0  0  0  0  0
  149.5349  136.3425  159.2371 O   0  0  0  0  0  0  0  0  0  0  0  0
  147.8373  137.1886  160.5493 N   0  5  0  0  0  0  0  0  0  0  0  0
  147.5445  136.0679  161.2290 C   0  0  0  0  0  0  0  0  0  0  0  0
  147.1763  134.9310  160.6171 N   0  0  0  0  0  0  0  0  0  0  0  0
  146.9153  133.8943  161.5031 N   0  0  0  0  0  0  0  0  0  0  0  0
  147.0883  134.2803  162.7671 C   0  0  0  0  0  0  0  0  0  0  0  0
  147.5808  135.9457  162.9907 S   0  0  0  0  0  0  0  0  0  0  0  0
  148.5850  139.4374  155.4337 H   0  0  0  0  0  0  0  0  0  0  0  0
  148.1770  140.2429  156.9467 H   0  0  0  0  0  0  0  0  0  0  0  0
  147.1079  139.0074  156.2856 H   0  0  0  0  0  0  0  0  0  0  0  0
  148.8563  137.2889  156.6091 H   0  0  0  0  0  0  0  0  0  0  0  0
  150.7621  138.2255  158.3396 H   0  0  0  0  0  0  0  0  0  0  0  0
  151.0171  138.1037  156.6216 H   0  0  0  0  0  0  0  0  0  0  0  0
  149.8446  140.5703  159.2488 H   0  0  0  0  0  0  0  0  0  0  0  0
  151.6073  140.5605  159.1048 H   0  0  0  0  0  0  0  0  0  0  0  0
  149.6678  142.6964  158.3024 H   0  0  0  0  0  0  0  0  0  0  0  0
  151.3698  142.8751  158.7125 H   0  0  0  0  0  0  0  0  0  0  0  0
  150.3112  142.8976  156.0734 H   0  0  0  0  0  0  0  0  0  0  0  0
  152.0121  142.5684  156.4570 H   0  0  0  0  0  0  0  0  0  0  0  0
  147.4902  138.6340  158.7055 H   0  0  0  0  0  0  0  0  0  0  0  0
  146.9210  133.5815  163.5728 H   0  0  0  0  0  0  0  0  0  0  0  0
  1  2  1  0  0  0  0
  1 19  1  0  0  0  0
  1 20  1  0  0  0  0
  1 21  1  0  0  0  0
  2  3  1  0  0  0  0
  2 10  1  0  0  0  0
  2 22  1  0  0  0  0
  3  4  1  0  0  0  0
  3 23  1  0  0  0  0
  3 24  1  0  0  0  0
  4  8  1  0  0  0  0
  4  5  1  0  0  0  0
  5  6  1  0  0  0  0
  5 25  1  0  0  0  0
  5 26  1  0  0  0  0
  6  7  1  0  0  0  0
  6 27  1  0  0  0  0
  6 28  1  0  0  0  0
  7  8  1  0  0  0  0
  7 29  1  0  0  0  0
  7 30  1  0  0  0  0
  8  9  2  0  0  0  0
 10 11  1  0  0  0  0
 10 31  1  0  0  0  0
 11 12  2  0  0  0  0
 11 13  1  0  0  0  0
 13 14  1  0  0  0  0
 14 18  1  0  0  0  0
 14 15  2  0  0  0  0
 15 16  1  0  0  0  0
 16 17  2  0  0  0  0
 17 18  1  0  0  0  0
 17 32  1  0  0  0  0
M  CHG  1  13  -1
M  END
> <s_m_source_file>
AV-unprocessed.smi

> <i_m_source_file_index>
1836

> <i_lp_mmshare_version>
43012

> <i_f3d_flags>
0

> <s_epik_input>
Tz1DMVtDSDJdW0NIMl1bQ0gyXU4xW0NIMl1bQ0BASF0oW0NIM10pW05IXUMoPU8pW05IXWMybm5bY0hdczI=

> <s_epik_cmdline>
J2VwaWtfcHl0aG9uJywgJy1waCcsICc3LjAnLCAnLXRuJywgJzgnLCAnLW1hJywgJzIwMCcsICctbWV0YWxfYmluZGluZycsICctaW1hZScsICc8aW5maWxlLm1hZT4nLCAnLW9tYWUnLCAnPG91dGZpbGUubWFlPic=

> <r_lp_tautomer_probability>
1

> <r_epik_Ionization_Penalty>
3.44722

> <r_epik_Ionization_Penalty_Charging>
3.40341

> <r_epik_Ionization_Penalty_Neutral>
0.0438099

> <r_epik_State_Penalty>
3.40151

> <r_epik_Charging_Adjusted_Penalty>
6.80491

> <i_epik_Tot_Q>
-1

> <i_epik_Tot_abs_Q>
1

> <r_epik_Metal_State_Penalty>
0.49534

> <b_epik_Metal_Only>
1

> <s_lp_Force_Field>
OPLS_2005

> <r_lp_Energy>
17.1678

> <b_lp_Chiralities_Consistent>
1

> <s_lp_Variant>
AV-unprocessed.smi:1836-4

> <Gold.Version>
5.8.1

> <Gold.Id.Protein>
6NUR|6NUR_protein|mol2

> <Gold.PLP.Fitness>
42.0863

> <Gold.PLP.PLP>
-29.5241

> <Gold.PLP.part.hbond>
-4.0000

> <Gold.PLP.part.metal>
0.0000

> <Gold.PLP.part.buried>
-5.8032

> <Gold.PLP.part.nonpolar>
-21.5129

> <Gold.PLP.part.repulsive>
0.2087

> <Gold.PLP.ligand.clash>
0.0000

> <Gold.PLP.ligand.torsion>
1.4094

> <Gold.PLP.Chemscore.Hbond>
5.1046

> <Gold.PLP.Chemscore.CHOScore>
0.0000

> <Gold.PLP.Chemscore.Metal>
0.0000

> <Gold.Chemscore.Hbonds>
donor molecule, donor type, donor heavy atom, donor atom, acceptor molecule, acceptor atom, score
      P1  H  6896  6908       L1    12  0.98
      P1  H  6931  6943       L1    13  1.30
      P1  H  6934  6947       L1    13  1.70
      P1  H  7989  7998       L1     9  1.00

> <Gold.PLP.Chemscore.Internal.Correction>
0.0670

> <Gold.Rescore>
     Score         DG    S(hbond)    S(metal)    S(lipo)     H(rot)  DE(clash)    DE(int)     intcor
     14.52     -15.96       2.97        0.00      42.76       1.73       0.00       1.45       ----

> <Gold.Chemscore.Fitness>
14.5179

> <Gold.Chemscore.DG>
-15.9635

> <Gold.Chemscore.ZeroCoef>
-5.4800

> <Gold.Chemscore.Hbond>
2.9670

> <Gold.Chemscore.Metal>
0.0000

> <Gold.Chemscore.Lipo>
42.7622

> <Gold.Chemscore.Internal_Hbond>
0.0000

> <Gold.Chemscore.DEClash>
0.0000

> <Gold.Chemscore.DEInternal>
1.4456

> <Gold.Chemscore.Rot>
1.7302

> <Gold.Chemscore.Internal.Correction>
   9.000000E+99

> <Gold.Chemscore.Hbonds>
donor molecule, donor type, donor heavy atom, donor atom, acceptor molecule, acceptor atom, score
      P1  H  6896  6908       L1    12  0.91
      P1  H  6931  6943       L1    13  0.10
      P1  H  6934  6947       L1    13  0.67
      P1  H  7989  7998       L1     9  0.97

> <Gold.Chemscore.Hbond.Weighted>
-9.9097

> <Gold.Chemscore.Metal.Weighted>
-0.0000

> <Gold.Chemscore.Lipo.Weighted>
-5.0032

> <Gold.Chemscore.Internal_Hbond.Weighted>
0.0000

> <Gold.Chemscore.DEClash.Weighted>
0.0000

> <Gold.Chemscore.DEInternal.Weighted>
1.4456

> <Gold.Chemscore.Rot.Weighted>
4.4294

> <Gold.Chemscore.Internal.Correction.Weighted>
   9.000000E+99

> <Gold.Protein.RotatedTorsions>
[ 6907 6896 6895 6894 ] final -179.30 input  -60.11 | X-H torsion
[ 7974 7965 7964 7962 ] final  -59.44 input  175.53 | X-H torsion
[ 8008 7997 7996 7995 ] final    7.99 input   59.86 | X-H torsion
[ 10167 10162 10161 10158 ] final   75.45 input  -65.29 | X-H torsion
[ 10718 10713 10712 10709 ] final  -80.33 input   66.30 | X-H torsion
[ 10763 10752 10751 10750 ] final  150.92 input  -60.55 | X-H torsion
[ 11005 11000 10999 10996 ] final -141.34 input  -57.11 | X-H torsion

> <Gold.Protein.ActiveResidues>
 VAL166  LYS551  ARG553  GLY616  TRP617  ASP618  TYR619  PRO620  LYS621  CYS622 
 ASP623  PHE694  ASN695  SER759  ASP760  ASP761  ALA762  ILE779  LEU786  VAL792 
 PHE793  MET794  SER795  GLU796  ALA797  LYS798  CYS799  TRP800  GLU811  SER814 

> <Gold.Protein.RotatedAtoms>
  151.6511  133.3321  159.3151 H   0  0  0  0  0  0  0  0  0  0  0  0  # atno 6907 bound_to 6896
  150.7959  134.7023  159.6566 H   0  0  0  0  0  0  0  0  0  0  0  0  # atno 6908 bound_to 6896
  152.4046  134.6232  160.0107 H   0  0  0  0  0  0  0  0  0  0  0  0  # atno 6909 bound_to 6896
  145.8275  140.8501  143.0101 H   0  0  0  0  0  0  0  0  0  0  0  0  # atno 7974 bound_to 7965
  154.7610  140.2784  155.6214 H   0  0  0  0  0  0  0  0  0  0  0  0  # atno 8008 bound_to 7997
  156.2915  140.2660  156.2315 H   0  0  0  0  0  0  0  0  0  0  0  0  # atno 8009 bound_to 7997
  155.0018  140.0372  157.2353 H   0  0  0  0  0  0  0  0  0  0  0  0  # atno 8010 bound_to 7997
  140.0028  144.5673  150.7723 H   0  0  0  0  0  0  0  0  0  0  0  0  # atno 10167 bound_to 10162
  156.0072  130.4571  150.3784 H   0  0  0  0  0  0  0  0  0  0  0  0  # atno 10718 bound_to 10713
  154.0954  135.2849  155.3263 H   0  0  0  0  0  0  0  0  0  0  0  0  # atno 10763 bound_to 10752
  154.6591  135.5341  153.7999 H   0  0  0  0  0  0  0  0  0  0  0  0  # atno 10764 bound_to 10752
  153.0398  135.6529  154.1121 H   0  0  0  0  0  0  0  0  0  0  0  0  # atno 10765 bound_to 10752
  140.8333  134.2490  157.4846 H   0  0  0  0  0  0  0  0  0  0  0  0  # atno 11005 bound_to 11000
  144.6742  140.0623  143.7475 LP  0  0  0  0  0  0  0  0  0  0  0  0  # atno 17320 bound_to 7965
  145.9608  139.2799  143.1157 LP  0  0  0  0  0  0  0  0  0  0  0  0  # atno 17321 bound_to 7965
  140.7412  143.2815  151.3585 LP  0  0  0  0  0  0  0  0  0  0  0  0  # atno 17342 bound_to 10162
  139.6260  144.0814  152.2434 LP  0  0  0  0  0  0  0  0  0  0  0  0  # atno 17343 bound_to 10162
  157.1865  131.0405  151.2722 LP  0  0  0  0  0  0  0  0  0  0  0  0  # atno 17370 bound_to 10713
  157.4100  130.7380  149.6831 LP  0  0  0  0  0  0  0  0  0  0  0  0  # atno 17371 bound_to 10713
  139.8704  134.9598  156.4342 LP  0  0  0  0  0  0  0  0  0  0  0  0  # atno 17394 bound_to 11000
  140.8974  133.7804  155.9641 LP  0  0  0  0  0  0  0  0  0  0  0  0  # atno 17395 bound_to 11000

$$$$
