AV-unprocessed.smi:465|AV-procd|sdf|2640|dock2
  -GOLD-   2262023 43D 1   1.00000     0.00000
 Structure written by MMmdl.
 43 45  0  0  0  0  0  0  0  0  2 V2000
  147.1725  133.7908  160.3815 C   0  0  0  0  0  0  0  0  0  0  0  0
  148.0705  134.7972  159.6920 C   0  0  0  0  0  0  0  0  0  0  0  0
  148.5303  135.9289  160.3929 C   0  0  0  0  0  0  0  0  0  0  0  0
  149.3616  136.8673  159.7517 C   0  0  0  0  0  0  0  0  0  0  0  0
  149.7454  136.6928  158.4060 C   0  0  0  0  0  0  0  0  0  0  0  0
  150.5571  137.6607  157.8554 O   0  0  0  0  0  0  0  0  0  0  0  0
  150.4740  138.9832  158.3705 C   0  0  0  0  0  0  0  0  0  0  0  0
  151.6847  139.7903  157.8837 C   0  0  0  0  0  0  0  0  0  0  0  0
  151.3277  141.1749  157.5356 N   0  0  0  0  0  0  0  0  0  0  0  0
  150.6272  141.6763  156.4750 C   0  0  0  0  0  0  0  0  0  0  0  0
  150.0275  140.9131  155.3357 C   0  0  0  0  0  0  0  0  0  0  0  0
  148.5777  141.3440  155.0711 C   0  0  0  0  0  0  0  0  0  0  0  0
  148.5561  142.4341  154.1757 O   0  0  0  0  0  0  0  0  0  0  0  0
  150.5693  143.0291  156.6366 N   0  3  0  0  0  0  0  0  0  0  0  0
  151.2567  143.3998  157.7922 C   0  0  0  0  0  0  0  0  0  0  0  0
  151.4792  144.6517  158.3574 C   0  0  0  0  0  0  0  0  0  0  0  0
  152.2357  144.6833  159.5471 C   0  0  0  0  0  0  0  0  0  0  0  0
  152.7386  143.5014  160.1286 C   0  0  0  0  0  0  0  0  0  0  0  0
  152.5041  142.2377  159.5472 C   0  0  0  0  0  0  0  0  0  0  0  0
  151.7528  142.2145  158.3719 C   0  0  0  0  0  0  0  0  0  0  0  0
  149.2796  135.5509  157.7064 C   0  0  0  0  0  0  0  0  0  0  0  0
  148.4471  134.6123  158.3467 C   0  0  0  0  0  0  0  0  0  0  0  0
  147.4747  133.6535  161.4202 H   0  0  0  0  0  0  0  0  0  0  0  0
  147.2163  132.8205  159.8857 H   0  0  0  0  0  0  0  0  0  0  0  0
  146.1391  134.1378  160.3670 H   0  0  0  0  0  0  0  0  0  0  0  0
  148.2477  136.0805  161.4245 H   0  0  0  0  0  0  0  0  0  0  0  0
  149.7112  137.7284  160.3020 H   0  0  0  0  0  0  0  0  0  0  0  0
  149.5563  139.4621  158.0255 H   0  0  0  0  0  0  0  0  0  0  0  0
  150.4585  138.9686  159.4615 H   0  0  0  0  0  0  0  0  0  0  0  0
  152.4550  139.8210  158.6540 H   0  0  0  0  0  0  0  0  0  0  0  0
  152.1467  139.3134  157.0192 H   0  0  0  0  0  0  0  0  0  0  0  0
  150.6255  141.0610  154.4369 H   0  0  0  0  0  0  0  0  0  0  0  0
  150.0689  139.8482  155.5668 H   0  0  0  0  0  0  0  0  0  0  0  0
  147.9991  140.5237  154.6454 H   0  0  0  0  0  0  0  0  0  0  0  0
  148.0886  141.6388  155.9995 H   0  0  0  0  0  0  0  0  0  0  0  0
  148.3548  143.2197  154.6613 H   0  0  0  0  0  0  0  0  0  0  0  0
  151.0973  145.5585  157.9119 H   0  0  0  0  0  0  0  0  0  0  0  0
  152.4362  145.6329  160.0220 H   0  0  0  0  0  0  0  0  0  0  0  0
  153.3162  143.5650  161.0393 H   0  0  0  0  0  0  0  0  0  0  0  0
  152.8975  141.3402  160.0006 H   0  0  0  0  0  0  0  0  0  0  0  0
  149.5451  135.3720  156.6758 H   0  0  0  0  0  0  0  0  0  0  0  0
  148.0987  133.7486  157.7991 H   0  0  0  0  0  0  0  0  0  0  0  0
  150.0991  143.6534  155.9939 H   0  0  0  0  0  0  0  0  0  0  0  0
  1  2  1  0  0  0  0
  1 23  1  0  0  0  0
  1 24  1  0  0  0  0
  1 25  1  0  0  0  0
  2 22  1  0  0  0  0
  2  3  2  0  0  0  0
  3  4  1  0  0  0  0
  3 26  1  0  0  0  0
  4  5  2  0  0  0  0
  4 27  1  0  0  0  0
  5  6  1  0  0  0  0
  5 21  1  0  0  0  0
  6  7  1  0  0  0  0
  7  8  1  0  0  0  0
  7 28  1  0  0  0  0
  7 29  1  0  0  0  0
  8  9  1  0  0  0  0
  8 30  1  0  0  0  0
  8 31  1  0  0  0  0
  9 20  1  0  0  0  0
  9 10  1  0  0  0  0
 10 11  1  0  0  0  0
 10 14  2  0  0  0  0
 11 12  1  0  0  0  0
 11 32  1  0  0  0  0
 11 33  1  0  0  0  0
 12 13  1  0  0  0  0
 12 34  1  0  0  0  0
 12 35  1  0  0  0  0
 13 36  1  0  0  0  0
 14 15  1  0  0  0  0
 14 43  1  0  0  0  0
 15 20  2  0  0  0  0
 15 16  1  0  0  0  0
 16 17  2  0  0  0  0
 16 37  1  0  0  0  0
 17 18  1  0  0  0  0
 17 38  1  0  0  0  0
 18 19  2  0  0  0  0
 18 39  1  0  0  0  0
 19 20  1  0  0  0  0
 19 40  1  0  0  0  0
 21 22  2  0  0  0  0
 21 41  1  0  0  0  0
 22 42  1  0  0  0  0
M  CHG  1  14   1
M  END
> <s_m_source_file>
AV-unprocessed.smi

> <i_m_source_file_index>
465

> <i_lp_mmshare_version>
43012

> <i_f3d_flags>
0

> <s_epik_input>
W0NIM11jMVtjSF1bY0hdYyhbY0hdW2NIXTEpT1tDSDJdW0NIMl1uKGMobjIpW0NIMl1bQ0gyXVtPSF0pYyhjMjMpW2NIXVtjSF1bY0hdW2NIXTM=

> <s_epik_cmdline>
J2VwaWtfcHl0aG9uJywgJy1waCcsICc3LjAnLCAnLXRuJywgJzgnLCAnLW1hJywgJzIwMCcsICctbWV0YWxfYmluZGluZycsICctaW1hZScsICc8aW5maWxlLm1hZT4nLCAnLW9tYWUnLCAnPG91dGZpbGUubWFlPic=

> <r_lp_tautomer_probability>
1

> <r_epik_Ionization_Penalty>
0.721766

> <r_epik_Ionization_Penalty_Charging>
0.721766

> <r_epik_Ionization_Penalty_Neutral>
5.89567e-08

> <r_epik_State_Penalty>
0.746256

> <r_epik_Charging_Adjusted_Penalty>
1.46802

> <i_epik_Tot_Q>
1

> <i_epik_Tot_abs_Q>
1

> <r_epik_Metal_State_Penalty>
4.64148

> <b_epik_Metal_Only>
0

> <s_lp_Force_Field>
OPLS_2005

> <r_lp_Energy>
20.4807

> <b_lp_Chiralities_Consistent>
1

> <s_lp_Variant>
AV-unprocessed.smi:465-2

> <Gold.Version>
5.8.1

> <Gold.Id.Protein>
6NUR|6NUR_protein|mol2

> <Gold.PLP.Fitness>
53.3650

> <Gold.PLP.PLP>
-46.4131

> <Gold.PLP.part.hbond>
-3.1951

> <Gold.PLP.part.metal>
0.0000

> <Gold.PLP.part.buried>
-5.1288

> <Gold.PLP.part.nonpolar>
-38.5345

> <Gold.PLP.part.repulsive>
0.0619

> <Gold.PLP.ligand.clash>
0.0000

> <Gold.PLP.ligand.torsion>
1.1231

> <Gold.PLP.Chemscore.Hbond>
3.0474

> <Gold.PLP.Chemscore.CHOScore>
0.0000

> <Gold.PLP.Chemscore.Metal>
0.0000

> <Gold.Chemscore.Hbonds>
donor molecule, donor type, donor heavy atom, donor atom, acceptor molecule, acceptor atom, score
      L1  H    13    36       P1  8028  1.00
      L1  H    14    43       P1  8028  2.00
      P1  H  8011  8017       L1    13  0.10

> <Gold.PLP.Chemscore.Internal.Correction>
0.0560

> <Gold.Rescore>
     Score         DG    S(hbond)    S(metal)    S(lipo)     H(rot)  DE(clash)    DE(int)     intcor
     19.70     -20.84       2.11        0.00     122.94       2.36       0.01       1.13       ----

> <Gold.Chemscore.Fitness>
19.6990

> <Gold.Chemscore.DG>
-20.8408

> <Gold.Chemscore.ZeroCoef>
-5.4800

> <Gold.Chemscore.Hbond>
2.1051

> <Gold.Chemscore.Metal>
0.0000

> <Gold.Chemscore.Lipo>
122.9370

> <Gold.Chemscore.Internal_Hbond>
0.0000

> <Gold.Chemscore.DEClash>
0.0141

> <Gold.Chemscore.DEInternal>
1.1278

> <Gold.Chemscore.Rot>
2.3648

> <Gold.Chemscore.Internal.Correction>
   9.000000E+99

> <Gold.Chemscore.Hbonds>
donor molecule, donor type, donor heavy atom, donor atom, acceptor molecule, acceptor atom, score
      L1  H    13    36       P1  8028  0.96
      L1  H    14    43       P1  8028  0.95
      P1  H  8011  8017       L1    13  0.10

> <Gold.Chemscore.Hbond.Weighted>
-7.0311

> <Gold.Chemscore.Metal.Weighted>
-0.0000

> <Gold.Chemscore.Lipo.Weighted>
-14.3836

> <Gold.Chemscore.Internal_Hbond.Weighted>
0.0000

> <Gold.Chemscore.DEClash.Weighted>
0.0141

> <Gold.Chemscore.DEInternal.Weighted>
1.1278

> <Gold.Chemscore.Rot.Weighted>
6.0540

> <Gold.Chemscore.Internal.Correction.Weighted>
   9.000000E+99

> <Gold.Protein.RotatedTorsions>
[ 6907 6896 6895 6894 ] final  -72.40 input  -60.11 | X-H torsion
[ 7974 7965 7964 7962 ] final   25.12 input  175.53 | X-H torsion
[ 8008 7997 7996 7995 ] final -176.17 input   59.86 | X-H torsion
[ 10167 10162 10161 10158 ] final  -89.16 input  -65.29 | X-H torsion
[ 10718 10713 10712 10709 ] final   63.51 input   66.30 | X-H torsion
[ 10763 10752 10751 10750 ] final   -2.60 input  -60.55 | X-H torsion
[ 11005 11000 10999 10996 ] final   32.12 input  -57.11 | X-H torsion

> <Gold.Protein.ActiveResidues>
 VAL166  LYS551  ARG553  GLY616  TRP617  ASP618  TYR619  PRO620  LYS621  CYS622 
 ASP623  PHE694  ASN695  SER759  ASP760  ASP761  ALA762  ILE779  LEU786  VAL792 
 PHE793  MET794  SER795  GLU796  ALA797  LYS798  CYS799  TRP800  GLU811  SER814 

> <Gold.Protein.RotatedAtoms>
  150.7171  134.5168  159.5633 H   0  0  0  0  0  0  0  0  0  0  0  0  # atno 6907 bound_to 6896
  152.2732  134.7907  160.0419 H   0  0  0  0  0  0  0  0  0  0  0  0  # atno 6908 bound_to 6896
  151.8580  133.3416  159.3731 H   0  0  0  0  0  0  0  0  0  0  0  0  # atno 6909 bound_to 6896
  146.1904  139.7510  142.8836 H   0  0  0  0  0  0  0  0  0  0  0  0  # atno 7974 bound_to 7965
  155.9915  140.1202  157.0633 H   0  0  0  0  0  0  0  0  0  0  0  0  # atno 8008 bound_to 7997
  154.4213  140.1124  156.5641 H   0  0  0  0  0  0  0  0  0  0  0  0  # atno 8009 bound_to 7997
  155.6336  140.3473  155.4693 H   0  0  0  0  0  0  0  0  0  0  0  0  # atno 8010 bound_to 7997
  140.3676  143.2810  151.9540 H   0  0  0  0  0  0  0  0  0  0  0  0  # atno 10167 bound_to 10162
  157.5976  130.9109  149.9725 H   0  0  0  0  0  0  0  0  0  0  0  0  # atno 10718 bound_to 10713
  153.3601  135.6990  153.6719 H   0  0  0  0  0  0  0  0  0  0  0  0  # atno 10763 bound_to 10752
  153.5411  135.3573  155.2719 H   0  0  0  0  0  0  0  0  0  0  0  0  # atno 10764 bound_to 10752
  154.8667  135.4204  154.2857 H   0  0  0  0  0  0  0  0  0  0  0  0  # atno 10765 bound_to 10752
  140.2768  134.3019  155.7812 H   0  0  0  0  0  0  0  0  0  0  0  0  # atno 11005 bound_to 11000
  145.3810  141.0358  143.3177 LP  0  0  0  0  0  0  0  0  0  0  0  0  # atno 17320 bound_to 7965
  144.8476  139.5372  143.6871 LP  0  0  0  0  0  0  0  0  0  0  0  0  # atno 17321 bound_to 7965
  139.4807  144.5937  151.7728 LP  0  0  0  0  0  0  0  0  0  0  0  0  # atno 17342 bound_to 10162
  140.5066  144.1089  150.5984 LP  0  0  0  0  0  0  0  0  0  0  0  0  # atno 17343 bound_to 10162
  156.1042  130.3654  150.0164 LP  0  0  0  0  0  0  0  0  0  0  0  0  # atno 17370 bound_to 10713
  156.8274  130.9380  151.3638 LP  0  0  0  0  0  0  0  0  0  0  0  0  # atno 17371 bound_to 10713
  141.2169  133.7500  156.9419 LP  0  0  0  0  0  0  0  0  0  0  0  0  # atno 17394 bound_to 11000
  140.1321  134.9349  157.2351 LP  0  0  0  0  0  0  0  0  0  0  0  0  # atno 17395 bound_to 11000

$$$$
