AV-unprocessed.smi:527|AV-procd|sdf|2818|dock8
  -GOLD-   2262023303D 1   1.00000     0.00000
 Structure written by MMmdl.
 42 43  0  0  0  0  0  0  0  0  1 V2000
  153.7503  142.1646  160.1389 C   0  0  0  0  0  0  0  0  0  0  0  0
  152.3003  142.6115  160.4172 C   0  0  1  0  0  0  0  0  0  0  0  0
  152.2325  144.0999  160.8152 C   0  0  0  0  0  0  0  0  0  0  0  0
  152.4758  145.0333  159.6188 C   0  0  0  0  0  0  0  0  0  0  0  0
  151.4972  144.7353  158.4746 C   0  0  0  0  0  0  0  0  0  0  0  0
  151.5444  143.2534  158.0474 C   0  0  2  0  0  0  0  0  0  0  0  0
  150.5416  143.0121  157.0113 N   0  0  0  0  0  0  0  0  0  0  0  0
  150.5251  141.9625  156.1761 C   0  0  0  0  0  0  0  0  0  0  0  0
  151.4332  141.1307  156.1159 O   0  0  0  0  0  0  0  0  0  0  0  0
  149.4003  141.9531  155.4346 N   0  0  0  0  0  0  0  0  0  0  0  0
  149.0424  141.0541  154.4948 C   0  0  0  0  0  0  0  0  0  0  0  0
  149.7152  140.0739  154.1647 O   0  0  0  0  0  0  0  0  0  0  0  0
  147.6863  141.3273  153.8303 C   0  0  0  0  0  0  0  0  0  0  0  0
  147.0721  140.1326  153.2755 N   0  0  0  0  0  0  0  0  0  0  0  0
  146.7695  139.8868  151.9422 C   0  0  0  0  0  0  0  0  0  0  0  0
  146.2066  138.6315  151.8917 C   0  0  0  0  0  0  0  0  0  0  0  0
  146.1517  138.0901  153.1739 N   0  0  0  0  0  0  0  0  0  0  0  0
  146.6828  139.0348  153.9394 C   0  0  0  0  0  0  0  0  0  0  0  0
  151.3095  142.3149  159.2594 C   0  0  1  0  0  0  0  0  0  0  0  0
  151.2901  140.8231  158.8707 C   0  0  0  0  0  0  0  0  0  0  0  0
  154.1654  142.6397  159.2507 H   0  0  0  0  0  0  0  0  0  0  0  0
  153.8173  141.0859  159.9986 H   0  0  0  0  0  0  0  0  0  0  0  0
  154.4006  142.4149  160.9773 H   0  0  0  0  0  0  0  0  0  0  0  0
  151.9674  142.0398  161.2847 H   0  0  0  0  0  0  0  0  0  0  0  0
  151.2497  144.3140  161.2372 H   0  0  0  0  0  0  0  0  0  0  0  0
  152.9521  144.3132  161.6066 H   0  0  0  0  0  0  0  0  0  0  0  0
  152.3694  146.0719  159.9331 H   0  0  0  0  0  0  0  0  0  0  0  0
  153.5008  144.9269  159.2631 H   0  0  0  0  0  0  0  0  0  0  0  0
  150.4862  144.9943  158.7927 H   0  0  0  0  0  0  0  0  0  0  0  0
  151.7260  145.3794  157.6247 H   0  0  0  0  0  0  0  0  0  0  0  0
  152.5319  143.0386  157.6356 H   0  0  0  0  0  0  0  0  0  0  0  0
  149.8024  143.6950  156.9328 H   0  0  0  0  0  0  0  0  0  0  0  0
  148.7486  142.7053  155.6017 H   0  0  0  0  0  0  0  0  0  0  0  0
  147.0052  141.7637  154.5620 H   0  0  0  0  0  0  0  0  0  0  0  0
  147.8127  142.0575  153.0299 H   0  0  0  0  0  0  0  0  0  0  0  0
  146.9755  140.6038  151.1611 H   0  0  0  0  0  0  0  0  0  0  0  0
  145.8405  138.0805  151.0380 H   0  0  0  0  0  0  0  0  0  0  0  0
  146.7933  138.9247  155.0083 H   0  0  0  0  0  0  0  0  0  0  0  0
  150.3134  142.5385  159.6454 H   0  0  0  0  0  0  0  0  0  0  0  0
  152.2049  140.5302  158.3552 H   0  0  0  0  0  0  0  0  0  0  0  0
  150.4554  140.5931  158.2086 H   0  0  0  0  0  0  0  0  0  0  0  0
  151.1839  140.1891  159.7513 H   0  0  0  0  0  0  0  0  0  0  0  0
  1  2  1  0  0  0  0
  1 21  1  0  0  0  0
  1 22  1  0  0  0  0
  1 23  1  0  0  0  0
  2 19  1  0  0  0  0
  2  3  1  0  0  0  0
  2 24  1  0  0  0  0
  3  4  1  0  0  0  0
  3 25  1  0  0  0  0
  3 26  1  0  0  0  0
  4  5  1  0  0  0  0
  4 27  1  0  0  0  0
  4 28  1  0  0  0  0
  5  6  1  0  0  0  0
  5 29  1  0  0  0  0
  5 30  1  0  0  0  0
  6  7  1  0  0  0  0
  6 19  1  0  0  0  0
  6 31  1  0  0  0  0
  7  8  1  0  0  0  0
  7 32  1  0  0  0  0
  8  9  2  0  0  0  0
  8 10  1  0  0  0  0
 10 11  1  0  0  0  0
 10 33  1  0  0  0  0
 11 12  2  0  0  0  0
 11 13  1  0  0  0  0
 13 14  1  0  0  0  0
 13 34  1  0  0  0  0
 13 35  1  0  0  0  0
 14 18  1  0  0  0  0
 14 15  1  0  0  0  0
 15 16  2  0  0  0  0
 15 36  1  0  0  0  0
 16 17  1  0  0  0  0
 16 37  1  0  0  0  0
 17 18  2  0  0  0  0
 18 38  1  0  0  0  0
 19 20  1  0  0  0  0
 19 39  1  0  0  0  0
 20 40  1  0  0  0  0
 20 41  1  0  0  0  0
 20 42  1  0  0  0  0
M  END
> <s_m_source_file>
AV-unprocessed.smi

> <i_m_source_file_index>
527

> <i_lp_mmshare_version>
43012

> <i_f3d_flags>
0

> <s_epik_input>
W0NIM11bQ0BASF0xW0NIMl1bQ0gyXVtDSDJdW0NASF0oW0NASF0xW0NIM10pW05IXUMoPU8pW05IXUMoPU8pW0NIMl1uMltjSF1bY0hdbltjSF0y

> <s_epik_cmdline>
J2VwaWtfcHl0aG9uJywgJy1waCcsICc3LjAnLCAnLXRuJywgJzgnLCAnLW1hJywgJzIwMCcsICctbWV0YWxfYmluZGluZycsICctaW1hZScsICc8aW5maWxlLm1hZT4nLCAnLW9tYWUnLCAnPG91dGZpbGUubWFlPic=

> <r_lp_tautomer_probability>
1

> <r_epik_Ionization_Penalty>
0.172132

> <r_epik_Ionization_Penalty_Charging>
0.172105

> <r_epik_Ionization_Penalty_Neutral>
2.71747e-05

> <r_epik_State_Penalty>
0.161503

> <r_epik_Charging_Adjusted_Penalty>
0.333607

> <i_epik_Tot_Q>
0

> <i_epik_Tot_abs_Q>
0

> <r_epik_Metal_State_Penalty>
0.124763

> <b_epik_Metal_Only>
0

> <s_lp_Force_Field>
OPLS_2005

> <r_lp_Energy>
17.6389

> <b_lp_Chiralities_Consistent>
1

> <s_lp_Variant>
AV-unprocessed.smi:527-4

> <Gold.Version>
5.8.1

> <Gold.Id.Protein>
6NUR|6NUR_protein|mol2

> <Gold.PLP.Fitness>
53.7649

> <Gold.PLP.PLP>
-44.1687

> <Gold.PLP.part.hbond>
-3.1787

> <Gold.PLP.part.metal>
0.0000

> <Gold.PLP.part.buried>
0.0660

> <Gold.PLP.part.nonpolar>
-41.4226

> <Gold.PLP.part.repulsive>
1.7711

> <Gold.PLP.ligand.clash>
0.0000

> <Gold.PLP.ligand.torsion>
0.5765

> <Gold.PLP.Chemscore.Hbond>
2.5600

> <Gold.PLP.Chemscore.CHOScore>
1.0183

> <Gold.PLP.Chemscore.Metal>
0.0000

> <Gold.Chemscore.Hbonds>
donor molecule, donor type, donor heavy atom, donor atom, acceptor molecule, acceptor atom, score
      L1  H     7    32       P1  8028  0.85
      L1  H    10    33       P1  8028  0.70
      P1  H  7989  7998       L1    12  0.58
      L1  C    15    36       P1  7957  0.20
      L1  C    16    37       P1 10171  0.91

> <Gold.PLP.Chemscore.Internal.Correction>
0.0142

> <Gold.Rescore>
     Score         DG    S(hbond)    S(metal)    S(lipo)     H(rot)  DE(clash)    DE(int)     intcor
     15.28     -21.72       2.10        0.00     115.38       1.66       3.15       3.30       ----

> <Gold.Chemscore.Fitness>
15.2762

> <Gold.Chemscore.DG>
-21.7235

> <Gold.Chemscore.ZeroCoef>
-5.4800

> <Gold.Chemscore.Hbond>
2.0961

> <Gold.Chemscore.Metal>
0.0000

> <Gold.Chemscore.Lipo>
115.3803

> <Gold.Chemscore.Internal_Hbond>
0.0000

> <Gold.Chemscore.DEClash>
3.1450

> <Gold.Chemscore.DEInternal>
3.3023

> <Gold.Chemscore.Rot>
1.6629

> <Gold.Chemscore.Internal.Correction>
   9.000000E+99

> <Gold.Chemscore.Hbonds>
donor molecule, donor type, donor heavy atom, donor atom, acceptor molecule, acceptor atom, score
      L1  H     7    32       P1  8028  0.81
      L1  H    10    33       P1  8028  0.67
      P1  H  7989  7998       L1    12  0.28

> <Gold.Chemscore.Hbond.Weighted>
-7.0009

> <Gold.Chemscore.Metal.Weighted>
-0.0000

> <Gold.Chemscore.Lipo.Weighted>
-13.4995

> <Gold.Chemscore.Internal_Hbond.Weighted>
0.0000

> <Gold.Chemscore.DEClash.Weighted>
3.1450

> <Gold.Chemscore.DEInternal.Weighted>
3.3023

> <Gold.Chemscore.Rot.Weighted>
4.2569

> <Gold.Chemscore.Internal.Correction.Weighted>
   9.000000E+99

> <Gold.Protein.RotatedTorsions>
[ 6907 6896 6895 6894 ] final -113.65 input  -60.11 | X-H torsion
[ 7974 7965 7964 7962 ] final  -27.71 input  175.53 | X-H torsion
[ 8008 7997 7996 7995 ] final   37.52 input   59.86 | X-H torsion
[ 10167 10162 10161 10158 ] final  -86.94 input  -65.29 | X-H torsion
[ 10718 10713 10712 10709 ] final   82.21 input   66.30 | X-H torsion
[ 10763 10752 10751 10750 ] final  167.90 input  -60.55 | X-H torsion
[ 11005 11000 10999 10996 ] final  138.45 input  -57.11 | X-H torsion

> <Gold.Protein.ActiveResidues>
 VAL166  LYS551  ARG553  GLY616  TRP617  ASP618  TYR619  PRO620  LYS621  CYS622 
 ASP623  PHE694  ASN695  SER759  ASP760  ASP761  ALA762  ILE779  LEU786  VAL792 
 PHE793  MET794  SER795  GLU796  ALA797  LYS798  CYS799  TRP800  GLU811  SER814 

> <Gold.Protein.RotatedAtoms>
  150.7844  133.8914  159.3314 H   0  0  0  0  0  0  0  0  0  0  0  0  # atno 6907 bound_to 6896
  151.6768  135.0966  160.0218 H   0  0  0  0  0  0  0  0  0  0  0  0  # atno 6908 bound_to 6896
  152.3905  133.6633  159.6269 H   0  0  0  0  0  0  0  0  0  0  0  0  # atno 6909 bound_to 6896
  146.1339  140.5187  142.8681 H   0  0  0  0  0  0  0  0  0  0  0  0  # atno 7974 bound_to 7965
  155.2051  140.3319  155.4337 H   0  0  0  0  0  0  0  0  0  0  0  0  # atno 8008 bound_to 7997
  156.2392  140.1887  156.7085 H   0  0  0  0  0  0  0  0  0  0  0  0  # atno 8009 bound_to 7997
  154.6115  140.0608  156.9485 H   0  0  0  0  0  0  0  0  0  0  0  0  # atno 8010 bound_to 7997
  140.3893  143.2712  151.9285 H   0  0  0  0  0  0  0  0  0  0  0  0  # atno 10167 bound_to 10162
  157.6852  131.0038  150.2341 H   0  0  0  0  0  0  0  0  0  0  0  0  # atno 10718 bound_to 10713
  154.3607  135.2753  155.2321 H   0  0  0  0  0  0  0  0  0  0  0  0  # atno 10763 bound_to 10752
  154.4511  135.5931  153.6195 H   0  0  0  0  0  0  0  0  0  0  0  0  # atno 10764 bound_to 10752
  152.9843  135.6042  154.3828 H   0  0  0  0  0  0  0  0  0  0  0  0  # atno 10765 bound_to 10752
  140.0184  134.9408  157.0424 H   0  0  0  0  0  0  0  0  0  0  0  0  # atno 11005 bound_to 11000
  144.7719  140.5656  143.6664 LP  0  0  0  0  0  0  0  0  0  0  0  0  # atno 17320 bound_to 7965
  145.5199  139.1477  143.3558 LP  0  0  0  0  0  0  0  0  0  0  0  0  # atno 17321 bound_to 7965
  139.4790  144.5743  151.8037 LP  0  0  0  0  0  0  0  0  0  0  0  0  # atno 17342 bound_to 10162
  140.4856  144.1385  150.5940 LP  0  0  0  0  0  0  0  0  0  0  0  0  # atno 17343 bound_to 10162
  156.2968  130.3753  149.7789 LP  0  0  0  0  0  0  0  0  0  0  0  0  # atno 17370 bound_to 10713
  156.5431  130.8309  151.3275 LP  0  0  0  0  0  0  0  0  0  0  0  0  # atno 17371 bound_to 10713
  140.4430  134.1662  155.7175 LP  0  0  0  0  0  0  0  0  0  0  0  0  # atno 17394 bound_to 11000
  141.1758  133.8517  157.1425 LP  0  0  0  0  0  0  0  0  0  0  0  0  # atno 17395 bound_to 11000

$$$$
