AV-unprocessed.smi:2151|AV-procd|sdf|8759|dock5
  -GOLD-   2272011533D 1   1.00000     0.00000
 Structure written by MMmdl.
 39 40  0  0  0  0  0  0  0  0  1 V2000
  150.1159  139.3121  157.8562 C   0  0  0  0  0  0  0  0  0  0  0  0
  150.5075  140.3949  156.8403 C   0  0  1  0  0  0  0  0  0  0  0  0
  151.4973  141.2812  157.4507 N   0  0  0  0  0  0  0  0  0  0  0  0
  151.2821  142.1179  158.4777 C   0  0  0  0  0  0  0  0  0  0  0  0
  150.1884  142.2500  159.0286 O   0  0  0  0  0  0  0  0  0  0  0  0
  152.4931  142.9469  158.9285 C   0  0  0  0  0  0  0  0  0  0  0  0
  152.8774  142.7036  160.3291 N   0  0  0  0  0  0  0  0  0  0  0  0
  153.5750  141.5113  160.6054 C   0  0  0  0  0  0  0  0  0  0  0  0
  153.9735  141.1651  161.8444 C   0  0  0  0  0  0  0  0  0  0  0  0
  154.7773  139.8994  162.0992 C   0  0  0  0  0  0  0  0  0  0  0  0
  155.1591  139.8188  163.3743 F   0  0  0  0  0  0  0  0  0  0  0  0
  154.0361  138.8284  161.8187 F   0  0  0  0  0  0  0  0  0  0  0  0
  155.8675  139.8612  161.3321 F   0  0  0  0  0  0  0  0  0  0  0  0
  153.6761  142.1085  162.9045 C   0  0  0  0  0  0  0  0  0  0  0  0
  153.0225  143.2601  162.6549 C   0  0  0  0  0  0  0  0  0  0  0  0
  152.5793  143.6134  161.3044 C   0  0  0  0  0  0  0  0  0  0  0  0
  151.9779  144.6608  161.0649 O   0  0  0  0  0  0  0  0  0  0  0  0
  151.0665  139.7894  155.5373 C   0  0  2  0  0  0  0  0  0  0  0  0
  150.3245  138.5485  155.0355 C   0  0  0  0  0  0  0  0  0  0  0  0
  151.3844  137.8801  154.1913 C   0  0  0  0  0  0  0  0  0  0  0  0
  152.6430  138.1359  155.0141 C   0  0  0  0  0  0  0  0  0  0  0  0
  152.4109  139.3509  155.7232 O   0  0  0  0  0  0  0  0  0  0  0  0
  149.3571  138.6440  157.4480 H   0  0  0  0  0  0  0  0  0  0  0  0
  149.7062  139.7564  158.7640 H   0  0  0  0  0  0  0  0  0  0  0  0
  150.9756  138.7044  158.1409 H   0  0  0  0  0  0  0  0  0  0  0  0
  149.6045  140.9549  156.5913 H   0  0  0  0  0  0  0  0  0  0  0  0
  152.4278  141.2510  157.0599 H   0  0  0  0  0  0  0  0  0  0  0  0
  153.3381  142.7447  158.2675 H   0  0  0  0  0  0  0  0  0  0  0  0
  152.2576  144.0008  158.7745 H   0  0  0  0  0  0  0  0  0  0  0  0
  153.7758  140.8970  159.7395 H   0  0  0  0  0  0  0  0  0  0  0  0
  153.9804  141.8884  163.9173 H   0  0  0  0  0  0  0  0  0  0  0  0
  152.8179  143.9395  163.4694 H   0  0  0  0  0  0  0  0  0  0  0  0
  151.0710  140.5408  154.7456 H   0  0  0  0  0  0  0  0  0  0  0  0
  150.0478  137.9009  155.8690 H   0  0  0  0  0  0  0  0  0  0  0  0
  149.4212  138.7894  154.4741 H   0  0  0  0  0  0  0  0  0  0  0  0
  151.1940  136.8204  154.0196 H   0  0  0  0  0  0  0  0  0  0  0  0
  151.4591  138.3771  153.2230 H   0  0  0  0  0  0  0  0  0  0  0  0
  152.7928  137.3359  155.7400 H   0  0  0  0  0  0  0  0  0  0  0  0
  153.5371  138.2016  154.3938 H   0  0  0  0  0  0  0  0  0  0  0  0
  1  2  1  0  0  0  0
  1 23  1  0  0  0  0
  1 24  1  0  0  0  0
  1 25  1  0  0  0  0
  2  3  1  0  0  0  0
  2 18  1  0  0  0  0
  2 26  1  0  0  0  0
  3  4  1  0  0  0  0
  3 27  1  0  0  0  0
  4  5  2  0  0  0  0
  4  6  1  0  0  0  0
  6  7  1  0  0  0  0
  6 28  1  0  0  0  0
  6 29  1  0  0  0  0
  7 16  1  0  0  0  0
  7  8  1  0  0  0  0
  8  9  2  0  0  0  0
  8 30  1  0  0  0  0
  9 10  1  0  0  0  0
  9 14  1  0  0  0  0
 10 11  1  0  0  0  0
 10 12  1  0  0  0  0
 10 13  1  0  0  0  0
 14 15  2  0  0  0  0
 14 31  1  0  0  0  0
 15 16  1  0  0  0  0
 15 32  1  0  0  0  0
 16 17  2  0  0  0  0
 18 22  1  0  0  0  0
 18 19  1  0  0  0  0
 18 33  1  0  0  0  0
 19 20  1  0  0  0  0
 19 34  1  0  0  0  0
 19 35  1  0  0  0  0
 20 21  1  0  0  0  0
 20 36  1  0  0  0  0
 20 37  1  0  0  0  0
 21 22  1  0  0  0  0
 21 38  1  0  0  0  0
 21 39  1  0  0  0  0
M  END
> <s_m_source_file>
AV-unprocessed.smi

> <i_m_source_file_index>
2151

> <i_lp_mmshare_version>
43012

> <i_f3d_flags>
0

> <s_epik_input>
TzFbQ0gyXVtDSDJdW0NIMl1bQ0BIXTFbQ0BIXShbQ0gzXSlbTkhdQyg9TylbQ0gyXW4yW2NIXWMoQyhGKShGKUYpW2NIXVtjSF1jMj1P

> <s_epik_cmdline>
J2VwaWtfcHl0aG9uJywgJy1waCcsICc3LjAnLCAnLXRuJywgJzgnLCAnLW1hJywgJzIwMCcsICctbWV0YWxfYmluZGluZycsICctaW1hZScsICc8aW5maWxlLm1hZT4nLCAnLW9tYWUnLCAnPG91dGZpbGUubWFlPic=

> <r_lp_tautomer_probability>
1

> <r_epik_Ionization_Penalty>
4.20109e-08

> <r_epik_Ionization_Penalty_Charging>
1.89977e-08

> <r_epik_Ionization_Penalty_Neutral>
2.30132e-08

> <r_epik_State_Penalty>
-0

> <r_epik_Charging_Adjusted_Penalty>
1.89977e-08

> <i_epik_Tot_Q>
0

> <i_epik_Tot_abs_Q>
0

> <r_epik_Metal_State_Penalty>
-0

> <b_epik_Metal_Only>
0

> <s_lp_Force_Field>
OPLS_2005

> <r_lp_Energy>
30.2794

> <b_lp_Chiralities_Consistent>
1

> <s_lp_Variant>
AV-unprocessed.smi:2151-2

> <Gold.Version>
5.8.1

> <Gold.Id.Protein>
6NUR|6NUR_protein|mol2

> <Gold.PLP.Fitness>
50.4602

> <Gold.PLP.PLP>
-48.6299

> <Gold.PLP.part.hbond>
-2.0000

> <Gold.PLP.part.metal>
0.0000

> <Gold.PLP.part.buried>
-4.1846

> <Gold.PLP.part.nonpolar>
-42.4762

> <Gold.PLP.part.repulsive>
0.2899

> <Gold.PLP.ligand.clash>
0.0000

> <Gold.PLP.ligand.torsion>
0.6283

> <Gold.PLP.Chemscore.Hbond>
1.0000

> <Gold.PLP.Chemscore.CHOScore>
0.0000

> <Gold.PLP.Chemscore.Metal>
0.0000

> <Gold.Chemscore.Hbonds>
donor molecule, donor type, donor heavy atom, donor atom, acceptor molecule, acceptor atom, score
      P1  H  7997  8010       L1    22  0.54

> <Gold.PLP.Chemscore.Internal.Correction>
0.0868

> <Gold.Rescore>
     Score         DG    S(hbond)    S(metal)    S(lipo)     H(rot)  DE(clash)    DE(int)     intcor
     14.78     -15.53       0.78        0.00     103.40       1.82       0.31       0.43       ----

> <Gold.Chemscore.Fitness>
14.7795

> <Gold.Chemscore.DG>
-15.5281

> <Gold.Chemscore.ZeroCoef>
-5.4800

> <Gold.Chemscore.Hbond>
0.7836

> <Gold.Chemscore.Metal>
0.0000

> <Gold.Chemscore.Lipo>
103.3965

> <Gold.Chemscore.Internal_Hbond>
0.0000

> <Gold.Chemscore.DEClash>
0.3137

> <Gold.Chemscore.DEInternal>
0.4349

> <Gold.Chemscore.Rot>
1.8228

> <Gold.Chemscore.Internal.Correction>
   9.000000E+99

> <Gold.Chemscore.Hbonds>
donor molecule, donor type, donor heavy atom, donor atom, acceptor molecule, acceptor atom, score
      P1  H  7997  8010       L1    22  0.18

> <Gold.Chemscore.Hbond.Weighted>
-2.6172

> <Gold.Chemscore.Metal.Weighted>
-0.0000

> <Gold.Chemscore.Lipo.Weighted>
-12.0974

> <Gold.Chemscore.Internal_Hbond.Weighted>
0.0000

> <Gold.Chemscore.DEClash.Weighted>
0.3137

> <Gold.Chemscore.DEInternal.Weighted>
0.4349

> <Gold.Chemscore.Rot.Weighted>
4.6665

> <Gold.Chemscore.Internal.Correction.Weighted>
   9.000000E+99

> <Gold.Protein.RotatedTorsions>
[ 6907 6896 6895 6894 ] final  119.76 input  -60.11 | X-H torsion
[ 7974 7965 7964 7962 ] final  -91.76 input  175.53 | X-H torsion
[ 8008 7997 7996 7995 ] final  104.95 input   59.86 | X-H torsion
[ 10167 10162 10161 10158 ] final   90.50 input  -65.29 | X-H torsion
[ 10718 10713 10712 10709 ] final  -82.83 input   66.30 | X-H torsion
[ 10763 10752 10751 10750 ] final   87.15 input  -60.55 | X-H torsion
[ 11005 11000 10999 10996 ] final   61.19 input  -57.11 | X-H torsion

> <Gold.Protein.ActiveResidues>
 VAL166  LYS551  ARG553  GLY616  TRP617  ASP618  TYR619  PRO620  LYS621  CYS622 
 ASP623  PHE694  ASN695  SER759  ASP760  ASP761  ALA762  ILE779  LEU786  VAL792 
 PHE793  MET794  SER795  GLU796  ALA797  LYS798  CYS799  TRP800  GLU811  SER814 

> <Gold.Protein.RotatedAtoms>
  152.4448  133.7516  159.6696 H   0  0  0  0  0  0  0  0  0  0  0  0  # atno 6907 bound_to 6896
  150.8346  133.8024  159.3091 H   0  0  0  0  0  0  0  0  0  0  0  0  # atno 6908 bound_to 6896
  151.5668  135.1066  160.0037 H   0  0  0  0  0  0  0  0  0  0  0  0  # atno 6909 bound_to 6896
  145.4088  140.9543  143.2246 H   0  0  0  0  0  0  0  0  0  0  0  0  # atno 7974 bound_to 7965
  156.1617  140.3139  155.8819 H   0  0  0  0  0  0  0  0  0  0  0  0  # atno 8008 bound_to 7997
  155.3769  140.0485  157.3061 H   0  0  0  0  0  0  0  0  0  0  0  0  # atno 8009 bound_to 7997
  154.5153  140.2179  155.9089 H   0  0  0  0  0  0  0  0  0  0  0  0  # atno 8010 bound_to 7997
  139.8467  144.6614  150.9218 H   0  0  0  0  0  0  0  0  0  0  0  0  # atno 10167 bound_to 10162
  156.0027  130.4646  150.4165 H   0  0  0  0  0  0  0  0  0  0  0  0  # atno 10718 bound_to 10713
  153.1640  135.4554  154.9811 H   0  0  0  0  0  0  0  0  0  0  0  0  # atno 10763 bound_to 10752
  154.7918  135.3223  154.7762 H   0  0  0  0  0  0  0  0  0  0  0  0  # atno 10764 bound_to 10752
  153.8247  135.6943  153.4877 H   0  0  0  0  0  0  0  0  0  0  0  0  # atno 10765 bound_to 10752
  140.0179  134.6198  155.9683 H   0  0  0  0  0  0  0  0  0  0  0  0  # atno 11005 bound_to 11000
  144.8323  139.5608  143.6938 LP  0  0  0  0  0  0  0  0  0  0  0  0  # atno 17320 bound_to 7965
  146.2715  139.6647  142.9292 LP  0  0  0  0  0  0  0  0  0  0  0  0  # atno 17321 bound_to 7965
  140.7792  143.3864  151.1387 LP  0  0  0  0  0  0  0  0  0  0  0  0  # atno 17342 bound_to 10162
  139.7505  143.8785  152.3075 LP  0  0  0  0  0  0  0  0  0  0  0  0  # atno 17343 bound_to 10162
  157.2224  131.0485  151.2539 LP  0  0  0  0  0  0  0  0  0  0  0  0  # atno 17370 bound_to 10713
  157.3788  130.7220  149.6615 LP  0  0  0  0  0  0  0  0  0  0  0  0  # atno 17371 bound_to 10713
  141.1754  133.6540  156.4810 LP  0  0  0  0  0  0  0  0  0  0  0  0  # atno 17394 bound_to 11000
  140.4439  134.6990  157.5006 LP  0  0  0  0  0  0  0  0  0  0  0  0  # atno 17395 bound_to 11000

$$$$
