#       Name:                AV-unprocessed.smi:980
#       Creating user name   scv26
#       Creation time:       Fri Mar 27 02:21:49 2020


#       File generated by GOLD software.
#

@<TRIPOS>MOLECULE
AV-unprocessed.smi:980
    47    48     1
SMALL
NO_CHARGES


@<TRIPOS>ATOM
      1 ****        -3.0664   5.7194   0.5791 C.3            1 S1                 0.0000
      2 ****        -2.7436   4.2825   1.0419 C.3            1 S1                 0.0000
      3 ****        -1.6404   4.3652   2.1153 C.3            1 S1                 0.0000
      4 ****        -4.0245   3.6807   1.6525 C.3            1 S1                 0.0000
      5 ****        -2.2738   3.4266  -0.1178 C.2            1 S1                 0.0000
      6 ****        -2.1255   3.7904  -1.4372 C.2            1 S1                 0.0000
      7 ****        -1.5499   2.4770  -2.4265 S.3            1 S1                 0.0000
      8 ****        -1.5429   1.4501  -1.0012 C.2            1 S1                 0.0000
      9 ****        -1.0907   0.0287  -1.0160 C.3            1 S1                 0.0000
     10 ****         0.4096  -0.1088  -0.7288 C.3            1 S1                 0.0000
     11 ****         0.8058  -1.5099  -0.7200 N.am           1 S1                 0.0000
     12 ****         2.0412  -1.9446  -0.4330 C.2            1 S1                 0.0000
     13 ****         2.9764  -1.1876  -0.1707 O.2            1 S1                 0.0000
     14 ****         2.2530  -3.4644  -0.4391 C.3            1 S1                 0.0000
     15 ****         2.5777  -3.9850   0.9799 C.3            1 S1                 0.0000
     16 ****         3.0402  -5.4312   0.9681 C.2            1 S1                 0.0000
     17 ****         3.4463  -6.0682  -0.1436 C.2            1 S1                 0.0000
     18 ****         3.4934  -5.4129  -1.5126 C.3            1 S1                 0.0000
     19 ****         3.3579  -3.8804  -1.4312 C.3            1 S1                 0.0000
     20 ****        -1.9294   2.0868   0.1063 N.2            1 S1                 0.0000
     21 ****        -3.4081   6.3368   1.4106 H              1 S1                 0.0000
     22 ****        -3.8540   5.7299  -0.1754 H              1 S1                 0.0000
     23 ****        -2.1903   6.2091   0.1523 H              1 S1                 0.0000
     24 ****        -0.7215   4.7871   1.7067 H              1 S1                 0.0000
     25 ****        -1.3981   3.3823   2.5207 H              1 S1                 0.0000
     26 ****        -1.9469   4.9932   2.9524 H              1 S1                 0.0000
     27 ****        -4.3955   4.2894   2.4776 H              1 S1                 0.0000
     28 ****        -3.8508   2.6774   2.0432 H              1 S1                 0.0000
     29 ****        -4.8213   3.6109   0.9110 H              1 S1                 0.0000
     30 ****        -2.3150   4.7513  -1.8919 H              1 S1                 0.0000
     31 ****        -1.6685  -0.5288  -0.2775 H              1 S1                 0.0000
     32 ****        -1.3285  -0.4010  -1.9898 H              1 S1                 0.0000
     33 ****         0.9878   0.4274  -1.4832 H              1 S1                 0.0000
     34 ****         0.6455   0.3388   0.2382 H              1 S1                 0.0000
     35 ****         0.0929  -2.1938  -0.9286 H              1 S1                 0.0000
     36 ****         1.3241  -3.9354  -0.7666 H              1 S1                 0.0000
     37 ****         3.3581  -3.3875   1.4537 H              1 S1                 0.0000
     38 ****         1.6920  -3.9081   1.6117 H              1 S1                 0.0000
     39 ****         3.0461  -5.9486   1.9163 H              1 S1                 0.0000
     40 ****         3.7513  -7.1029  -0.0878 H              1 S1                 0.0000
     41 ****         4.4287  -5.6772  -2.0063 H              1 S1                 0.0000
     42 ****         2.6866  -5.8313  -2.1149 H              1 S1                 0.0000
     43 ****         3.1588  -3.4770  -2.4248 H              1 S1                 0.0000
     44 ****         4.3117  -3.4560  -1.1130 H              1 S1                 0.0000
     45 ****         2.8323  -0.1981  -0.1652 LP             1 S1                 0.0000
     46 ****         3.8800  -1.5624   0.0369 LP             1 S1                 0.0000
     47 ****        -1.9692   1.6515   1.0057 LP             1 S1                 0.0000
@<TRIPOS>BOND
    1    1    2 1     
    2    1   21 1     
    3    1   22 1     
    4    1   23 1     
    5    2    3 1     
    6    2    4 1     
    7    2    5 1     
    8    3   24 1     
    9    3   25 1     
   10    3   26 1     
   11    4   27 1     
   12    4   28 1     
   13    4   29 1     
   14    5   20 1     
   15    5    6 2     
   16    6    7 1     
   17    6   30 1     
   18    7    8 1     
   19    8    9 1     
   20    8   20 2     
   21    9   10 1     
   22    9   31 1     
   23    9   32 1     
   24   10   11 1     
   25   10   33 1     
   26   10   34 1     
   27   11   12 am    
   28   11   35 1     
   29   12   13 2     
   30   12   14 1     
   31   14   19 1     
   32   14   15 1     
   33   14   36 1     
   34   15   16 1     
   35   15   37 1     
   36   15   38 1     
   37   16   17 2     
   38   16   39 1     
   39   17   18 1     
   40   17   40 1     
   41   18   19 1     
   42   18   41 1     
   43   18   42 1     
   44   19   43 1     
   45   19   44 1     
   46   13   45 1     
   47   13   46 1     
   48   20   47 1     
@<TRIPOS>SUBSTRUCTURE
      1 S1             1
@<TRIPOS>SET
LONE_PAIRS      STATIC     ATOMS    <user>   **** ""
3 45 46 47
DONOR_HYDROGENS      STATIC     ATOMS    <user>   **** ""
1 35
ATOM$BLUE        STATIC     ATOMS    COLORGROUP SYSTEM
3 45 46 47
ATOM$RED        STATIC     ATOMS    COLORGROUP SYSTEM
1 35
