AV-unprocessed.smi:3078|AV-procd|sdf|11736|dock6
  -GOLD-   2272017133D 1   1.00000     0.00000
 Structure written by MMmdl.
 24 24  0  0  0  0  0  0  0  0  3 V2000
  152.3495  138.4258  154.8569 C   0  0  0  0  0  0  0  0  0  0  0  0
  151.0329  138.9568  154.5748 N   0  0  0  0  0  0  0  0  0  0  0  0
  149.9279  138.3010  154.0776 C   0  0  0  0  0  0  0  0  0  0  0  0
  148.9136  139.2150  153.9825 C   0  0  0  0  0  0  0  0  0  0  0  0
  147.4968  139.0280  153.5008 C   0  0  1  0  0  0  0  0  0  0  0  0
  147.5054  138.7054  152.0624 N   0  3  0  0  0  0  0  0  0  0  0  0
  146.7363  137.9508  154.2995 C   0  0  0  0  0  0  0  0  0  0  0  0
  147.3269  136.6110  154.1200 N   0  3  0  0  0  0  0  0  0  0  0  0
  149.5148  140.4191  154.4501 C   0  0  0  0  0  0  0  0  0  0  0  0
  150.7779  140.2602  154.8063 N   0  0  0  0  0  0  0  0  0  0  0  0
  152.4345  137.4092  154.4714 H   0  0  0  0  0  0  0  0  0  0  0  0
  152.5179  138.4125  155.9341 H   0  0  0  0  0  0  0  0  0  0  0  0
  153.1100  139.0477  154.3832 H   0  0  0  0  0  0  0  0  0  0  0  0
  149.9563  137.2486  153.8353 H   0  0  0  0  0  0  0  0  0  0  0  0
  146.9485  139.9666  153.5942 H   0  0  0  0  0  0  0  0  0  0  0  0
  146.5644  138.7655  151.6990 H   0  0  0  0  0  0  0  0  0  0  0  0
  147.8565  137.7683  151.9243 H   0  0  0  0  0  0  0  0  0  0  0  0
  146.7588  138.1872  155.3638 H   0  0  0  0  0  0  0  0  0  0  0  0
  145.6866  137.9169  154.0052 H   0  0  0  0  0  0  0  0  0  0  0  0
  147.6682  136.2697  155.0076 H   0  0  0  0  0  0  0  0  0  0  0  0
  148.0942  136.6605  153.4647 H   0  0  0  0  0  0  0  0  0  0  0  0
  149.0709  141.3995  154.5435 H   0  0  0  0  0  0  0  0  0  0  0  0
  146.6254  135.9759  153.7656 H   0  0  0  0  0  0  0  0  0  0  0  0
  148.0940  139.3612  151.5686 H   0  0  0  0  0  0  0  0  0  0  0  0
  1  2  1  0  0  0  0
  1 11  1  0  0  0  0
  1 12  1  0  0  0  0
  1 13  1  0  0  0  0
  2 10  1  0  0  0  0
  2  3  1  0  0  0  0
  3  4  2  0  0  0  0
  3 14  1  0  0  0  0
  4  5  1  0  0  0  0
  4  9  1  0  0  0  0
  5  6  1  0  0  0  0
  5  7  1  0  0  0  0
  5 15  1  0  0  0  0
  6 16  1  0  0  0  0
  6 17  1  0  0  0  0
  6 24  1  0  0  0  0
  7  8  1  0  0  0  0
  7 18  1  0  0  0  0
  7 19  1  0  0  0  0
  8 20  1  0  0  0  0
  8 21  1  0  0  0  0
  8 23  1  0  0  0  0
  9 10  2  0  0  0  0
  9 22  1  0  0  0  0
M  CHG  1   6   1
M  CHG  1   8   1
M  END
> <s_m_source_file>
AV-unprocessed.smi

> <i_m_source_file_index>
3078

> <i_lp_mmshare_version>
43012

> <i_f3d_flags>
0

> <s_epik_input>
W0NIM11uMVtjSF1jKFtjSF1uMSlbQ0BIXShbTkgyXSlbQ0gyXVtOSDJd

> <s_epik_cmdline>
J2VwaWtfcHl0aG9uJywgJy1waCcsICc3LjAnLCAnLXRuJywgJzgnLCAnLW1hJywgJzIwMCcsICctbWV0YWxfYmluZGluZycsICctaW1hZScsICc8aW5maWxlLm1hZT4nLCAnLW9tYWUnLCAnPG91dGZpbGUubWFlPic=

> <r_lp_tautomer_probability>
1

> <r_epik_Ionization_Penalty>
2.39325

> <r_epik_Ionization_Penalty_Charging>
2.39325

> <r_epik_Ionization_Penalty_Neutral>
1.68997e-07

> <r_epik_State_Penalty>
1.77229

> <r_epik_Charging_Adjusted_Penalty>
4.16555

> <i_epik_Tot_Q>
2

> <i_epik_Tot_abs_Q>
2

> <r_epik_Metal_State_Penalty>
1.77233

> <b_epik_Metal_Only>
0

> <s_lp_Force_Field>
OPLS_2005

> <r_lp_Energy>
8.51806

> <b_lp_Chiralities_Consistent>
1

> <s_lp_Variant>
AV-unprocessed.smi:3078-6

> <Gold.Version>
5.8.1

> <Gold.Id.Protein>
6NUR|6NUR_protein|mol2

> <Gold.PLP.Fitness>
40.3135

> <Gold.PLP.PLP>
-19.8176

> <Gold.PLP.part.hbond>
-4.0000

> <Gold.PLP.part.metal>
0.0000

> <Gold.PLP.part.buried>
0.1984

> <Gold.PLP.part.nonpolar>
-15.7223

> <Gold.PLP.part.repulsive>
0.1600

> <Gold.PLP.ligand.clash>
0.0000

> <Gold.PLP.ligand.torsion>
0.0494

> <Gold.PLP.Chemscore.Hbond>
5.9500

> <Gold.PLP.Chemscore.CHOScore>
0.9093

> <Gold.PLP.Chemscore.Metal>
0.0000

> <Gold.Chemscore.Hbonds>
donor molecule, donor type, donor heavy atom, donor atom, acceptor molecule, acceptor atom, score
      L1  H     6    17       P1  7948  2.00
      L1  H     6    24       P1  7957  1.00
      L1  H     8    21       P1  7948  2.00
      P1  H  7989  7998       L1    10  0.85
      L1  C     3    14       P1  7948  0.91

> <Gold.PLP.Chemscore.Internal.Correction>
0.0169

> <Gold.Rescore>
     Score         DG    S(hbond)    S(metal)    S(lipo)     H(rot)  DE(clash)    DE(int)     intcor
     15.91     -16.01       3.00        0.00      35.72       1.43       0.06       0.04       ----

> <Gold.Chemscore.Fitness>
15.9082

> <Gold.Chemscore.DG>
-16.0062

> <Gold.Chemscore.ZeroCoef>
-5.4800

> <Gold.Chemscore.Hbond>
2.9965

> <Gold.Chemscore.Metal>
0.0000

> <Gold.Chemscore.Lipo>
35.7230

> <Gold.Chemscore.Internal_Hbond>
0.0000

> <Gold.Chemscore.DEClash>
0.0580

> <Gold.Chemscore.DEInternal>
0.0400

> <Gold.Chemscore.Rot>
1.4304

> <Gold.Chemscore.Internal.Correction>
   9.000000E+99

> <Gold.Chemscore.Hbonds>
donor molecule, donor type, donor heavy atom, donor atom, acceptor molecule, acceptor atom, score
      L1  H     6    17       P1  7948  1.00
      L1  H     6    24       P1  7957  0.95
      L1  H     8    21       P1  7948  0.98
      P1  H  7989  7998       L1    10  0.06

> <Gold.Chemscore.Hbond.Weighted>
-10.0084

> <Gold.Chemscore.Metal.Weighted>
-0.0000

> <Gold.Chemscore.Lipo.Weighted>
-4.1796

> <Gold.Chemscore.Internal_Hbond.Weighted>
0.0000

> <Gold.Chemscore.DEClash.Weighted>
0.0580

> <Gold.Chemscore.DEInternal.Weighted>
0.0400

> <Gold.Chemscore.Rot.Weighted>
3.6618

> <Gold.Chemscore.Internal.Correction.Weighted>
   9.000000E+99

> <Gold.Protein.RotatedTorsions>
[ 6907 6896 6895 6894 ] final   54.60 input  -60.11 | X-H torsion
[ 7974 7965 7964 7962 ] final   38.76 input  175.53 | X-H torsion
[ 8008 7997 7996 7995 ] final -110.17 input   59.86 | X-H torsion
[ 10167 10162 10161 10158 ] final  159.65 input  -65.29 | X-H torsion
[ 10718 10713 10712 10709 ] final  -40.04 input   66.30 | X-H torsion
[ 10763 10752 10751 10750 ] final -165.65 input  -60.55 | X-H torsion
[ 11005 11000 10999 10996 ] final  -70.81 input  -57.11 | X-H torsion

> <Gold.Protein.ActiveResidues>
 VAL166  LYS551  ARG553  GLY616  TRP617  ASP618  TYR619  PRO620  LYS621  CYS622 
 ASP623  PHE694  ASN695  SER759  ASP760  ASP761  ALA762  ILE779  LEU786  VAL792 
 PHE793  MET794  SER795  GLU796  ALA797  LYS798  CYS799  TRP800  GLU811  SER814 

> <Gold.Protein.RotatedAtoms>
  152.3455  134.7076  160.0251 H   0  0  0  0  0  0  0  0  0  0  0  0  # atno 6907 bound_to 6896
  151.7447  133.3318  159.3383 H   0  0  0  0  0  0  0  0  0  0  0  0  # atno 6908 bound_to 6896
  150.7506  134.6179  159.6165 H   0  0  0  0  0  0  0  0  0  0  0  0  # atno 6909 bound_to 6896
  146.1037  139.5733  142.9398 H   0  0  0  0  0  0  0  0  0  0  0  0  # atno 7974 bound_to 7965
  154.9704  140.0397  157.2232 H   0  0  0  0  0  0  0  0  0  0  0  0  # atno 8008 bound_to 7997
  154.7806  140.2818  155.6044 H   0  0  0  0  0  0  0  0  0  0  0  0  # atno 8009 bound_to 7997
  156.2935  140.2592  156.2630 H   0  0  0  0  0  0  0  0  0  0  0  0  # atno 8010 bound_to 7997
  139.4834  144.4709  151.8577 H   0  0  0  0  0  0  0  0  0  0  0  0  # atno 10167 bound_to 10162
  156.2857  130.4222  149.8290 H   0  0  0  0  0  0  0  0  0  0  0  0  # atno 10718 bound_to 10713
  154.6911  135.2971  154.9478 H   0  0  0  0  0  0  0  0  0  0  0  0  # atno 10763 bound_to 10752
  154.0441  135.6653  153.4797 H   0  0  0  0  0  0  0  0  0  0  0  0  # atno 10764 bound_to 10752
  153.0613  135.5114  154.8003 H   0  0  0  0  0  0  0  0  0  0  0  0  # atno 10765 bound_to 10752
  141.1581  133.6800  156.6810 H   0  0  0  0  0  0  0  0  0  0  0  0  # atno 11005 bound_to 11000
  145.5804  141.0383  143.2125 LP  0  0  0  0  0  0  0  0  0  0  0  0  # atno 17320 bound_to 7965
  144.7453  139.7337  143.7295 LP  0  0  0  0  0  0  0  0  0  0  0  0  # atno 17321 bound_to 7965
  140.4178  144.2284  150.5887 LP  0  0  0  0  0  0  0  0  0  0  0  0  # atno 17342 bound_to 10162
  140.4904  143.2349  151.8827 LP  0  0  0  0  0  0  0  0  0  0  0  0  # atno 17343 bound_to 10162
  156.5721  130.8429  151.3359 LP  0  0  0  0  0  0  0  0  0  0  0  0  # atno 17370 bound_to 10713
  157.7328  130.9720  150.1945 LP  0  0  0  0  0  0  0  0  0  0  0  0  # atno 17371 bound_to 10713
  140.3102  134.8092  157.4170 LP  0  0  0  0  0  0  0  0  0  0  0  0  # atno 17394 bound_to 11000
  140.1185  134.5251  155.8204 LP  0  0  0  0  0  0  0  0  0  0  0  0  # atno 17395 bound_to 11000

$$$$
