AV-unprocessed.smi:282|AV-procd|sdf|2122|dock10
  -GOLD-   2262021423D 1   1.00000     0.00000
 Structure written by MMmdl.
 65 69  0  0  0  0  0  0  0  0  2 V2000
  141.8642  136.9205  153.6577 C   0  0  0  0  0  0  0  0  0  0  0  0
  143.3776  136.6827  153.7575 C   0  0  0  0  0  0  0  0  0  0  0  0
  143.7874  135.1852  153.7464 C   0  0  1  0  0  0  0  0  0  0  0  0
  143.3611  134.5217  152.4152 C   0  0  0  0  0  0  0  0  0  0  0  0
  143.8268  133.1155  152.3054 N   0  3  1  0  0  0  0  0  0  0  0  0
  143.3736  132.4355  151.0632 C   0  0  0  0  0  0  0  0  0  0  0  0
  144.1708  132.8924  149.8253 C   0  0  0  0  0  0  0  0  0  0  0  0
  145.6806  132.7241  150.0455 C   0  0  0  0  0  0  0  0  0  0  0  0
  146.1181  133.4364  151.3334 C   0  0  0  0  0  0  0  0  0  0  0  0
  145.2873  132.9502  152.5409 C   0  0  1  0  0  0  0  0  0  0  0  0
  145.7051  133.6189  153.8599 C   0  0  0  0  0  0  0  0  0  0  0  0
  145.2313  134.9970  153.9541 N   0  0  0  0  0  0  0  0  0  0  0  0
  145.7943  135.5932  155.0318 C   0  0  0  0  0  0  0  0  0  0  0  0
  145.5882  135.0913  156.2782 N   0  0  0  0  0  0  0  0  0  0  0  0
  146.1638  135.6743  157.3343 C   0  0  0  0  0  0  0  0  0  0  0  0
  146.9678  136.7393  157.3642 N   0  0  0  0  0  0  0  0  0  0  0  0
  147.1832  137.2379  156.1132 C   0  0  0  0  0  0  0  0  0  0  0  0
  146.6454  136.7216  154.9019 C   0  0  0  0  0  0  0  0  0  0  0  0
  147.0941  137.4685  153.8212 N   0  0  0  0  0  0  0  0  0  0  0  0
  147.8568  138.3779  154.3642 C   0  0  0  0  0  0  0  0  0  0  0  0
  147.9502  138.3284  155.7384 N   0  0  0  0  0  0  0  0  0  0  0  0
  148.7286  139.2173  156.5912 C   0  0  0  0  0  0  0  0  0  0  0  0
  149.4560  140.3854  155.8512 C   0  0  0  0  0  0  0  0  0  0  0  0
  148.3945  141.2438  155.1067 C   0  0  0  0  0  0  0  0  0  0  0  0
  148.9545  142.2797  154.3239 O   0  0  0  0  0  0  0  0  0  0  0  0
  150.2573  141.2792  156.8329 C   0  0  0  0  0  0  0  0  0  0  0  0
  151.4916  140.5628  157.4117 C   0  0  0  0  0  0  0  0  0  0  0  0
  152.3291  140.1085  156.3562 O   0  0  0  0  0  0  0  0  0  0  0  0
  151.6918  139.1527  155.5180 C   0  0  0  0  0  0  0  0  0  0  0  0
  150.4647  139.7866  154.8361 C   0  0  0  0  0  0  0  0  0  0  0  0
  141.6334  137.9784  153.7846 H   0  0  0  0  0  0  0  0  0  0  0  0
  141.3272  136.3709  154.4312 H   0  0  0  0  0  0  0  0  0  0  0  0
  141.4672  136.6189  152.6888 H   0  0  0  0  0  0  0  0  0  0  0  0
  143.8831  137.2113  152.9485 H   0  0  0  0  0  0  0  0  0  0  0  0
  143.7088  137.1645  154.6767 H   0  0  0  0  0  0  0  0  0  0  0  0
  143.2692  134.6754  154.5602 H   0  0  0  0  0  0  0  0  0  0  0  0
  142.2749  134.5248  152.3266 H   0  0  0  0  0  0  0  0  0  0  0  0
  143.7449  135.1057  151.5784 H   0  0  0  0  0  0  0  0  0  0  0  0
  143.4985  131.3602  151.1970 H   0  0  0  0  0  0  0  0  0  0  0  0
  142.3060  132.6024  150.9133 H   0  0  0  0  0  0  0  0  0  0  0  0
  143.8591  132.3170  148.9533 H   0  0  0  0  0  0  0  0  0  0  0  0
  143.9464  133.9344  149.5953 H   0  0  0  0  0  0  0  0  0  0  0  0
  145.9248  131.6631  150.1129 H   0  0  0  0  0  0  0  0  0  0  0  0
  146.2329  133.1169  149.1911 H   0  0  0  0  0  0  0  0  0  0  0  0
  147.1773  133.2481  151.5117 H   0  0  0  0  0  0  0  0  0  0  0  0
  146.0188  134.5154  151.2105 H   0  0  0  0  0  0  0  0  0  0  0  0
  145.4743  131.8810  152.6518 H   0  0  0  0  0  0  0  0  0  0  0  0
  145.2916  133.0540  154.6971 H   0  0  0  0  0  0  0  0  0  0  0  0
  146.7908  133.5780  153.9641 H   0  0  0  0  0  0  0  0  0  0  0  0
  145.9512  135.2227  158.2922 H   0  0  0  0  0  0  0  0  0  0  0  0
  148.3695  139.1231  153.7729 H   0  0  0  0  0  0  0  0  0  0  0  0
  148.0633  139.5900  157.3683 H   0  0  0  0  0  0  0  0  0  0  0  0
  149.4644  138.6043  157.1139 H   0  0  0  0  0  0  0  0  0  0  0  0
  147.7909  140.6157  154.4507 H   0  0  0  0  0  0  0  0  0  0  0  0
  147.7109  141.7150  155.8125 H   0  0  0  0  0  0  0  0  0  0  0  0
  148.7008  143.1095  154.6986 H   0  0  0  0  0  0  0  0  0  0  0  0
  150.6141  142.1699  156.3150 H   0  0  0  0  0  0  0  0  0  0  0  0
  149.6209  141.6462  157.6375 H   0  0  0  0  0  0  0  0  0  0  0  0
  152.0608  141.2535  158.0337 H   0  0  0  0  0  0  0  0  0  0  0  0
  151.2128  139.7267  158.0523 H   0  0  0  0  0  0  0  0  0  0  0  0
  152.4056  138.8269  154.7614 H   0  0  0  0  0  0  0  0  0  0  0  0
  151.4244  138.2648  156.0915 H   0  0  0  0  0  0  0  0  0  0  0  0
  149.9727  139.0526  154.1969 H   0  0  0  0  0  0  0  0  0  0  0  0
  150.8352  140.5633  154.1669 H   0  0  0  0  0  0  0  0  0  0  0  0
  143.3716  132.6319  153.0663 H   0  0  0  0  0  0  0  0  0  0  0  0
  1  2  1  0  0  0  0
  1 31  1  0  0  0  0
  1 32  1  0  0  0  0
  1 33  1  0  0  0  0
  2  3  1  0  0  0  0
  2 34  1  0  0  0  0
  2 35  1  0  0  0  0
  3 12  1  0  0  0  0
  3  4  1  0  0  0  0
  3 36  1  0  0  0  0
  4  5  1  0  0  0  0
  4 37  1  0  0  0  0
  4 38  1  0  0  0  0
  5 10  1  0  0  0  0
  5  6  1  0  0  0  0
  5 65  1  0  0  0  0
  6  7  1  0  0  0  0
  6 39  1  0  0  0  0
  6 40  1  0  0  0  0
  7  8  1  0  0  0  0
  7 41  1  0  0  0  0
  7 42  1  0  0  0  0
  8  9  1  0  0  0  0
  8 43  1  0  0  0  0
  8 44  1  0  0  0  0
  9 10  1  0  0  0  0
  9 45  1  0  0  0  0
  9 46  1  0  0  0  0
 10 11  1  0  0  0  0
 10 47  1  0  0  0  0
 11 12  1  0  0  0  0
 11 48  1  0  0  0  0
 11 49  1  0  0  0  0
 12 13  1  0  0  0  0
 13 18  1  0  0  0  0
 13 14  2  0  0  0  0
 14 15  1  0  0  0  0
 15 16  2  0  0  0  0
 15 50  1  0  0  0  0
 16 17  1  0  0  0  0
 17 21  1  0  0  0  0
 17 18  2  0  0  0  0
 18 19  1  0  0  0  0
 19 20  2  0  0  0  0
 20 21  1  0  0  0  0
 20 51  1  0  0  0  0
 21 22  1  0  0  0  0
 22 23  1  0  0  0  0
 22 52  1  0  0  0  0
 22 53  1  0  0  0  0
 23 30  1  0  0  0  0
 23 24  1  0  0  0  0
 23 26  1  0  0  0  0
 24 25  1  0  0  0  0
 24 54  1  0  0  0  0
 24 55  1  0  0  0  0
 25 56  1  0  0  0  0
 26 27  1  0  0  0  0
 26 57  1  0  0  0  0
 26 58  1  0  0  0  0
 27 28  1  0  0  0  0
 27 59  1  0  0  0  0
 27 60  1  0  0  0  0
 28 29  1  0  0  0  0
 29 30  1  0  0  0  0
 29 61  1  0  0  0  0
 29 62  1  0  0  0  0
 30 63  1  0  0  0  0
 30 64  1  0  0  0  0
M  CHG  1   5   1
M  END
> <s_m_source_file>
AV-unprocessed.smi

> <i_m_source_file_index>
282

> <i_lp_mmshare_version>
43012

> <i_f3d_flags>
0

> <s_epik_input>
W0NIMl0xW0NIMl1bQ0gyXVtDSDJdW0NAQEhdKE4xMilbQ0gyXU4oW0NAQEhdKFtDSDJdMilbQ0gyXVtDSDNdKWMobltjSF1uMyljKGMzNCluW2NIXW40W0NIMl1DNShbQ0gyXVtPSF0pW0NIMl1bQ0gyXU9bQ0gyXVtDSDJdNQ==

> <s_epik_cmdline>
J2VwaWtfcHl0aG9uJywgJy1waCcsICc3LjAnLCAnLXRuJywgJzgnLCAnLW1hJywgJzIwMCcsICctbWV0YWxfYmluZGluZycsICctaW1hZScsICc8aW5maWxlLm1hZT4nLCAnLW9tYWUnLCAnPG91dGZpbGUubWFlPic=

> <r_lp_tautomer_probability>
1

> <r_epik_Ionization_Penalty>
0.00308583

> <r_epik_Ionization_Penalty_Charging>
0.00300384

> <r_epik_Ionization_Penalty_Neutral>
8.19894e-05

> <r_epik_State_Penalty>
-0

> <r_epik_Charging_Adjusted_Penalty>
0.00300384

> <i_epik_Tot_Q>
1

> <i_epik_Tot_abs_Q>
1

> <r_epik_Metal_State_Penalty>
-0

> <b_epik_Metal_Only>
0

> <s_lp_Force_Field>
OPLS_2005

> <r_lp_Energy>
60.0912

> <b_lp_Chiralities_Consistent>
1

> <s_lp_Variant>
AV-unprocessed.smi:282-6

> <Gold.Version>
5.8.1

> <Gold.Id.Protein>
6NUR|6NUR_protein|mol2

> <Gold.PLP.Fitness>
48.4635

> <Gold.PLP.PLP>
-35.6586

> <Gold.PLP.part.hbond>
-4.3875

> <Gold.PLP.part.metal>
0.0000

> <Gold.PLP.part.buried>
-4.7592

> <Gold.PLP.part.nonpolar>
-28.5711

> <Gold.PLP.part.repulsive>
1.7678

> <Gold.PLP.ligand.clash>
0.0000

> <Gold.PLP.ligand.torsion>
0.1813

> <Gold.PLP.Chemscore.Hbond>
4.3040

> <Gold.PLP.Chemscore.CHOScore>
0.0000

> <Gold.PLP.Chemscore.Metal>
0.0000

> <Gold.Chemscore.Hbonds>
donor molecule, donor type, donor heavy atom, donor atom, acceptor molecule, acceptor atom, score
      L1  H     5    65       P1 10957  1.78
      L1  H    25    56       P1  8028  1.00
      P1  H  7997  8008       L1    28  1.00
      P1  H  8011  8017       L1    25  0.17

> <Gold.PLP.Chemscore.Internal.Correction>
0.2554

> <Gold.Rescore>
     Score         DG    S(hbond)    S(metal)    S(lipo)     H(rot)  DE(clash)    DE(int)     intcor
     16.86     -19.23       2.92        0.00      88.07       2.46       0.04       2.34       ----

> <Gold.Chemscore.Fitness>
16.8580

> <Gold.Chemscore.DG>
-19.2319

> <Gold.Chemscore.ZeroCoef>
-5.4800

> <Gold.Chemscore.Hbond>
2.9160

> <Gold.Chemscore.Metal>
0.0000

> <Gold.Chemscore.Lipo>
88.0672

> <Gold.Chemscore.Internal_Hbond>
0.0000

> <Gold.Chemscore.DEClash>
0.0379

> <Gold.Chemscore.DEInternal>
2.3360

> <Gold.Chemscore.Rot>
2.4576

> <Gold.Chemscore.Internal.Correction>
   9.000000E+99

> <Gold.Chemscore.Hbonds>
donor molecule, donor type, donor heavy atom, donor atom, acceptor molecule, acceptor atom, score
      L1  H     5    65       P1 10957  0.17
      L1  H    25    56       P1  8028  0.99
      P1  H  7997  8008       L1    28  0.91
      P1  H  8011  8017       L1    25  0.14

> <Gold.Chemscore.Hbond.Weighted>
-9.7396

> <Gold.Chemscore.Metal.Weighted>
-0.0000

> <Gold.Chemscore.Lipo.Weighted>
-10.3039

> <Gold.Chemscore.Internal_Hbond.Weighted>
0.0000

> <Gold.Chemscore.DEClash.Weighted>
0.0379

> <Gold.Chemscore.DEInternal.Weighted>
2.3360

> <Gold.Chemscore.Rot.Weighted>
6.2915

> <Gold.Chemscore.Internal.Correction.Weighted>
   9.000000E+99

> <Gold.Protein.RotatedTorsions>
[ 6907 6896 6895 6894 ] final  -77.23 input  -60.11 | X-H torsion
[ 7974 7965 7964 7962 ] final  -48.24 input  175.53 | X-H torsion
[ 8008 7997 7996 7995 ] final  -48.49 input   59.86 | X-H torsion
[ 10167 10162 10161 10158 ] final    8.99 input  -65.29 | X-H torsion
[ 10718 10713 10712 10709 ] final  -41.21 input   66.30 | X-H torsion
[ 10763 10752 10751 10750 ] final -123.17 input  -60.55 | X-H torsion
[ 11005 11000 10999 10996 ] final   52.54 input  -57.11 | X-H torsion

> <Gold.Protein.ActiveResidues>
 VAL166  LYS551  ARG553  GLY616  TRP617  ASP618  TYR619  PRO620  LYS621  CYS622 
 ASP623  PHE694  ASN695  SER759  ASP760  ASP761  ALA762  ILE779  LEU786  VAL792 
 PHE793  MET794  SER795  GLU796  ALA797  LYS798  CYS799  TRP800  GLU811  SER814 

> <Gold.Protein.RotatedAtoms>
  150.7004  134.4453  159.5311 H   0  0  0  0  0  0  0  0  0  0  0  0  # atno 6907 bound_to 6896
  152.2156  134.8458  160.0501 H   0  0  0  0  0  0  0  0  0  0  0  0  # atno 6908 bound_to 6896
  151.9327  133.3581  159.3973 H   0  0  0  0  0  0  0  0  0  0  0  0  # atno 6909 bound_to 6896
  145.9533  140.7551  142.9494 H   0  0  0  0  0  0  0  0  0  0  0  0  # atno 7974 bound_to 7965
  154.4030  140.1320  156.4347 H   0  0  0  0  0  0  0  0  0  0  0  0  # atno 8008 bound_to 7997
  155.7517  140.3488  155.5133 H   0  0  0  0  0  0  0  0  0  0  0  0  # atno 8009 bound_to 7997
  155.8943  140.1008  157.1386 H   0  0  0  0  0  0  0  0  0  0  0  0  # atno 8010 bound_to 7997
  140.6281  143.8055  150.7260 H   0  0  0  0  0  0  0  0  0  0  0  0  # atno 10167 bound_to 10162
  156.2729  130.4208  149.8419 H   0  0  0  0  0  0  0  0  0  0  0  0  # atno 10718 bound_to 10713
  154.8703  135.4107  154.2900 H   0  0  0  0  0  0  0  0  0  0  0  0  # atno 10763 bound_to 10752
  153.3778  135.7010  153.6594 H   0  0  0  0  0  0  0  0  0  0  0  0  # atno 10764 bound_to 10752
  153.5429  135.3644  155.2698 H   0  0  0  0  0  0  0  0  0  0  0  0  # atno 10765 bound_to 10752
  140.0840  134.5299  155.8917 H   0  0  0  0  0  0  0  0  0  0  0  0  # atno 11005 bound_to 11000
  144.6800  140.2470  143.7336 LP  0  0  0  0  0  0  0  0  0  0  0  0  # atno 17320 bound_to 7965
  145.8141  139.2016  143.1976 LP  0  0  0  0  0  0  0  0  0  0  0  0  # atno 17321 bound_to 7965
  140.1660  143.4235  152.2034 LP  0  0  0  0  0  0  0  0  0  0  0  0  # atno 17342 bound_to 10162
  139.5499  144.7329  151.4468 LP  0  0  0  0  0  0  0  0  0  0  0  0  # atno 17343 bound_to 10162
  156.5894  130.8500  151.3404 LP  0  0  0  0  0  0  0  0  0  0  0  0  # atno 17370 bound_to 10713
  157.7290  130.9664  150.1766 LP  0  0  0  0  0  0  0  0  0  0  0  0  # atno 17371 bound_to 10713
  141.2056  133.6648  156.6193 LP  0  0  0  0  0  0  0  0  0  0  0  0  # atno 17394 bound_to 11000
  140.3446  134.7820  157.4423 LP  0  0  0  0  0  0  0  0  0  0  0  0  # atno 17395 bound_to 11000

$$$$
