#       Name:                AV-unprocessed.smi:528
#       Creating user name   scv26
#       Creation time:       Thu Mar 26 23:32:12 2020


#       File generated by GOLD software.
#

@<TRIPOS>MOLECULE
AV-unprocessed.smi:528
    49    51     1
SMALL
NO_CHARGES


@<TRIPOS>ATOM
      1 ****        -1.8811  -1.6917  -1.8000 C.3            1 S1                 0.0000
      2 ****        -1.4752  -0.9404  -0.5198 C.3            1 S1                 0.0000
      3 ****        -0.0152  -0.9068  -0.4451 N.am           1 S1                 0.0000
      4 ****         0.7692   0.0932  -0.8753 C.2            1 S1                 0.0000
      5 ****         0.3303   1.1303  -1.3746 O.2            1 S1                 0.0000
      6 ****         2.2795  -0.1232  -0.6992 C.3            1 S1                 0.0000
      7 ****         3.1062   0.8650  -1.4132 N.am           1 S1                 0.0000
      8 ****         3.6044   1.9472  -0.6612 C.2            1 S1                 0.0000
      9 ****         4.3837   2.9105  -1.1895 C.2            1 S1                 0.0000
     10 ****         4.8610   4.0960  -0.3650 C.3            1 S1                 0.0000
     11 ****         5.0356   5.1737  -1.1301 F              1 S1                 0.0000
     12 ****         3.9860   4.4004   0.5943 F              1 S1                 0.0000
     13 ****         6.0253   3.8050   0.2136 F              1 S1                 0.0000
     14 ****         4.6676   2.8049  -2.6072 C.2            1 S1                 0.0000
     15 ****         4.1888   1.7833  -3.3438 C.2            1 S1                 0.0000
     16 ****         3.3608   0.7314  -2.7495 C.2            1 S1                 0.0000
     17 ****         2.9222  -0.2099  -3.4112 O.2            1 S1                 0.0000
     18 ****        -2.0444  -1.5856   0.7682 C.3            1 S1                 0.0000
     19 ****        -1.6178  -0.8542   2.0665 C.3            1 S1                 0.0000
     20 ****        -2.9557  -0.5692   2.7715 C.3            1 S1                 0.0000
     21 ****        -3.5664  -1.8908   3.2714 C.3            1 S1                 0.0000
     22 ****        -4.0309  -2.5623   1.9659 C.3            1 S1                 0.0000
     23 ****        -3.5898  -1.5532   0.8880 C.3            1 S1                 0.0000
     24 ****        -3.8555  -0.2265   1.5925 C.3            1 S1                 0.0000
     25 ****        -2.9578  -1.6687  -1.9610 H              1 S1                 0.0000
     26 ****        -1.5707  -2.7364  -1.7624 H              1 S1                 0.0000
     27 ****        -1.4203  -1.2416  -2.6801 H              1 S1                 0.0000
     28 ****        -1.8579   0.0791  -0.5891 H              1 S1                 0.0000
     29 ****         0.4338  -1.7167  -0.0425 H              1 S1                 0.0000
     30 ****         2.5023  -0.1085   0.3686 H              1 S1                 0.0000
     31 ****         2.5360  -1.1320  -1.0288 H              1 S1                 0.0000
     32 ****         3.3052   1.9485   0.3770 H              1 S1                 0.0000
     33 ****         5.2769   3.5568  -3.0869 H              1 S1                 0.0000
     34 ****         4.4212   1.7366  -4.3975 H              1 S1                 0.0000
     35 ****        -1.6998  -2.6206   0.8049 H              1 S1                 0.0000
     36 ****        -0.9459  -1.4560   2.6791 H              1 S1                 0.0000
     37 ****        -1.1100   0.0868   1.8494 H              1 S1                 0.0000
     38 ****        -2.8896   0.2016   3.5399 H              1 S1                 0.0000
     39 ****        -2.8439  -2.4977   3.8182 H              1 S1                 0.0000
     40 ****        -4.4156  -1.7043   3.9299 H              1 S1                 0.0000
     41 ****        -3.5893  -3.5490   1.8226 H              1 S1                 0.0000
     42 ****        -5.1153  -2.6804   1.9628 H              1 S1                 0.0000
     43 ****        -4.1256  -1.6835  -0.0512 H              1 S1                 0.0000
     44 ****        -4.9013  -0.0879   1.8735 H              1 S1                 0.0000
     45 ****        -3.5199   0.6448   1.0279 H              1 S1                 0.0000
     46 ****        -0.6564   1.2580  -1.4757 LP             1 S1                 0.0000
     47 ****         0.9606   1.8445  -1.6789 LP             1 S1                 0.0000
     48 ****         2.3586  -0.9098  -2.9725 LP             1 S1                 0.0000
     49 ****         3.1295  -0.2743  -4.3874 LP             1 S1                 0.0000
@<TRIPOS>BOND
    1    1    2 1     
    2    1   25 1     
    3    1   26 1     
    4    1   27 1     
    5    2    3 1     
    6    2   18 1     
    7    2   28 1     
    8    3    4 am    
    9    3   29 1     
   10    4    5 2     
   11    4    6 1     
   12    6    7 1     
   13    6   30 1     
   14    6   31 1     
   15    7   16 am    
   16    7    8 1     
   17    8    9 2     
   18    8   32 1     
   19    9   10 1     
   20    9   14 1     
   21   10   11 1     
   22   10   12 1     
   23   10   13 1     
   24   14   15 2     
   25   14   33 1     
   26   15   16 1     
   27   15   34 1     
   28   16   17 2     
   29   18   23 1     
   30   18   19 1     
   31   18   35 1     
   32   19   20 1     
   33   19   36 1     
   34   19   37 1     
   35   20   24 1     
   36   20   21 1     
   37   20   38 1     
   38   21   22 1     
   39   21   39 1     
   40   21   40 1     
   41   22   23 1     
   42   22   41 1     
   43   22   42 1     
   44   23   24 1     
   45   23   43 1     
   46   24   44 1     
   47   24   45 1     
   48    5   46 1     
   49    5   47 1     
   50   17   48 1     
   51   17   49 1     
@<TRIPOS>SUBSTRUCTURE
      1 S1             1
@<TRIPOS>SET
LONE_PAIRS      STATIC     ATOMS    <user>   **** ""
4 46 47 48 49
DONOR_HYDROGENS      STATIC     ATOMS    <user>   **** ""
1 29
ATOM$BLUE        STATIC     ATOMS    COLORGROUP SYSTEM
4 46 47 48 49
ATOM$RED        STATIC     ATOMS    COLORGROUP SYSTEM
1 29
