AV-unprocessed.smi:456|AV-procd|sdf|2615|dock3
  -GOLD-   2262023 13D 1   1.00000     0.00000
 Structure written by MMmdl.
 32 34  0  0  0  0  0  0  0  0  1 V2000
  148.9727  142.6452  157.1598 O   0  0  0  0  0  0  0  0  0  0  0  0
  150.1235  141.8342  157.2799 C   0  0  2  0  0  0  0  0  0  0  0  0
  151.3531  142.7559  157.4036 C   0  0  0  0  0  0  0  0  0  0  0  0
  151.3824  143.4639  158.6711 N   0  0  0  0  0  0  0  0  0  0  0  0
  150.7360  144.6054  158.9755 C   0  0  0  0  0  0  0  0  0  0  0  0
  150.8872  145.0813  160.2081 N   0  0  0  0  0  0  0  0  0  0  0  0
  151.7320  144.1394  160.7699 C   0  0  0  0  0  0  0  0  0  0  0  0
  152.2771  144.0568  162.0711 C   0  0  0  0  0  0  0  0  0  0  0  0
  153.1241  142.9859  162.4250 C   0  0  0  0  0  0  0  0  0  0  0  0
  153.6368  142.9215  163.6768 F   0  0  0  0  0  0  0  0  0  0  0  0
  153.4393  141.9834  161.4838 C   0  0  0  0  0  0  0  0  0  0  0  0
  154.2518  140.9575  161.8317 F   0  0  0  0  0  0  0  0  0  0  0  0
  152.9102  142.0461  160.1808 C   0  0  0  0  0  0  0  0  0  0  0  0
  152.0640  143.1152  159.8327 C   0  0  0  0  0  0  0  0  0  0  0  0
  150.2545  140.8464  156.1284 C   0  0  0  0  0  0  0  0  0  0  0  0
  149.2346  140.7588  155.1561 C   0  0  0  0  0  0  0  0  0  0  0  0
  149.3330  139.8261  154.1056 C   0  0  0  0  0  0  0  0  0  0  0  0
  150.4523  138.9763  154.0201 C   0  0  0  0  0  0  0  0  0  0  0  0
  151.4736  139.0598  154.9856 C   0  0  0  0  0  0  0  0  0  0  0  0
  151.3753  139.9915  156.0372 C   0  0  0  0  0  0  0  0  0  0  0  0
  148.5906  142.4981  156.3080 H   0  0  0  0  0  0  0  0  0  0  0  0
  150.0082  141.2732  158.2084 H   0  0  0  0  0  0  0  0  0  0  0  0
  152.2786  142.1893  157.2917 H   0  0  0  0  0  0  0  0  0  0  0  0
  151.3463  143.5000  156.6057 H   0  0  0  0  0  0  0  0  0  0  0  0
  150.1147  145.1129  158.2519 H   0  0  0  0  0  0  0  0  0  0  0  0
  152.0428  144.8181  162.8000 H   0  0  0  0  0  0  0  0  0  0  0  0
  153.1478  141.2780  159.4601 H   0  0  0  0  0  0  0  0  0  0  0  0
  148.3675  141.3998  155.2188 H   0  0  0  0  0  0  0  0  0  0  0  0
  148.5478  139.7600  153.3670 H   0  0  0  0  0  0  0  0  0  0  0  0
  150.5266  138.2597  153.2154 H   0  0  0  0  0  0  0  0  0  0  0  0
  152.3311  138.4063  154.9222 H   0  0  0  0  0  0  0  0  0  0  0  0
  152.1585  140.0405  156.7794 H   0  0  0  0  0  0  0  0  0  0  0  0
  1  2  1  0  0  0  0
  1 21  1  0  0  0  0
  2  3  1  0  0  0  0
  2 15  1  0  0  0  0
  2 22  1  0  0  0  0
  3  4  1  0  0  0  0
  3 23  1  0  0  0  0
  3 24  1  0  0  0  0
  4 14  1  0  0  0  0
  4  5  1  0  0  0  0
  5  6  2  0  0  0  0
  5 25  1  0  0  0  0
  6  7  1  0  0  0  0
  7 14  2  0  0  0  0
  7  8  1  0  0  0  0
  8  9  2  0  0  0  0
  8 26  1  0  0  0  0
  9 10  1  0  0  0  0
  9 11  1  0  0  0  0
 11 12  1  0  0  0  0
 11 13  2  0  0  0  0
 13 14  1  0  0  0  0
 13 27  1  0  0  0  0
 15 20  1  0  0  0  0
 15 16  2  0  0  0  0
 16 17  1  0  0  0  0
 16 28  1  0  0  0  0
 17 18  2  0  0  0  0
 17 29  1  0  0  0  0
 18 19  1  0  0  0  0
 18 30  1  0  0  0  0
 19 20  2  0  0  0  0
 19 31  1  0  0  0  0
 20 32  1  0  0  0  0
M  END
> <s_m_source_file>
AV-unprocessed.smi

> <i_m_source_file_index>
456

> <i_lp_mmshare_version>
43012

> <i_f3d_flags>
0

> <s_epik_input>
W2NIXTFbY0hdW2NIXVtjSF1bY0hdYzFbQ0BIXShbT0hdKVtDSDJdbihbY0hdbjIpYyhjMjMpW2NIXWMoRiljKEYpW2NIXTM=

> <s_epik_cmdline>
J2VwaWtfcHl0aG9uJywgJy1waCcsICc3LjAnLCAnLXRuJywgJzgnLCAnLW1hJywgJzIwMCcsICctbWV0YWxfYmluZGluZycsICctaW1hZScsICc8aW5maWxlLm1hZT4nLCAnLW9tYWUnLCAnPG91dGZpbGUubWFlPic=

> <r_epik_Ionization_Penalty>
0.0156354

> <r_epik_Ionization_Penalty_Charging>
0

> <r_epik_Ionization_Penalty_Neutral>
0.0156354

> <r_epik_State_Penalty>
0.0122974

> <r_epik_Charging_Adjusted_Penalty>
0.0122974

> <i_epik_Tot_Q>
0

> <i_epik_Tot_abs_Q>
0

> <r_epik_Metal_State_Penalty>
1.24258e-05

> <b_epik_Metal_Only>
0

> <s_lp_Force_Field>
OPLS_2005

> <r_lp_Energy>
11.2052

> <b_lp_Chiralities_Consistent>
1

> <s_lp_Variant>
AV-unprocessed.smi:456-1

> <Gold.Version>
5.8.1

> <Gold.Id.Protein>
6NUR|6NUR_protein|mol2

> <Gold.PLP.Fitness>
55.0173

> <Gold.PLP.PLP>
-52.8193

> <Gold.PLP.part.hbond>
-1.0000

> <Gold.PLP.part.metal>
0.0000

> <Gold.PLP.part.buried>
-3.1106

> <Gold.PLP.part.nonpolar>
-48.6374

> <Gold.PLP.part.repulsive>
0.1841

> <Gold.PLP.ligand.clash>
0.0000

> <Gold.PLP.ligand.torsion>
0.4604

> <Gold.PLP.Chemscore.Hbond>
0.0000

> <Gold.PLP.Chemscore.CHOScore>
1.0347

> <Gold.PLP.Chemscore.Metal>
0.0000

> <Gold.Chemscore.Hbonds>
donor molecule, donor type, donor heavy atom, donor atom, acceptor molecule, acceptor atom, score
      L1  C     5    25       P1  8028  0.06
      L1  C     5    25       P1  8029  0.93

> <Gold.PLP.Chemscore.Internal.Correction>
0.0147

> <Gold.Rescore>
     Score         DG    S(hbond)    S(metal)    S(lipo)     H(rot)  DE(clash)    DE(int)     intcor
     14.80     -15.28       0.16        0.00     122.38       1.98       0.06       0.42       ----

> <Gold.Chemscore.Fitness>
14.8002

> <Gold.Chemscore.DG>
-15.2835

> <Gold.Chemscore.ZeroCoef>
-5.4800

> <Gold.Chemscore.Hbond>
0.1639

> <Gold.Chemscore.Metal>
0.0000

> <Gold.Chemscore.Lipo>
122.3833

> <Gold.Chemscore.Internal_Hbond>
0.0000

> <Gold.Chemscore.DEClash>
0.0618

> <Gold.Chemscore.DEInternal>
0.4216

> <Gold.Chemscore.Rot>
1.9776

> <Gold.Chemscore.Internal.Correction>
   9.000000E+99

> <Gold.Chemscore.Hbond.Weighted>
-0.5473

> <Gold.Chemscore.Metal.Weighted>
-0.0000

> <Gold.Chemscore.Lipo.Weighted>
-14.3189

> <Gold.Chemscore.Internal_Hbond.Weighted>
0.0000

> <Gold.Chemscore.DEClash.Weighted>
0.0618

> <Gold.Chemscore.DEInternal.Weighted>
0.4216

> <Gold.Chemscore.Rot.Weighted>
5.0626

> <Gold.Chemscore.Internal.Correction.Weighted>
   9.000000E+99

> <Gold.Protein.RotatedTorsions>
[ 6907 6896 6895 6894 ] final  139.12 input  -60.11 | X-H torsion
[ 7974 7965 7964 7962 ] final   13.19 input  175.53 | X-H torsion
[ 8008 7997 7996 7995 ] final   39.86 input   59.86 | X-H torsion
[ 10167 10162 10161 10158 ] final  178.32 input  -65.29 | X-H torsion
[ 10718 10713 10712 10709 ] final   72.84 input   66.30 | X-H torsion
[ 10763 10752 10751 10750 ] final   40.55 input  -60.55 | X-H torsion
[ 11005 11000 10999 10996 ] final   44.78 input  -57.11 | X-H torsion

> <Gold.Protein.ActiveResidues>
 VAL166  LYS551  ARG553  GLY616  TRP617  ASP618  TYR619  PRO620  LYS621  CYS622 
 ASP623  PHE694  ASN695  SER759  ASP760  ASP761  ALA762  ILE779  LEU786  VAL792 
 PHE793  MET794  SER795  GLU796  ALA797  LYS798  CYS799  TRP800  GLU811  SER814 

> <Gold.Protein.RotatedAtoms>
  152.2586  133.5277  159.5367 H   0  0  0  0  0  0  0  0  0  0  0  0  # atno 6907 bound_to 6896
  150.7117  134.0861  159.3924 H   0  0  0  0  0  0  0  0  0  0  0  0  # atno 6908 bound_to 6896
  151.8779  135.0465  160.0536 H   0  0  0  0  0  0  0  0  0  0  0  0  # atno 6909 bound_to 6896
  146.2335  139.9225  142.8508 H   0  0  0  0  0  0  0  0  0  0  0  0  # atno 7974 bound_to 7965
  155.2437  140.3347  155.4289 H   0  0  0  0  0  0  0  0  0  0  0  0  # atno 8008 bound_to 7997
  156.2245  140.1823  156.7441 H   0  0  0  0  0  0  0  0  0  0  0  0  # atno 8009 bound_to 7997
  154.5877  140.0643  156.9180 H   0  0  0  0  0  0  0  0  0  0  0  0  # atno 8010 bound_to 7997
  139.5289  144.2693  152.0641 H   0  0  0  0  0  0  0  0  0  0  0  0  # atno 10167 bound_to 10162
  157.6520  130.9598  150.0985 H   0  0  0  0  0  0  0  0  0  0  0  0  # atno 10718 bound_to 10713
  152.9933  135.6188  154.2645 H   0  0  0  0  0  0  0  0  0  0  0  0  # atno 10763 bound_to 10752
  154.2380  135.2789  155.2866 H   0  0  0  0  0  0  0  0  0  0  0  0  # atno 10764 bound_to 10752
  154.5394  135.5765  153.6884 H   0  0  0  0  0  0  0  0  0  0  0  0  # atno 10765 bound_to 10752
  140.1520  134.4450  155.8375 H   0  0  0  0  0  0  0  0  0  0  0  0  # atno 11005 bound_to 11000
  145.2123  140.9901  143.4093 LP  0  0  0  0  0  0  0  0  0  0  0  0  # atno 17320 bound_to 7965
  144.9681  139.3909  143.6323 LP  0  0  0  0  0  0  0  0  0  0  0  0  # atno 17321 bound_to 7965
  140.2154  144.4520  150.6366 LP  0  0  0  0  0  0  0  0  0  0  0  0  # atno 17342 bound_to 10162
  140.6453  143.2212  151.6199 LP  0  0  0  0  0  0  0  0  0  0  0  0  # atno 17343 bound_to 10162
  156.1914  130.3655  149.8905 LP  0  0  0  0  0  0  0  0  0  0  0  0  # atno 17370 bound_to 10713
  156.6832  130.8866  151.3578 LP  0  0  0  0  0  0  0  0  0  0  0  0  # atno 17371 bound_to 10713
  141.2200  133.6876  156.7439 LP  0  0  0  0  0  0  0  0  0  0  0  0  # atno 17394 bound_to 11000
  140.2593  134.8479  157.3743 LP  0  0  0  0  0  0  0  0  0  0  0  0  # atno 17395 bound_to 11000

$$$$
