AV-unprocessed.smi:1795|AV-procd|sdf|7246|dock3
  -GOLD-   22720 8493D 1   1.00000     0.00000
 Structure written by MMmdl.
 48 49  0  0  0  0  0  0  0  0  2 V2000
  148.6321  141.7012  154.4071 C   0  0  0  0  0  0  0  0  0  0  0  0
  149.0520  140.2742  154.7753 C   0  0  1  0  0  0  0  0  0  0  0  0
  148.6522  139.2542  153.6903 C   0  0  0  0  0  0  0  0  0  0  0  0
  149.1124  137.8830  154.0415 N   0  3  2  0  0  0  0  0  0  0  0  0
  148.3403  137.1443  155.0972 C   0  0  1  0  0  0  0  0  0  0  0  0
  146.8199  137.0753  154.8142 C   0  0  0  0  0  0  0  0  0  0  0  0
  148.9127  135.7153  155.2666 C   0  0  0  0  0  0  0  0  0  0  0  0
  148.7393  134.9049  154.0670 N   0  0  0  0  0  0  0  0  0  0  0  0
  148.1372  133.7074  154.0451 C   0  0  0  0  0  0  0  0  0  0  0  0
  147.6670  133.1752  155.0515 O   0  0  0  0  0  0  0  0  0  0  0  0
  148.0383  133.0296  152.6710 C   0  0  0  0  0  0  0  0  0  0  0  0
  146.6957  133.1134  152.0727 N   0  0  0  0  0  0  0  0  0  0  0  0
  146.1807  134.4030  151.8325 C   0  0  0  0  0  0  0  0  0  0  0  0
  144.9668  134.5935  151.2925 C   0  0  0  0  0  0  0  0  0  0  0  0
  144.1813  133.4310  150.9517 C   0  0  0  0  0  0  0  0  0  0  0  0
  144.6620  132.1931  151.1822 C   0  0  0  0  0  0  0  0  0  0  0  0
  145.9860  131.9803  151.7788 C   0  0  0  0  0  0  0  0  0  0  0  0
  146.4304  130.8532  152.0003 O   0  0  0  0  0  0  0  0  0  0  0  0
  150.5823  137.9186  154.2766 C   0  0  0  0  0  0  0  0  0  0  0  0
  150.9692  138.9876  155.3236 C   0  0  1  0  0  0  0  0  0  0  0  0
  152.4884  139.1075  155.4855 C   0  0  0  0  0  0  0  0  0  0  0  0
  150.4686  140.2551  154.9129 O   0  0  0  0  0  0  0  0  0  0  0  0
  147.5501  141.7756  154.2955 H   0  0  0  0  0  0  0  0  0  0  0  0
  149.0882  142.0183  153.4687 H   0  0  0  0  0  0  0  0  0  0  0  0
  148.9358  142.4083  155.1794 H   0  0  0  0  0  0  0  0  0  0  0  0
  148.5918  140.0131  155.7296 H   0  0  0  0  0  0  0  0  0  0  0  0
  147.5860  139.2921  153.4724 H   0  0  0  0  0  0  0  0  0  0  0  0
  149.1344  139.5335  152.7522 H   0  0  0  0  0  0  0  0  0  0  0  0
  148.4566  137.6722  156.0434 H   0  0  0  0  0  0  0  0  0  0  0  0
  146.2918  136.5001  155.5742 H   0  0  0  0  0  0  0  0  0  0  0  0
  146.6149  136.6061  153.8512 H   0  0  0  0  0  0  0  0  0  0  0  0
  146.3563  138.0616  154.8201 H   0  0  0  0  0  0  0  0  0  0  0  0
  149.9757  135.7696  155.5089 H   0  0  0  0  0  0  0  0  0  0  0  0
  148.4334  135.1869  156.0896 H   0  0  0  0  0  0  0  0  0  0  0  0
  149.0994  135.2759  153.1995 H   0  0  0  0  0  0  0  0  0  0  0  0
  148.7760  133.4890  152.0117 H   0  0  0  0  0  0  0  0  0  0  0  0
  148.3468  131.9862  152.7599 H   0  0  0  0  0  0  0  0  0  0  0  0
  146.8279  135.2185  152.1218 H   0  0  0  0  0  0  0  0  0  0  0  0
  144.5864  135.5898  151.1213 H   0  0  0  0  0  0  0  0  0  0  0  0
  143.2034  133.5550  150.5103 H   0  0  0  0  0  0  0  0  0  0  0  0
  144.0596  131.3352  150.9211 H   0  0  0  0  0  0  0  0  0  0  0  0
  150.9707  136.9457  154.5717 H   0  0  0  0  0  0  0  0  0  0  0  0
  151.0678  138.1532  153.3280 H   0  0  0  0  0  0  0  0  0  0  0  0
  150.5459  138.7384  156.2972 H   0  0  0  0  0  0  0  0  0  0  0  0
  152.9228  138.1649  155.8197 H   0  0  0  0  0  0  0  0  0  0  0  0
  152.7433  139.8690  156.2229 H   0  0  0  0  0  0  0  0  0  0  0  0
  152.9666  139.3821  154.5446 H   0  0  0  0  0  0  0  0  0  0  0  0
  148.9729  137.3385  153.2020 H   0  0  0  0  0  0  0  0  0  0  0  0
  1  2  1  0  0  0  0
  1 23  1  0  0  0  0
  1 24  1  0  0  0  0
  1 25  1  0  0  0  0
  2 22  1  0  0  0  0
  2  3  1  0  0  0  0
  2 26  1  0  0  0  0
  3  4  1  0  0  0  0
  3 27  1  0  0  0  0
  3 28  1  0  0  0  0
  4  5  1  0  0  0  0
  4 19  1  0  0  0  0
  4 48  1  0  0  0  0
  5  6  1  0  0  0  0
  5  7  1  0  0  0  0
  5 29  1  0  0  0  0
  6 30  1  0  0  0  0
  6 31  1  0  0  0  0
  6 32  1  0  0  0  0
  7  8  1  0  0  0  0
  7 33  1  0  0  0  0
  7 34  1  0  0  0  0
  8  9  1  0  0  0  0
  8 35  1  0  0  0  0
  9 10  2  0  0  0  0
  9 11  1  0  0  0  0
 11 12  1  0  0  0  0
 11 36  1  0  0  0  0
 11 37  1  0  0  0  0
 12 17  1  0  0  0  0
 12 13  1  0  0  0  0
 13 14  2  0  0  0  0
 13 38  1  0  0  0  0
 14 15  1  0  0  0  0
 14 39  1  0  0  0  0
 15 16  2  0  0  0  0
 15 40  1  0  0  0  0
 16 17  1  0  0  0  0
 16 41  1  0  0  0  0
 17 18  2  0  0  0  0
 19 20  1  0  0  0  0
 19 42  1  0  0  0  0
 19 43  1  0  0  0  0
 20 21  1  0  0  0  0
 20 22  1  0  0  0  0
 20 44  1  0  0  0  0
 21 45  1  0  0  0  0
 21 46  1  0  0  0  0
 21 47  1  0  0  0  0
M  CHG  1   4   1
M  END
> <s_m_source_file>
AV-unprocessed.smi

> <i_m_source_file_index>
1795

> <i_lp_mmshare_version>
43012

> <i_f3d_flags>
0

> <s_epik_input>
W0NIM11bQ0BASF0xW0NIMl1OKFtDSDJdW0NASF0oTzEpW0NIM10pW0NASF0oW0NIM10pW0NIMl1bTkhdQyg9TylbQ0gyXW4yW2NIXVtjSF1bY0hdW2NIXWMyPU8=

> <s_epik_cmdline>
J2VwaWtfcHl0aG9uJywgJy1waCcsICc3LjAnLCAnLXRuJywgJzgnLCAnLW1hJywgJzIwMCcsICctbWV0YWxfYmluZGluZycsICctaW1hZScsICc8aW5maWxlLm1hZT4nLCAnLW9tYWUnLCAnPG91dGZpbGUubWFlPic=

> <r_lp_tautomer_probability>
1

> <r_epik_Ionization_Penalty>
0.656654

> <r_epik_Ionization_Penalty_Charging>
0.656654

> <r_epik_Ionization_Penalty_Neutral>
8.90321e-08

> <r_epik_State_Penalty>
0.675641

> <r_epik_Charging_Adjusted_Penalty>
1.33229

> <i_epik_Tot_Q>
1

> <i_epik_Tot_abs_Q>
1

> <r_epik_Metal_State_Penalty>
0.675691

> <b_epik_Metal_Only>
0

> <s_lp_Force_Field>
OPLS_2005

> <r_lp_Energy>
32.8471

> <b_lp_Chiralities_Consistent>
1

> <s_lp_Variant>
AV-unprocessed.smi:1795-10

> <Gold.Version>
5.8.1

> <Gold.Id.Protein>
6NUR|6NUR_protein|mol2

> <Gold.PLP.Fitness>
51.7912

> <Gold.PLP.PLP>
-37.1766

> <Gold.PLP.part.hbond>
-3.0000

> <Gold.PLP.part.metal>
0.0000

> <Gold.PLP.part.buried>
-1.9693

> <Gold.PLP.part.nonpolar>
-32.8969

> <Gold.PLP.part.repulsive>
0.7491

> <Gold.PLP.ligand.clash>
0.0000

> <Gold.PLP.ligand.torsion>
0.2514

> <Gold.PLP.Chemscore.Hbond>
4.0000

> <Gold.PLP.Chemscore.CHOScore>
1.0000

> <Gold.PLP.Chemscore.Metal>
0.0000

> <Gold.Chemscore.Hbonds>
donor molecule, donor type, donor heavy atom, donor atom, acceptor molecule, acceptor atom, score
      L1  H     4    48       P1  7948  2.00
      L1  H     8    35       P1  7948  1.00
      P1  H  7989  7998       L1    22  1.00
      L1  C    13    38       P1  7948  1.00

> <Gold.PLP.Chemscore.Internal.Correction>
0.1175

> <Gold.Rescore>
     Score         DG    S(hbond)    S(metal)    S(lipo)     H(rot)  DE(clash)    DE(int)     intcor
     16.23     -17.29       2.41        0.00      73.42       1.89       0.95       0.11       ----

> <Gold.Chemscore.Fitness>
16.2332

> <Gold.Chemscore.DG>
-17.2881

> <Gold.Chemscore.ZeroCoef>
-5.4800

> <Gold.Chemscore.Hbond>
2.4099

> <Gold.Chemscore.Metal>
0.0000

> <Gold.Chemscore.Lipo>
73.4177

> <Gold.Chemscore.Internal_Hbond>
0.0000

> <Gold.Chemscore.DEClash>
0.9481

> <Gold.Chemscore.DEInternal>
0.1067

> <Gold.Chemscore.Rot>
1.8870

> <Gold.Chemscore.Internal.Correction>
   9.000000E+99

> <Gold.Chemscore.Hbonds>
donor molecule, donor type, donor heavy atom, donor atom, acceptor molecule, acceptor atom, score
      L1  H     4    48       P1  7948  1.00
      L1  H     8    35       P1  7948  0.25
      P1  H  7989  7998       L1    22  0.58

> <Gold.Chemscore.Hbond.Weighted>
-8.0490

> <Gold.Chemscore.Metal.Weighted>
-0.0000

> <Gold.Chemscore.Lipo.Weighted>
-8.5899

> <Gold.Chemscore.Internal_Hbond.Weighted>
0.0000

> <Gold.Chemscore.DEClash.Weighted>
0.9481

> <Gold.Chemscore.DEInternal.Weighted>
0.1067

> <Gold.Chemscore.Rot.Weighted>
4.8308

> <Gold.Chemscore.Internal.Correction.Weighted>
   9.000000E+99

> <Gold.Protein.RotatedTorsions>
[ 6907 6896 6895 6894 ] final   89.56 input  -60.11 | X-H torsion
[ 7974 7965 7964 7962 ] final  118.76 input  175.53 | X-H torsion
[ 8008 7997 7996 7995 ] final  -94.12 input   59.86 | X-H torsion
[ 10167 10162 10161 10158 ] final  -76.45 input  -65.29 | X-H torsion
[ 10718 10713 10712 10709 ] final  -35.60 input   66.30 | X-H torsion
[ 10763 10752 10751 10750 ] final   44.42 input  -60.55 | X-H torsion
[ 11005 11000 10999 10996 ] final   88.90 input  -57.11 | X-H torsion

> <Gold.Protein.ActiveResidues>
 VAL166  LYS551  ARG553  GLY616  TRP617  ASP618  TYR619  PRO620  LYS621  CYS622 
 ASP623  PHE694  ASN695  SER759  ASP760  ASP761  ALA762  ILE779  LEU786  VAL792 
 PHE793  MET794  SER795  GLU796  ALA797  LYS798  CYS799  TRP800  GLU811  SER814 

> <Gold.Protein.RotatedAtoms>
  152.5437  134.1948  159.8687 H   0  0  0  0  0  0  0  0  0  0  0  0  # atno 6907 bound_to 6896
  151.1940  133.4643  159.2603 H   0  0  0  0  0  0  0  0  0  0  0  0  # atno 6908 bound_to 6896
  151.1054  135.0009  159.8524 H   0  0  0  0  0  0  0  0  0  0  0  0  # atno 6909 bound_to 6896
  145.1513  139.3209  143.4565 H   0  0  0  0  0  0  0  0  0  0  0  0  # atno 7974 bound_to 7965
  154.7444  140.0492  157.0839 H   0  0  0  0  0  0  0  0  0  0  0  0  # atno 8008 bound_to 7997
  155.0137  140.3139  155.4800 H   0  0  0  0  0  0  0  0  0  0  0  0  # atno 8009 bound_to 7997
  156.2871  140.2179  156.5252 H   0  0  0  0  0  0  0  0  0  0  0  0  # atno 8010 bound_to 7997
  140.4856  143.2392  151.7989 H   0  0  0  0  0  0  0  0  0  0  0  0  # atno 10167 bound_to 10162
  156.3367  130.4287  149.7823 H   0  0  0  0  0  0  0  0  0  0  0  0  # atno 10718 bound_to 10713
  152.9841  135.6071  154.3271 H   0  0  0  0  0  0  0  0  0  0  0  0  # atno 10763 bound_to 10752
  154.2977  135.2773  155.2627 H   0  0  0  0  0  0  0  0  0  0  0  0  # atno 10764 bound_to 10752
  154.4894  135.5896  153.6504 H   0  0  0  0  0  0  0  0  0  0  0  0  # atno 10765 bound_to 10752
  139.8886  134.8517  156.3066 H   0  0  0  0  0  0  0  0  0  0  0  0  # atno 11005 bound_to 11000
  146.3494  140.1588  142.8591 LP  0  0  0  0  0  0  0  0  0  0  0  0  # atno 17320 bound_to 7965
  145.0428  140.8958  143.5042 LP  0  0  0  0  0  0  0  0  0  0  0  0  # atno 17321 bound_to 7965
  139.4841  144.4717  151.9417 LP  0  0  0  0  0  0  0  0  0  0  0  0  # atno 17342 bound_to 10162
  140.3802  144.2745  150.5909 LP  0  0  0  0  0  0  0  0  0  0  0  0  # atno 17343 bound_to 10162
  156.5075  130.8157  151.3156 LP  0  0  0  0  0  0  0  0  0  0  0  0  # atno 17370 bound_to 10713
  157.7440  130.9924  150.2637 LP  0  0  0  0  0  0  0  0  0  0  0  0  # atno 17371 bound_to 10713
  140.9878  133.7227  156.0768 LP  0  0  0  0  0  0  0  0  0  0  0  0  # atno 17394 bound_to 11000
  140.7665  134.3880  157.5516 LP  0  0  0  0  0  0  0  0  0  0  0  0  # atno 17395 bound_to 11000

$$$$
