AV-unprocessed.smi:2991|AV-procd|sdf|11398|dock9
  -GOLD-   2272016323D 1   1.00000     0.00000
 Structure written by MMmdl.
 37 38  0  0  0  0  0  0  0  0  1 V2000
  155.1745  139.4512  161.5163 C   0  0  0  0  0  0  0  0  0  0  0  0
  154.1625  140.3770  160.8680 C   0  0  0  0  0  0  0  0  0  0  0  0
  154.3061  141.6901  161.1509 N   0  0  0  0  0  0  0  0  0  0  0  0
  153.4362  142.5577  160.5949 C   0  0  0  0  0  0  0  0  0  0  0  0
  152.3865  142.1641  159.7430 C   0  0  0  0  0  0  0  0  0  0  0  0
  152.2236  140.7874  159.4558 C   0  0  0  0  0  0  0  0  0  0  0  0
  151.2135  140.2798  158.5914 N   0  0  0  0  0  0  0  0  0  0  0  0
  150.5409  140.9118  157.6147 C   0  0  0  0  0  0  0  0  0  0  0  0
  150.6819  142.0930  157.2981 O   0  0  0  0  0  0  0  0  0  0  0  0
  149.6658  140.0862  157.0227 N   0  0  0  0  0  0  0  0  0  0  0  0
  148.7458  140.4434  155.9418 C   0  0  1  0  0  0  0  0  0  0  0  0
  148.0975  141.8165  156.2287 C   0  0  0  0  0  0  0  0  0  0  0  0
  146.7659  142.0442  155.4961 C   0  0  0  0  0  0  0  0  0  0  0  0
  146.8673  142.0603  153.9636 C   0  0  0  0  0  0  0  0  0  0  0  0
  147.2872  140.7101  153.3574 C   0  0  0  0  0  0  0  0  0  0  0  0
  148.7222  140.4743  153.4546 N   0  0  0  0  0  0  0  0  0  0  0  0
  149.4503  140.3508  154.5749 C   0  0  0  0  0  0  0  0  0  0  0  0
  150.6667  140.1733  154.5117 O   0  0  0  0  0  0  0  0  0  0  0  0
  153.1437  139.8751  160.0242 C   0  0  0  0  0  0  0  0  0  0  0  0
  153.0238  138.1778  159.6993 Cl  0  0  0  0  0  0  0  0  0  0  0  0
  154.6699  138.7274  162.1564 H   0  0  0  0  0  0  0  0  0  0  0  0
  155.8884  140.0026  162.1296 H   0  0  0  0  0  0  0  0  0  0  0  0
  155.7346  138.9084  160.7545 H   0  0  0  0  0  0  0  0  0  0  0  0
  153.5854  143.6010  160.8308 H   0  0  0  0  0  0  0  0  0  0  0  0
  151.7437  142.9210  159.3215 H   0  0  0  0  0  0  0  0  0  0  0  0
  150.9236  139.3320  158.7837 H   0  0  0  0  0  0  0  0  0  0  0  0
  149.6104  139.1350  157.3571 H   0  0  0  0  0  0  0  0  0  0  0  0
  147.9604  139.6852  155.9317 H   0  0  0  0  0  0  0  0  0  0  0  0
  147.8976  141.9101  157.2971 H   0  0  0  0  0  0  0  0  0  0  0  0
  148.7976  142.6186  155.9906 H   0  0  0  0  0  0  0  0  0  0  0  0
  146.0463  141.2853  155.8061 H   0  0  0  0  0  0  0  0  0  0  0  0
  146.3508  142.9972  155.8250 H   0  0  0  0  0  0  0  0  0  0  0  0
  145.8865  142.3229  153.5656 H   0  0  0  0  0  0  0  0  0  0  0  0
  147.5434  142.8509  153.6356 H   0  0  0  0  0  0  0  0  0  0  0  0
  146.7339  139.8850  153.8080 H   0  0  0  0  0  0  0  0  0  0  0  0
  147.0355  140.7027  152.2967 H   0  0  0  0  0  0  0  0  0  0  0  0
  149.2201  140.4081  152.5785 H   0  0  0  0  0  0  0  0  0  0  0  0
  1  2  1  0  0  0  0
  1 21  1  0  0  0  0
  1 22  1  0  0  0  0
  1 23  1  0  0  0  0
  2 19  1  0  0  0  0
  2  3  2  0  0  0  0
  3  4  1  0  0  0  0
  4  5  2  0  0  0  0
  4 24  1  0  0  0  0
  5  6  1  0  0  0  0
  5 25  1  0  0  0  0
  6  7  1  0  0  0  0
  6 19  2  0  0  0  0
  7  8  1  0  0  0  0
  7 26  1  0  0  0  0
  8  9  2  0  0  0  0
  8 10  1  0  0  0  0
 10 11  1  0  0  0  0
 10 27  1  0  0  0  0
 11 17  1  0  0  0  0
 11 12  1  0  0  0  0
 11 28  1  0  0  0  0
 12 13  1  0  0  0  0
 12 29  1  0  0  0  0
 12 30  1  0  0  0  0
 13 14  1  0  0  0  0
 13 31  1  0  0  0  0
 13 32  1  0  0  0  0
 14 15  1  0  0  0  0
 14 33  1  0  0  0  0
 14 34  1  0  0  0  0
 15 16  1  0  0  0  0
 15 35  1  0  0  0  0
 15 36  1  0  0  0  0
 16 17  1  0  0  0  0
 16 37  1  0  0  0  0
 17 18  2  0  0  0  0
 19 20  1  0  0  0  0
M  END
> <s_m_source_file>
AV-unprocessed.smi

> <i_m_source_file_index>
2991

> <i_lp_mmshare_version>
43012

> <i_f3d_flags>
0

> <s_epik_input>
W0NIM11jMW5bY0hdW2NIXWMoYzFDbClbTkhdQyg9TylbTkhdW0NAQEhdMltDSDJdW0NIMl1bQ0gyXVtDSDJdW05IXUMyPU8=

> <s_epik_cmdline>
J2VwaWtfcHl0aG9uJywgJy1waCcsICc3LjAnLCAnLXRuJywgJzgnLCAnLW1hJywgJzIwMCcsICctbWV0YWxfYmluZGluZycsICctaW1hZScsICc8aW5maWxlLm1hZT4nLCAnLW9tYWUnLCAnPG91dGZpbGUubWFlPic=

> <r_epik_Ionization_Penalty>
0.00809016

> <r_epik_Ionization_Penalty_Charging>
0

> <r_epik_Ionization_Penalty_Neutral>
0.00809016

> <r_epik_State_Penalty>
0.00605324

> <r_epik_Charging_Adjusted_Penalty>
0.00605324

> <i_epik_Tot_Q>
0

> <i_epik_Tot_abs_Q>
0

> <r_epik_Metal_State_Penalty>
0.00597181

> <b_epik_Metal_Only>
0

> <s_lp_Force_Field>
OPLS_2005

> <r_lp_Energy>
16.2223

> <b_lp_Chiralities_Consistent>
1

> <s_lp_Variant>
AV-unprocessed.smi:2991-2

> <Gold.Version>
5.8.1

> <Gold.Id.Protein>
6NUR|6NUR_protein|mol2

> <Gold.PLP.Fitness>
39.3033

> <Gold.PLP.PLP>
-34.0825

> <Gold.PLP.part.hbond>
-2.9544

> <Gold.PLP.part.metal>
0.0000

> <Gold.PLP.part.buried>
-5.4419

> <Gold.PLP.part.nonpolar>
-26.5107

> <Gold.PLP.part.repulsive>
0.5170

> <Gold.PLP.ligand.clash>
0.0000

> <Gold.PLP.ligand.torsion>
0.4031

> <Gold.PLP.Chemscore.Hbond>
2.0000

> <Gold.PLP.Chemscore.CHOScore>
0.0000

> <Gold.PLP.Chemscore.Metal>
0.0000

> <Gold.Chemscore.Hbonds>
donor molecule, donor type, donor heavy atom, donor atom, acceptor molecule, acceptor atom, score
      L1  H    16    37       P1  7957  0.96
      P1  H  7989  7998       L1    18  1.00

> <Gold.PLP.Chemscore.Internal.Correction>
0.0270

> <Gold.Rescore>
     Score         DG    S(hbond)    S(metal)    S(lipo)     H(rot)  DE(clash)    DE(int)     intcor
     16.17     -19.02       1.98        0.00      80.96       1.00       0.02       2.83       ----

> <Gold.Chemscore.Fitness>
16.1680

> <Gold.Chemscore.DG>
-19.0216

> <Gold.Chemscore.ZeroCoef>
-5.4800

> <Gold.Chemscore.Hbond>
1.9848

> <Gold.Chemscore.Metal>
0.0000

> <Gold.Chemscore.Lipo>
80.9605

> <Gold.Chemscore.Internal_Hbond>
0.0000

> <Gold.Chemscore.DEClash>
0.0226

> <Gold.Chemscore.DEInternal>
2.8310

> <Gold.Chemscore.Rot>
1.0000

> <Gold.Chemscore.Internal.Correction>
   9.000000E+99

> <Gold.Chemscore.Hbonds>
donor molecule, donor type, donor heavy atom, donor atom, acceptor molecule, acceptor atom, score
      L1  H    16    37       P1  7957  0.91
      P1  H  7989  7998       L1    18  0.96

> <Gold.Chemscore.Hbond.Weighted>
-6.6292

> <Gold.Chemscore.Metal.Weighted>
-0.0000

> <Gold.Chemscore.Lipo.Weighted>
-9.4724

> <Gold.Chemscore.Internal_Hbond.Weighted>
0.0000

> <Gold.Chemscore.DEClash.Weighted>
0.0226

> <Gold.Chemscore.DEInternal.Weighted>
2.8310

> <Gold.Chemscore.Rot.Weighted>
2.5600

> <Gold.Chemscore.Internal.Correction.Weighted>
   9.000000E+99

> <Gold.Protein.RotatedTorsions>
[ 6907 6896 6895 6894 ] final -163.49 input  -60.11 | X-H torsion
[ 7974 7965 7964 7962 ] final    4.15 input  175.53 | X-H torsion
[ 8008 7997 7996 7995 ] final   20.55 input   59.86 | X-H torsion
[ 10167 10162 10161 10158 ] final  153.95 input  -65.29 | X-H torsion
[ 10718 10713 10712 10709 ] final   53.40 input   66.30 | X-H torsion
[ 10763 10752 10751 10750 ] final   48.14 input  -60.55 | X-H torsion
[ 11005 11000 10999 10996 ] final -174.94 input  -57.11 | X-H torsion

> <Gold.Protein.ActiveResidues>
 VAL166  LYS551  ARG553  GLY616  TRP617  ASP618  TYR619  PRO620  LYS621  CYS622 
 ASP623  PHE694  ASN695  SER759  ASP760  ASP761  ALA762  ILE779  LEU786  VAL792 
 PHE793  MET794  SER795  GLU796  ALA797  LYS798  CYS799  TRP800  GLU811  SER814 

> <Gold.Protein.RotatedAtoms>
  151.3969  133.3770  159.2727 H   0  0  0  0  0  0  0  0  0  0  0  0  # atno 6907 bound_to 6896
  150.9463  134.8868  159.7654 H   0  0  0  0  0  0  0  0  0  0  0  0  # atno 6908 bound_to 6896
  152.5093  134.3922  159.9440 H   0  0  0  0  0  0  0  0  0  0  0  0  # atno 6909 bound_to 6896
  146.2444  140.0578  142.8370 H   0  0  0  0  0  0  0  0  0  0  0  0  # atno 7974 bound_to 7965
  154.9372  140.3048  155.5138 H   0  0  0  0  0  0  0  0  0  0  0  0  # atno 8008 bound_to 7997
  156.2999  140.2343  156.4375 H   0  0  0  0  0  0  0  0  0  0  0  0  # atno 8009 bound_to 7997
  154.8180  140.0425  157.1379 H   0  0  0  0  0  0  0  0  0  0  0  0  # atno 8010 bound_to 7997
  139.4825  144.5229  151.7848 H   0  0  0  0  0  0  0  0  0  0  0  0  # atno 10167 bound_to 10162
  157.5163  130.8534  149.8500 H   0  0  0  0  0  0  0  0  0  0  0  0  # atno 10718 bound_to 10713
  152.9794  135.5953  154.3878 H   0  0  0  0  0  0  0  0  0  0  0  0  # atno 10763 bound_to 10752
  154.3536  135.2767  155.2360 H   0  0  0  0  0  0  0  0  0  0  0  0  # atno 10764 bound_to 10752
  154.4389  135.6018  153.6171 H   0  0  0  0  0  0  0  0  0  0  0  0  # atno 10765 bound_to 10752
  140.4689  134.6184  157.4874 H   0  0  0  0  0  0  0  0  0  0  0  0  # atno 11005 bound_to 11000
  145.0926  140.9294  143.4760 LP  0  0  0  0  0  0  0  0  0  0  0  0  # atno 17320 bound_to 7965
  145.0754  139.2999  143.5810 LP  0  0  0  0  0  0  0  0  0  0  0  0  # atno 17321 bound_to 7965
  140.4745  144.1539  150.5923 LP  0  0  0  0  0  0  0  0  0  0  0  0  # atno 17342 bound_to 10162
  140.4346  143.2553  151.9552 LP  0  0  0  0  0  0  0  0  0  0  0  0  # atno 17343 bound_to 10162
  156.0322  130.3761  150.1655 LP  0  0  0  0  0  0  0  0  0  0  0  0  # atno 17370 bound_to 10713
  156.9844  130.9874  151.3430 LP  0  0  0  0  0  0  0  0  0  0  0  0  # atno 17371 bound_to 10713
  139.9898  134.7004  155.9710 LP  0  0  0  0  0  0  0  0  0  0  0  0  # atno 17394 bound_to 11000
  141.1586  133.6540  156.4244 LP  0  0  0  0  0  0  0  0  0  0  0  0  # atno 17395 bound_to 11000

$$$$
