AV-unprocessed.smi:3011|AV-procd|sdf|11460|dock2
  -GOLD-   2272016393D 1   1.00000     0.00000
 Structure written by MMmdl.
 47 49  0  0  0  0  0  0  0  0  2 V2000
  151.5210  145.1804  159.9082 C   0  0  0  0  0  0  0  0  0  0  0  0
  151.3480  143.9015  159.3164 O   0  0  0  0  0  0  0  0  0  0  0  0
  152.1251  142.8575  159.7743 C   0  0  0  0  0  0  0  0  0  0  0  0
  153.0166  142.9653  160.8718 C   0  0  0  0  0  0  0  0  0  0  0  0
  153.7724  141.8552  161.2897 C   0  0  0  0  0  0  0  0  0  0  0  0
  153.6453  140.6267  160.6197 C   0  0  0  0  0  0  0  0  0  0  0  0
  152.7649  140.5086  159.5291 C   0  0  0  0  0  0  0  0  0  0  0  0
  152.0016  141.6225  159.0964 C   0  0  0  0  0  0  0  0  0  0  0  0
  151.1270  141.5819  158.0308 O   0  0  0  0  0  0  0  0  0  0  0  0
  151.0399  140.3868  157.2669 C   0  0  0  0  0  0  0  0  0  0  0  0
  151.2403  140.7291  155.7847 C   0  0  0  0  0  0  0  0  0  0  0  0
  150.2988  140.0044  154.9172 N   0  0  0  0  0  0  0  0  0  0  0  0
  150.3701  138.7550  154.3685 C   0  0  0  0  0  0  0  0  0  0  0  0
  151.4900  137.7642  154.5036 C   0  0  1  0  0  0  0  0  0  0  0  0
  152.1189  137.8313  155.9034 C   0  0  0  0  0  0  0  0  0  0  0  0
  151.0370  136.4042  154.2400 N   0  0  0  0  0  0  0  0  0  0  0  0
  150.2951  135.6780  155.0852 C   0  0  0  0  0  0  0  0  0  0  0  0
  149.9196  136.0962  156.1772 O   0  0  0  0  0  0  0  0  0  0  0  0
  149.2346  138.5769  153.6335 N   0  3  0  0  0  0  0  0  0  0  0  0
  148.4203  139.7042  153.7340 C   0  0  0  0  0  0  0  0  0  0  0  0
  147.1749  139.9810  153.1786 C   0  0  0  0  0  0  0  0  0  0  0  0
  146.6092  141.2353  153.4876 C   0  0  0  0  0  0  0  0  0  0  0  0
  147.2784  142.1577  154.3179 C   0  0  0  0  0  0  0  0  0  0  0  0
  148.5422  141.8663  154.8728 C   0  0  0  0  0  0  0  0  0  0  0  0
  149.0950  140.6241  154.5613 C   0  0  0  0  0  0  0  0  0  0  0  0
  150.8330  145.8864  159.4434 H   0  0  0  0  0  0  0  0  0  0  0  0
  152.5329  145.5570  159.7543 H   0  0  0  0  0  0  0  0  0  0  0  0
  151.2997  145.1597  160.9761 H   0  0  0  0  0  0  0  0  0  0  0  0
  153.1392  143.8911  161.4127 H   0  0  0  0  0  0  0  0  0  0  0  0
  154.4491  141.9463  162.1266 H   0  0  0  0  0  0  0  0  0  0  0  0
  154.2247  139.7741  160.9417 H   0  0  0  0  0  0  0  0  0  0  0  0
  152.6958  139.5497  159.0389 H   0  0  0  0  0  0  0  0  0  0  0  0
  151.8013  139.6725  157.5833 H   0  0  0  0  0  0  0  0  0  0  0  0
  150.0619  139.9242  157.4063 H   0  0  0  0  0  0  0  0  0  0  0  0
  151.1291  141.7998  155.6132 H   0  0  0  0  0  0  0  0  0  0  0  0
  152.2536  140.4773  155.4736 H   0  0  0  0  0  0  0  0  0  0  0  0
  152.2702  138.0145  153.7834 H   0  0  0  0  0  0  0  0  0  0  0  0
  152.4706  138.8389  156.1263 H   0  0  0  0  0  0  0  0  0  0  0  0
  152.9744  137.1596  155.9807 H   0  0  0  0  0  0  0  0  0  0  0  0
  151.4070  137.5505  156.6803 H   0  0  0  0  0  0  0  0  0  0  0  0
  151.3033  135.9881  153.3593 H   0  0  0  0  0  0  0  0  0  0  0  0
  150.0687  134.6788  154.6817 H   0  0  0  0  0  0  0  0  0  0  0  0
  146.6598  139.2751  152.5437 H   0  0  0  0  0  0  0  0  0  0  0  0
  145.6423  141.4943  153.0809 H   0  0  0  0  0  0  0  0  0  0  0  0
  146.8127  143.1083  154.5341 H   0  0  0  0  0  0  0  0  0  0  0  0
  149.0444  142.5799  155.5091 H   0  0  0  0  0  0  0  0  0  0  0  0
  149.0318  137.7368  153.1076 H   0  0  0  0  0  0  0  0  0  0  0  0
  1  2  1  0  0  0  0
  1 26  1  0  0  0  0
  1 27  1  0  0  0  0
  1 28  1  0  0  0  0
  2  3  1  0  0  0  0
  3  8  1  0  0  0  0
  3  4  2  0  0  0  0
  4  5  1  0  0  0  0
  4 29  1  0  0  0  0
  5  6  2  0  0  0  0
  5 30  1  0  0  0  0
  6  7  1  0  0  0  0
  6 31  1  0  0  0  0
  7  8  2  0  0  0  0
  7 32  1  0  0  0  0
  8  9  1  0  0  0  0
  9 10  1  0  0  0  0
 10 11  1  0  0  0  0
 10 33  1  0  0  0  0
 10 34  1  0  0  0  0
 11 12  1  0  0  0  0
 11 35  1  0  0  0  0
 11 36  1  0  0  0  0
 12 25  1  0  0  0  0
 12 13  1  0  0  0  0
 13 14  1  0  0  0  0
 13 19  2  0  0  0  0
 14 15  1  0  0  0  0
 14 16  1  0  0  0  0
 14 37  1  0  0  0  0
 15 38  1  0  0  0  0
 15 39  1  0  0  0  0
 15 40  1  0  0  0  0
 16 17  1  0  0  0  0
 16 41  1  0  0  0  0
 17 18  2  0  0  0  0
 17 42  1  0  0  0  0
 19 20  1  0  0  0  0
 19 47  1  0  0  0  0
 20 25  2  0  0  0  0
 20 21  1  0  0  0  0
 21 22  2  0  0  0  0
 21 43  1  0  0  0  0
 22 23  1  0  0  0  0
 22 44  1  0  0  0  0
 23 24  2  0  0  0  0
 23 45  1  0  0  0  0
 24 25  1  0  0  0  0
 24 46  1  0  0  0  0
M  CHG  1  19   1
M  END
> <s_m_source_file>
AV-unprocessed.smi

> <i_m_source_file_index>
3011

> <i_lp_mmshare_version>
43012

> <i_f3d_flags>
0

> <s_epik_input>
W0NIM11PYzFbY0hdW2NIXVtjSF1bY0hdYzFPW0NIMl1bQ0gyXW4oYyhuMilbQ0BIXShbQ0gzXSlbTkhdW0NIXT1PKWMoYzIzKVtjSF1bY0hdW2NIXVtjSF0z

> <s_epik_cmdline>
J2VwaWtfcHl0aG9uJywgJy1waCcsICc3LjAnLCAnLXRuJywgJzgnLCAnLW1hJywgJzIwMCcsICctbWV0YWxfYmluZGluZycsICctaW1hZScsICc8aW5maWxlLm1hZT4nLCAnLW9tYWUnLCAnPG91dGZpbGUubWFlPic=

> <r_lp_tautomer_probability>
1

> <r_epik_Ionization_Penalty>
1.14644

> <r_epik_Ionization_Penalty_Charging>
1.14644

> <r_epik_Ionization_Penalty_Neutral>
5.5802e-08

> <r_epik_State_Penalty>
1.20743

> <r_epik_Charging_Adjusted_Penalty>
2.35387

> <i_epik_Tot_Q>
1

> <i_epik_Tot_abs_Q>
1

> <r_epik_Metal_State_Penalty>
1.28856

> <b_epik_Metal_Only>
0

> <s_lp_Force_Field>
OPLS_2005

> <r_lp_Energy>
19.9928

> <b_lp_Chiralities_Consistent>
1

> <s_lp_Variant>
AV-unprocessed.smi:3011-4

> <Gold.Version>
5.8.1

> <Gold.Id.Protein>
6NUR|6NUR_protein|mol2

> <Gold.PLP.Fitness>
59.5966

> <Gold.PLP.PLP>
-54.0689

> <Gold.PLP.part.hbond>
-3.9982

> <Gold.PLP.part.metal>
0.0000

> <Gold.PLP.part.buried>
0.4621

> <Gold.PLP.part.nonpolar>
-51.4103

> <Gold.PLP.part.repulsive>
0.6485

> <Gold.PLP.ligand.clash>
0.0000

> <Gold.PLP.ligand.torsion>
1.8791

> <Gold.PLP.Chemscore.Hbond>
3.0000

> <Gold.PLP.Chemscore.CHOScore>
0.0000

> <Gold.PLP.Chemscore.Metal>
0.0000

> <Gold.Chemscore.Hbonds>
donor molecule, donor type, donor heavy atom, donor atom, acceptor molecule, acceptor atom, score
      L1  H    16    41       P1  7949  0.98
      L1  H    19    47       P1  7948  2.00

> <Gold.PLP.Chemscore.Internal.Correction>
0.2859

> <Gold.Rescore>
     Score         DG    S(hbond)    S(metal)    S(lipo)     H(rot)  DE(clash)    DE(int)     intcor
     16.36     -20.70       1.82        0.00     136.35       2.66       1.36       2.97       ----

> <Gold.Chemscore.Fitness>
16.3626

> <Gold.Chemscore.DG>
-20.6958

> <Gold.Chemscore.ZeroCoef>
-5.4800

> <Gold.Chemscore.Hbond>
1.8185

> <Gold.Chemscore.Metal>
0.0000

> <Gold.Chemscore.Lipo>
136.3489

> <Gold.Chemscore.Internal_Hbond>
0.0000

> <Gold.Chemscore.DEClash>
1.3646

> <Gold.Chemscore.DEInternal>
2.9686

> <Gold.Chemscore.Rot>
2.6604

> <Gold.Chemscore.Internal.Correction>
   9.000000E+99

> <Gold.Chemscore.Hbonds>
donor molecule, donor type, donor heavy atom, donor atom, acceptor molecule, acceptor atom, score
      L1  H    16    41       P1  7949  0.56
      L1  H    19    47       P1  7948  0.99

> <Gold.Chemscore.Hbond.Weighted>
-6.0736

> <Gold.Chemscore.Metal.Weighted>
-0.0000

> <Gold.Chemscore.Lipo.Weighted>
-15.9528

> <Gold.Chemscore.Internal_Hbond.Weighted>
0.0000

> <Gold.Chemscore.DEClash.Weighted>
1.3646

> <Gold.Chemscore.DEInternal.Weighted>
2.9686

> <Gold.Chemscore.Rot.Weighted>
6.8106

> <Gold.Chemscore.Internal.Correction.Weighted>
   9.000000E+99

> <Gold.Protein.RotatedTorsions>
[ 6907 6896 6895 6894 ] final -171.41 input  -60.11 | X-H torsion
[ 7974 7965 7964 7962 ] final -162.34 input  175.53 | X-H torsion
[ 8008 7997 7996 7995 ] final   65.01 input   59.86 | X-H torsion
[ 10167 10162 10161 10158 ] final  -49.72 input  -65.29 | X-H torsion
[ 10718 10713 10712 10709 ] final   42.09 input   66.30 | X-H torsion
[ 10763 10752 10751 10750 ] final  -79.70 input  -60.55 | X-H torsion
[ 11005 11000 10999 10996 ] final  166.84 input  -57.11 | X-H torsion

> <Gold.Protein.ActiveResidues>
 VAL166  LYS551  ARG553  GLY616  TRP617  ASP618  TYR619  PRO620  LYS621  CYS622 
 ASP623  PHE694  ASN695  SER759  ASP760  ASP761  ALA762  ILE779  LEU786  VAL792 
 PHE793  MET794  SER795  GLU796  ALA797  LYS798  CYS799  TRP800  GLU811  SER814 

> <Gold.Protein.RotatedAtoms>
  151.5234  133.3462  159.2905 H   0  0  0  0  0  0  0  0  0  0  0  0  # atno 6907 bound_to 6896
  150.8638  134.7999  159.7114 H   0  0  0  0  0  0  0  0  0  0  0  0  # atno 6908 bound_to 6896
  152.4649  134.5108  159.9805 H   0  0  0  0  0  0  0  0  0  0  0  0  # atno 6909 bound_to 6896
  144.7361  140.3267  143.6161 H   0  0  0  0  0  0  0  0  0  0  0  0  # atno 7974 bound_to 7965
  155.6550  140.3497  155.4762 H   0  0  0  0  0  0  0  0  0  0  0  0  # atno 8008 bound_to 7997
  155.9816  140.1175  157.0744 H   0  0  0  0  0  0  0  0  0  0  0  0  # atno 8009 bound_to 7997
  154.4193  140.1137  156.5430 H   0  0  0  0  0  0  0  0  0  0  0  0  # atno 8010 bound_to 7997
  140.6672  143.2686  151.4256 H   0  0  0  0  0  0  0  0  0  0  0  0  # atno 10167 bound_to 10162
  157.4009  130.7859  149.7348 H   0  0  0  0  0  0  0  0  0  0  0  0  # atno 10718 bound_to 10713
  154.5419  135.5686  153.6847 H   0  0  0  0  0  0  0  0  0  0  0  0  # atno 10763 bound_to 10752
  152.9966  135.6230  154.2490 H   0  0  0  0  0  0  0  0  0  0  0  0  # atno 10764 bound_to 10752
  154.2422  135.2862  155.2829 H   0  0  0  0  0  0  0  0  0  0  0  0  # atno 10765 bound_to 10752
  140.2706  134.7829  157.3672 H   0  0  0  0  0  0  0  0  0  0  0  0  # atno 11005 bound_to 11000
  145.7514  139.1795  143.2319 LP  0  0  0  0  0  0  0  0  0  0  0  0  # atno 17320 bound_to 7965
  146.1058  140.7489  142.9527 LP  0  0  0  0  0  0  0  0  0  0  0  0  # atno 17321 bound_to 7965
  139.5925  144.1469  152.2105 LP  0  0  0  0  0  0  0  0  0  0  0  0  # atno 17342 bound_to 10162
  140.0827  144.5687  150.7110 LP  0  0  0  0  0  0  0  0  0  0  0  0  # atno 17343 bound_to 10162
  155.9823  130.4011  150.3424 LP  0  0  0  0  0  0  0  0  0  0  0  0  # atno 17370 bound_to 10713
  157.1552  131.0331  151.2867 LP  0  0  0  0  0  0  0  0  0  0  0  0  # atno 17371 bound_to 10713
  140.1376  134.5013  155.8056 LP  0  0  0  0  0  0  0  0  0  0  0  0  # atno 17394 bound_to 11000
  141.2178  133.6813  156.7153 LP  0  0  0  0  0  0  0  0  0  0  0  0  # atno 17395 bound_to 11000

$$$$
