AV-unprocessed.smi:21|AV-procd|sdf|154|dock4
  -GOLD-   2262015383D 1   1.00000     0.00000
 Structure written by MMmdl.
 61 64  0  0  0  0  0  0  0  0  1 V2000
  145.4931  133.3395  151.2943 C   0  0  0  0  0  0  0  0  0  0  0  0
  146.1154  134.3120  152.1186 O   0  0  0  0  0  0  0  0  0  0  0  0
  146.6106  133.7818  153.3396 C   0  0  2  0  0  0  0  0  0  0  0  0
  147.3368  134.8310  154.2020 C   0  0  0  0  0  0  0  0  0  0  0  0
  148.7680  134.2895  154.3511 C   0  0  1  0  0  0  0  0  0  0  0  0
  149.4434  134.6871  155.6825 C   0  0  0  0  0  0  0  0  0  0  0  0
  149.9271  136.0678  155.6921 N   0  0  0  0  0  0  0  0  0  0  0  0
  150.4750  136.6090  154.4492 C   0  0  0  0  0  0  0  0  0  0  0  0
  150.2201  136.6946  156.8702 C   0  0  0  0  0  0  0  0  0  0  0  0
  150.1237  135.9771  158.0232 N   0  0  0  0  0  0  0  0  0  0  0  0
  150.3850  136.5352  159.2073 C   0  0  0  0  0  0  0  0  0  0  0  0
  150.7604  137.7854  159.4730 N   0  0  0  0  0  0  0  0  0  0  0  0
  150.8708  138.5177  158.3293 C   0  0  0  0  0  0  0  0  0  0  0  0
  150.6257  138.0606  157.0002 C   0  0  0  0  0  0  0  0  0  0  0  0
  150.8587  139.1050  156.1095 N   0  0  0  0  0  0  0  0  0  0  0  0
  151.2113  140.1105  156.8608 C   0  0  0  0  0  0  0  0  0  0  0  0
  151.2498  139.8430  158.2079 N   0  0  0  0  0  0  0  0  0  0  0  0
  151.6133  140.7714  159.2634 C   0  0  0  0  0  0  0  0  0  0  0  0
  153.0507  141.3410  159.1333 C   0  0  2  0  0  0  0  0  0  0  0  0
  154.1365  140.2388  159.2367 C   0  0  0  0  0  0  0  0  0  0  0  0
  154.2057  139.4562  158.0620 O   0  0  0  0  0  0  0  0  0  0  0  0
  153.2891  142.4538  160.1869 C   0  0  2  0  0  0  0  0  0  0  0  0
  153.3113  141.9797  161.6309 C   0  0  0  0  0  0  0  0  0  0  0  0
  153.0779  143.2751  162.3962 C   0  0  0  0  0  0  0  0  0  0  0  0
  152.1712  144.0175  161.5929 O   0  0  0  0  0  0  0  0  0  0  0  0
  152.1869  143.5211  160.2570 C   0  0  0  0  0  0  0  0  0  0  0  0
  148.6504  132.8560  154.1384 N   0  0  0  0  0  0  0  0  0  0  0  0
  149.9158  132.2031  153.8298 C   0  0  0  0  0  0  0  0  0  0  0  0
  147.6995  132.7459  153.0503 C   0  0  0  0  0  0  0  0  0  0  0  0
  145.8111  133.3088  153.9128 H   0  0  0  0  0  0  0  0  0  0  0  0
  149.3516  134.7012  153.5259 H   0  0  0  0  0  0  0  0  0  0  0  0
  145.1420  133.8106  150.3766 H   0  0  0  0  0  0  0  0  0  0  0  0
  144.6332  132.8837  151.7860 H   0  0  0  0  0  0  0  0  0  0  0  0
  146.1951  132.5515  151.0188 H   0  0  0  0  0  0  0  0  0  0  0  0
  147.3424  135.8228  153.7485 H   0  0  0  0  0  0  0  0  0  0  0  0
  146.8421  134.9124  155.1706 H   0  0  0  0  0  0  0  0  0  0  0  0
  148.7276  134.5555  156.4947 H   0  0  0  0  0  0  0  0  0  0  0  0
  150.2616  134.0156  155.9331 H   0  0  0  0  0  0  0  0  0  0  0  0
  150.1895  137.6543  154.3249 H   0  0  0  0  0  0  0  0  0  0  0  0
  150.1030  136.0636  153.5819 H   0  0  0  0  0  0  0  0  0  0  0  0
  151.5636  136.5425  154.4445 H   0  0  0  0  0  0  0  0  0  0  0  0
  150.2758  135.8871  160.0642 H   0  0  0  0  0  0  0  0  0  0  0  0
  151.4624  141.0778  156.4508 H   0  0  0  0  0  0  0  0  0  0  0  0
  150.8785  141.5762  159.2477 H   0  0  0  0  0  0  0  0  0  0  0  0
  151.4954  140.2689  160.2240 H   0  0  0  0  0  0  0  0  0  0  0  0
  153.1385  141.8065  158.1500 H   0  0  0  0  0  0  0  0  0  0  0  0
  155.1275  140.6683  159.3756 H   0  0  0  0  0  0  0  0  0  0  0  0
  153.9541  139.5941  160.0971 H   0  0  0  0  0  0  0  0  0  0  0  0
  154.8224  138.7540  158.2034 H   0  0  0  0  0  0  0  0  0  0  0  0
  154.2387  142.9499  159.9783 H   0  0  0  0  0  0  0  0  0  0  0  0
  152.4942  141.2815  161.8187 H   0  0  0  0  0  0  0  0  0  0  0  0
  154.2473  141.4970  161.9134 H   0  0  0  0  0  0  0  0  0  0  0  0
  152.6826  143.1070  163.3982 H   0  0  0  0  0  0  0  0  0  0  0  0
  154.0082  143.8373  162.4866 H   0  0  0  0  0  0  0  0  0  0  0  0
  152.3537  144.3335  159.5496 H   0  0  0  0  0  0  0  0  0  0  0  0
  151.2083  143.0881  160.0459 H   0  0  0  0  0  0  0  0  0  0  0  0
  149.7598  131.1441  153.6220 H   0  0  0  0  0  0  0  0  0  0  0  0
  150.6082  132.2743  154.6684 H   0  0  0  0  0  0  0  0  0  0  0  0
  150.3915  132.6531  152.9573 H   0  0  0  0  0  0  0  0  0  0  0  0
  147.2991  131.7352  152.9643 H   0  0  0  0  0  0  0  0  0  0  0  0
  148.1898  132.9893  152.1059 H   0  0  0  0  0  0  0  0  0  0  0  0
  1  2  1  0  0  0  0
  1 32  1  0  0  0  0
  1 33  1  0  0  0  0
  1 34  1  0  0  0  0
  2  3  1  0  0  0  0
  3 30  1  0  0  0  0
  3 29  1  0  0  0  0
  3  4  1  0  0  0  0
  4  5  1  0  0  0  0
  4 35  1  0  0  0  0
  4 36  1  0  0  0  0
  5 31  1  0  0  0  0
  5  6  1  0  0  0  0
  5 27  1  0  0  0  0
  6  7  1  0  0  0  0
  6 37  1  0  0  0  0
  6 38  1  0  0  0  0
  7  8  1  0  0  0  0
  7  9  1  0  0  0  0
  8 39  1  0  0  0  0
  8 40  1  0  0  0  0
  8 41  1  0  0  0  0
  9 14  1  0  0  0  0
  9 10  2  0  0  0  0
 10 11  1  0  0  0  0
 11 12  2  0  0  0  0
 11 42  1  0  0  0  0
 12 13  1  0  0  0  0
 13 17  1  0  0  0  0
 13 14  2  0  0  0  0
 14 15  1  0  0  0  0
 15 16  2  0  0  0  0
 16 17  1  0  0  0  0
 16 43  1  0  0  0  0
 17 18  1  0  0  0  0
 18 19  1  0  0  0  0
 18 44  1  0  0  0  0
 18 45  1  0  0  0  0
 19 20  1  0  0  0  0
 19 22  1  0  0  0  0
 19 46  1  0  0  0  0
 20 21  1  0  0  0  0
 20 47  1  0  0  0  0
 20 48  1  0  0  0  0
 21 49  1  0  0  0  0
 22 26  1  0  0  0  0
 22 23  1  0  0  0  0
 22 50  1  0  0  0  0
 23 24  1  0  0  0  0
 23 51  1  0  0  0  0
 23 52  1  0  0  0  0
 24 25  1  0  0  0  0
 24 53  1  0  0  0  0
 24 54  1  0  0  0  0
 25 26  1  0  0  0  0
 26 55  1  0  0  0  0
 26 56  1  0  0  0  0
 27 28  1  0  0  0  0
 27 29  1  0  0  0  0
 28 57  1  0  0  0  0
 28 58  1  0  0  0  0
 28 59  1  0  0  0  0
 29 60  1  0  0  0  0
 29 61  1  0  0  0  0
M  END
> <s_m_source_file>
AV-unprocessed.smi

> <i_m_source_file_index>
21

> <i_lp_mmshare_version>
43012

> <i_f3d_flags>
0

> <s_epik_input>
W0NIM11PW0NASF0xW0NIMl1bQ0BIXShOKFtDSDNdKVtDSDJdMSlbQ0gyXU4oW0NIM10pYyhuW2NIXW4yKWMoYzIzKW5bY0hdbjNbQ0gyXVtDQEhdKFtDSDJdW09IXSlbQ0BASF00W0NIMl1bQ0gyXU9bQ0gyXTQ=

> <s_epik_cmdline>
J2VwaWtfcHl0aG9uJywgJy1waCcsICc3LjAnLCAnLXRuJywgJzgnLCAnLW1hJywgJzIwMCcsICctbWV0YWxfYmluZGluZycsICctaW1hZScsICc8aW5maWxlLm1hZT4nLCAnLW9tYWUnLCAnPG91dGZpbGUubWFlPic=

> <r_lp_tautomer_probability>
1

> <r_epik_Ionization_Penalty>
2.17574

> <r_epik_Ionization_Penalty_Charging>
0

> <r_epik_Ionization_Penalty_Neutral>
2.17574

> <r_epik_State_Penalty>
2.31336

> <r_epik_Charging_Adjusted_Penalty>
2.31336

> <i_epik_Tot_Q>
0

> <i_epik_Tot_abs_Q>
0

> <r_epik_Metal_State_Penalty>
2.31025

> <b_epik_Metal_Only>
0

> <s_lp_Force_Field>
OPLS_2005

> <r_lp_Energy>
69.0307

> <b_lp_Chiralities_Consistent>
1

> <s_lp_Variant>
AV-unprocessed.smi:21-34

> <Gold.Version>
5.8.1

> <Gold.Id.Protein>
6NUR|6NUR_protein|mol2

> <Gold.PLP.Fitness>
48.0407

> <Gold.PLP.PLP>
-46.1053

> <Gold.PLP.part.hbond>
-2.4147

> <Gold.PLP.part.metal>
0.0000

> <Gold.PLP.part.buried>
-5.2971

> <Gold.PLP.part.nonpolar>
-38.5801

> <Gold.PLP.part.repulsive>
0.3384

> <Gold.PLP.ligand.clash>
0.0000

> <Gold.PLP.ligand.torsion>
0.7563

> <Gold.PLP.Chemscore.Hbond>
1.0299

> <Gold.PLP.Chemscore.CHOScore>
0.0000

> <Gold.PLP.Chemscore.Metal>
0.0000

> <Gold.Chemscore.Hbonds>
donor molecule, donor type, donor heavy atom, donor atom, acceptor molecule, acceptor atom, score
      P1  H  7997  8009       L1    21  0.11

> <Gold.PLP.Chemscore.Internal.Correction>
0.3583

> <Gold.Rescore>
     Score         DG    S(hbond)    S(metal)    S(lipo)     H(rot)  DE(clash)    DE(int)     intcor
     11.83     -13.84       0.96        0.00     109.68       3.00       0.20       1.81       ----

> <Gold.Chemscore.Fitness>
11.8277

> <Gold.Chemscore.DG>
-13.8378

> <Gold.Chemscore.ZeroCoef>
-5.4800

> <Gold.Chemscore.Hbond>
0.9619

> <Gold.Chemscore.Metal>
0.0000

> <Gold.Chemscore.Lipo>
109.6843

> <Gold.Chemscore.Internal_Hbond>
0.0000

> <Gold.Chemscore.DEClash>
0.1964

> <Gold.Chemscore.DEInternal>
1.8137

> <Gold.Chemscore.Rot>
3.0031

> <Gold.Chemscore.Internal.Correction>
   9.000000E+99

> <Gold.Chemscore.Hbond.Weighted>
-3.2127

> <Gold.Chemscore.Metal.Weighted>
-0.0000

> <Gold.Chemscore.Lipo.Weighted>
-12.8331

> <Gold.Chemscore.Internal_Hbond.Weighted>
0.0000

> <Gold.Chemscore.DEClash.Weighted>
0.1964

> <Gold.Chemscore.DEInternal.Weighted>
1.8137

> <Gold.Chemscore.Rot.Weighted>
7.6880

> <Gold.Chemscore.Internal.Correction.Weighted>
   9.000000E+99

> <Gold.Protein.RotatedTorsions>
[ 6907 6896 6895 6894 ] final  150.40 input  -60.11 | X-H torsion
[ 7974 7965 7964 7962 ] final  127.26 input  175.53 | X-H torsion
[ 8008 7997 7996 7995 ] final  116.43 input   59.86 | X-H torsion
[ 10167 10162 10161 10158 ] final  101.46 input  -65.29 | X-H torsion
[ 10718 10713 10712 10709 ] final  -15.60 input   66.30 | X-H torsion
[ 10763 10752 10751 10750 ] final -114.53 input  -60.55 | X-H torsion
[ 11005 11000 10999 10996 ] final   20.12 input  -57.11 | X-H torsion

> <Gold.Protein.ActiveResidues>
 VAL166  LYS551  ARG553  GLY616  TRP617  ASP618  TYR619  PRO620  LYS621  CYS622 
 ASP623  PHE694  ASN695  SER759  ASP760  ASP761  ALA762  ILE779  LEU786  VAL792 
 PHE793  MET794  SER795  GLU796  ALA797  LYS798  CYS799  TRP800  GLU811  SER814 

> <Gold.Protein.RotatedAtoms>
  152.1149  133.4321  159.4647 H   0  0  0  0  0  0  0  0  0  0  0  0  # atno 6907 bound_to 6896
  150.6869  134.2605  159.4556 H   0  0  0  0  0  0  0  0  0  0  0  0  # atno 6908 bound_to 6896
  152.0476  134.9673  160.0625 H   0  0  0  0  0  0  0  0  0  0  0  0  # atno 6909 bound_to 6896
  145.0525  139.3871  143.5046 H   0  0  0  0  0  0  0  0  0  0  0  0  # atno 7974 bound_to 7965
  156.2439  140.2917  156.0522 H   0  0  0  0  0  0  0  0  0  0  0  0  # atno 8008 bound_to 7997
  155.1868  140.0405  157.2910 H   0  0  0  0  0  0  0  0  0  0  0  0  # atno 8009 bound_to 7997
  154.6222  140.2478  155.7543 H   0  0  0  0  0  0  0  0  0  0  0  0  # atno 8010 bound_to 7997
  139.7436  144.7004  151.0538 H   0  0  0  0  0  0  0  0  0  0  0  0  # atno 10167 bound_to 10162
  156.5995  130.4820  149.6245 H   0  0  0  0  0  0  0  0  0  0  0  0  # atno 10718 bound_to 10713
  154.8444  135.4414  154.1520 H   0  0  0  0  0  0  0  0  0  0  0  0  # atno 10763 bound_to 10752
  153.2678  135.6942  153.7518 H   0  0  0  0  0  0  0  0  0  0  0  0  # atno 10764 bound_to 10752
  153.6770  135.3409  155.3143 H   0  0  0  0  0  0  0  0  0  0  0  0  # atno 10765 bound_to 10752
  140.4061  134.1667  155.7665 H   0  0  0  0  0  0  0  0  0  0  0  0  # atno 11005 bound_to 11000
  146.3519  140.0183  142.8661 LP  0  0  0  0  0  0  0  0  0  0  0  0  # atno 17320 bound_to 7965
  145.1509  140.9622  143.4433 LP  0  0  0  0  0  0  0  0  0  0  0  0  # atno 17321 bound_to 7965
  140.7789  143.4894  150.9913 LP  0  0  0  0  0  0  0  0  0  0  0  0  # atno 17342 bound_to 10162
  139.8582  143.7349  152.3175 LP  0  0  0  0  0  0  0  0  0  0  0  0  # atno 17343 bound_to 10162
  156.2481  130.6891  151.1619 LP  0  0  0  0  0  0  0  0  0  0  0  0  # atno 17370 bound_to 10713
  157.7283  131.0633  150.5826 LP  0  0  0  0  0  0  0  0  0  0  0  0  # atno 17371 bound_to 10713
  141.1838  133.8356  157.1160 LP  0  0  0  0  0  0  0  0  0  0  0  0  # atno 17394 bound_to 11000
  140.0301  134.9905  157.0763 LP  0  0  0  0  0  0  0  0  0  0  0  0  # atno 17395 bound_to 11000

$$$$
