#       Name:                AV-unprocessed.smi:2597
#       Creating user name   scv26
#       Creation time:       Fri Mar 27 14:18:30 2020


#       File generated by GOLD software.
#

@<TRIPOS>MOLECULE
AV-unprocessed.smi:2597
    35    36     1
SMALL
NO_CHARGES


@<TRIPOS>ATOM
      1 ****        -0.9489   0.2813  -2.1945 N.4            1 S1                 1.0000
      2 ****        -1.5475  -0.2654  -0.9619 C.3            1 S1                 0.0000
      3 ****        -1.4400  -1.8037  -0.9295 C.3            1 S1                 0.0000
      4 ****        -2.0683  -2.3796   0.3495 C.3            1 S1                 0.0000
      5 ****        -1.4505  -1.7618   1.6135 C.3            1 S1                 0.0000
      6 ****        -1.5466  -0.2246   1.5944 C.3            1 S1                 0.0000
      7 ****        -0.9729   0.4173   0.3094 C.3            1 S1                 0.0000
      8 ****         0.4878   0.5126   0.3282 N.pl3          1 S1                 0.0000
      9 ****         1.2511   1.6633   0.3392 C.2            1 S1                 0.0000
     10 ****         2.5367   1.2022   0.3336 C.2            1 S1                 0.0000
     11 ****         3.8221   1.9716   0.3302 C.3            1 S1                 0.0000
     12 ****         3.8613   2.6888  -0.8847 O.3            1 S1                 0.0000
     13 ****         2.5083  -0.1902   0.3261 N.2            1 S1                 0.0000
     14 ****         1.2771  -0.5907   0.3272 N.2            1 S1                 0.0000
     15 ****        -2.6093  -0.0198  -1.0100 H              1 S1                 0.0000
     16 ****        -1.3291   1.4488   0.2978 H              1 S1                 0.0000
     17 ****         0.0407   0.0784  -2.2057 H              1 S1                 0.0000
     18 ****        -1.0858   1.2816  -2.2220 H              1 S1                 0.0000
     19 ****        -1.9453  -2.2269  -1.7984 H              1 S1                 0.0000
     20 ****        -0.4011  -2.1232  -1.0054 H              1 S1                 0.0000
     21 ****        -3.1428  -2.1923   0.3427 H              1 S1                 0.0000
     22 ****        -1.9453  -3.4629   0.3685 H              1 S1                 0.0000
     23 ****        -1.9622  -2.1474   2.4958 H              1 S1                 0.0000
     24 ****        -0.4130  -2.0789   1.7113 H              1 S1                 0.0000
     25 ****        -2.5981   0.0529   1.6804 H              1 S1                 0.0000
     26 ****        -1.0564   0.1913   2.4756 H              1 S1                 0.0000
     27 ****         0.8381   2.6614   0.3438 H              1 S1                 0.0000
     28 ****         3.8688   2.6667   1.1685 H              1 S1                 0.0000
     29 ****         4.6886   1.3126   0.3944 H              1 S1                 0.0000
     30 ****         4.6702   3.1763  -0.9185 H              1 S1                 0.0000
     31 ****        -1.3878  -0.1410  -3.0002 H              1 S1                 0.0000
     32 ****         3.0857   3.3184  -0.9301 LP             1 S1                 0.0000
     33 ****         3.8189   2.0517  -1.6542 LP             1 S1                 0.0000
     34 ****         3.3114  -0.7860   0.3207 LP             1 S1                 0.0000
     35 ****         0.9648  -1.5406   0.3273 LP             1 S1                 0.0000
@<TRIPOS>BOND
    1    1    2 1     
    2    1   17 1     
    3    1   18 1     
    4    1   31 1     
    5    2   15 1     
    6    2    7 1     
    7    2    3 1     
    8    3    4 1     
    9    3   19 1     
   10    3   20 1     
   11    4    5 1     
   12    4   21 1     
   13    4   22 1     
   14    5    6 1     
   15    5   23 1     
   16    5   24 1     
   17    6    7 1     
   18    6   25 1     
   19    6   26 1     
   20    7   16 1     
   21    7    8 1     
   22    8   14 1     
   23    8    9 1     
   24    9   10 2     
   25    9   27 1     
   26   10   11 1     
   27   10   13 1     
   28   11   12 1     
   29   11   28 1     
   30   11   29 1     
   31   12   30 1     
   32   13   14 2     
   33   12   32 1     
   34   12   33 1     
   35   13   34 1     
   36   14   35 1     
@<TRIPOS>SUBSTRUCTURE
      1 S1             1
@<TRIPOS>SET
LONE_PAIRS      STATIC     ATOMS    <user>   **** ""
4 32 33 34 35
DONOR_HYDROGENS      STATIC     ATOMS    <user>   **** ""
4 17 18 31 30
ATOM$BLUE        STATIC     ATOMS    COLORGROUP SYSTEM
4 32 33 34 35
ATOM$RED        STATIC     ATOMS    COLORGROUP SYSTEM
4 17 18 31 30
