#       Name:                AV-unprocessed.smi:3129
#       Creating user name   scv26
#       Creation time:       Fri Mar 27 17:30:32 2020


#       File generated by GOLD software.
#

@<TRIPOS>MOLECULE
AV-unprocessed.smi:3129
    43    43     1
SMALL
NO_CHARGES


@<TRIPOS>ATOM
      1 ****        -3.7615   1.7769  -0.1014 C.3            1 S1                 0.0000
      2 ****        -2.2622   1.4606  -0.1936 C.3            1 S1                 0.0000
      3 ****        -1.4363   2.5074   0.5741 C.3            1 S1                 0.0000
      4 ****        -1.8230   1.3202  -1.6685 C.3            1 S1                 0.0000
      5 ****        -0.4084   0.9896  -1.8138 N.am           1 S1                 0.0000
      6 ****         0.1357  -0.2059  -1.5414 C.2            1 S1                 0.0000
      7 ****        -0.5193  -1.1758  -1.1578 O.2            1 S1                 0.0000
      8 ****         1.6542  -0.3300  -1.7200 C.3            1 S1                 0.0000
      9 ****         1.9745  -1.1725  -2.9639 C.3            1 S1                 0.0000
     10 ****         2.2581  -0.9500  -0.5213 N.4            1 S1                 1.0000
     11 ****         2.4814  -0.0252   0.6122 C.3            1 S1                 0.0000
     12 ****         2.3792  -0.7598   1.9578 C.3            1 S1                 0.0000
     13 ****         1.0370  -1.2597   2.1998 N.pl3          1 S1                 0.0000
     14 ****         0.6122  -2.5676   2.3027 C.2            1 S1                 0.0000
     15 ****        -0.7347  -2.5408   2.5241 C.2            1 S1                 0.0000
     16 ****        -1.0462  -1.1529   2.5499 C.2            1 S1                 0.0000
     17 ****         0.0169  -0.3890   2.3592 N.2            1 S1                 0.0000
     18 ****        -3.9947   2.7349  -0.5671 H              1 S1                 0.0000
     19 ****        -4.0903   1.8226   0.9372 H              1 S1                 0.0000
     20 ****        -4.3562   1.0108  -0.5999 H              1 S1                 0.0000
     21 ****        -2.1115   0.4998   0.2991 H              1 S1                 0.0000
     22 ****        -1.5261   3.4941   0.1189 H              1 S1                 0.0000
     23 ****        -0.3785   2.2459   0.5996 H              1 S1                 0.0000
     24 ****        -1.7712   2.5867   1.6086 H              1 S1                 0.0000
     25 ****        -2.4240   0.5613  -2.1725 H              1 S1                 0.0000
     26 ****        -2.0036   2.2555  -2.1992 H              1 S1                 0.0000
     27 ****         0.2002   1.7313  -2.1291 H              1 S1                 0.0000
     28 ****         2.0934   0.6596  -1.8596 H              1 S1                 0.0000
     29 ****         1.5454  -0.7287  -3.8632 H              1 S1                 0.0000
     30 ****         1.5845  -2.1877  -2.8755 H              1 S1                 0.0000
     31 ****         3.0514  -1.2449  -3.1193 H              1 S1                 0.0000
     32 ****         1.6347  -1.6860  -0.2202 H              1 S1                 0.0000
     33 ****         3.4664   0.4282   0.4991 H              1 S1                 0.0000
     34 ****         1.7620   0.7947   0.5916 H              1 S1                 0.0000
     35 ****         3.0820  -1.5931   1.9969 H              1 S1                 0.0000
     36 ****         2.6433  -0.0856   2.7734 H              1 S1                 0.0000
     37 ****         1.2939  -3.3998   2.2062 H              1 S1                 0.0000
     38 ****        -1.3972  -3.3842   2.6502 H              1 S1                 0.0000
     39 ****        -2.0058  -0.6806   2.6994 H              1 S1                 0.0000
     40 ****         3.1462  -1.3607  -0.7712 H              1 S1                 0.0000
     41 ****        -1.5084  -1.0943  -1.0352 LP             1 S1                 0.0000
     42 ****        -0.0621  -2.0448  -0.9690 LP             1 S1                 0.0000
     43 ****         0.0563   0.6100   2.3378 LP             1 S1                 0.0000
@<TRIPOS>BOND
    1    1    2 1     
    2    1   18 1     
    3    1   19 1     
    4    1   20 1     
    5    2    3 1     
    6    2    4 1     
    7    2   21 1     
    8    3   22 1     
    9    3   23 1     
   10    3   24 1     
   11    4    5 1     
   12    4   25 1     
   13    4   26 1     
   14    5    6 am    
   15    5   27 1     
   16    6    7 2     
   17    6    8 1     
   18    8    9 1     
   19    8   10 1     
   20    8   28 1     
   21    9   29 1     
   22    9   30 1     
   23    9   31 1     
   24   10   11 1     
   25   10   32 1     
   26   10   40 1     
   27   11   12 1     
   28   11   33 1     
   29   11   34 1     
   30   12   13 1     
   31   12   35 1     
   32   12   36 1     
   33   13   17 1     
   34   13   14 1     
   35   14   15 2     
   36   14   37 1     
   37   15   16 1     
   38   15   38 1     
   39   16   17 2     
   40   16   39 1     
   41    7   41 1     
   42    7   42 1     
   43   17   43 1     
@<TRIPOS>SUBSTRUCTURE
      1 S1             1
@<TRIPOS>SET
LONE_PAIRS      STATIC     ATOMS    <user>   **** ""
3 41 42 43
DONOR_HYDROGENS      STATIC     ATOMS    <user>   **** ""
3 27 32 40
ATOM$BLUE        STATIC     ATOMS    COLORGROUP SYSTEM
3 41 42 43
ATOM$RED        STATIC     ATOMS    COLORGROUP SYSTEM
3 27 32 40
