#       Name:                AV-unprocessed.smi:2243
#       Creating user name   scv26
#       Creation time:       Fri Mar 27 12:27:03 2020


#       File generated by GOLD software.
#

@<TRIPOS>MOLECULE
AV-unprocessed.smi:2243
    41    42     1
SMALL
NO_CHARGES


@<TRIPOS>ATOM
      1 ****        -1.4651  -1.0337   2.2605 C.3            1 S1                 0.0000
      2 ****        -1.0116  -0.3104   0.9808 C.3            1 S1                 0.0000
      3 ****         0.4501  -0.2335   1.0025 N.am           1 S1                 0.0000
      4 ****         1.1833   0.8871   0.9124 C.2            1 S1                 0.0000
      5 ****         0.7025   2.0134   0.7840 O.2            1 S1                 0.0000
      6 ****         2.4964   0.6177   0.9755 N.am           1 S1                 0.0000
      7 ****         3.5490   1.5589   0.8970 C.2            1 S1                 0.0000
      8 ****         4.8312   1.2114   0.9647 N.2            1 S1                 0.0000
      9 ****         5.5198   2.4111   0.8476 C.2            1 S1                 0.0000
     10 ****         4.6025   3.4223   0.7148 C.2            1 S1                 0.0000
     11 ****         3.3396   2.8949   0.7439 O.3            1 S1                 0.0000
     12 ****        -1.5059  -0.9963  -0.3217 C.3            1 S1                 0.0000
     13 ****        -0.9891  -0.2938  -1.5958 C.3            1 S1                 0.0000
     14 ****        -1.5591  -0.9442  -2.8664 C.3            1 S1                 0.0000
     15 ****        -2.9804  -0.9261  -2.8273 O.3            1 S1                 0.0000
     16 ****        -3.5067  -1.6764  -1.7401 C.3            1 S1                 0.0000
     17 ****        -3.0447  -1.0679  -0.4060 C.3            1 S1                 0.0000
     18 ****        -2.5478  -1.0055   2.3797 H              1 S1                 0.0000
     19 ****        -1.0389  -0.5625   3.1468 H              1 S1                 0.0000
     20 ****        -1.1537  -2.0788   2.2586 H              1 S1                 0.0000
     21 ****        -1.4324   0.6962   1.0132 H              1 S1                 0.0000
     22 ****         0.9421  -1.1095   1.1022 H              1 S1                 0.0000
     23 ****         2.7701  -0.3475   1.0851 H              1 S1                 0.0000
     24 ****         6.5989   2.4519   0.8672 H              1 S1                 0.0000
     25 ****         4.6783   4.4933   0.5976 H              1 S1                 0.0000
     26 ****        -1.1247  -2.0188  -0.3305 H              1 S1                 0.0000
     27 ****        -1.2671   0.7608  -1.5732 H              1 S1                 0.0000
     28 ****         0.0995  -0.3267  -1.6430 H              1 S1                 0.0000
     29 ****        -1.2252  -0.3973  -3.7481 H              1 S1                 0.0000
     30 ****        -1.1998  -1.9689  -2.9739 H              1 S1                 0.0000
     31 ****        -4.5951  -1.6635  -1.7995 H              1 S1                 0.0000
     32 ****        -3.1973  -2.7197  -1.8193 H              1 S1                 0.0000
     33 ****        -3.4493  -1.6680   0.4083 H              1 S1                 0.0000
     34 ****        -3.4680  -0.0684  -0.2991 H              1 S1                 0.0000
     35 ****        -0.2896   2.1316   0.7413 LP             1 S1                 0.0000
     36 ****         1.3041   2.8098   0.7225 LP             1 S1                 0.0000
     37 ****         5.2127   0.2936   1.0750 LP             1 S1                 0.0000
     38 ****         2.8170   3.2639   1.5126 LP             1 S1                 0.0000
     39 ****         2.8548   3.0839  -0.1100 LP             1 S1                 0.0000
     40 ****        -3.3293  -1.3119  -3.6813 LP             1 S1                 0.0000
     41 ****        -3.2865   0.0219  -2.7401 LP             1 S1                 0.0000
@<TRIPOS>BOND
    1    1    2 1     
    2    1   18 1     
    3    1   19 1     
    4    1   20 1     
    5    2    3 1     
    6    2   12 1     
    7    2   21 1     
    8    3    4 am    
    9    3   22 1     
   10    4    5 2     
   11    4    6 am    
   12    6    7 1     
   13    6   23 1     
   14    7   11 1     
   15    7    8 2     
   16    8    9 1     
   17    9   10 2     
   18    9   24 1     
   19   10   11 1     
   20   10   25 1     
   21   12   17 1     
   22   12   13 1     
   23   12   26 1     
   24   13   14 1     
   25   13   27 1     
   26   13   28 1     
   27   14   15 1     
   28   14   29 1     
   29   14   30 1     
   30   15   16 1     
   31   16   17 1     
   32   16   31 1     
   33   16   32 1     
   34   17   33 1     
   35   17   34 1     
   36    5   35 1     
   37    5   36 1     
   38    8   37 1     
   39   11   38 1     
   40   11   39 1     
   41   15   40 1     
   42   15   41 1     
@<TRIPOS>SUBSTRUCTURE
      1 S1             1
@<TRIPOS>SET
LONE_PAIRS      STATIC     ATOMS    <user>   **** ""
7 35 36 37 38 39 40 41
DONOR_HYDROGENS      STATIC     ATOMS    <user>   **** ""
2 22 23
ATOM$BLUE        STATIC     ATOMS    COLORGROUP SYSTEM
7 35 36 37 38 39 40 41
ATOM$RED        STATIC     ATOMS    COLORGROUP SYSTEM
2 22 23
