AV-unprocessed.smi:3263|AV-procd|sdf|12486|dock10
  -GOLD-   2272018383D 1   1.00000     0.00000
 Structure written by MMmdl.
 41 43  0  0  0  0  0  0  0  0  1 V2000
  151.4057  141.4464  157.8358 O   0  0  0  0  0  0  0  0  0  0  0  0
  150.6841  142.2475  157.2421 C   0  0  0  0  0  0  0  0  0  0  0  0
  149.4041  141.7663  156.5535 C   0  0  0  0  0  0  0  0  0  0  0  0
  149.6570  140.6185  155.5500 C   0  0  2  0  0  0  0  0  0  0  0  0
  148.3709  139.9351  155.0377 C   0  0  0  0  0  0  0  0  0  0  0  0
  148.6662  138.4383  155.2522 C   0  0  2  0  0  0  0  0  0  0  0  0
  148.5846  138.1171  156.7560 C   0  0  0  0  0  0  0  0  0  0  0  0
  149.8618  138.7734  157.3112 C   0  0  0  0  0  0  0  0  0  0  0  0
  150.4906  139.4136  156.0564 C   0  0  1  0  0  0  0  0  0  0  0  0
  150.1674  138.3657  154.9966 C   0  0  0  0  0  0  0  0  0  0  0  0
  150.9451  143.5613  157.1671 N   0  0  0  0  0  0  0  0  0  0  0  0
  152.0695  144.2286  157.8118 C   0  0  0  0  0  0  0  0  0  0  0  0
  151.6522  144.8638  159.1491 C   0  0  0  0  0  0  0  0  0  0  0  0
  152.2218  144.1204  160.3422 C   0  0  0  0  0  0  0  0  0  0  0  0
  152.0316  144.6071  161.6533 C   0  0  0  0  0  0  0  0  0  0  0  0
  152.5858  143.8811  162.7252 C   0  0  0  0  0  0  0  0  0  0  0  0
  153.3051  142.7028  162.4465 C   0  0  0  0  0  0  0  0  0  0  0  0
  153.4391  142.3015  161.1024 C   0  0  0  0  0  0  0  0  0  0  0  0
  152.9116  142.9903  160.0675 N   0  0  0  0  0  0  0  0  0  0  0  0
  148.6686  141.4673  157.3014 H   0  0  0  0  0  0  0  0  0  0  0  0
  148.9652  142.6147  156.0280 H   0  0  0  0  0  0  0  0  0  0  0  0
  150.1758  141.0399  154.6866 H   0  0  0  0  0  0  0  0  0  0  0  0
  147.4757  140.2527  155.5739 H   0  0  0  0  0  0  0  0  0  0  0  0
  148.2170  140.1557  153.9807 H   0  0  0  0  0  0  0  0  0  0  0  0
  148.0589  137.7792  154.6312 H   0  0  0  0  0  0  0  0  0  0  0  0
  147.6788  138.5138  157.2159 H   0  0  0  0  0  0  0  0  0  0  0  0
  148.6029  137.0400  156.9268 H   0  0  0  0  0  0  0  0  0  0  0  0
  149.6578  139.4887  158.1068 H   0  0  0  0  0  0  0  0  0  0  0  0
  150.5277  138.0142  157.7235 H   0  0  0  0  0  0  0  0  0  0  0  0
  151.5539  139.6313  156.1645 H   0  0  0  0  0  0  0  0  0  0  0  0
  150.5965  137.3852  155.2106 H   0  0  0  0  0  0  0  0  0  0  0  0
  150.4499  138.6661  153.9860 H   0  0  0  0  0  0  0  0  0  0  0  0
  150.3006  144.1450  156.6537 H   0  0  0  0  0  0  0  0  0  0  0  0
  152.8897  143.5237  157.9584 H   0  0  0  0  0  0  0  0  0  0  0  0
  152.4391  144.9996  157.1350 H   0  0  0  0  0  0  0  0  0  0  0  0
  151.9805  145.9035  159.1843 H   0  0  0  0  0  0  0  0  0  0  0  0
  150.5648  144.8837  159.2369 H   0  0  0  0  0  0  0  0  0  0  0  0
  151.4750  145.5149  161.8355 H   0  0  0  0  0  0  0  0  0  0  0  0
  152.4621  144.2219  163.7425 H   0  0  0  0  0  0  0  0  0  0  0  0
  153.7438  142.1206  163.2433 H   0  0  0  0  0  0  0  0  0  0  0  0
  153.9849  141.4038  160.8519 H   0  0  0  0  0  0  0  0  0  0  0  0
  1  2  2  0  0  0  0
  2  3  1  0  0  0  0
  2 11  1  0  0  0  0
  3  4  1  0  0  0  0
  3 20  1  0  0  0  0
  3 21  1  0  0  0  0
  4  9  1  0  0  0  0
  4  5  1  0  0  0  0
  4 22  1  0  0  0  0
  5  6  1  0  0  0  0
  5 23  1  0  0  0  0
  5 24  1  0  0  0  0
  6 10  1  0  0  0  0
  6  7  1  0  0  0  0
  6 25  1  0  0  0  0
  7  8  1  0  0  0  0
  7 26  1  0  0  0  0
  7 27  1  0  0  0  0
  8  9  1  0  0  0  0
  8 28  1  0  0  0  0
  8 29  1  0  0  0  0
  9 10  1  0  0  0  0
  9 30  1  0  0  0  0
 10 31  1  0  0  0  0
 10 32  1  0  0  0  0
 11 12  1  0  0  0  0
 11 33  1  0  0  0  0
 12 13  1  0  0  0  0
 12 34  1  0  0  0  0
 12 35  1  0  0  0  0
 13 14  1  0  0  0  0
 13 36  1  0  0  0  0
 13 37  1  0  0  0  0
 14 19  1  0  0  0  0
 14 15  2  0  0  0  0
 15 16  1  0  0  0  0
 15 38  1  0  0  0  0
 16 17  2  0  0  0  0
 16 39  1  0  0  0  0
 17 18  1  0  0  0  0
 17 40  1  0  0  0  0
 18 19  2  0  0  0  0
 18 41  1  0  0  0  0
M  END
> <s_m_source_file>
AV-unprocessed.smi

> <i_m_source_file_index>
3263

> <i_lp_mmshare_version>
43012

> <i_f3d_flags>
0

> <s_epik_input>
W0NIMl0xW0NIMl1bQ0BASF0oW0NIMl0yKVtDQEBIXShbQ0gyXVtDQEhdMTIpW0NIMl1DKD1PKVtOSF1bQ0gyXVtDSDJdYzNbY0hdW2NIXVtjSF1bY0hdbjM=

> <s_epik_cmdline>
J2VwaWtfcHl0aG9uJywgJy1waCcsICc3LjAnLCAnLXRuJywgJzgnLCAnLW1hJywgJzIwMCcsICctbWV0YWxfYmluZGluZycsICctaW1hZScsICc8aW5maWxlLm1hZT4nLCAnLW9tYWUnLCAnPG91dGZpbGUubWFlPic=

> <r_epik_Ionization_Penalty>
0.0273541

> <r_epik_Ionization_Penalty_Charging>
0

> <r_epik_Ionization_Penalty_Neutral>
0.0273541

> <r_epik_State_Penalty>
0.0223838

> <r_epik_Charging_Adjusted_Penalty>
0.0223838

> <i_epik_Tot_Q>
0

> <i_epik_Tot_abs_Q>
0

> <r_epik_Metal_State_Penalty>
0.0213927

> <b_epik_Metal_Only>
0

> <s_lp_Force_Field>
OPLS_2005

> <r_lp_Energy>
46.2802

> <b_lp_Chiralities_Consistent>
1

> <s_lp_Variant>
AV-unprocessed.smi:3263-1

> <Gold.Version>
5.8.1

> <Gold.Id.Protein>
6NUR|6NUR_protein|mol2

> <Gold.PLP.Fitness>
49.1915

> <Gold.PLP.PLP>
-47.4016

> <Gold.PLP.part.hbond>
-1.0000

> <Gold.PLP.part.metal>
0.0000

> <Gold.PLP.part.buried>
-3.5362

> <Gold.PLP.part.nonpolar>
-42.7611

> <Gold.PLP.part.repulsive>
0.0287

> <Gold.PLP.ligand.clash>
0.0000

> <Gold.PLP.ligand.torsion>
0.6136

> <Gold.PLP.Chemscore.Hbond>
1.0000

> <Gold.PLP.Chemscore.CHOScore>
0.0000

> <Gold.PLP.Chemscore.Metal>
0.0000

> <Gold.Chemscore.Hbonds>
donor molecule, donor type, donor heavy atom, donor atom, acceptor molecule, acceptor atom, score
      L1  H    11    33       P1  8028  1.00

> <Gold.PLP.Chemscore.Internal.Correction>
0.0172

> <Gold.Rescore>
     Score         DG    S(hbond)    S(metal)    S(lipo)     H(rot)  DE(clash)    DE(int)     intcor
     17.21     -19.98       0.99        0.00     127.54       1.46       0.45       2.32       ----

> <Gold.Chemscore.Fitness>
17.2058

> <Gold.Chemscore.DG>
-19.9765

> <Gold.Chemscore.ZeroCoef>
-5.4800

> <Gold.Chemscore.Hbond>
0.9881

> <Gold.Chemscore.Metal>
0.0000

> <Gold.Chemscore.Lipo>
127.5407

> <Gold.Chemscore.Internal_Hbond>
0.0000

> <Gold.Chemscore.DEClash>
0.4485

> <Gold.Chemscore.DEInternal>
2.3222

> <Gold.Chemscore.Rot>
1.4555

> <Gold.Chemscore.Internal.Correction>
   9.000000E+99

> <Gold.Chemscore.Hbonds>
donor molecule, donor type, donor heavy atom, donor atom, acceptor molecule, acceptor atom, score
      L1  H    11    33       P1  8028  0.99

> <Gold.Chemscore.Hbond.Weighted>
-3.3003

> <Gold.Chemscore.Metal.Weighted>
-0.0000

> <Gold.Chemscore.Lipo.Weighted>
-14.9223

> <Gold.Chemscore.Internal_Hbond.Weighted>
0.0000

> <Gold.Chemscore.DEClash.Weighted>
0.4485

> <Gold.Chemscore.DEInternal.Weighted>
2.3222

> <Gold.Chemscore.Rot.Weighted>
3.7260

> <Gold.Chemscore.Internal.Correction.Weighted>
   9.000000E+99

> <Gold.Protein.RotatedTorsions>
[ 6907 6896 6895 6894 ] final   -6.82 input  -60.11 | X-H torsion
[ 7974 7965 7964 7962 ] final  -24.55 input  175.53 | X-H torsion
[ 8008 7997 7996 7995 ] final  166.64 input   59.86 | X-H torsion
[ 10167 10162 10161 10158 ] final    6.11 input  -65.29 | X-H torsion
[ 10718 10713 10712 10709 ] final   21.14 input   66.30 | X-H torsion
[ 10763 10752 10751 10750 ] final  -25.46 input  -60.55 | X-H torsion
[ 11005 11000 10999 10996 ] final  -79.58 input  -57.11 | X-H torsion

> <Gold.Protein.ActiveResidues>
 VAL166  LYS551  ARG553  GLY616  TRP617  ASP618  TYR619  PRO620  LYS621  CYS622 
 ASP623  PHE694  ASN695  SER759  ASP760  ASP761  ALA762  ILE779  LEU786  VAL792 
 PHE793  MET794  SER795  GLU796  ALA797  LYS798  CYS799  TRP800  GLU811  SER814 

> <Gold.Protein.RotatedAtoms>
  151.4595  135.1037  159.9720 H   0  0  0  0  0  0  0  0  0  0  0  0  # atno 6907 bound_to 6896
  152.4858  133.8366  159.7141 H   0  0  0  0  0  0  0  0  0  0  0  0  # atno 6908 bound_to 6896
  150.8967  133.7112  159.2917 H   0  0  0  0  0  0  0  0  0  0  0  0  # atno 6909 bound_to 6896
  146.1548  140.4766  142.8596 H   0  0  0  0  0  0  0  0  0  0  0  0  # atno 7974 bound_to 7965
  156.1702  140.1638  156.8461 H   0  0  0  0  0  0  0  0  0  0  0  0  # atno 8008 bound_to 7997
  154.5248  140.0770  156.8273 H   0  0  0  0  0  0  0  0  0  0  0  0  # atno 8009 bound_to 7997
  155.3529  140.3391  155.4242 H   0  0  0  0  0  0  0  0  0  0  0  0  # atno 8010 bound_to 7997
  140.6445  143.7694  150.7478 H   0  0  0  0  0  0  0  0  0  0  0  0  # atno 10167 bound_to 10162
  157.1342  130.6604  149.5961 H   0  0  0  0  0  0  0  0  0  0  0  0  # atno 10718 bound_to 10713
  153.7002  135.6956  153.5065 H   0  0  0  0  0  0  0  0  0  0  0  0  # atno 10763 bound_to 10752
  153.2348  135.4325  155.0633 H   0  0  0  0  0  0  0  0  0  0  0  0  # atno 10764 bound_to 10752
  154.8346  135.3493  154.6542 H   0  0  0  0  0  0  0  0  0  0  0  0  # atno 10765 bound_to 10752
  141.1667  133.7112  156.8143 H   0  0  0  0  0  0  0  0  0  0  0  0  # atno 11005 bound_to 11000
  144.7949  140.6103  143.6517 LP  0  0  0  0  0  0  0  0  0  0  0  0  # atno 17320 bound_to 7965
  145.4736  139.1501  143.3800 LP  0  0  0  0  0  0  0  0  0  0  0  0  # atno 17321 bound_to 7965
  140.1333  143.4507  152.2241 LP  0  0  0  0  0  0  0  0  0  0  0  0  # atno 17342 bound_to 10162
  139.5655  144.7432  151.4034 LP  0  0  0  0  0  0  0  0  0  0  0  0  # atno 17343 bound_to 10162
  155.9801  130.4800  150.6756 LP  0  0  0  0  0  0  0  0  0  0  0  0  # atno 17370 bound_to 10713
  157.4365  131.0856  151.0987 LP  0  0  0  0  0  0  0  0  0  0  0  0  # atno 17371 bound_to 10713
  140.2165  134.8789  157.3331 LP  0  0  0  0  0  0  0  0  0  0  0  0  # atno 17394 bound_to 11000
  140.2032  134.4229  155.7651 LP  0  0  0  0  0  0  0  0  0  0  0  0  # atno 17395 bound_to 11000

$$$$
