AV-unprocessed.smi:1800|AV-procd|sdf|7265|dock4
  -GOLD-   22720 8513D 1   1.00000     0.00000
 Structure written by MMmdl.
 35 36  0  0  0  0  0  0  0  0  2 V2000
  153.5006  139.2781  159.8157 C   0  0  0  0  0  0  0  0  0  0  0  0
  153.2102  140.6426  159.1756 C   0  0  2  0  0  0  0  0  0  0  0  0
  152.0995  141.4111  159.9367 C   0  0  0  0  0  0  0  0  0  0  0  0
  151.9412  142.8042  159.5274 N   0  0  0  0  0  0  0  0  0  0  0  0
  152.8632  143.8329  159.5842 C   0  0  0  0  0  0  0  0  0  0  0  0
  152.2558  144.9558  159.1000 C   0  0  0  0  0  0  0  0  0  0  0  0
  150.9420  144.5161  158.7776 C   0  0  0  0  0  0  0  0  0  0  0  0
  150.7508  143.2357  159.0484 N   0  0  0  0  0  0  0  0  0  0  0  0
  152.8181  140.4383  157.7878 N   0  5  0  0  0  0  0  0  0  0  0  0
  151.6614  139.3595  157.4286 S   0  0  0  0  0  0  0  0  0  0  0  0
  152.0290  137.9853  157.8087 O   0  0  0  0  0  0  0  0  0  0  0  0
  150.3258  139.8251  157.8359 O   0  0  0  0  0  0  0  0  0  0  0  0
  151.7038  139.4322  155.5722 C   0  0  0  0  0  0  0  0  0  0  0  0
  150.3411  139.8247  154.9925 C   0  0  0  0  0  0  0  0  0  0  0  0
  149.5422  138.5205  154.9441 C   0  0  0  0  0  0  0  0  0  0  0  0
  150.5783  137.4024  154.7580 C   0  0  0  0  0  0  0  0  0  0  0  0
  151.9576  138.0483  154.9598 C   0  0  0  0  0  0  0  0  0  0  0  0
  153.8141  139.3927  160.8536 H   0  0  0  0  0  0  0  0  0  0  0  0
  154.3007  138.7578  159.2876 H   0  0  0  0  0  0  0  0  0  0  0  0
  152.6193  138.6354  159.8048 H   0  0  0  0  0  0  0  0  0  0  0  0
  154.1277  141.2281  159.2507 H   0  0  0  0  0  0  0  0  0  0  0  0
  151.1416  140.8986  159.8291 H   0  0  0  0  0  0  0  0  0  0  0  0
  152.3234  141.4107  161.0041 H   0  0  0  0  0  0  0  0  0  0  0  0
  153.8667  143.6769  159.9515 H   0  0  0  0  0  0  0  0  0  0  0  0
  152.6860  145.9400  158.9906 H   0  0  0  0  0  0  0  0  0  0  0  0
  150.1246  145.0871  158.3627 H   0  0  0  0  0  0  0  0  0  0  0  0
  152.4689  140.1550  155.2885 H   0  0  0  0  0  0  0  0  0  0  0  0
  149.8340  140.6062  155.5583 H   0  0  0  0  0  0  0  0  0  0  0  0
  150.4786  140.2000  153.9778 H   0  0  0  0  0  0  0  0  0  0  0  0
  149.0158  138.3781  155.8888 H   0  0  0  0  0  0  0  0  0  0  0  0
  148.7932  138.5282  154.1520 H   0  0  0  0  0  0  0  0  0  0  0  0
  150.4105  136.6059  155.4837 H   0  0  0  0  0  0  0  0  0  0  0  0
  150.5066  136.9575  153.7653 H   0  0  0  0  0  0  0  0  0  0  0  0
  152.4391  138.1722  153.9892 H   0  0  0  0  0  0  0  0  0  0  0  0
  152.6219  137.4343  155.5686 H   0  0  0  0  0  0  0  0  0  0  0  0
  1  2  1  0  0  0  0
  1 18  1  0  0  0  0
  1 19  1  0  0  0  0
  1 20  1  0  0  0  0
  2  3  1  0  0  0  0
  2  9  1  0  0  0  0
  2 21  1  0  0  0  0
  3  4  1  0  0  0  0
  3 22  1  0  0  0  0
  3 23  1  0  0  0  0
  4  8  1  0  0  0  0
  4  5  1  0  0  0  0
  5  6  2  0  0  0  0
  5 24  1  0  0  0  0
  6  7  1  0  0  0  0
  6 25  1  0  0  0  0
  7  8  2  0  0  0  0
  7 26  1  0  0  0  0
  9 10  1  0  0  0  0
 10 11  2  0  0  0  0
 10 12  2  0  0  0  0
 10 13  1  0  0  0  0
 13 17  1  0  0  0  0
 13 14  1  0  0  0  0
 13 27  1  0  0  0  0
 14 15  1  0  0  0  0
 14 28  1  0  0  0  0
 14 29  1  0  0  0  0
 15 16  1  0  0  0  0
 15 30  1  0  0  0  0
 15 31  1  0  0  0  0
 16 17  1  0  0  0  0
 16 32  1  0  0  0  0
 16 33  1  0  0  0  0
 17 34  1  0  0  0  0
 17 35  1  0  0  0  0
M  CHG  1   9  -1
M  END
> <s_m_source_file>
AV-unprocessed.smi

> <i_m_source_file_index>
1800

> <i_lp_mmshare_version>
43012

> <i_f3d_flags>
0

> <s_epik_input>
bjFbY0hdW2NIXVtjSF1uMVtDSDJdW0NAQEhdKFtDSDNdKVtOSF1TKD1PKSg9TylbQ0hdMltDSDJdW0NIMl1bQ0gyXVtDSDJdMg==

> <s_epik_cmdline>
J2VwaWtfcHl0aG9uJywgJy1waCcsICc3LjAnLCAnLXRuJywgJzgnLCAnLW1hJywgJzIwMCcsICctbWV0YWxfYmluZGluZycsICctaW1hZScsICc8aW5maWxlLm1hZT4nLCAnLW9tYWUnLCAnPG91dGZpbGUubWFlPic=

> <r_lp_tautomer_probability>
1

> <r_epik_Ionization_Penalty>
6.58538

> <r_epik_Ionization_Penalty_Charging>
6.58536

> <r_epik_Ionization_Penalty_Neutral>
2.3841e-05

> <r_epik_State_Penalty>
6.58535

> <r_epik_Charging_Adjusted_Penalty>
13.1707

> <i_epik_Tot_Q>
-1

> <i_epik_Tot_abs_Q>
1

> <r_epik_Metal_State_Penalty>
2.50999

> <b_epik_Metal_Only>
1

> <s_lp_Force_Field>
OPLS_2005

> <r_lp_Energy>
15.5641

> <b_lp_Chiralities_Consistent>
1

> <s_lp_Variant>
AV-unprocessed.smi:1800-3

> <Gold.Version>
5.8.1

> <Gold.Id.Protein>
6NUR|6NUR_protein|mol2

> <Gold.PLP.Fitness>
40.9575

> <Gold.PLP.PLP>
-33.2176

> <Gold.PLP.part.hbond>
-1.0000

> <Gold.PLP.part.metal>
0.0000

> <Gold.PLP.part.buried>
-1.1645

> <Gold.PLP.part.nonpolar>
-31.3962

> <Gold.PLP.part.repulsive>
0.0863

> <Gold.PLP.ligand.clash>
0.0000

> <Gold.PLP.ligand.torsion>
0.8333

> <Gold.PLP.Chemscore.Hbond>
1.7280

> <Gold.PLP.Chemscore.CHOScore>
1.0446

> <Gold.PLP.Chemscore.Metal>
0.0000

> <Gold.Chemscore.Hbonds>
donor molecule, donor type, donor heavy atom, donor atom, acceptor molecule, acceptor atom, score
      P1  H  7997  8009       L1     9  1.73
      L1  C     7    26       P1  8029  0.80

> <Gold.PLP.Chemscore.Internal.Correction>
1.0886

> <Gold.Rescore>
     Score         DG    S(hbond)    S(metal)    S(lipo)     H(rot)  DE(clash)    DE(int)     intcor
     12.54     -15.17       0.66        0.00      97.04       1.51       0.30       2.32       ----

> <Gold.Chemscore.Fitness>
12.5440

> <Gold.Chemscore.DG>
-15.1652

> <Gold.Chemscore.ZeroCoef>
-5.4800

> <Gold.Chemscore.Hbond>
0.6613

> <Gold.Chemscore.Metal>
0.0000

> <Gold.Chemscore.Lipo>
97.0404

> <Gold.Chemscore.Internal_Hbond>
0.0000

> <Gold.Chemscore.DEClash>
0.3012

> <Gold.Chemscore.DEInternal>
2.3200

> <Gold.Chemscore.Rot>
1.5146

> <Gold.Chemscore.Internal.Correction>
   9.000000E+99

> <Gold.Chemscore.Hbonds>
donor molecule, donor type, donor heavy atom, donor atom, acceptor molecule, acceptor atom, score
      P1  H  7997  8009       L1     9  0.42

> <Gold.Chemscore.Hbond.Weighted>
-2.2088

> <Gold.Chemscore.Metal.Weighted>
-0.0000

> <Gold.Chemscore.Lipo.Weighted>
-11.3537

> <Gold.Chemscore.Internal_Hbond.Weighted>
0.0000

> <Gold.Chemscore.DEClash.Weighted>
0.3012

> <Gold.Chemscore.DEInternal.Weighted>
2.3200

> <Gold.Chemscore.Rot.Weighted>
3.8773

> <Gold.Chemscore.Internal.Correction.Weighted>
   9.000000E+99

> <Gold.Protein.RotatedTorsions>
[ 6907 6896 6895 6894 ] final   -9.47 input  -60.11 | X-H torsion
[ 7974 7965 7964 7962 ] final -138.13 input  175.53 | X-H torsion
[ 8008 7997 7996 7995 ] final  170.54 input   59.86 | X-H torsion
[ 10167 10162 10161 10158 ] final  -60.05 input  -65.29 | X-H torsion
[ 10718 10713 10712 10709 ] final -139.04 input   66.30 | X-H torsion
[ 10763 10752 10751 10750 ] final  156.40 input  -60.55 | X-H torsion
[ 11005 11000 10999 10996 ] final  -51.54 input  -57.11 | X-H torsion

> <Gold.Protein.ActiveResidues>
 VAL166  LYS551  ARG553  GLY616  TRP617  ASP618  TYR619  PRO620  LYS621  CYS622 
 ASP623  PHE694  ASN695  SER759  ASP760  ASP761  ALA762  ILE779  LEU786  VAL792 
 PHE793  MET794  SER795  GLU796  ALA797  LYS798  CYS799  TRP800  GLU811  SER814 

> <Gold.Protein.RotatedAtoms>
  151.4173  135.0993  159.9602 H   0  0  0  0  0  0  0  0  0  0  0  0  # atno 6907 bound_to 6896
  152.5000  133.8740  159.7323 H   0  0  0  0  0  0  0  0  0  0  0  0  # atno 6908 bound_to 6896
  150.9249  133.6779  159.2852 H   0  0  0  0  0  0  0  0  0  0  0  0  # atno 6909 bound_to 6896
  144.8784  140.6471  143.5222 H   0  0  0  0  0  0  0  0  0  0  0  0  # atno 7974 bound_to 7965
  156.1356  140.1535  156.8999 H   0  0  0  0  0  0  0  0  0  0  0  0  # atno 8008 bound_to 7997
  154.4944  140.0842  156.7705 H   0  0  0  0  0  0  0  0  0  0  0  0  # atno 8009 bound_to 7997
  155.4175  140.3421  155.4271 H   0  0  0  0  0  0  0  0  0  0  0  0  # atno 8010 bound_to 7997
  140.6096  143.2383  151.5740 H   0  0  0  0  0  0  0  0  0  0  0  0  # atno 10167 bound_to 10162
  156.3062  130.7456  151.1520 H   0  0  0  0  0  0  0  0  0  0  0  0  # atno 10718 bound_to 10713
  154.1838  135.2798  155.3044 H   0  0  0  0  0  0  0  0  0  0  0  0  # atno 10763 bound_to 10752
  154.5982  135.5538  153.7351 H   0  0  0  0  0  0  0  0  0  0  0  0  # atno 10764 bound_to 10752
  153.0131  135.6385  154.1977 H   0  0  0  0  0  0  0  0  0  0  0  0  # atno 10765 bound_to 10752
  141.0876  133.6639  156.3892 H   0  0  0  0  0  0  0  0  0  0  0  0  # atno 11005 bound_to 11000
  145.4000  139.1599  143.4183 LP  0  0  0  0  0  0  0  0  0  0  0  0  # atno 17320 bound_to 7965
  146.2978  140.4096  142.8715 LP  0  0  0  0  0  0  0  0  0  0  0  0  # atno 17321 bound_to 7965
  139.5351  144.2804  152.1233 LP  0  0  0  0  0  0  0  0  0  0  0  0  # atno 17342 bound_to 10162
  140.2001  144.4666  150.6436 LP  0  0  0  0  0  0  0  0  0  0  0  0  # atno 17343 bound_to 10162
  157.7380  131.0545  150.5321 LP  0  0  0  0  0  0  0  0  0  0  0  0  # atno 17370 bound_to 10713
  156.5455  130.4218  149.6133 LP  0  0  0  0  0  0  0  0  0  0  0  0  # atno 17371 bound_to 10713
  140.5326  134.6198  157.5355 LP  0  0  0  0  0  0  0  0  0  0  0  0  # atno 17394 bound_to 11000
  139.9697  134.7314  156.0066 LP  0  0  0  0  0  0  0  0  0  0  0  0  # atno 17395 bound_to 11000

$$$$
