AV-unprocessed.smi:1666|AV-procd|sdf|6672|dock4
  -GOLD-   22720 7383D 1   1.00000     0.00000
 Structure written by MMmdl.
 40 41  0  0  0  0  0  0  0  0  2 V2000
  147.5317  133.0266  152.3524 C   0  0  0  0  0  0  0  0  0  0  0  0
  146.2367  132.9957  151.5567 C   0  0  0  0  0  0  0  0  0  0  0  0
  145.6120  131.7560  151.3032 C   0  0  0  0  0  0  0  0  0  0  0  0
  144.4147  131.7290  150.5681 C   0  0  0  0  0  0  0  0  0  0  0  0
  143.8893  132.9508  150.1140 C   0  0  0  0  0  0  0  0  0  0  0  0
  144.4792  134.1399  150.3517 N   0  0  0  0  0  0  0  0  0  0  0  0
  145.6352  134.1835  151.0608 C   0  0  0  0  0  0  0  0  0  0  0  0
  146.3127  135.4017  151.3490 N   0  0  0  0  0  0  0  0  0  0  0  0
  145.7875  136.6235  151.5478 C   0  0  0  0  0  0  0  0  0  0  0  0
  144.5877  136.9003  151.5192 O   0  0  0  0  0  0  0  0  0  0  0  0
  146.7450  137.5320  151.7841 N   0  0  0  0  0  0  0  0  0  0  0  0
  146.5016  138.9471  152.0371 C   0  0  0  0  0  0  0  0  0  0  0  0
  146.7006  139.2957  153.5247 C   0  0  0  0  0  0  0  0  0  0  0  0
  145.9480  140.5093  153.9273 N   0  3  0  0  0  0  0  0  0  0  0  0
  145.4345  140.4195  155.3153 C   0  0  0  0  0  0  0  0  0  0  0  0
  144.6236  141.6764  155.6738 C   0  0  0  0  0  0  0  0  0  0  0  0
  145.4339  142.8318  155.4998 O   0  0  0  0  0  0  0  0  0  0  0  0
  145.8624  142.9820  154.1523 C   0  0  0  0  0  0  0  0  0  0  0  0
  146.7126  141.7679  153.7408 C   0  0  0  0  0  0  0  0  0  0  0  0
  147.8496  132.0219  152.6325 H   0  0  0  0  0  0  0  0  0  0  0  0
  147.4033  133.6047  153.2679 H   0  0  0  0  0  0  0  0  0  0  0  0
  148.3313  133.4789  151.7651 H   0  0  0  0  0  0  0  0  0  0  0  0
  146.0429  130.8347  151.6668 H   0  0  0  0  0  0  0  0  0  0  0  0
  143.9122  130.7965  150.3578 H   0  0  0  0  0  0  0  0  0  0  0  0
  142.9716  132.9753  149.5452 H   0  0  0  0  0  0  0  0  0  0  0  0
  147.3175  135.3311  151.4090 H   0  0  0  0  0  0  0  0  0  0  0  0
  147.7063  137.2229  151.7916 H   0  0  0  0  0  0  0  0  0  0  0  0
  147.1532  139.5405  151.3953 H   0  0  0  0  0  0  0  0  0  0  0  0
  145.4787  139.1747  151.7359 H   0  0  0  0  0  0  0  0  0  0  0  0
  146.3559  138.4475  154.1185 H   0  0  0  0  0  0  0  0  0  0  0  0
  147.7574  139.4272  153.7623 H   0  0  0  0  0  0  0  0  0  0  0  0
  144.8047  139.5355  155.4219 H   0  0  0  0  0  0  0  0  0  0  0  0
  146.2701  140.3040  156.0076 H   0  0  0  0  0  0  0  0  0  0  0  0
  143.7256  141.7504  155.0582 H   0  0  0  0  0  0  0  0  0  0  0  0
  144.2951  141.6285  156.7121 H   0  0  0  0  0  0  0  0  0  0  0  0
  144.9998  143.0953  153.4934 H   0  0  0  0  0  0  0  0  0  0  0  0
  146.4491  143.8970  154.0690 H   0  0  0  0  0  0  0  0  0  0  0  0
  147.6244  141.7348  154.3394 H   0  0  0  0  0  0  0  0  0  0  0  0
  147.0186  141.8804  152.7013 H   0  0  0  0  0  0  0  0  0  0  0  0
  145.1372  140.5612  153.3271 H   0  0  0  0  0  0  0  0  0  0  0  0
  1  2  1  0  0  0  0
  1 20  1  0  0  0  0
  1 21  1  0  0  0  0
  1 22  1  0  0  0  0
  2  7  1  0  0  0  0
  2  3  2  0  0  0  0
  3  4  1  0  0  0  0
  3 23  1  0  0  0  0
  4  5  2  0  0  0  0
  4 24  1  0  0  0  0
  5  6  1  0  0  0  0
  5 25  1  0  0  0  0
  6  7  2  0  0  0  0
  7  8  1  0  0  0  0
  8  9  1  0  0  0  0
  8 26  1  0  0  0  0
  9 10  2  0  0  0  0
  9 11  1  0  0  0  0
 11 12  1  0  0  0  0
 11 27  1  0  0  0  0
 12 13  1  0  0  0  0
 12 28  1  0  0  0  0
 12 29  1  0  0  0  0
 13 14  1  0  0  0  0
 13 30  1  0  0  0  0
 13 31  1  0  0  0  0
 14 19  1  0  0  0  0
 14 15  1  0  0  0  0
 14 40  1  0  0  0  0
 15 16  1  0  0  0  0
 15 32  1  0  0  0  0
 15 33  1  0  0  0  0
 16 17  1  0  0  0  0
 16 34  1  0  0  0  0
 16 35  1  0  0  0  0
 17 18  1  0  0  0  0
 18 19  1  0  0  0  0
 18 36  1  0  0  0  0
 18 37  1  0  0  0  0
 19 38  1  0  0  0  0
 19 39  1  0  0  0  0
M  CHG  1  14   1
M  END
> <s_m_source_file>
AV-unprocessed.smi

> <i_m_source_file_index>
1666

> <i_lp_mmshare_version>
43012

> <i_f3d_flags>
0

> <s_epik_input>
W0NIM11jMVtjSF1bY0hdW2NIXW5jMVtOSF1DKD1PKVtOSF1bQ0gyXVtDSDJdTjJbQ0gyXVtDSDJdT1tDSDJdW0NIMl0y

> <s_epik_cmdline>
J2VwaWtfcHl0aG9uJywgJy1waCcsICc3LjAnLCAnLXRuJywgJzgnLCAnLW1hJywgJzIwMCcsICctbWV0YWxfYmluZGluZycsICctaW1hZScsICc8aW5maWxlLm1hZT4nLCAnLW9tYWUnLCAnPG91dGZpbGUubWFlPic=

> <r_epik_Ionization_Penalty>
0.602573

> <r_epik_Ionization_Penalty_Charging>
0.602531

> <r_epik_Ionization_Penalty_Neutral>
4.20806e-05

> <r_epik_State_Penalty>
0.617039

> <r_epik_Charging_Adjusted_Penalty>
1.21957

> <i_epik_Tot_Q>
1

> <i_epik_Tot_abs_Q>
1

> <r_epik_Metal_State_Penalty>
0.617042

> <b_epik_Metal_Only>
0

> <s_lp_Force_Field>
OPLS_2005

> <r_lp_Energy>
16.3818

> <b_lp_Chiralities_Consistent>
1

> <s_lp_Variant>
AV-unprocessed.smi:1666-2

> <Gold.Version>
5.8.1

> <Gold.Id.Protein>
6NUR|6NUR_protein|mol2

> <Gold.PLP.Fitness>
46.6041

> <Gold.PLP.PLP>
-33.5204

> <Gold.PLP.part.hbond>
-3.0000

> <Gold.PLP.part.metal>
0.0000

> <Gold.PLP.part.buried>
-6.5336

> <Gold.PLP.part.nonpolar>
-27.6125

> <Gold.PLP.part.repulsive>
2.8348

> <Gold.PLP.ligand.clash>
0.0000

> <Gold.PLP.ligand.torsion>
0.8364

> <Gold.PLP.Chemscore.Hbond>
3.9120

> <Gold.PLP.Chemscore.CHOScore>
1.0000

> <Gold.PLP.Chemscore.Metal>
0.0000

> <Gold.Chemscore.Hbonds>
donor molecule, donor type, donor heavy atom, donor atom, acceptor molecule, acceptor atom, score
      L1  H     8    26       P1  7948  0.94
      L1  H    11    27       P1  7948  1.00
      L1  H    14    40       P1 10175  2.00
      L1  C     5    25       P1 10186  1.00

> <Gold.PLP.Chemscore.Internal.Correction>
0.0205

> <Gold.Rescore>
     Score         DG    S(hbond)    S(metal)    S(lipo)     H(rot)  DE(clash)    DE(int)     intcor
     16.06     -19.76       2.85        0.00      74.34       1.54       1.82       1.88       ----

> <Gold.Chemscore.Fitness>
16.0620

> <Gold.Chemscore.DG>
-19.7579

> <Gold.Chemscore.ZeroCoef>
-5.4800

> <Gold.Chemscore.Hbond>
2.8497

> <Gold.Chemscore.Metal>
0.0000

> <Gold.Chemscore.Lipo>
74.3371

> <Gold.Chemscore.Internal_Hbond>
0.0000

> <Gold.Chemscore.DEClash>
1.8187

> <Gold.Chemscore.DEInternal>
1.8771

> <Gold.Chemscore.Rot>
1.5381

> <Gold.Chemscore.Internal.Correction>
   9.000000E+99

> <Gold.Chemscore.Hbonds>
donor molecule, donor type, donor heavy atom, donor atom, acceptor molecule, acceptor atom, score
      L1  H     8    26       P1  7948  0.78
      L1  H    11    27       P1  7948  0.96
      L1  H    14    40       P1 10175  0.96

> <Gold.Chemscore.Hbond.Weighted>
-9.5179

> <Gold.Chemscore.Metal.Weighted>
-0.0000

> <Gold.Chemscore.Lipo.Weighted>
-8.6974

> <Gold.Chemscore.Internal_Hbond.Weighted>
0.0000

> <Gold.Chemscore.DEClash.Weighted>
1.8187

> <Gold.Chemscore.DEInternal.Weighted>
1.8771

> <Gold.Chemscore.Rot.Weighted>
3.9375

> <Gold.Chemscore.Internal.Correction.Weighted>
   9.000000E+99

> <Gold.Protein.RotatedTorsions>
[ 6907 6896 6895 6894 ] final   97.72 input  -60.11 | X-H torsion
[ 7974 7965 7964 7962 ] final  -62.30 input  175.53 | X-H torsion
[ 8008 7997 7996 7995 ] final   69.61 input   59.86 | X-H torsion
[ 10167 10162 10161 10158 ] final    3.75 input  -65.29 | X-H torsion
[ 10718 10713 10712 10709 ] final   13.74 input   66.30 | X-H torsion
[ 10763 10752 10751 10750 ] final   29.81 input  -60.55 | X-H torsion
[ 11005 11000 10999 10996 ] final   29.15 input  -57.11 | X-H torsion

> <Gold.Protein.ActiveResidues>
 VAL166  LYS551  ARG553  GLY616  TRP617  ASP618  TYR619  PRO620  LYS621  CYS622 
 ASP623  PHE694  ASN695  SER759  ASP760  ASP761  ALA762  ILE779  LEU786  VAL792 
 PHE793  MET794  SER795  GLU796  ALA797  LYS798  CYS799  TRP800  GLU811  SER814 

> <Gold.Protein.RotatedAtoms>
  152.5419  134.0690  159.8185 H   0  0  0  0  0  0  0  0  0  0  0  0  # atno 6907 bound_to 6896
  151.0807  133.5385  159.2628 H   0  0  0  0  0  0  0  0  0  0  0  0  # atno 6908 bound_to 6896
  151.2213  135.0528  159.9005 H   0  0  0  0  0  0  0  0  0  0  0  0  # atno 6909 bound_to 6896
  145.7930  140.8699  143.0271 H   0  0  0  0  0  0  0  0  0  0  0  0  # atno 7974 bound_to 7965
  155.7262  140.3492  155.5038 H   0  0  0  0  0  0  0  0  0  0  0  0  # atno 8008 bound_to 7997
  155.9224  140.1069  157.1218 H   0  0  0  0  0  0  0  0  0  0  0  0  # atno 8009 bound_to 7997
  154.4072  140.1247  156.4683 H   0  0  0  0  0  0  0  0  0  0  0  0  # atno 8010 bound_to 7997
  140.6570  143.7401  150.7671 H   0  0  0  0  0  0  0  0  0  0  0  0  # atno 10167 bound_to 10162
  157.0290  130.6185  149.5732 H   0  0  0  0  0  0  0  0  0  0  0  0  # atno 10718 bound_to 10713
  153.0408  135.6480  154.0948 H   0  0  0  0  0  0  0  0  0  0  0  0  # atno 10763 bound_to 10752
  154.0654  135.2884  155.3319 H   0  0  0  0  0  0  0  0  0  0  0  0  # atno 10764 bound_to 10752
  154.6629  135.5384  153.8106 H   0  0  0  0  0  0  0  0  0  0  0  0  # atno 10765 bound_to 10752
  140.3080  134.2682  155.7740 H   0  0  0  0  0  0  0  0  0  0  0  0  # atno 11005 bound_to 11000
  144.6779  140.0150  143.7484 LP  0  0  0  0  0  0  0  0  0  0  0  0  # atno 17320 bound_to 7965
  145.9957  139.3051  143.0958 LP  0  0  0  0  0  0  0  0  0  0  0  0  # atno 17321 bound_to 7965
  140.1063  143.4741  152.2396 LP  0  0  0  0  0  0  0  0  0  0  0  0  # atno 17342 bound_to 10162
  139.5795  144.7503  151.3677 LP  0  0  0  0  0  0  0  0  0  0  0  0  # atno 17343 bound_to 10162
  156.0076  130.5164  150.7882 LP  0  0  0  0  0  0  0  0  0  0  0  0  # atno 17370 bound_to 10713
  157.5192  131.0930  151.0100 LP  0  0  0  0  0  0  0  0  0  0  0  0  # atno 17371 bound_to 10713
  141.2114  133.7689  156.9865 LP  0  0  0  0  0  0  0  0  0  0  0  0  # atno 17394 bound_to 11000
  140.1050  134.9512  157.1980 LP  0  0  0  0  0  0  0  0  0  0  0  0  # atno 17395 bound_to 11000

$$$$
