AV-unprocessed.smi:240|AV-procd|sdf|1837|dock1
  -GOLD-   2262020443D 1   1.00000     0.00000
 Structure written by MMmdl.
 55 59  0  0  0  0  0  0  0  0  1 V2000
  150.2684  140.0538  153.9693 O   0  0  0  0  0  0  0  0  0  0  0  0
  149.2372  139.8696  154.9235 C   0  0  1  0  0  0  0  0  0  0  0  0
  148.0146  140.6769  154.4827 C   0  0  0  0  0  0  0  0  0  0  0  0
  147.2510  139.7690  153.5136 C   0  0  0  0  0  0  0  0  0  0  0  0
  147.8364  138.3612  153.6922 C   0  0  0  0  0  0  0  0  0  0  0  0
  148.7435  138.4077  154.9404 C   0  0  1  0  0  0  0  0  0  0  0  0
  149.8642  137.3184  155.0555 C   0  0  1  0  0  0  0  0  0  0  0  0
  151.0628  137.8652  155.8769 C   0  0  0  0  0  0  0  0  0  0  0  0
  152.0816  136.8842  156.0235 O   0  0  0  0  0  0  0  0  0  0  0  0
  151.6175  135.7488  156.7362 C   0  0  0  0  0  0  0  0  0  0  0  0
  150.4861  135.1027  155.9315 C   0  0  0  0  0  0  0  0  0  0  0  0
  149.4151  136.0652  155.6893 N   0  0  0  0  0  0  0  0  0  0  0  0
  148.3601  135.4299  155.1361 C   0  0  0  0  0  0  0  0  0  0  0  0
  147.1265  135.8986  155.4465 N   0  0  0  0  0  0  0  0  0  0  0  0
  146.0423  135.3232  154.9179 C   0  0  0  0  0  0  0  0  0  0  0  0
  145.9720  134.2900  154.0756 N   0  0  0  0  0  0  0  0  0  0  0  0
  147.2125  133.8075  153.7758 C   0  0  0  0  0  0  0  0  0  0  0  0
  148.4510  134.3062  154.2665 C   0  0  0  0  0  0  0  0  0  0  0  0
  149.5023  133.5576  153.7514 N   0  0  0  0  0  0  0  0  0  0  0  0
  148.9186  132.6748  152.9877 C   0  0  0  0  0  0  0  0  0  0  0  0
  147.5457  132.7622  152.9327 N   0  0  0  0  0  0  0  0  0  0  0  0
  146.6464  131.9222  152.1574 C   0  0  0  0  0  0  0  0  0  0  0  0
  146.1048  132.6002  150.8730 C   0  0  2  0  0  0  0  0  0  0  0  0
  147.1770  132.8046  149.9711 O   0  0  0  0  0  0  0  0  0  0  0  0
  145.3957  133.9338  151.1173 C   0  0  0  0  0  0  0  0  0  0  0  0
  143.9324  133.5252  151.1865 C   0  0  0  0  0  0  0  0  0  0  0  0
  143.8413  132.5597  150.1535 O   0  0  0  0  0  0  0  0  0  0  0  0
  145.0089  131.7468  150.2018 C   0  0  0  0  0  0  0  0  0  0  0  0
  149.9997  139.6566  153.1550 H   0  0  0  0  0  0  0  0  0  0  0  0
  149.5920  140.1999  155.9003 H   0  0  0  0  0  0  0  0  0  0  0  0
  147.3871  140.8778  155.3519 H   0  0  0  0  0  0  0  0  0  0  0  0
  148.2733  141.6410  154.0425 H   0  0  0  0  0  0  0  0  0  0  0  0
  146.1825  139.7867  153.7319 H   0  0  0  0  0  0  0  0  0  0  0  0
  147.3793  140.1023  152.4831 H   0  0  0  0  0  0  0  0  0  0  0  0
  147.0378  137.6259  153.7795 H   0  0  0  0  0  0  0  0  0  0  0  0
  148.4259  138.1067  152.8108 H   0  0  0  0  0  0  0  0  0  0  0  0
  148.0968  138.3074  155.8141 H   0  0  0  0  0  0  0  0  0  0  0  0
  150.2298  137.0834  154.0556 H   0  0  0  0  0  0  0  0  0  0  0  0
  151.5214  138.7205  155.3829 H   0  0  0  0  0  0  0  0  0  0  0  0
  150.7361  138.2076  156.8604 H   0  0  0  0  0  0  0  0  0  0  0  0
  152.4403  135.0454  156.8630 H   0  0  0  0  0  0  0  0  0  0  0  0
  151.2797  136.0338  157.7337 H   0  0  0  0  0  0  0  0  0  0  0  0
  150.8768  134.7358  154.9812 H   0  0  0  0  0  0  0  0  0  0  0  0
  150.0991  134.2393  156.4752 H   0  0  0  0  0  0  0  0  0  0  0  0
  145.0960  135.7558  155.2072 H   0  0  0  0  0  0  0  0  0  0  0  0
  149.4781  131.9359  152.4325 H   0  0  0  0  0  0  0  0  0  0  0  0
  147.1736  131.0009  151.9052 H   0  0  0  0  0  0  0  0  0  0  0  0
  145.8169  131.6292  152.8024 H   0  0  0  0  0  0  0  0  0  0  0  0
  147.6639  131.9979  149.8978 H   0  0  0  0  0  0  0  0  0  0  0  0
  145.7261  134.4724  152.0040 H   0  0  0  0  0  0  0  0  0  0  0  0
  145.5289  134.6032  150.2657 H   0  0  0  0  0  0  0  0  0  0  0  0
  143.6968  133.0665  152.1481 H   0  0  0  0  0  0  0  0  0  0  0  0
  143.2512  134.3602  151.0210 H   0  0  0  0  0  0  0  0  0  0  0  0
  145.2751  131.4200  149.1956 H   0  0  0  0  0  0  0  0  0  0  0  0
  144.7875  130.8518  150.7852 H   0  0  0  0  0  0  0  0  0  0  0  0
  1  2  1  0  0  0  0
  1 29  1  0  0  0  0
  2  6  1  0  0  0  0
  2  3  1  0  0  0  0
  2 30  1  0  0  0  0
  3  4  1  0  0  0  0
  3 31  1  0  0  0  0
  3 32  1  0  0  0  0
  4  5  1  0  0  0  0
  4 33  1  0  0  0  0
  4 34  1  0  0  0  0
  5  6  1  0  0  0  0
  5 35  1  0  0  0  0
  5 36  1  0  0  0  0
  6  7  1  0  0  0  0
  6 37  1  0  0  0  0
  7 12  1  0  0  0  0
  7  8  1  0  0  0  0
  7 38  1  0  0  0  0
  8  9  1  0  0  0  0
  8 39  1  0  0  0  0
  8 40  1  0  0  0  0
  9 10  1  0  0  0  0
 10 11  1  0  0  0  0
 10 41  1  0  0  0  0
 10 42  1  0  0  0  0
 11 12  1  0  0  0  0
 11 43  1  0  0  0  0
 11 44  1  0  0  0  0
 12 13  1  0  0  0  0
 13 18  1  0  0  0  0
 13 14  2  0  0  0  0
 14 15  1  0  0  0  0
 15 16  2  0  0  0  0
 15 45  1  0  0  0  0
 16 17  1  0  0  0  0
 17 21  1  0  0  0  0
 17 18  2  0  0  0  0
 18 19  1  0  0  0  0
 19 20  2  0  0  0  0
 20 21  1  0  0  0  0
 20 46  1  0  0  0  0
 21 22  1  0  0  0  0
 22 23  1  0  0  0  0
 22 47  1  0  0  0  0
 22 48  1  0  0  0  0
 23 28  1  0  0  0  0
 23 24  1  0  0  0  0
 23 25  1  0  0  0  0
 24 49  1  0  0  0  0
 25 26  1  0  0  0  0
 25 50  1  0  0  0  0
 25 51  1  0  0  0  0
 26 27  1  0  0  0  0
 26 52  1  0  0  0  0
 26 53  1  0  0  0  0
 27 28  1  0  0  0  0
 28 54  1  0  0  0  0
 28 55  1  0  0  0  0
M  END
> <s_m_source_file>
AV-unprocessed.smi

> <i_m_source_file_index>
240

> <i_lp_mmshare_version>
43012

> <i_f3d_flags>
0

> <s_epik_input>
W09IXVtDQEBIXTFbQ0gyXVtDSDJdW0NIMl1bQ0BIXTFbQ0BASF0yW0NIMl1PW0NIMl1bQ0gyXU4yYyhuW2NIXW4zKWMoYzM0KW5bY0hdbjRbQ0gyXVtDQEBdNShbT0hdKVtDSDJdW0NIMl1PW0NIMl01

> <s_epik_cmdline>
J2VwaWtfcHl0aG9uJywgJy1waCcsICc3LjAnLCAnLXRuJywgJzgnLCAnLW1hJywgJzIwMCcsICctbWV0YWxfYmluZGluZycsICctaW1hZScsICc8aW5maWxlLm1hZT4nLCAnLW9tYWUnLCAnPG91dGZpbGUubWFlPic=

> <r_lp_tautomer_probability>
1

> <r_epik_Ionization_Penalty>
0.000130618

> <r_epik_Ionization_Penalty_Charging>
0

> <r_epik_Ionization_Penalty_Neutral>
0.000130618

> <r_epik_State_Penalty>
-0

> <r_epik_Charging_Adjusted_Penalty>
0

> <i_epik_Tot_Q>
0

> <i_epik_Tot_abs_Q>
0

> <r_epik_Metal_State_Penalty>
-0

> <b_epik_Metal_Only>
0

> <s_lp_Force_Field>
OPLS_2005

> <r_lp_Energy>
64.0442

> <b_lp_Chiralities_Consistent>
1

> <s_lp_Variant>
AV-unprocessed.smi:240-14

> <Gold.Version>
5.8.1

> <Gold.Id.Protein>
6NUR|6NUR_protein|mol2

> <Gold.PLP.Fitness>
45.6325

> <Gold.PLP.PLP>
-35.3316

> <Gold.PLP.part.hbond>
-4.4612

> <Gold.PLP.part.metal>
0.0000

> <Gold.PLP.part.buried>
-3.0658

> <Gold.PLP.part.nonpolar>
-28.6082

> <Gold.PLP.part.repulsive>
0.6044

> <Gold.PLP.ligand.clash>
0.0941

> <Gold.PLP.ligand.torsion>
1.5798

> <Gold.PLP.Chemscore.Hbond>
3.4216

> <Gold.PLP.Chemscore.CHOScore>
0.9951

> <Gold.PLP.Chemscore.Metal>
0.0000

> <Gold.Chemscore.Hbonds>
donor molecule, donor type, donor heavy atom, donor atom, acceptor molecule, acceptor atom, score
      L1  H     1    29       P1  7957  0.82
      L1  H    24    49       P1 10747  1.00
      P1  H  7989  7998       L1     1  0.96
      P1  H 10752 10765       L1     9  0.31
      L1  C    20    46       P1 10747  1.00

> <Gold.PLP.Chemscore.Internal.Correction>
0.3044

> <Gold.Rescore>
     Score         DG    S(hbond)    S(metal)    S(lipo)     H(rot)  DE(clash)    DE(int)     intcor
      9.73     -16.40       2.32        0.00      92.91       3.00       1.42       5.26       ----

> <Gold.Chemscore.Fitness>
9.7310

> <Gold.Chemscore.DG>
-16.4043

> <Gold.Chemscore.ZeroCoef>
-5.4800

> <Gold.Chemscore.Hbond>
2.3186

> <Gold.Chemscore.Metal>
0.0000

> <Gold.Chemscore.Lipo>
92.9070

> <Gold.Chemscore.Internal_Hbond>
0.0000

> <Gold.Chemscore.DEClash>
1.4153

> <Gold.Chemscore.DEInternal>
5.2581

> <Gold.Chemscore.Rot>
3.0039

> <Gold.Chemscore.Internal.Correction>
   9.000000E+99

> <Gold.Chemscore.Hbonds>
donor molecule, donor type, donor heavy atom, donor atom, acceptor molecule, acceptor atom, score
      L1  H     1    29       P1  7957  0.77
      L1  H    24    49       P1 10747  0.99
      P1  H  7989  7998       L1     1  0.24
      P1  H 10752 10765       L1     9  0.01

> <Gold.Chemscore.Hbond.Weighted>
-7.7441

> <Gold.Chemscore.Metal.Weighted>
-0.0000

> <Gold.Chemscore.Lipo.Weighted>
-10.8701

> <Gold.Chemscore.Internal_Hbond.Weighted>
0.0000

> <Gold.Chemscore.DEClash.Weighted>
1.4153

> <Gold.Chemscore.DEInternal.Weighted>
5.2581

> <Gold.Chemscore.Rot.Weighted>
7.6899

> <Gold.Chemscore.Internal.Correction.Weighted>
   9.000000E+99

> <Gold.Protein.RotatedTorsions>
[ 6907 6896 6895 6894 ] final  -44.47 input  -60.11 | X-H torsion
[ 7974 7965 7964 7962 ] final  -14.39 input  175.53 | X-H torsion
[ 8008 7997 7996 7995 ] final  144.64 input   59.86 | X-H torsion
[ 10167 10162 10161 10158 ] final -168.03 input  -65.29 | X-H torsion
[ 10718 10713 10712 10709 ] final  114.23 input   66.30 | X-H torsion
[ 10763 10752 10751 10750 ] final -173.27 input  -60.55 | X-H torsion
[ 11005 11000 10999 10996 ] final  -26.45 input  -57.11 | X-H torsion

> <Gold.Protein.ActiveResidues>
 VAL166  LYS551  ARG553  GLY616  TRP617  ASP618  TYR619  PRO620  LYS621  CYS622 
 ASP623  PHE694  ASN695  SER759  ASP760  ASP761  ALA762  ILE779  LEU786  VAL792 
 PHE793  MET794  SER795  GLU796  ALA797  LYS798  CYS799  TRP800  GLU811  SER814 

> <Gold.Protein.RotatedAtoms>
  150.9324  134.8739  159.7559 H   0  0  0  0  0  0  0  0  0  0  0  0  # atno 6907 bound_to 6896
  152.5044  134.4059  159.9442 H   0  0  0  0  0  0  0  0  0  0  0  0  # atno 6908 bound_to 6896
  151.4085  133.3695  159.2776 H   0  0  0  0  0  0  0  0  0  0  0  0  # atno 6909 bound_to 6896
  146.2076  140.3341  142.8402 H   0  0  0  0  0  0  0  0  0  0  0  0  # atno 7974 bound_to 7965
  156.2903  140.2230  156.5086 H   0  0  0  0  0  0  0  0  0  0  0  0  # atno 8008 bound_to 7997
  154.7628  140.0472  157.1009 H   0  0  0  0  0  0  0  0  0  0  0  0  # atno 8009 bound_to 7997
  154.9970  140.3097  155.4886 H   0  0  0  0  0  0  0  0  0  0  0  0  # atno 8010 bound_to 7997
  139.6011  144.1008  152.1744 H   0  0  0  0  0  0  0  0  0  0  0  0  # atno 10167 bound_to 10162
  157.6293  131.0995  150.7155 H   0  0  0  0  0  0  0  0  0  0  0  0  # atno 10718 bound_to 10713
  154.6098  135.2863  155.0445 H   0  0  0  0  0  0  0  0  0  0  0  0  # atno 10763 bound_to 10752
  154.1679  135.6477  153.5006 H   0  0  0  0  0  0  0  0  0  0  0  0  # atno 10764 bound_to 10752
  153.0190  135.5394  154.6847 H   0  0  0  0  0  0  0  0  0  0  0  0  # atno 10765 bound_to 10752
  140.9030  133.7511  156.0569 H   0  0  0  0  0  0  0  0  0  0  0  0  # atno 11005 bound_to 11000
  144.8831  140.7427  143.5974 LP  0  0  0  0  0  0  0  0  0  0  0  0  # atno 17320 bound_to 7965
  145.3262  139.1773  143.4561 LP  0  0  0  0  0  0  0  0  0  0  0  0  # atno 17321 bound_to 7965
  140.0604  144.5861  150.7267 LP  0  0  0  0  0  0  0  0  0  0  0  0  # atno 17342 bound_to 10162
  140.7250  143.2627  151.4149 LP  0  0  0  0  0  0  0  0  0  0  0  0  # atno 17343 bound_to 10162
  156.7497  130.4765  149.5459 LP  0  0  0  0  0  0  0  0  0  0  0  0  # atno 17370 bound_to 10713
  156.1486  130.6294  151.0565 LP  0  0  0  0  0  0  0  0  0  0  0  0  # atno 17371 bound_to 10713
  140.8206  134.3293  157.5383 LP  0  0  0  0  0  0  0  0  0  0  0  0  # atno 17394 bound_to 11000
  139.8745  134.9307  156.3509 LP  0  0  0  0  0  0  0  0  0  0  0  0  # atno 17395 bound_to 11000

$$$$
