AV-unprocessed.smi:1423|AV-procd|sdf|5797|dock10
  -GOLD-   22720 5453D 1   1.00000     0.00000
 Structure written by MMmdl.
 43 44  0  0  0  0  0  0  0  0  3 V2000
  153.1087  142.7866  161.1016 C   0  0  0  0  0  0  0  0  0  0  0  0
  152.9849  143.4738  159.8612 O   0  0  0  0  0  0  0  0  0  0  0  0
  152.1793  142.9238  158.8853 C   0  0  0  0  0  0  0  0  0  0  0  0
  151.7937  141.5745  159.0107 C   0  0  0  0  0  0  0  0  0  0  0  0
  150.9737  141.0042  158.0184 C   0  0  0  0  0  0  0  0  0  0  0  0
  150.5563  141.8077  156.9298 C   0  0  0  0  0  0  0  0  0  0  0  0
  149.7450  141.3534  155.8538 N   0  0  0  0  0  0  0  0  0  0  0  0
  149.0092  140.2319  155.7638 C   0  0  0  0  0  0  0  0  0  0  0  0
  148.8778  139.3895  156.6512 O   0  0  0  0  0  0  0  0  0  0  0  0
  148.4091  140.1418  154.5681 N   0  0  0  0  0  0  0  0  0  0  0  0
  147.5437  139.0452  154.1427 C   0  0  2  0  0  0  0  0  0  0  0  0
  147.1756  139.1859  152.6542 C   0  0  0  0  0  0  0  0  0  0  0  0
  146.1799  138.0971  152.2219 C   0  0  0  0  0  0  0  0  0  0  0  0
  144.9588  138.1209  153.0704 N   0  3  1  0  0  0  0  0  0  0  0  0
  143.9037  137.1836  152.6076 C   0  0  0  0  0  0  0  0  0  0  0  0
  142.5838  137.4450  153.3416 C   0  0  0  0  0  0  0  0  0  0  0  0
  141.9984  138.5957  152.9520 N   0  5  0  0  0  0  0  0  0  0  0  0
  142.1820  136.6383  154.1769 O   0  0  0  0  0  0  0  0  0  0  0  0
  145.2859  137.9449  154.5076 C   0  0  0  0  0  0  0  0  0  0  0  0
  146.2617  139.0311  154.9908 C   0  0  0  0  0  0  0  0  0  0  0  0
  151.0060  143.1442  156.8935 C   0  0  0  0  0  0  0  0  0  0  0  0
  151.7925  143.6969  157.8408 N   0  0  0  0  0  0  0  0  0  0  0  0
  153.7731  143.3469  161.7591 H   0  0  0  0  0  0  0  0  0  0  0  0
  153.5381  141.7929  160.9664 H   0  0  0  0  0  0  0  0  0  0  0  0
  152.1452  142.6956  161.6053 H   0  0  0  0  0  0  0  0  0  0  0  0
  152.1254  140.9844  159.8523 H   0  0  0  0  0  0  0  0  0  0  0  0
  150.6978  139.9658  158.1106 H   0  0  0  0  0  0  0  0  0  0  0  0
  149.6949  141.9783  155.0625 H   0  0  0  0  0  0  0  0  0  0  0  0
  148.5682  140.8819  153.9000 H   0  0  0  0  0  0  0  0  0  0  0  0
  148.0636  138.0970  154.2937 H   0  0  0  0  0  0  0  0  0  0  0  0
  146.7376  140.1683  152.4708 H   0  0  0  0  0  0  0  0  0  0  0  0
  148.0721  139.1271  152.0360 H   0  0  0  0  0  0  0  0  0  0  0  0
  145.9149  138.2525  151.1758 H   0  0  0  0  0  0  0  0  0  0  0  0
  146.6491  137.1141  152.2849 H   0  0  0  0  0  0  0  0  0  0  0  0
  143.7684  137.2652  151.5279 H   0  0  0  0  0  0  0  0  0  0  0  0
  144.1965  136.1513  152.8071 H   0  0  0  0  0  0  0  0  0  0  0  0
  142.5309  139.4707  153.0323 H   0  0  0  0  0  0  0  0  0  0  0  0
  144.3726  137.9963  155.1014 H   0  0  0  0  0  0  0  0  0  0  0  0
  145.7134  136.9534  154.6660 H   0  0  0  0  0  0  0  0  0  0  0  0
  146.5083  138.8635  156.0398 H   0  0  0  0  0  0  0  0  0  0  0  0
  145.7709  140.0043  154.9395 H   0  0  0  0  0  0  0  0  0  0  0  0
  150.7249  143.7947  156.0779 H   0  0  0  0  0  0  0  0  0  0  0  0
  144.5519  139.0417  152.9798 H   0  0  0  0  0  0  0  0  0  0  0  0
  1  2  1  0  0  0  0
  1 23  1  0  0  0  0
  1 24  1  0  0  0  0
  1 25  1  0  0  0  0
  2  3  1  0  0  0  0
  3 22  1  0  0  0  0
  3  4  2  0  0  0  0
  4  5  1  0  0  0  0
  4 26  1  0  0  0  0
  5  6  2  0  0  0  0
  5 27  1  0  0  0  0
  6  7  1  0  0  0  0
  6 21  1  0  0  0  0
  7  8  1  0  0  0  0
  7 28  1  0  0  0  0
  8  9  2  0  0  0  0
  8 10  1  0  0  0  0
 10 11  1  0  0  0  0
 10 29  1  0  0  0  0
 11 20  1  0  0  0  0
 11 12  1  0  0  0  0
 11 30  1  0  0  0  0
 12 13  1  0  0  0  0
 12 31  1  0  0  0  0
 12 32  1  0  0  0  0
 13 14  1  0  0  0  0
 13 33  1  0  0  0  0
 13 34  1  0  0  0  0
 14 15  1  0  0  0  0
 14 19  1  0  0  0  0
 14 43  1  0  0  0  0
 15 16  1  0  0  0  0
 15 35  1  0  0  0  0
 15 36  1  0  0  0  0
 16 17  1  0  0  0  0
 16 18  2  0  0  0  0
 17 37  1  0  0  0  0
 19 20  1  0  0  0  0
 19 38  1  0  0  0  0
 19 39  1  0  0  0  0
 20 40  1  0  0  0  0
 20 41  1  0  0  0  0
 21 22  2  0  0  0  0
 21 42  1  0  0  0  0
M  CHG  1  14   1
M  CHG  1  17  -1
M  END
> <s_m_source_file>
AV-unprocessed.smi

> <i_m_source_file_index>
1423

> <i_lp_mmshare_version>
43012

> <i_f3d_flags>
0

> <s_epik_input>
W0NIM11PYzFbY0hdW2NIXWMoW2NIXW4xKVtOSF1DKD1PKVtOSF1bQ0hdMltDSDJdW0NIMl1OKFtDSDJdW0NIMl0yKVtDSDJdQyg9TylbTkgyXQ==

> <s_epik_cmdline>
J2VwaWtfcHl0aG9uJywgJy1waCcsICc3LjAnLCAnLXRuJywgJzgnLCAnLW1hJywgJzIwMCcsICctbWV0YWxfYmluZGluZycsICctaW1hZScsICc8aW5maWxlLm1hZT4nLCAnLW9tYWUnLCAnPG91dGZpbGUubWFlPic=

> <r_lp_tautomer_probability>
1

> <r_epik_Ionization_Penalty>
5.72888

> <r_epik_Ionization_Penalty_Charging>
5.7288

> <r_epik_Ionization_Penalty_Neutral>
7.8452e-05

> <r_epik_State_Penalty>
6.54882

> <r_epik_Charging_Adjusted_Penalty>
12.2776

> <i_epik_Tot_Q>
0

> <i_epik_Tot_abs_Q>
2

> <r_epik_Metal_State_Penalty>
2.51301

> <b_epik_Metal_Only>
1

> <s_lp_Force_Field>
OPLS_2005

> <r_lp_Energy>
10.9641

> <b_lp_Chiralities_Consistent>
1

> <s_lp_Variant>
AV-unprocessed.smi:1423-4

> <Gold.Version>
5.8.1

> <Gold.Id.Protein>
6NUR|6NUR_protein|mol2

> <Gold.PLP.Fitness>
41.4962

> <Gold.PLP.PLP>
-30.3387

> <Gold.PLP.part.hbond>
-2.2746

> <Gold.PLP.part.metal>
0.0000

> <Gold.PLP.part.buried>
-1.5321

> <Gold.PLP.part.nonpolar>
-26.1213

> <Gold.PLP.part.repulsive>
0.3003

> <Gold.PLP.ligand.clash>
0.0000

> <Gold.PLP.ligand.torsion>
0.4381

> <Gold.PLP.Chemscore.Hbond>
3.0000

> <Gold.PLP.Chemscore.CHOScore>
1.0000

> <Gold.PLP.Chemscore.Metal>
0.0000

> <Gold.Chemscore.Hbonds>
donor molecule, donor type, donor heavy atom, donor atom, acceptor molecule, acceptor atom, score
      L1  H    14    43       P1 10175  2.00
      L1  H    17    37       P1 10175  1.00
      L1  C    21    42       P1  8028  1.00

> <Gold.PLP.Chemscore.Internal.Correction>
0.0337

> <Gold.Rescore>
     Score         DG    S(hbond)    S(metal)    S(lipo)     H(rot)  DE(clash)    DE(int)     intcor
     11.24     -14.01       1.97        0.00      66.67       2.29       1.35       1.42       ----

> <Gold.Chemscore.Fitness>
11.2394

> <Gold.Chemscore.DG>
-14.0086

> <Gold.Chemscore.ZeroCoef>
-5.4800

> <Gold.Chemscore.Hbond>
1.9729

> <Gold.Chemscore.Metal>
0.0000

> <Gold.Chemscore.Lipo>
66.6666

> <Gold.Chemscore.Internal_Hbond>
0.0000

> <Gold.Chemscore.DEClash>
1.3451

> <Gold.Chemscore.DEInternal>
1.4241

> <Gold.Chemscore.Rot>
2.2894

> <Gold.Chemscore.Internal.Correction>
   9.000000E+99

> <Gold.Chemscore.Hbonds>
donor molecule, donor type, donor heavy atom, donor atom, acceptor molecule, acceptor atom, score
      L1  H    14    43       P1 10175  1.00
      L1  H    17    37       P1 10175  0.89

> <Gold.Chemscore.Hbond.Weighted>
-6.5894

> <Gold.Chemscore.Metal.Weighted>
-0.0000

> <Gold.Chemscore.Lipo.Weighted>
-7.8000

> <Gold.Chemscore.Internal_Hbond.Weighted>
0.0000

> <Gold.Chemscore.DEClash.Weighted>
1.3451

> <Gold.Chemscore.DEInternal.Weighted>
1.4241

> <Gold.Chemscore.Rot.Weighted>
5.8608

> <Gold.Chemscore.Internal.Correction.Weighted>
   9.000000E+99

> <Gold.Protein.RotatedTorsions>
[ 6907 6896 6895 6894 ] final  109.79 input  -60.11 | X-H torsion
[ 7974 7965 7964 7962 ] final -131.93 input  175.53 | X-H torsion
[ 8008 7997 7996 7995 ] final  -86.12 input   59.86 | X-H torsion
[ 10167 10162 10161 10158 ] final  153.07 input  -65.29 | X-H torsion
[ 10718 10713 10712 10709 ] final  129.92 input   66.30 | X-H torsion
[ 10763 10752 10751 10750 ] final  -90.76 input  -60.55 | X-H torsion
[ 11005 11000 10999 10996 ] final   80.53 input  -57.11 | X-H torsion

> <Gold.Protein.ActiveResidues>
 VAL166  LYS551  ARG553  GLY616  TRP617  ASP618  TYR619  PRO620  LYS621  CYS622 
 ASP623  PHE694  ASN695  SER759  ASP760  ASP761  ALA762  ILE779  LEU786  VAL792 
 PHE793  MET794  SER795  GLU796  ALA797  LYS798  CYS799  TRP800  GLU811  SER814 

> <Gold.Protein.RotatedAtoms>
  152.5050  133.8893  159.7385 H   0  0  0  0  0  0  0  0  0  0  0  0  # atno 6907 bound_to 6896
  150.9336  133.6729  159.2812 H   0  0  0  0  0  0  0  0  0  0  0  0  # atno 6908 bound_to 6896
  151.4065  135.0983  159.9624 H   0  0  0  0  0  0  0  0  0  0  0  0  # atno 6909 bound_to 6896
  144.9333  140.7154  143.4892 H   0  0  0  0  0  0  0  0  0  0  0  0  # atno 7974 bound_to 7965
  154.6483  140.0582  156.9926 H   0  0  0  0  0  0  0  0  0  0  0  0  # atno 8008 bound_to 7997
  155.1410  140.3265  155.4433 H   0  0  0  0  0  0  0  0  0  0  0  0  # atno 8009 bound_to 7997
  156.2564  140.1964  156.6526 H   0  0  0  0  0  0  0  0  0  0  0  0  # atno 8010 bound_to 7997
  139.4829  144.5304  151.7732 H   0  0  0  0  0  0  0  0  0  0  0  0  # atno 10167 bound_to 10162
  157.5110  131.1096  150.9293 H   0  0  0  0  0  0  0  0  0  0  0  0  # atno 10718 bound_to 10713
  154.6691  135.5292  153.8116 H   0  0  0  0  0  0  0  0  0  0  0  0  # atno 10763 bound_to 10752
  153.0490  135.6524  154.0752 H   0  0  0  0  0  0  0  0  0  0  0  0  # atno 10764 bound_to 10752
  154.0653  135.2958  155.3297 H   0  0  0  0  0  0  0  0  0  0  0  0  # atno 10765 bound_to 10752
  139.9131  134.7927  156.1921 H   0  0  0  0  0  0  0  0  0  0  0  0  # atno 11005 bound_to 11000
  145.3107  139.1819  143.4640 LP  0  0  0  0  0  0  0  0  0  0  0  0  # atno 17320 bound_to 7965
  146.3256  140.3111  142.8627 LP  0  0  0  0  0  0  0  0  0  0  0  0  # atno 17321 bound_to 7965
  140.4830  144.1422  150.5936 LP  0  0  0  0  0  0  0  0  0  0  0  0  # atno 17342 bound_to 10162
  140.4257  143.2591  151.9659 LP  0  0  0  0  0  0  0  0  0  0  0  0  # atno 17343 bound_to 10162
  156.9933  130.5572  149.5305 LP  0  0  0  0  0  0  0  0  0  0  0  0  # atno 17370 bound_to 10713
  156.0289  130.5381  150.8481 LP  0  0  0  0  0  0  0  0  0  0  0  0  # atno 17371 bound_to 10713
  141.0577  133.6857  156.1892 LP  0  0  0  0  0  0  0  0  0  0  0  0  # atno 17394 bound_to 11000
  140.6710  134.4867  157.5587 LP  0  0  0  0  0  0  0  0  0  0  0  0  # atno 17395 bound_to 11000

$$$$
