AV-unprocessed.smi:1096|AV-procd|sdf|4749|dock8
  -GOLD-   22720 3283D 1   1.00000     0.00000
 Structure written by MMmdl.
 48 50  0  0  0  0  0  0  0  0  1 V2000
  150.0482  133.9303  155.6708 O   0  0  0  0  0  0  0  0  0  0  0  0
  149.6962  134.6572  154.7411 C   0  0  0  0  0  0  0  0  0  0  0  0
  148.8853  134.2930  153.7320 N   0  0  0  0  0  0  0  0  0  0  0  0
  148.2909  133.0246  153.4969 C   0  0  0  0  0  0  0  0  0  0  0  0
  147.1627  133.0411  152.6455 C   0  0  0  0  0  0  0  0  0  0  0  0
  146.5028  131.8335  152.3463 C   0  0  0  0  0  0  0  0  0  0  0  0
  146.9891  130.6386  152.9061 C   0  0  0  0  0  0  0  0  0  0  0  0
  148.1177  130.7097  153.7432 C   0  0  0  0  0  0  0  0  0  0  0  0
  148.7515  131.8660  154.0317 N   0  0  0  0  0  0  0  0  0  0  0  0
  150.0830  135.9351  154.6141 N   0  0  0  0  0  0  0  0  0  0  0  0
  150.9521  136.6506  155.5436 C   0  0  2  0  0  0  0  0  0  0  0  0
  150.1364  137.0908  156.7733 C   0  0  0  0  0  0  0  0  0  0  0  0
  150.9930  137.9081  157.7535 C   0  0  0  0  0  0  0  0  0  0  0  0
  151.6158  139.1405  157.0594 C   0  0  1  0  0  0  0  0  0  0  0  0
  152.4711  139.9809  158.0324 C   0  0  0  0  0  0  0  0  0  0  0  0
  153.6052  139.5835  158.3048 O   0  0  0  0  0  0  0  0  0  0  0  0
  151.9541  141.1045  158.5911 N   0  0  0  0  0  0  0  0  0  0  0  0
  150.6905  141.6963  158.1349 C   0  0  0  0  0  0  0  0  0  0  0  0
  151.0040  142.8953  157.2231 C   0  0  0  0  0  0  0  0  0  0  0  0
  151.9140  144.1899  158.1253 S   0  0  0  0  0  0  0  0  0  0  0  0
  153.2187  143.1772  158.8917 C   0  0  0  0  0  0  0  0  0  0  0  0
  152.6151  141.9499  159.5929 C   0  0  0  0  0  0  0  0  0  0  0  0
  152.4532  138.6847  155.8468 C   0  0  0  0  0  0  0  0  0  0  0  0
  151.6057  137.8682  154.8577 C   0  0  0  0  0  0  0  0  0  0  0  0
  148.6721  135.0050  153.0493 H   0  0  0  0  0  0  0  0  0  0  0  0
  146.8025  133.9682  152.2234 H   0  0  0  0  0  0  0  0  0  0  0  0
  145.6388  131.8254  151.6983 H   0  0  0  0  0  0  0  0  0  0  0  0
  146.5101  129.6929  152.6997 H   0  0  0  0  0  0  0  0  0  0  0  0
  148.5235  129.8153  154.1924 H   0  0  0  0  0  0  0  0  0  0  0  0
  149.7454  136.4565  153.8183 H   0  0  0  0  0  0  0  0  0  0  0  0
  151.7383  135.9736  155.8837 H   0  0  0  0  0  0  0  0  0  0  0  0
  149.2808  137.6893  156.4565 H   0  0  0  0  0  0  0  0  0  0  0  0
  149.7299  136.2170  157.2839 H   0  0  0  0  0  0  0  0  0  0  0  0
  150.3791  138.2230  158.5984 H   0  0  0  0  0  0  0  0  0  0  0  0
  151.7736  137.2632  158.1606 H   0  0  0  0  0  0  0  0  0  0  0  0
  150.7741  139.7373  156.7102 H   0  0  0  0  0  0  0  0  0  0  0  0
  150.0658  140.9800  157.5995 H   0  0  0  0  0  0  0  0  0  0  0  0
  150.0926  142.0175  158.9889 H   0  0  0  0  0  0  0  0  0  0  0  0
  151.5990  142.5750  156.3668 H   0  0  0  0  0  0  0  0  0  0  0  0
  150.0828  143.3249  156.8289 H   0  0  0  0  0  0  0  0  0  0  0  0
  153.9290  142.8682  158.1241 H   0  0  0  0  0  0  0  0  0  0  0  0
  153.7663  143.7930  159.6054 H   0  0  0  0  0  0  0  0  0  0  0  0
  151.8907  142.2728  160.3419 H   0  0  0  0  0  0  0  0  0  0  0  0
  153.3747  141.4171  160.1627 H   0  0  0  0  0  0  0  0  0  0  0  0
  152.8787  139.5463  155.3311 H   0  0  0  0  0  0  0  0  0  0  0  0
  153.2983  138.0817  156.1827 H   0  0  0  0  0  0  0  0  0  0  0  0
  152.2319  137.5428  154.0263 H   0  0  0  0  0  0  0  0  0  0  0  0
  150.8343  138.5097  154.4292 H   0  0  0  0  0  0  0  0  0  0  0  0
  1  2  2  0  0  0  0
  2  3  1  0  0  0  0
  2 10  1  0  0  0  0
  3  4  1  0  0  0  0
  3 25  1  0  0  0  0
  4  9  1  0  0  0  0
  4  5  2  0  0  0  0
  5  6  1  0  0  0  0
  5 26  1  0  0  0  0
  6  7  2  0  0  0  0
  6 27  1  0  0  0  0
  7  8  1  0  0  0  0
  7 28  1  0  0  0  0
  8  9  2  0  0  0  0
  8 29  1  0  0  0  0
 10 11  1  0  0  0  0
 10 30  1  0  0  0  0
 11 24  1  0  0  0  0
 11 12  1  0  0  0  0
 11 31  1  0  0  0  0
 12 13  1  0  0  0  0
 12 32  1  0  0  0  0
 12 33  1  0  0  0  0
 13 14  1  0  0  0  0
 13 34  1  0  0  0  0
 13 35  1  0  0  0  0
 14 15  1  0  0  0  0
 14 23  1  0  0  0  0
 14 36  1  0  0  0  0
 15 16  2  0  0  0  0
 15 17  1  0  0  0  0
 17 22  1  0  0  0  0
 17 18  1  0  0  0  0
 18 19  1  0  0  0  0
 18 37  1  0  0  0  0
 18 38  1  0  0  0  0
 19 20  1  0  0  0  0
 19 39  1  0  0  0  0
 19 40  1  0  0  0  0
 20 21  1  0  0  0  0
 21 22  1  0  0  0  0
 21 41  1  0  0  0  0
 21 42  1  0  0  0  0
 22 43  1  0  0  0  0
 22 44  1  0  0  0  0
 23 24  1  0  0  0  0
 23 45  1  0  0  0  0
 23 46  1  0  0  0  0
 24 47  1  0  0  0  0
 24 48  1  0  0  0  0
M  END
> <s_m_source_file>
AV-unprocessed.smi

> <i_m_source_file_index>
1096

> <i_lp_mmshare_version>
43012

> <i_f3d_flags>
0

> <s_epik_input>
bjFbY0hdW2NIXVtjSF1bY0hdYzFbTkhdQyg9TylbTkhdW0NAQEhdMltDSDJdW0NIMl1bQ0BIXShbQ0gyXVtDSDJdMilDKD1PKU4zW0NIMl1bQ0gyXVNbQ0gyXVtDSDJdMw==

> <s_epik_cmdline>
J2VwaWtfcHl0aG9uJywgJy1waCcsICc3LjAnLCAnLXRuJywgJzgnLCAnLW1hJywgJzIwMCcsICctbWV0YWxfYmluZGluZycsICctaW1hZScsICc8aW5maWxlLm1hZT4nLCAnLW9tYWUnLCAnPG91dGZpbGUubWFlPic=

> <r_lp_tautomer_probability>
1

> <r_epik_Ionization_Penalty>
5.08504e-05

> <r_epik_Ionization_Penalty_Charging>
0

> <r_epik_Ionization_Penalty_Neutral>
5.08504e-05

> <r_epik_State_Penalty>
-0

> <r_epik_Charging_Adjusted_Penalty>
0

> <i_epik_Tot_Q>
0

> <i_epik_Tot_abs_Q>
0

> <r_epik_Metal_State_Penalty>
-0

> <b_epik_Metal_Only>
0

> <s_lp_Force_Field>
OPLS_2005

> <r_lp_Energy>
29.3602

> <b_lp_Chiralities_Consistent>
1

> <s_lp_Variant>
AV-unprocessed.smi:1096-1

> <Gold.Version>
5.8.1

> <Gold.Id.Protein>
6NUR|6NUR_protein|mol2

> <Gold.PLP.Fitness>
49.5894

> <Gold.PLP.PLP>
-43.1021

> <Gold.PLP.part.hbond>
-3.1336

> <Gold.PLP.part.metal>
0.0000

> <Gold.PLP.part.buried>
-3.7157

> <Gold.PLP.part.nonpolar>
-35.3837

> <Gold.PLP.part.repulsive>
0.1591

> <Gold.PLP.ligand.clash>
0.0000

> <Gold.PLP.ligand.torsion>
0.8851

> <Gold.PLP.Chemscore.Hbond>
2.7303

> <Gold.PLP.Chemscore.CHOScore>
0.0000

> <Gold.PLP.Chemscore.Metal>
0.0000

> <Gold.Chemscore.Hbonds>
donor molecule, donor type, donor heavy atom, donor atom, acceptor molecule, acceptor atom, score
      L1  H     3    25       P1  7948  1.00
      L1  H    10    30       P1  7948  0.73
      P1  H  7997  8009       L1    16  1.00

> <Gold.PLP.Chemscore.Internal.Correction>
0.0664

> <Gold.Rescore>
     Score         DG    S(hbond)    S(metal)    S(lipo)     H(rot)  DE(clash)    DE(int)     intcor
     19.55     -21.73       2.28        0.00     101.33       1.26       0.03       2.15       ----

> <Gold.Chemscore.Fitness>
19.5523

> <Gold.Chemscore.DG>
-21.7291

> <Gold.Chemscore.ZeroCoef>
-5.4800

> <Gold.Chemscore.Hbond>
2.2793

> <Gold.Chemscore.Metal>
0.0000

> <Gold.Chemscore.Lipo>
101.3349

> <Gold.Chemscore.Internal_Hbond>
0.0000

> <Gold.Chemscore.DEClash>
0.0277

> <Gold.Chemscore.DEInternal>
2.1491

> <Gold.Chemscore.Rot>
1.2578

> <Gold.Chemscore.Internal.Correction>
   9.000000E+99

> <Gold.Chemscore.Hbonds>
donor molecule, donor type, donor heavy atom, donor atom, acceptor molecule, acceptor atom, score
      L1  H     3    25       P1  7948  0.49
      L1  H    10    30       P1  7948  0.35
      P1  H  7997  8009       L1    16  0.90

> <Gold.Chemscore.Hbond.Weighted>
-7.6129

> <Gold.Chemscore.Metal.Weighted>
-0.0000

> <Gold.Chemscore.Lipo.Weighted>
-11.8562

> <Gold.Chemscore.Internal_Hbond.Weighted>
0.0000

> <Gold.Chemscore.DEClash.Weighted>
0.0277

> <Gold.Chemscore.DEInternal.Weighted>
2.1491

> <Gold.Chemscore.Rot.Weighted>
3.2200

> <Gold.Chemscore.Internal.Correction.Weighted>
   9.000000E+99

> <Gold.Protein.RotatedTorsions>
[ 6907 6896 6895 6894 ] final   68.86 input  -60.11 | X-H torsion
[ 7974 7965 7964 7962 ] final  149.58 input  175.53 | X-H torsion
[ 8008 7997 7996 7995 ] final  137.70 input   59.86 | X-H torsion
[ 10167 10162 10161 10158 ] final  -92.25 input  -65.29 | X-H torsion
[ 10718 10713 10712 10709 ] final   46.31 input   66.30 | X-H torsion
[ 10763 10752 10751 10750 ] final  175.58 input  -60.55 | X-H torsion
[ 11005 11000 10999 10996 ] final  171.81 input  -57.11 | X-H torsion

> <Gold.Protein.ActiveResidues>
 VAL166  LYS551  ARG553  GLY616  TRP617  ASP618  TYR619  PRO620  LYS621  CYS622 
 ASP623  PHE694  ASN695  SER759  ASP760  ASP761  ALA762  ILE779  LEU786  VAL792 
 PHE793  MET794  SER795  GLU796  ALA797  LYS798  CYS799  TRP800  GLU811  SER814 

> <Gold.Protein.RotatedAtoms>
  152.4648  134.5100  159.9750 H   0  0  0  0  0  0  0  0  0  0  0  0  # atno 6907 bound_to 6896
  151.5141  133.3473  159.2898 H   0  0  0  0  0  0  0  0  0  0  0  0  # atno 6908 bound_to 6896
  150.8628  134.8012  159.7157 H   0  0  0  0  0  0  0  0  0  0  0  0  # atno 6909 bound_to 6896
  144.8427  139.6299  143.6009 H   0  0  0  0  0  0  0  0  0  0  0  0  # atno 7974 bound_to 7965
  156.3001  140.2412  156.3952 H   0  0  0  0  0  0  0  0  0  0  0  0  # atno 8008 bound_to 7997
  154.8577  140.0421  157.1665 H   0  0  0  0  0  0  0  0  0  0  0  0  # atno 8009 bound_to 7997
  154.8930  140.2966  155.5364 H   0  0  0  0  0  0  0  0  0  0  0  0  # atno 8010 bound_to 7997
  140.3367  143.2964  151.9881 H   0  0  0  0  0  0  0  0  0  0  0  0  # atno 10167 bound_to 10162
  157.4467  130.8114  149.7748 H   0  0  0  0  0  0  0  0  0  0  0  0  # atno 10718 bound_to 10713
  154.4695  135.2770  155.1653 H   0  0  0  0  0  0  0  0  0  0  0  0  # atno 10763 bound_to 10752
  154.3408  135.6170  153.5599 H   0  0  0  0  0  0  0  0  0  0  0  0  # atno 10764 bound_to 10752
  152.9863  135.5788  154.5073 H   0  0  0  0  0  0  0  0  0  0  0  0  # atno 10765 bound_to 10752
  140.3230  134.7421  157.4078 H   0  0  0  0  0  0  0  0  0  0  0  0  # atno 11005 bound_to 11000
  146.2717  139.6652  142.9291 LP  0  0  0  0  0  0  0  0  0  0  0  0  # atno 17320 bound_to 7965
  145.4660  141.0434  143.2725 LP  0  0  0  0  0  0  0  0  0  0  0  0  # atno 17321 bound_to 7965
  139.4847  144.6190  151.7291 LP  0  0  0  0  0  0  0  0  0  0  0  0  # atno 17342 bound_to 10162
  140.5347  144.0675  150.6066 LP  0  0  0  0  0  0  0  0  0  0  0  0  # atno 17343 bound_to 10162
  155.9970  130.3902  150.2756 LP  0  0  0  0  0  0  0  0  0  0  0  0  # atno 17370 bound_to 10713
  157.0924  131.0173  151.3116 LP  0  0  0  0  0  0  0  0  0  0  0  0  # atno 17371 bound_to 10713
  140.0926  134.5581  155.8430 LP  0  0  0  0  0  0  0  0  0  0  0  0  # atno 17394 bound_to 11000
  141.2082  133.6671  156.6355 LP  0  0  0  0  0  0  0  0  0  0  0  0  # atno 17395 bound_to 11000

$$$$
