AV-unprocessed.smi:1557|AV-procd|sdf|6270|dock4
  -GOLD-   22720 6463D 1   1.00000     0.00000
 Structure written by MMmdl.
 41 42  0  0  0  0  0  0  0  0  1 V2000
  151.9699  137.9777  154.9126 C   0  0  0  0  0  0  0  0  0  0  0  0
  150.9929  139.1539  154.8468 C   0  0  0  0  0  0  0  0  0  0  0  0
  149.7799  138.7052  154.2509 O   0  0  0  0  0  0  0  0  0  0  0  0
  148.7764  139.6248  154.0117 C   0  0  0  0  0  0  0  0  0  0  0  0
  148.9758  140.9131  154.3876 N   0  0  0  0  0  0  0  0  0  0  0  0
  147.9939  141.8087  154.1571 C   0  0  0  0  0  0  0  0  0  0  0  0
  146.7691  141.4712  153.5523 C   0  0  0  0  0  0  0  0  0  0  0  0
  146.5601  140.1357  153.1611 C   0  0  0  0  0  0  0  0  0  0  0  0
  147.5881  139.1876  153.3821 C   0  0  0  0  0  0  0  0  0  0  0  0
  147.4741  137.8119  153.0427 N   0  0  0  0  0  0  0  0  0  0  0  0
  146.3573  137.0891  152.8569 C   0  0  0  0  0  0  0  0  0  0  0  0
  145.2069  137.5105  152.9783 O   0  0  0  0  0  0  0  0  0  0  0  0
  146.6517  135.8322  152.4926 N   0  0  0  0  0  0  0  0  0  0  0  0
  145.6763  134.8017  152.1335 C   0  0  2  0  0  0  0  0  0  0  0  0
  146.4538  133.5605  151.6276 C   0  0  0  0  0  0  0  0  0  0  0  0
  145.6387  132.5172  150.8310 C   0  0  0  0  0  0  0  0  0  0  0  0
  144.2562  132.1742  151.4231 C   0  0  0  0  0  0  0  0  0  0  0  0
  143.2360  133.3375  151.5302 C   0  0  0  0  0  0  0  0  0  0  0  0
  143.6079  134.5527  150.8050 N   0  0  0  0  0  0  0  0  0  0  0  0
  144.7055  135.2927  151.0360 C   0  0  0  0  0  0  0  0  0  0  0  0
  144.9453  136.3061  150.3803 O   0  0  0  0  0  0  0  0  0  0  0  0
  152.9143  138.2807  155.3652 H   0  0  0  0  0  0  0  0  0  0  0  0
  152.1852  137.5914  153.9161 H   0  0  0  0  0  0  0  0  0  0  0  0
  151.5601  137.1613  155.5078 H   0  0  0  0  0  0  0  0  0  0  0  0
  150.8067  139.5309  155.8538 H   0  0  0  0  0  0  0  0  0  0  0  0
  151.4312  139.9610  154.2577 H   0  0  0  0  0  0  0  0  0  0  0  0
  148.1878  142.8238  154.4704 H   0  0  0  0  0  0  0  0  0  0  0  0
  146.0053  142.2183  153.3959 H   0  0  0  0  0  0  0  0  0  0  0  0
  145.6160  139.8626  152.7156 H   0  0  0  0  0  0  0  0  0  0  0  0
  148.3438  137.3497  152.8207 H   0  0  0  0  0  0  0  0  0  0  0  0
  147.6253  135.5787  152.4126 H   0  0  0  0  0  0  0  0  0  0  0  0
  145.1102  134.5353  153.0274 H   0  0  0  0  0  0  0  0  0  0  0  0
  147.2921  133.8753  151.0036 H   0  0  0  0  0  0  0  0  0  0  0  0
  146.9018  133.0674  152.4913 H   0  0  0  0  0  0  0  0  0  0  0  0
  145.5132  132.8586  149.8025 H   0  0  0  0  0  0  0  0  0  0  0  0
  146.2276  131.6028  150.7531 H   0  0  0  0  0  0  0  0  0  0  0  0
  143.8158  131.3930  150.8026 H   0  0  0  0  0  0  0  0  0  0  0  0
  144.3854  131.7218  152.4072 H   0  0  0  0  0  0  0  0  0  0  0  0
  142.2667  133.0054  151.1577 H   0  0  0  0  0  0  0  0  0  0  0  0
  143.0704  133.5926  152.5778 H   0  0  0  0  0  0  0  0  0  0  0  0
  142.9783  134.8607  150.0781 H   0  0  0  0  0  0  0  0  0  0  0  0
  1  2  1  0  0  0  0
  1 22  1  0  0  0  0
  1 23  1  0  0  0  0
  1 24  1  0  0  0  0
  2  3  1  0  0  0  0
  2 25  1  0  0  0  0
  2 26  1  0  0  0  0
  3  4  1  0  0  0  0
  4  9  1  0  0  0  0
  4  5  2  0  0  0  0
  5  6  1  0  0  0  0
  6  7  2  0  0  0  0
  6 27  1  0  0  0  0
  7  8  1  0  0  0  0
  7 28  1  0  0  0  0
  8  9  2  0  0  0  0
  8 29  1  0  0  0  0
  9 10  1  0  0  0  0
 10 11  1  0  0  0  0
 10 30  1  0  0  0  0
 11 12  2  0  0  0  0
 11 13  1  0  0  0  0
 13 14  1  0  0  0  0
 13 31  1  0  0  0  0
 14 20  1  0  0  0  0
 14 15  1  0  0  0  0
 14 32  1  0  0  0  0
 15 16  1  0  0  0  0
 15 33  1  0  0  0  0
 15 34  1  0  0  0  0
 16 17  1  0  0  0  0
 16 35  1  0  0  0  0
 16 36  1  0  0  0  0
 17 18  1  0  0  0  0
 17 37  1  0  0  0  0
 17 38  1  0  0  0  0
 18 19  1  0  0  0  0
 18 39  1  0  0  0  0
 18 40  1  0  0  0  0
 19 20  1  0  0  0  0
 19 41  1  0  0  0  0
 20 21  2  0  0  0  0
M  END
> <s_m_source_file>
AV-unprocessed.smi

> <i_m_source_file_index>
1557

> <i_lp_mmshare_version>
43012

> <i_f3d_flags>
0

> <s_epik_input>
W0NIM11bQ0gyXU9jMW5bY0hdW2NIXVtjSF1jMVtOSF1DKD1PKVtOSF1bQ0BASF0yW0NIMl1bQ0gyXVtDSDJdW0NIMl1bTkhdQzI9Tw==

> <s_epik_cmdline>
J2VwaWtfcHl0aG9uJywgJy1waCcsICc3LjAnLCAnLXRuJywgJzgnLCAnLW1hJywgJzIwMCcsICctbWV0YWxfYmluZGluZycsICctaW1hZScsICc8aW5maWxlLm1hZT4nLCAnLW9tYWUnLCAnPG91dGZpbGUubWFlPic=

> <r_lp_tautomer_probability>
1

> <r_epik_Ionization_Penalty>
0.000101084

> <r_epik_Ionization_Penalty_Charging>
0

> <r_epik_Ionization_Penalty_Neutral>
0.000101084

> <r_epik_State_Penalty>
-0

> <r_epik_Charging_Adjusted_Penalty>
0

> <i_epik_Tot_Q>
0

> <i_epik_Tot_abs_Q>
0

> <r_epik_Metal_State_Penalty>
-0

> <b_epik_Metal_Only>
0

> <s_lp_Force_Field>
OPLS_2005

> <r_lp_Energy>
17.7694

> <b_lp_Chiralities_Consistent>
1

> <s_lp_Variant>
AV-unprocessed.smi:1557-1

> <Gold.Version>
5.8.1

> <Gold.Id.Protein>
6NUR|6NUR_protein|mol2

> <Gold.PLP.Fitness>
39.7585

> <Gold.PLP.PLP>
-29.5626

> <Gold.PLP.part.hbond>
-2.2878

> <Gold.PLP.part.metal>
0.0000

> <Gold.PLP.part.buried>
-0.9242

> <Gold.PLP.part.nonpolar>
-31.8437

> <Gold.PLP.part.repulsive>
4.4920

> <Gold.PLP.ligand.clash>
0.0000

> <Gold.PLP.ligand.torsion>
0.1634

> <Gold.PLP.Chemscore.Hbond>
2.5049

> <Gold.PLP.Chemscore.CHOScore>
1.0000

> <Gold.PLP.Chemscore.Metal>
0.0000

> <Gold.Chemscore.Hbonds>
donor molecule, donor type, donor heavy atom, donor atom, acceptor molecule, acceptor atom, score
      L1  H    10    30       P1  7948  0.85
      L1  H    13    31       P1  7948  0.77
      L1  H    19    41       P1 10186  0.64
      L1  C     6    27       P1  8028  1.00

> <Gold.PLP.Chemscore.Internal.Correction>
0.0082

> <Gold.Rescore>
     Score         DG    S(hbond)    S(metal)    S(lipo)     H(rot)  DE(clash)    DE(int)     intcor
     11.41     -16.13       1.80        0.00      72.34       1.49       3.32       1.40       ----

> <Gold.Chemscore.Fitness>
11.4129

> <Gold.Chemscore.DG>
-16.1326

> <Gold.Chemscore.ZeroCoef>
-5.4800

> <Gold.Chemscore.Hbond>
1.8011

> <Gold.Chemscore.Metal>
0.0000

> <Gold.Chemscore.Lipo>
72.3402

> <Gold.Chemscore.Internal_Hbond>
0.0000

> <Gold.Chemscore.DEClash>
3.3242

> <Gold.Chemscore.DEInternal>
1.3955

> <Gold.Chemscore.Rot>
1.4948

> <Gold.Chemscore.Internal.Correction>
   9.000000E+99

> <Gold.Chemscore.Hbonds>
donor molecule, donor type, donor heavy atom, donor atom, acceptor molecule, acceptor atom, score
      L1  H    10    30       P1  7948  0.81
      L1  H    13    31       P1  7948  0.73
      L1  H    19    41       P1 10186  0.28

> <Gold.Chemscore.Hbond.Weighted>
-6.0155

> <Gold.Chemscore.Metal.Weighted>
-0.0000

> <Gold.Chemscore.Lipo.Weighted>
-8.4638

> <Gold.Chemscore.Internal_Hbond.Weighted>
0.0000

> <Gold.Chemscore.DEClash.Weighted>
3.3242

> <Gold.Chemscore.DEInternal.Weighted>
1.3955

> <Gold.Chemscore.Rot.Weighted>
3.8268

> <Gold.Chemscore.Internal.Correction.Weighted>
   9.000000E+99

> <Gold.Protein.RotatedTorsions>
[ 6907 6896 6895 6894 ] final  -73.48 input  -60.11 | X-H torsion
[ 7974 7965 7964 7962 ] final  -66.51 input  175.53 | X-H torsion
[ 8008 7997 7996 7995 ] final -142.32 input   59.86 | X-H torsion
[ 10167 10162 10161 10158 ] final  -54.00 input  -65.29 | X-H torsion
[ 10718 10713 10712 10709 ] final  -54.76 input   66.30 | X-H torsion
[ 10763 10752 10751 10750 ] final   53.59 input  -60.55 | X-H torsion
[ 11005 11000 10999 10996 ] final  109.67 input  -57.11 | X-H torsion

> <Gold.Protein.ActiveResidues>
 VAL166  LYS551  ARG553  GLY616  TRP617  ASP618  TYR619  PRO620  LYS621  CYS622 
 ASP623  PHE694  ASN695  SER759  ASP760  ASP761  ALA762  ILE779  LEU786  VAL792 
 PHE793  MET794  SER795  GLU796  ALA797  LYS798  CYS799  TRP800  GLU811  SER814 

> <Gold.Protein.RotatedAtoms>
  150.7128  134.5010  159.5561 H   0  0  0  0  0  0  0  0  0  0  0  0  # atno 6907 bound_to 6896
  152.2607  134.8034  160.0440 H   0  0  0  0  0  0  0  0  0  0  0  0  # atno 6908 bound_to 6896
  151.8748  133.3448  159.3783 H   0  0  0  0  0  0  0  0  0  0  0  0  # atno 6909 bound_to 6896
  145.7409  140.8954  143.0530 H   0  0  0  0  0  0  0  0  0  0  0  0  # atno 7974 bound_to 7965
  155.4923  140.0569  157.2952 H   0  0  0  0  0  0  0  0  0  0  0  0  # atno 8008 bound_to 7997
  154.4618  140.2000  156.0174 H   0  0  0  0  0  0  0  0  0  0  0  0  # atno 8009 bound_to 7997
  156.0904  140.3234  155.7813 H   0  0  0  0  0  0  0  0  0  0  0  0  # atno 8010 bound_to 7997
  140.6454  143.2532  151.4873 H   0  0  0  0  0  0  0  0  0  0  0  0  # atno 10167 bound_to 10162
  156.1424  130.4154  150.0081 H   0  0  0  0  0  0  0  0  0  0  0  0  # atno 10718 bound_to 10713
  152.9796  135.5774  154.4765 H   0  0  0  0  0  0  0  0  0  0  0  0  # atno 10763 bound_to 10752
  154.4320  135.2774  155.1908 H   0  0  0  0  0  0  0  0  0  0  0  0  # atno 10764 bound_to 10752
  154.3612  135.6188  153.5745 H   0  0  0  0  0  0  0  0  0  0  0  0  # atno 10765 bound_to 10752
  139.8866  134.9464  156.6162 H   0  0  0  0  0  0  0  0  0  0  0  0  # atno 11005 bound_to 11000
  144.6871  139.9459  143.7476 LP  0  0  0  0  0  0  0  0  0  0  0  0  # atno 17320 bound_to 7965
  146.0449  139.3456  143.0675 LP  0  0  0  0  0  0  0  0  0  0  0  0  # atno 17321 bound_to 7965
  139.5665  144.2031  152.1772 LP  0  0  0  0  0  0  0  0  0  0  0  0  # atno 17342 bound_to 10162
  140.1314  144.5285  150.6800 LP  0  0  0  0  0  0  0  0  0  0  0  0  # atno 17343 bound_to 10162
  156.7962  130.9274  151.3646 LP  0  0  0  0  0  0  0  0  0  0  0  0  # atno 17370 bound_to 10713
  157.6587  130.8947  149.9783 LP  0  0  0  0  0  0  0  0  0  0  0  0  # atno 17371 bound_to 10713
  140.7774  133.8688  155.8540 LP  0  0  0  0  0  0  0  0  0  0  0  0  # atno 17394 bound_to 11000
  140.9790  134.1431  157.4511 LP  0  0  0  0  0  0  0  0  0  0  0  0  # atno 17395 bound_to 11000

$$$$
