#       Name:                AV-unprocessed.smi:2438
#       Creating user name   scv26
#       Creation time:       Fri Mar 27 13:23:11 2020


#       File generated by GOLD software.
#

@<TRIPOS>MOLECULE
AV-unprocessed.smi:2438
    48    49     1
SMALL
NO_CHARGES


@<TRIPOS>ATOM
      1 ****        -1.4724  -0.0916  -2.7905 C.3            1 S1                 0.0000
      2 ****        -0.5591   0.9055  -3.3318 N.3            1 S1                 0.0000
      3 ****        -1.0883   1.7496  -4.3960 C.3            1 S1                 0.0000
      4 ****         0.7517   0.4202  -3.5127 C.ar           1 S1                 0.0000
      5 ****         1.1546   0.1331  -4.7744 N.ar           1 S1                 0.0000
      6 ****         2.3896  -0.3446  -4.9349 C.ar           1 S1                 0.0000
      7 ****         3.2882  -0.5680  -3.9763 N.ar           1 S1                 0.0000
      8 ****         2.9099  -0.2875  -2.7121 C.ar           1 S1                 0.0000
      9 ****         1.6195   0.2127  -2.4084 C.ar           1 S1                 0.0000
     10 ****         1.2052   0.5606  -1.0930 N.am           1 S1                 0.0000
     11 ****         1.6096   0.0213   0.0680 C.2            1 S1                 0.0000
     12 ****         2.4784  -0.8425   0.1858 O.2            1 S1                 0.0000
     13 ****         0.9202   0.5269   1.0999 N.am           1 S1                 0.0000
     14 ****         1.0561   0.1141   2.4958 C.3            1 S1                 0.0000
     15 ****         0.5066   1.2084   3.4307 C.3            1 S1                 0.0000
     16 ****        -1.0259   1.3200   3.3542 C.3            1 S1                 0.0000
     17 ****        -1.7019  -0.0343   3.6214 C.3            1 S1                 0.0000
     18 ****        -1.1887  -1.1278   2.6608 C.3            1 S1                 0.0000
     19 ****        -1.8780  -2.4855   2.9049 C.3            1 S1                 0.0000
     20 ****        -1.6202  -2.9348   4.1334 F              1 S1                 0.0000
     21 ****        -3.1972  -2.3593   2.7599 F              1 S1                 0.0000
     22 ****        -1.4471  -3.3827   2.0181 F              1 S1                 0.0000
     23 ****         0.3499  -1.2348   2.7575 C.3            1 S1                 0.0000
     24 ****        -1.1016  -0.5169  -1.8581 H              1 S1                 0.0000
     25 ****        -1.6139  -0.9047  -3.5034 H              1 S1                 0.0000
     26 ****        -2.4461   0.3554  -2.5879 H              1 S1                 0.0000
     27 ****        -0.3510   2.4897  -4.7096 H              1 S1                 0.0000
     28 ****        -1.9716   2.2851  -4.0478 H              1 S1                 0.0000
     29 ****        -1.3721   1.1520  -5.2630 H              1 S1                 0.0000
     30 ****         2.6944  -0.5689  -5.9463 H              1 S1                 0.0000
     31 ****         3.6630  -0.4440  -1.9553 H              1 S1                 0.0000
     32 ****         0.4281   1.2033  -1.0409 H              1 S1                 0.0000
     33 ****         0.2275   1.2346   0.9039 H              1 S1                 0.0000
     34 ****         2.1205  -0.0027   2.7078 H              1 S1                 0.0000
     35 ****         0.7942   0.9772   4.4571 H              1 S1                 0.0000
     36 ****         0.9643   2.1707   3.1980 H              1 S1                 0.0000
     37 ****        -1.3786   2.0576   4.0757 H              1 S1                 0.0000
     38 ****        -1.3214   1.6884   2.3711 H              1 S1                 0.0000
     39 ****        -1.5176  -0.3333   4.6540 H              1 S1                 0.0000
     40 ****        -2.7820   0.0764   3.5222 H              1 S1                 0.0000
     41 ****        -1.4408  -0.8209   1.6445 H              1 S1                 0.0000
     42 ****         0.7193  -1.9911   2.0643 H              1 S1                 0.0000
     43 ****         0.6229  -1.5872   3.7529 H              1 S1                 0.0000
     44 ****        -0.4688   1.5815  -2.6004 LP             1 S1                 0.0000
     45 ****         0.5480   0.2743  -5.5567 LP             1 S1                 0.0000
     46 ****         4.1985  -0.9261  -4.1840 LP             1 S1                 0.0000
     47 ****         2.9441  -1.1971  -0.6250 LP             1 S1                 0.0000
     48 ****         2.7186  -1.1897   1.0923 LP             1 S1                 0.0000
@<TRIPOS>BOND
    1    1    2 1     
    2    1   24 1     
    3    1   25 1     
    4    1   26 1     
    5    2    3 1     
    6    2    4 1     
    7    3   27 1     
    8    3   28 1     
    9    3   29 1     
   10    4    9 ar    
   11    4    5 ar    
   12    5    6 ar    
   13    6    7 ar    
   14    6   30 1     
   15    7    8 ar    
   16    8    9 ar    
   17    8   31 1     
   18    9   10 1     
   19   10   11 am    
   20   10   32 1     
   21   11   12 2     
   22   11   13 am    
   23   13   14 1     
   24   13   33 1     
   25   14   23 1     
   26   14   15 1     
   27   14   34 1     
   28   15   16 1     
   29   15   35 1     
   30   15   36 1     
   31   16   17 1     
   32   16   37 1     
   33   16   38 1     
   34   17   18 1     
   35   17   39 1     
   36   17   40 1     
   37   18   19 1     
   38   18   23 1     
   39   18   41 1     
   40   19   20 1     
   41   19   21 1     
   42   19   22 1     
   43   23   42 1     
   44   23   43 1     
   45    2   44 1     
   46    5   45 1     
   47    7   46 1     
   48   12   47 1     
   49   12   48 1     
@<TRIPOS>SUBSTRUCTURE
      1 S1             1
@<TRIPOS>SET
LONE_PAIRS      STATIC     ATOMS    <user>   **** ""
5 44 45 46 47 48
DONOR_HYDROGENS      STATIC     ATOMS    <user>   **** ""
2 32 33
ATOM$BLUE        STATIC     ATOMS    COLORGROUP SYSTEM
5 44 45 46 47 48
ATOM$RED        STATIC     ATOMS    COLORGROUP SYSTEM
2 32 33
