AV-unprocessed.smi:1552|AV-procd|sdf|6235|dock10
  -GOLD-   22720 6413D 1   1.00000     0.00000
 Structure written by MMmdl.
 50 51  0  0  0  0  0  0  0  0  2 V2000
  152.1614  139.4013  155.5072 C   0  0  0  0  0  0  0  0  0  0  0  0
  151.2282  140.5080  155.8354 N   0  3  0  0  0  0  0  0  0  0  0  0
  150.0305  140.4769  154.9647 C   0  0  0  0  0  0  0  0  0  0  0  0
  150.8887  140.6820  157.2836 C   0  0  1  0  0  0  0  0  0  0  0  0
  150.9160  139.3580  158.0908 C   0  0  0  0  0  0  0  0  0  0  0  0
  149.6778  138.6047  157.9290 N   0  0  0  0  0  0  0  0  0  0  0  0
  149.3161  137.4714  158.5534 C   0  0  0  0  0  0  0  0  0  0  0  0
  150.0569  136.9633  159.3922 O   0  0  0  0  0  0  0  0  0  0  0  0
  147.9564  136.8121  158.2522 C   0  0  0  0  0  0  0  0  0  0  0  0
  147.5020  135.9832  159.3767 N   0  0  0  0  0  0  0  0  0  0  0  0
  147.5533  134.6002  159.2737 C   0  0  0  0  0  0  0  0  0  0  0  0
  147.1685  133.7620  160.2649 C   0  0  0  0  0  0  0  0  0  0  0  0
  146.6669  134.2934  161.5274 C   0  0  0  0  0  0  0  0  0  0  0  0
  146.2930  133.6169  162.4828 O   0  0  0  0  0  0  0  0  0  0  0  0
  146.6333  135.6887  161.5948 N   0  0  0  0  0  0  0  0  0  0  0  0
  147.0303  136.5584  160.5777 C   0  0  0  0  0  0  0  0  0  0  0  0
  146.9638  137.7751  160.7469 O   0  0  0  0  0  0  0  0  0  0  0  0
  151.6989  141.8439  157.9303 C   0  0  0  0  0  0  0  0  0  0  0  0
  151.6025  141.8421  159.4723 C   0  0  0  0  0  0  0  0  0  0  0  0
  152.5143  142.9124  160.0956 C   0  0  0  0  0  0  0  0  0  0  0  0
  152.2097  144.3080  159.5292 C   0  0  0  0  0  0  0  0  0  0  0  0
  152.3002  144.3164  157.9955 C   0  0  0  0  0  0  0  0  0  0  0  0
  151.3789  143.2519  157.3789 C   0  0  0  0  0  0  0  0  0  0  0  0
  146.2962  136.1032  162.4515 H   0  0  0  0  0  0  0  0  0  0  0  0
  151.6829  138.4282  155.6241 H   0  0  0  0  0  0  0  0  0  0  0  0
  153.0534  139.4174  156.1307 H   0  0  0  0  0  0  0  0  0  0  0  0
  152.4901  139.4842  154.4708 H   0  0  0  0  0  0  0  0  0  0  0  0
  149.4062  139.6111  155.1892 H   0  0  0  0  0  0  0  0  0  0  0  0
  150.3172  140.4281  153.9137 H   0  0  0  0  0  0  0  0  0  0  0  0
  149.4304  141.3780  155.0968 H   0  0  0  0  0  0  0  0  0  0  0  0
  149.8513  141.0199  157.3243 H   0  0  0  0  0  0  0  0  0  0  0  0
  151.7471  138.7330  157.7615 H   0  0  0  0  0  0  0  0  0  0  0  0
  151.0643  139.5671  159.1499 H   0  0  0  0  0  0  0  0  0  0  0  0
  148.9975  139.0044  157.2984 H   0  0  0  0  0  0  0  0  0  0  0  0
  147.2411  137.6072  158.0359 H   0  0  0  0  0  0  0  0  0  0  0  0
  147.9606  136.2110  157.3443 H   0  0  0  0  0  0  0  0  0  0  0  0
  147.9221  134.1635  158.3563 H   0  0  0  0  0  0  0  0  0  0  0  0
  147.2330  132.6928  160.1236 H   0  0  0  0  0  0  0  0  0  0  0  0
  152.7493  141.6569  157.7035 H   0  0  0  0  0  0  0  0  0  0  0  0
  150.5738  142.0227  159.7862 H   0  0  0  0  0  0  0  0  0  0  0  0
  151.8772  140.8625  159.8648 H   0  0  0  0  0  0  0  0  0  0  0  0
  152.3947  142.9176  161.1793 H   0  0  0  0  0  0  0  0  0  0  0  0
  153.5580  142.6606  159.9024 H   0  0  0  0  0  0  0  0  0  0  0  0
  151.2110  144.6191  159.8385 H   0  0  0  0  0  0  0  0  0  0  0  0
  152.9036  145.0384  159.9467 H   0  0  0  0  0  0  0  0  0  0  0  0
  152.0355  145.3030  157.6138 H   0  0  0  0  0  0  0  0  0  0  0  0
  153.3304  144.1330  157.6876 H   0  0  0  0  0  0  0  0  0  0  0  0
  151.4857  143.2753  156.2945 H   0  0  0  0  0  0  0  0  0  0  0  0
  150.3461  143.5178  157.6020 H   0  0  0  0  0  0  0  0  0  0  0  0
  151.7116  141.3572  155.5792 H   0  0  0  0  0  0  0  0  0  0  0  0
  1  2  1  0  0  0  0
  1 25  1  0  0  0  0
  1 26  1  0  0  0  0
  1 27  1  0  0  0  0
  2  3  1  0  0  0  0
  2  4  1  0  0  0  0
  2 50  1  0  0  0  0
  3 28  1  0  0  0  0
  3 29  1  0  0  0  0
  3 30  1  0  0  0  0
  4  5  1  0  0  0  0
  4 18  1  0  0  0  0
  4 31  1  0  0  0  0
  5  6  1  0  0  0  0
  5 32  1  0  0  0  0
  5 33  1  0  0  0  0
  6  7  1  0  0  0  0
  6 34  1  0  0  0  0
  7  8  2  0  0  0  0
  7  9  1  0  0  0  0
  9 10  1  0  0  0  0
  9 35  1  0  0  0  0
  9 36  1  0  0  0  0
 10 16  1  0  0  0  0
 10 11  1  0  0  0  0
 11 12  2  0  0  0  0
 11 37  1  0  0  0  0
 12 13  1  0  0  0  0
 12 38  1  0  0  0  0
 13 14  2  0  0  0  0
 13 15  1  0  0  0  0
 15 24  1  0  0  0  0
 15 16  1  0  0  0  0
 16 17  2  0  0  0  0
 18 23  1  0  0  0  0
 18 19  1  0  0  0  0
 18 39  1  0  0  0  0
 19 20  1  0  0  0  0
 19 40  1  0  0  0  0
 19 41  1  0  0  0  0
 20 21  1  0  0  0  0
 20 42  1  0  0  0  0
 20 43  1  0  0  0  0
 21 22  1  0  0  0  0
 21 44  1  0  0  0  0
 21 45  1  0  0  0  0
 22 23  1  0  0  0  0
 22 46  1  0  0  0  0
 22 47  1  0  0  0  0
 23 48  1  0  0  0  0
 23 49  1  0  0  0  0
M  CHG  1   2   1
M  END
> <s_m_source_file>
AV-unprocessed.smi

> <i_m_source_file_index>
1552

> <i_lp_mmshare_version>
43012

> <i_f3d_flags>
0

> <s_epik_input>
W0NIMl0xW0NIMl1bQ0gyXVtDSDJdW0NIMl1bQ0hdMVtDQEhdKE4oW0NIM10pW0NIM10pW0NIMl1bTkhdQyg9TylbQ0gyXW4yW2NIXVtjSF1jKD1PKVtuSF1jMj1P

> <s_epik_cmdline>
J2VwaWtfcHl0aG9uJywgJy1waCcsICc3LjAnLCAnLXRuJywgJzgnLCAnLW1hJywgJzIwMCcsICctbWV0YWxfYmluZGluZycsICctaW1hZScsICc8aW5maWxlLm1hZT4nLCAnLW9tYWUnLCAnPG91dGZpbGUubWFlPic=

> <r_lp_tautomer_probability>
1

> <r_epik_Ionization_Penalty>
0.00705217

> <r_epik_Ionization_Penalty_Charging>
0.00705209

> <r_epik_Ionization_Penalty_Neutral>
7.66101e-08

> <r_epik_State_Penalty>
-0

> <r_epik_Charging_Adjusted_Penalty>
0.00705209

> <i_epik_Tot_Q>
1

> <i_epik_Tot_abs_Q>
1

> <r_epik_Metal_State_Penalty>
0.375122

> <b_epik_Metal_Only>
0

> <s_lp_Force_Field>
OPLS_2005

> <r_lp_Energy>
31.5593

> <b_lp_Chiralities_Consistent>
1

> <s_lp_Variant>
AV-unprocessed.smi:1552-2

> <Gold.Version>
5.8.1

> <Gold.Id.Protein>
6NUR|6NUR_protein|mol2

> <Gold.PLP.Fitness>
46.8597

> <Gold.PLP.PLP>
-42.6694

> <Gold.PLP.part.hbond>
-3.1385

> <Gold.PLP.part.metal>
0.0000

> <Gold.PLP.part.buried>
-3.2848

> <Gold.PLP.part.nonpolar>
-36.9438

> <Gold.PLP.part.repulsive>
0.3635

> <Gold.PLP.ligand.clash>
0.0000

> <Gold.PLP.ligand.torsion>
2.1597

> <Gold.PLP.Chemscore.Hbond>
2.6960

> <Gold.PLP.Chemscore.CHOScore>
0.0000

> <Gold.PLP.Chemscore.Metal>
0.0000

> <Gold.Chemscore.Hbonds>
donor molecule, donor type, donor heavy atom, donor atom, acceptor molecule, acceptor atom, score
      P1  H  6896  6909       L1     8  0.39
      P1  H  6931  6943       L1    17  0.03
      P1  H  6934  6947       L1    17  0.37

> <Gold.PLP.Chemscore.Internal.Correction>
0.4216

> <Gold.Rescore>
     Score         DG    S(hbond)    S(metal)    S(lipo)     H(rot)  DE(clash)    DE(int)     intcor
     18.10     -20.02       2.76        0.00     100.11       2.50       0.10       1.83       ----

> <Gold.Chemscore.Fitness>
18.0955

> <Gold.Chemscore.DG>
-20.0240

> <Gold.Chemscore.ZeroCoef>
-5.4800

> <Gold.Chemscore.Hbond>
2.7613

> <Gold.Chemscore.Metal>
0.0000

> <Gold.Chemscore.Lipo>
100.1095

> <Gold.Chemscore.Internal_Hbond>
0.0000

> <Gold.Chemscore.DEClash>
0.0970

> <Gold.Chemscore.DEInternal>
1.8316

> <Gold.Chemscore.Rot>
2.4968

> <Gold.Chemscore.Internal.Correction>
   9.000000E+99

> <Gold.Chemscore.Hbonds>
donor molecule, donor type, donor heavy atom, donor atom, acceptor molecule, acceptor atom, score
      P1  H  6896  6909       L1     8  0.38
      P1  H  6931  6943       L1    17  0.02
      P1  H  6934  6947       L1    17  0.37

> <Gold.Chemscore.Hbond.Weighted>
-9.2229

> <Gold.Chemscore.Metal.Weighted>
-0.0000

> <Gold.Chemscore.Lipo.Weighted>
-11.7128

> <Gold.Chemscore.Internal_Hbond.Weighted>
0.0000

> <Gold.Chemscore.DEClash.Weighted>
0.0970

> <Gold.Chemscore.DEInternal.Weighted>
1.8316

> <Gold.Chemscore.Rot.Weighted>
6.3917

> <Gold.Chemscore.Internal.Correction.Weighted>
   9.000000E+99

> <Gold.Protein.RotatedTorsions>
[ 6907 6896 6895 6894 ] final  106.42 input  -60.11 | X-H torsion
[ 7974 7965 7964 7962 ] final  -67.04 input  175.53 | X-H torsion
[ 8008 7997 7996 7995 ] final  -96.33 input   59.86 | X-H torsion
[ 10167 10162 10161 10158 ] final -158.75 input  -65.29 | X-H torsion
[ 10718 10713 10712 10709 ] final -109.90 input   66.30 | X-H torsion
[ 10763 10752 10751 10750 ] final   47.04 input  -60.55 | X-H torsion
[ 11005 11000 10999 10996 ] final  -78.61 input  -57.11 | X-H torsion

> <Gold.Protein.ActiveResidues>
 VAL166  LYS551  ARG553  GLY616  TRP617  ASP618  TYR619  PRO620  LYS621  CYS622 
 ASP623  PHE694  ASN695  SER759  ASP760  ASP761  ALA762  ILE779  LEU786  VAL792 
 PHE793  MET794  SER795  GLU796  ALA797  LYS798  CYS799  TRP800  GLU811  SER814 

> <Gold.Protein.RotatedAtoms>
  152.5194  133.9383  159.7613 H   0  0  0  0  0  0  0  0  0  0  0  0  # atno 6907 bound_to 6896
  150.9719  133.6327  159.2743 H   0  0  0  0  0  0  0  0  0  0  0  0  # atno 6908 bound_to 6896
  151.3535  135.0895  159.9464 H   0  0  0  0  0  0  0  0  0  0  0  0  # atno 6909 bound_to 6896
  145.7342  140.8983  143.0564 H   0  0  0  0  0  0  0  0  0  0  0  0  # atno 7974 bound_to 7965
  154.7730  140.0472  157.1066 H   0  0  0  0  0  0  0  0  0  0  0  0  # atno 8008 bound_to 7997
  154.9797  140.3100  155.4932 H   0  0  0  0  0  0  0  0  0  0  0  0  # atno 8009 bound_to 7997
  156.2924  140.2238  156.4895 H   0  0  0  0  0  0  0  0  0  0  0  0  # atno 8010 bound_to 7997
  139.6668  143.9816  152.2259 H   0  0  0  0  0  0  0  0  0  0  0  0  # atno 10167 bound_to 10162
  156.0562  130.5788  150.8164 H   0  0  0  0  0  0  0  0  0  0  0  0  # atno 10718 bound_to 10713
  152.9804  135.5989  154.3698 H   0  0  0  0  0  0  0  0  0  0  0  0  # atno 10763 bound_to 10752
  154.3372  135.2768  155.2443 H   0  0  0  0  0  0  0  0  0  0  0  0  # atno 10764 bound_to 10752
  154.4540  135.5982  153.6266 H   0  0  0  0  0  0  0  0  0  0  0  0  # atno 10765 bound_to 10752
  141.1665  133.7070  156.7997 H   0  0  0  0  0  0  0  0  0  0  0  0  # atno 11005 bound_to 11000
  144.6886  139.9372  143.7474 LP  0  0  0  0  0  0  0  0  0  0  0  0  # atno 17320 bound_to 7965
  146.0509  139.3510  143.0640 LP  0  0  0  0  0  0  0  0  0  0  0  0  # atno 17321 bound_to 7965
  139.9569  144.6583  150.8117 LP  0  0  0  0  0  0  0  0  0  0  0  0  # atno 17342 bound_to 10162
  140.7602  143.3146  151.2763 LP  0  0  0  0  0  0  0  0  0  0  0  0  # atno 17343 bound_to 10162
  157.5533  131.0944  150.9664 LP  0  0  0  0  0  0  0  0  0  0  0  0  # atno 17370 bound_to 10713
  156.9919  130.5566  149.5304 LP  0  0  0  0  0  0  0  0  0  0  0  0  # atno 17371 bound_to 10713
  140.2265  134.8718  157.3432 LP  0  0  0  0  0  0  0  0  0  0  0  0  # atno 17394 bound_to 11000
  140.1934  134.4343  155.7703 LP  0  0  0  0  0  0  0  0  0  0  0  0  # atno 17395 bound_to 11000

$$$$
