AV-unprocessed.smi:15|AV-procd|sdf|80|dock6
  -GOLD-   2262015213D 1   1.00000     0.00000
 Structure written by MMmdl.
 53 56  0  0  0  0  0  0  0  0  1 V2000
  147.4382  140.8654  155.9819 C   0  0  0  0  0  0  0  0  0  0  0  0
  148.6640  140.8941  155.0600 C   0  0  0  0  0  0  0  0  0  0  0  0
  149.9269  140.8016  155.7926 N   0  0  0  0  0  0  0  0  0  0  0  0
  150.7354  142.0015  156.0184 C   0  0  0  0  0  0  0  0  0  0  0  0
  150.6533  142.5238  157.4653 C   0  0  1  0  0  0  0  0  0  0  0  0
  151.5054  141.7281  158.4512 C   0  0  0  0  0  0  0  0  0  0  0  0
  151.7792  142.7222  159.5698 C   0  0  0  0  0  0  0  0  0  0  0  0
  151.4241  144.0801  158.9571 C   0  0  0  0  0  0  0  0  0  0  0  0
  151.2239  143.8189  157.5762 O   0  0  0  0  0  0  0  0  0  0  0  0
  150.6496  139.6650  155.6406 C   0  0  0  0  0  0  0  0  0  0  0  0
  151.9520  139.7957  155.2803 N   0  0  0  0  0  0  0  0  0  0  0  0
  152.7099  138.7122  155.0898 C   0  0  0  0  0  0  0  0  0  0  0  0
  152.3690  137.4267  155.1945 N   0  0  0  0  0  0  0  0  0  0  0  0
  151.0581  137.2890  155.5443 C   0  0  0  0  0  0  0  0  0  0  0  0
  150.1342  138.3441  155.7898 C   0  0  0  0  0  0  0  0  0  0  0  0
  148.8889  137.8123  156.1069 N   0  0  0  0  0  0  0  0  0  0  0  0
  149.0691  136.5210  156.0607 C   0  0  0  0  0  0  0  0  0  0  0  0
  150.3399  136.1191  155.7183 N   0  0  0  0  0  0  0  0  0  0  0  0
  150.8157  134.7517  155.5832 C   0  0  0  0  0  0  0  0  0  0  0  0
  149.8417  133.6870  156.1578 C   0  0  1  0  0  0  0  0  0  0  0  0
  149.6042  133.9547  157.5272 O   0  0  0  0  0  0  0  0  0  0  0  0
  148.5042  133.6124  155.4308 C   0  0  0  0  0  0  0  0  0  0  0  0
  148.8272  132.7217  154.2350 C   0  0  0  0  0  0  0  0  0  0  0  0
  149.8586  131.8437  154.6773 O   0  0  0  0  0  0  0  0  0  0  0  0
  150.3189  132.2339  155.9691 C   0  0  1  0  0  0  0  0  0  0  0  0
  151.8268  131.9778  156.1089 C   0  0  0  0  0  0  0  0  0  0  0  0
  146.5191  140.8595  155.3959 H   0  0  0  0  0  0  0  0  0  0  0  0
  147.4003  141.7376  156.6338 H   0  0  0  0  0  0  0  0  0  0  0  0
  147.4373  139.9728  156.6082 H   0  0  0  0  0  0  0  0  0  0  0  0
  148.5865  140.0567  154.3651 H   0  0  0  0  0  0  0  0  0  0  0  0
  148.6509  141.8023  154.4577 H   0  0  0  0  0  0  0  0  0  0  0  0
  151.7726  141.7673  155.7814 H   0  0  0  0  0  0  0  0  0  0  0  0
  150.4504  142.7900  155.3207 H   0  0  0  0  0  0  0  0  0  0  0  0
  149.6210  142.5500  157.8179 H   0  0  0  0  0  0  0  0  0  0  0  0
  151.0085  140.8223  158.7997 H   0  0  0  0  0  0  0  0  0  0  0  0
  152.4474  141.4366  157.9844 H   0  0  0  0  0  0  0  0  0  0  0  0
  151.1574  142.5213  160.4428 H   0  0  0  0  0  0  0  0  0  0  0  0
  152.8230  142.6793  159.8829 H   0  0  0  0  0  0  0  0  0  0  0  0
  150.4979  144.4656  159.3861 H   0  0  0  0  0  0  0  0  0  0  0  0
  152.2051  144.8262  159.1051 H   0  0  0  0  0  0  0  0  0  0  0  0
  153.7354  138.9027  154.8093 H   0  0  0  0  0  0  0  0  0  0  0  0
  148.2725  135.8214  156.2689 H   0  0  0  0  0  0  0  0  0  0  0  0
  151.0046  134.5618  154.5261 H   0  0  0  0  0  0  0  0  0  0  0  0
  151.7848  134.6870  156.0795 H   0  0  0  0  0  0  0  0  0  0  0  0
  148.9224  134.6060  157.5901 H   0  0  0  0  0  0  0  0  0  0  0  0
  147.7641  133.1069  156.0538 H   0  0  0  0  0  0  0  0  0  0  0  0
  148.0805  134.5755  155.1478 H   0  0  0  0  0  0  0  0  0  0  0  0
  147.9563  132.1683  153.8835 H   0  0  0  0  0  0  0  0  0  0  0  0
  149.2069  133.3167  153.4038 H   0  0  0  0  0  0  0  0  0  0  0  0
  149.7924  131.5960  156.6820 H   0  0  0  0  0  0  0  0  0  0  0  0
  152.1901  132.3031  157.0837 H   0  0  0  0  0  0  0  0  0  0  0  0
  152.3990  132.4999  155.3421 H   0  0  0  0  0  0  0  0  0  0  0  0
  152.0473  130.9147  156.0114 H   0  0  0  0  0  0  0  0  0  0  0  0
  1  2  1  0  0  0  0
  1 27  1  0  0  0  0
  1 28  1  0  0  0  0
  1 29  1  0  0  0  0
  2  3  1  0  0  0  0
  2 30  1  0  0  0  0
  2 31  1  0  0  0  0
  3  4  1  0  0  0  0
  3 10  1  0  0  0  0
  4  5  1  0  0  0  0
  4 32  1  0  0  0  0
  4 33  1  0  0  0  0
  5  9  1  0  0  0  0
  5  6  1  0  0  0  0
  5 34  1  0  0  0  0
  6  7  1  0  0  0  0
  6 35  1  0  0  0  0
  6 36  1  0  0  0  0
  7  8  1  0  0  0  0
  7 37  1  0  0  0  0
  7 38  1  0  0  0  0
  8  9  1  0  0  0  0
  8 39  1  0  0  0  0
  8 40  1  0  0  0  0
 10 15  1  0  0  0  0
 10 11  2  0  0  0  0
 11 12  1  0  0  0  0
 12 13  2  0  0  0  0
 12 41  1  0  0  0  0
 13 14  1  0  0  0  0
 14 18  1  0  0  0  0
 14 15  2  0  0  0  0
 15 16  1  0  0  0  0
 16 17  2  0  0  0  0
 17 18  1  0  0  0  0
 17 42  1  0  0  0  0
 18 19  1  0  0  0  0
 19 20  1  0  0  0  0
 19 43  1  0  0  0  0
 19 44  1  0  0  0  0
 20 25  1  0  0  0  0
 20 21  1  0  0  0  0
 20 22  1  0  0  0  0
 21 45  1  0  0  0  0
 22 23  1  0  0  0  0
 22 46  1  0  0  0  0
 22 47  1  0  0  0  0
 23 24  1  0  0  0  0
 23 48  1  0  0  0  0
 23 49  1  0  0  0  0
 24 25  1  0  0  0  0
 25 26  1  0  0  0  0
 25 50  1  0  0  0  0
 26 51  1  0  0  0  0
 26 52  1  0  0  0  0
 26 53  1  0  0  0  0
M  END
> <s_m_source_file>
AV-unprocessed.smi

> <i_m_source_file_index>
15

> <i_lp_mmshare_version>
43012

> <i_f3d_flags>
0

> <s_epik_input>
TzFbQ0gyXVtDSDJdW0NIMl1bQ0BIXTFbQ0gyXU4oW0NIMl1bQ0gzXSljKG5bY0hdbjIpYyhjMjMpbltjSF1uM1tDSDJdW0NAQF00KFtPSF0pW0NIMl1bQ0gyXU9bQ0BIXTRbQ0gzXQ==

> <s_epik_cmdline>
J2VwaWtfcHl0aG9uJywgJy1waCcsICc3LjAnLCAnLXRuJywgJzgnLCAnLW1hJywgJzIwMCcsICctbWV0YWxfYmluZGluZycsICctaW1hZScsICc8aW5maWxlLm1hZT4nLCAnLW9tYWUnLCAnPG91dGZpbGUubWFlPic=

> <r_lp_tautomer_probability>
1

> <r_epik_Ionization_Penalty>
0.00360814

> <r_epik_Ionization_Penalty_Charging>
0

> <r_epik_Ionization_Penalty_Neutral>
0.00360814

> <r_epik_State_Penalty>
0.00237482

> <r_epik_Charging_Adjusted_Penalty>
0.00237482

> <i_epik_Tot_Q>
0

> <i_epik_Tot_abs_Q>
0

> <r_epik_Metal_State_Penalty>
-0

> <b_epik_Metal_Only>
0

> <s_lp_Force_Field>
OPLS_2005

> <r_lp_Energy>
45.9982

> <b_lp_Chiralities_Consistent>
1

> <s_lp_Variant>
AV-unprocessed.smi:15-2

> <Gold.Version>
5.8.1

> <Gold.Id.Protein>
6NUR|6NUR_protein|mol2

> <Gold.PLP.Fitness>
47.3723

> <Gold.PLP.PLP>
-40.5589

> <Gold.PLP.part.hbond>
-3.0000

> <Gold.PLP.part.metal>
0.0000

> <Gold.PLP.part.buried>
-8.1126

> <Gold.PLP.part.nonpolar>
-30.7176

> <Gold.PLP.part.repulsive>
0.2812

> <Gold.PLP.ligand.clash>
0.0000

> <Gold.PLP.ligand.torsion>
1.1268

> <Gold.PLP.Chemscore.Hbond>
2.7193

> <Gold.PLP.Chemscore.CHOScore>
0.0000

> <Gold.PLP.Chemscore.Metal>
0.0000

> <Gold.Chemscore.Hbonds>
donor molecule, donor type, donor heavy atom, donor atom, acceptor molecule, acceptor atom, score
      P1  H  6896  6907       L1    21  0.80
      P1  H  7989  7998       L1    11  0.68
      P1  H 10752 10765       L1    13  0.66

> <Gold.PLP.Chemscore.Internal.Correction>
0.9092

> <Gold.Rescore>
     Score         DG    S(hbond)    S(metal)    S(lipo)     H(rot)  DE(clash)    DE(int)     intcor
     15.11     -17.76       2.67        0.00      82.31       2.44       0.06       2.60       ----

> <Gold.Chemscore.Fitness>
15.1059

> <Gold.Chemscore.DG>
-17.7648

> <Gold.Chemscore.ZeroCoef>
-5.4800

> <Gold.Chemscore.Hbond>
2.6673

> <Gold.Chemscore.Metal>
0.0000

> <Gold.Chemscore.Lipo>
82.3125

> <Gold.Chemscore.Internal_Hbond>
0.0000

> <Gold.Chemscore.DEClash>
0.0551

> <Gold.Chemscore.DEInternal>
2.6038

> <Gold.Chemscore.Rot>
2.4431

> <Gold.Chemscore.Internal.Correction>
   9.000000E+99

> <Gold.Chemscore.Hbonds>
donor molecule, donor type, donor heavy atom, donor atom, acceptor molecule, acceptor atom, score
      P1  H  6896  6907       L1    21  0.69
      P1  H  7989  7998       L1    11  0.11
      P1  H 10752 10765       L1    13  0.38

> <Gold.Chemscore.Hbond.Weighted>
-8.9087

> <Gold.Chemscore.Metal.Weighted>
-0.0000

> <Gold.Chemscore.Lipo.Weighted>
-9.6306

> <Gold.Chemscore.Internal_Hbond.Weighted>
0.0000

> <Gold.Chemscore.DEClash.Weighted>
0.0551

> <Gold.Chemscore.DEInternal.Weighted>
2.6038

> <Gold.Chemscore.Rot.Weighted>
6.2544

> <Gold.Chemscore.Internal.Correction.Weighted>
   9.000000E+99

> <Gold.Protein.RotatedTorsions>
[ 6907 6896 6895 6894 ] final -123.51 input  -60.11 | X-H torsion
[ 7974 7965 7964 7962 ] final   77.49 input  175.53 | X-H torsion
[ 8008 7997 7996 7995 ] final -157.19 input   59.86 | X-H torsion
[ 10167 10162 10161 10158 ] final -173.02 input  -65.29 | X-H torsion
[ 10718 10713 10712 10709 ] final  169.70 input   66.30 | X-H torsion
[ 10763 10752 10751 10750 ] final  171.70 input  -60.55 | X-H torsion
[ 11005 11000 10999 10996 ] final   31.45 input  -57.11 | X-H torsion

> <Gold.Protein.ActiveResidues>
 VAL166  LYS551  ARG553  GLY616  TRP617  ASP618  TYR619  PRO620  LYS621  CYS622 
 ASP623  PHE694  ASN695  SER759  ASP760  ASP761  ALA762  ILE779  LEU786  VAL792 
 PHE793  MET794  SER795  GLU796  ALA797  LYS798  CYS799  TRP800  GLU811  SER814 

> <Gold.Protein.RotatedAtoms>
  150.8678  133.7549  159.2970 H   0  0  0  0  0  0  0  0  0  0  0  0  # atno 6907 bound_to 6896
  151.5171  135.1065  159.9878 H   0  0  0  0  0  0  0  0  0  0  0  0  # atno 6908 bound_to 6896
  152.4673  133.7907  159.6956 H   0  0  0  0  0  0  0  0  0  0  0  0  # atno 6909 bound_to 6896
  145.6894  139.2547  143.1768 H   0  0  0  0  0  0  0  0  0  0  0  0  # atno 7974 bound_to 7965
  155.7286  140.0799  157.2299 H   0  0  0  0  0  0  0  0  0  0  0  0  # atno 8008 bound_to 7997
  154.4036  140.1599  156.2538 H   0  0  0  0  0  0  0  0  0  0  0  0  # atno 8009 bound_to 7997
  155.9130  140.3402  155.6116 H   0  0  0  0  0  0  0  0  0  0  0  0  # atno 8010 bound_to 7997
  139.5712  144.1638  152.1386 H   0  0  0  0  0  0  0  0  0  0  0  0  # atno 10167 bound_to 10162
  157.0188  131.0226  151.2781 H   0  0  0  0  0  0  0  0  0  0  0  0  # atno 10718 bound_to 10713
  154.4157  135.2757  155.2008 H   0  0  0  0  0  0  0  0  0  0  0  0  # atno 10763 bound_to 10752
  154.3975  135.6052  153.5882 H   0  0  0  0  0  0  0  0  0  0  0  0  # atno 10764 bound_to 10752
  152.9832  135.5918  154.4445 H   0  0  0  0  0  0  0  0  0  0  0  0  # atno 10765 bound_to 10752
  140.2837  134.2943  155.7794 H   0  0  0  0  0  0  0  0  0  0  0  0  # atno 11005 bound_to 11000
  146.0895  140.7672  142.9602 LP  0  0  0  0  0  0  0  0  0  0  0  0  # atno 17320 bound_to 7965
  144.7001  140.3615  143.7163 LP  0  0  0  0  0  0  0  0  0  0  0  0  # atno 17321 bound_to 7965
  140.1171  144.5406  150.6887 LP  0  0  0  0  0  0  0  0  0  0  0  0  # atno 17342 bound_to 10162
  140.6996  143.2426  151.4902 LP  0  0  0  0  0  0  0  0  0  0  0  0  # atno 17343 bound_to 10162
  157.5265  130.8031  149.7868 LP  0  0  0  0  0  0  0  0  0  0  0  0  # atno 17370 bound_to 10713
  156.0110  130.3833  150.2266 LP  0  0  0  0  0  0  0  0  0  0  0  0  # atno 17371 bound_to 10713
  141.2158  133.7541  156.9520 LP  0  0  0  0  0  0  0  0  0  0  0  0  # atno 17394 bound_to 11000
  140.1259  134.9387  157.2270 LP  0  0  0  0  0  0  0  0  0  0  0  0  # atno 17395 bound_to 11000

$$$$
