AV-unprocessed.smi:1285|AV-procd|sdf|5367|dock2
  -GOLD-   22720 4503D 1   1.00000     0.00000
 Structure written by MMmdl.
 46 47  0  0  0  0  0  0  0  0  1 V2000
  151.2167  141.6379  158.9491 C   0  0  0  0  0  0  0  0  0  0  0  0
  150.1071  141.4702  157.8947 C   0  0  0  0  0  0  0  0  0  0  0  0
  150.2799  140.2636  156.9175 C   0  0  1  0  0  0  0  0  0  0  0  0
  151.6051  140.5110  156.1473 C   0  0  0  0  0  0  0  0  0  0  0  0
  150.4326  138.9606  157.7687 C   0  0  0  0  0  0  0  0  0  0  0  0
  149.1627  138.3078  158.0877 N   0  0  0  0  0  0  0  0  0  0  0  0
  149.0144  137.1687  158.7833 C   0  0  0  0  0  0  0  0  0  0  0  0
  149.9618  136.5288  159.2410 O   0  0  0  0  0  0  0  0  0  0  0  0
  147.5707  136.6891  158.9962 C   0  0  2  0  0  0  0  0  0  0  0  0
  146.5284  137.7398  158.5613 C   0  0  0  0  0  0  0  0  0  0  0  0
  147.3835  136.2546  160.3751 N   0  0  0  0  0  0  0  0  0  0  0  0
  147.1741  135.0309  160.8661 C   0  0  0  0  0  0  0  0  0  0  0  0
  147.0966  134.9861  162.1887 N   0  0  0  0  0  0  0  0  0  0  0  0
  147.2938  136.3077  162.4730 C   0  0  0  0  0  0  0  0  0  0  0  0
  147.4828  137.1085  161.4246 N   0  0  0  0  0  0  0  0  0  0  0  0
  149.1368  140.1778  155.9648 N   0  0  0  0  0  0  0  0  0  0  0  0
  148.7674  141.4413  155.3151 C   0  0  0  0  0  0  0  0  0  0  0  0
  147.4937  141.3014  154.4637 C   0  0  0  0  0  0  0  0  0  0  0  0
  147.6722  140.2727  153.4975 O   0  0  0  0  0  0  0  0  0  0  0  0
  147.9762  139.0165  154.0913 C   0  0  0  0  0  0  0  0  0  0  0  0
  149.2570  139.1400  154.9336 C   0  0  0  0  0  0  0  0  0  0  0  0
  151.0183  142.5084  159.5743 H   0  0  0  0  0  0  0  0  0  0  0  0
  152.1950  141.7843  158.4915 H   0  0  0  0  0  0  0  0  0  0  0  0
  151.2815  140.7741  159.6099 H   0  0  0  0  0  0  0  0  0  0  0  0
  149.1624  141.3816  158.4322 H   0  0  0  0  0  0  0  0  0  0  0  0
  150.0125  142.4002  157.3342 H   0  0  0  0  0  0  0  0  0  0  0  0
  152.4129  140.8227  156.8098 H   0  0  0  0  0  0  0  0  0  0  0  0
  151.4935  141.2888  155.3912 H   0  0  0  0  0  0  0  0  0  0  0  0
  151.9547  139.6120  155.6390 H   0  0  0  0  0  0  0  0  0  0  0  0
  151.0202  138.2201  157.2266 H   0  0  0  0  0  0  0  0  0  0  0  0
  150.9838  139.1545  158.6889 H   0  0  0  0  0  0  0  0  0  0  0  0
  148.3271  138.7650  157.7532 H   0  0  0  0  0  0  0  0  0  0  0  0
  147.4213  135.8120  158.3640 H   0  0  0  0  0  0  0  0  0  0  0  0
  146.6627  138.0159  157.5148 H   0  0  0  0  0  0  0  0  0  0  0  0
  146.5925  138.6539  159.1531 H   0  0  0  0  0  0  0  0  0  0  0  0
  145.5160  137.3489  158.6678 H   0  0  0  0  0  0  0  0  0  0  0  0
  147.0807  134.1536  160.2428 H   0  0  0  0  0  0  0  0  0  0  0  0
  147.3050  136.6900  163.4831 H   0  0  0  0  0  0  0  0  0  0  0  0
  148.5883  142.2218  156.0525 H   0  0  0  0  0  0  0  0  0  0  0  0
  149.5777  141.7896  154.6750 H   0  0  0  0  0  0  0  0  0  0  0  0
  146.6314  141.0745  155.0926 H   0  0  0  0  0  0  0  0  0  0  0  0
  147.2776  142.2383  153.9501 H   0  0  0  0  0  0  0  0  0  0  0  0
  147.1394  138.6840  154.7075 H   0  0  0  0  0  0  0  0  0  0  0  0
  148.1098  138.2736  153.3049 H   0  0  0  0  0  0  0  0  0  0  0  0
  150.0910  139.3627  154.2679 H   0  0  0  0  0  0  0  0  0  0  0  0
  149.4580  138.1672  155.3783 H   0  0  0  0  0  0  0  0  0  0  0  0
  1  2  1  0  0  0  0
  1 22  1  0  0  0  0
  1 23  1  0  0  0  0
  1 24  1  0  0  0  0
  2  3  1  0  0  0  0
  2 25  1  0  0  0  0
  2 26  1  0  0  0  0
  3  4  1  0  0  0  0
  3  5  1  0  0  0  0
  3 16  1  0  0  0  0
  4 27  1  0  0  0  0
  4 28  1  0  0  0  0
  4 29  1  0  0  0  0
  5  6  1  0  0  0  0
  5 30  1  0  0  0  0
  5 31  1  0  0  0  0
  6  7  1  0  0  0  0
  6 32  1  0  0  0  0
  7  8  2  0  0  0  0
  7  9  1  0  0  0  0
  9 10  1  0  0  0  0
  9 11  1  0  0  0  0
  9 33  1  0  0  0  0
 10 34  1  0  0  0  0
 10 35  1  0  0  0  0
 10 36  1  0  0  0  0
 11 15  1  0  0  0  0
 11 12  1  0  0  0  0
 12 13  2  0  0  0  0
 12 37  1  0  0  0  0
 13 14  1  0  0  0  0
 14 15  2  0  0  0  0
 14 38  1  0  0  0  0
 16 21  1  0  0  0  0
 16 17  1  0  0  0  0
 17 18  1  0  0  0  0
 17 39  1  0  0  0  0
 17 40  1  0  0  0  0
 18 19  1  0  0  0  0
 18 41  1  0  0  0  0
 18 42  1  0  0  0  0
 19 20  1  0  0  0  0
 20 21  1  0  0  0  0
 20 43  1  0  0  0  0
 20 44  1  0  0  0  0
 21 45  1  0  0  0  0
 21 46  1  0  0  0  0
M  END
> <s_m_source_file>
AV-unprocessed.smi

> <i_m_source_file_index>
1285

> <i_lp_mmshare_version>
43012

> <i_f3d_flags>
0

> <s_epik_input>
W0NIMl0xW0NIMl1PW0NIMl1bQ0gyXU4xW0NAQF0oW0NIM10pKFtDSDJdW0NIM10pW0NIMl1bTkhdQyg9TylbQ0BIXShbQ0gzXSluMltjSF1uW2NIXW4y

> <s_epik_cmdline>
J2VwaWtfcHl0aG9uJywgJy1waCcsICc3LjAnLCAnLXRuJywgJzgnLCAnLW1hJywgJzIwMCcsICctbWV0YWxfYmluZGluZycsICctaW1hZScsICc8aW5maWxlLm1hZT4nLCAnLW9tYWUnLCAnPG91dGZpbGUubWFlPic=

> <r_lp_tautomer_probability>
1

> <r_epik_Ionization_Penalty>
0.285697

> <r_epik_Ionization_Penalty_Charging>
0

> <r_epik_Ionization_Penalty_Neutral>
0.285697

> <r_epik_State_Penalty>
0.278478

> <r_epik_Charging_Adjusted_Penalty>
0.278478

> <i_epik_Tot_Q>
0

> <i_epik_Tot_abs_Q>
0

> <r_epik_Metal_State_Penalty>
0.278477

> <b_epik_Metal_Only>
0

> <s_lp_Force_Field>
OPLS_2005

> <r_lp_Energy>
49.2775

> <b_lp_Chiralities_Consistent>
1

> <s_lp_Variant>
AV-unprocessed.smi:1285-1

> <Gold.Version>
5.8.1

> <Gold.Id.Protein>
6NUR|6NUR_protein|mol2

> <Gold.PLP.Fitness>
37.2945

> <Gold.PLP.PLP>
-30.9574

> <Gold.PLP.part.hbond>
-3.0000

> <Gold.PLP.part.metal>
0.0000

> <Gold.PLP.part.buried>
-6.7584

> <Gold.PLP.part.nonpolar>
-22.0743

> <Gold.PLP.part.repulsive>
1.1300

> <Gold.PLP.ligand.clash>
0.5020

> <Gold.PLP.ligand.torsion>
0.9149

> <Gold.PLP.Chemscore.Hbond>
2.7680

> <Gold.PLP.Chemscore.CHOScore>
0.0000

> <Gold.PLP.Chemscore.Metal>
0.0000

> <Gold.Chemscore.Hbonds>
donor molecule, donor type, donor heavy atom, donor atom, acceptor molecule, acceptor atom, score
      P1  H  6896  6907       L1     8  1.00
      P1  H  6931  6943       L1    15  0.96
      P1  H  6934  6947       L1    15  0.90

> <Gold.PLP.Chemscore.Internal.Correction>
0.3649

> <Gold.Rescore>
     Score         DG    S(hbond)    S(metal)    S(lipo)     H(rot)  DE(clash)    DE(int)     intcor
     10.62     -11.97       2.22        0.00      50.83       2.68       0.04       1.31       ----

> <Gold.Chemscore.Fitness>
10.6226

> <Gold.Chemscore.DG>
-11.9682

> <Gold.Chemscore.ZeroCoef>
-5.4800

> <Gold.Chemscore.Hbond>
2.2178

> <Gold.Chemscore.Metal>
0.0000

> <Gold.Chemscore.Lipo>
50.8293

> <Gold.Chemscore.Internal_Hbond>
0.0000

> <Gold.Chemscore.DEClash>
0.0373

> <Gold.Chemscore.DEInternal>
1.3083

> <Gold.Chemscore.Rot>
2.6821

> <Gold.Chemscore.Internal.Correction>
   9.000000E+99

> <Gold.Chemscore.Hbonds>
donor molecule, donor type, donor heavy atom, donor atom, acceptor molecule, acceptor atom, score
      P1  H  6896  6907       L1     8  0.98
      P1  H  6931  6943       L1    15  0.45
      P1  H  6934  6947       L1    15  0.75

> <Gold.Chemscore.Hbond.Weighted>
-7.4073

> <Gold.Chemscore.Metal.Weighted>
-0.0000

> <Gold.Chemscore.Lipo.Weighted>
-5.9470

> <Gold.Chemscore.Internal_Hbond.Weighted>
0.0000

> <Gold.Chemscore.DEClash.Weighted>
0.0373

> <Gold.Chemscore.DEInternal.Weighted>
1.3083

> <Gold.Chemscore.Rot.Weighted>
6.8661

> <Gold.Chemscore.Internal.Correction.Weighted>
   9.000000E+99

> <Gold.Protein.RotatedTorsions>
[ 6907 6896 6895 6894 ] final  -26.82 input  -60.11 | X-H torsion
[ 7974 7965 7964 7962 ] final   29.65 input  175.53 | X-H torsion
[ 8008 7997 7996 7995 ] final  -73.13 input   59.86 | X-H torsion
[ 10167 10162 10161 10158 ] final -111.77 input  -65.29 | X-H torsion
[ 10718 10713 10712 10709 ] final   54.05 input   66.30 | X-H torsion
[ 10763 10752 10751 10750 ] final  -57.76 input  -60.55 | X-H torsion
[ 11005 11000 10999 10996 ] final   49.47 input  -57.11 | X-H torsion

> <Gold.Protein.ActiveResidues>
 VAL166  LYS551  ARG553  GLY616  TRP617  ASP618  TYR619  PRO620  LYS621  CYS622 
 ASP623  PHE694  ASN695  SER759  ASP760  ASP761  ALA762  ILE779  LEU786  VAL792 
 PHE793  MET794  SER795  GLU796  ALA797  LYS798  CYS799  TRP800  GLU811  SER814 

> <Gold.Protein.RotatedAtoms>
  151.1556  135.0249  159.8687 H   0  0  0  0  0  0  0  0  0  0  0  0  # atno 6907 bound_to 6896
  152.5452  134.1338  159.8460 H   0  0  0  0  0  0  0  0  0  0  0  0  # atno 6908 bound_to 6896
  151.1428  133.4914  159.2629 H   0  0  0  0  0  0  0  0  0  0  0  0  # atno 6909 bound_to 6896
  146.1658  139.6893  142.9002 H   0  0  0  0  0  0  0  0  0  0  0  0  # atno 7974 bound_to 7965
  154.5222  140.0784  156.8193 H   0  0  0  0  0  0  0  0  0  0  0  0  # atno 8008 bound_to 7997
  155.3551  140.3415  155.4221 H   0  0  0  0  0  0  0  0  0  0  0  0  # atno 8009 bound_to 7997
  156.1694  140.1614  156.8462 H   0  0  0  0  0  0  0  0  0  0  0  0  # atno 8010 bound_to 7997
  140.1300  143.4369  152.1634 H   0  0  0  0  0  0  0  0  0  0  0  0  # atno 10167 bound_to 10162
  157.5222  130.8573  149.8574 H   0  0  0  0  0  0  0  0  0  0  0  0  # atno 10718 bound_to 10713
  154.2275  135.6366  153.5164 H   0  0  0  0  0  0  0  0  0  0  0  0  # atno 10763 bound_to 10752
  152.9956  135.5511  154.6048 H   0  0  0  0  0  0  0  0  0  0  0  0  # atno 10764 bound_to 10752
  154.5523  135.2902  155.0971 H   0  0  0  0  0  0  0  0  0  0  0  0  # atno 10765 bound_to 10752
  140.1100  134.4967  155.8686 H   0  0  0  0  0  0  0  0  0  0  0  0  # atno 11005 bound_to 11000
  145.4470  141.0426  143.2826 LP  0  0  0  0  0  0  0  0  0  0  0  0  # atno 17320 bound_to 7965
  144.8091  139.5995  143.7037 LP  0  0  0  0  0  0  0  0  0  0  0  0  # atno 17321 bound_to 7965
  139.5524  144.7348  151.4394 LP  0  0  0  0  0  0  0  0  0  0  0  0  # atno 17342 bound_to 10162
  140.6822  143.8055  150.7137 LP  0  0  0  0  0  0  0  0  0  0  0  0  # atno 17343 bound_to 10162
  156.0362  130.3751  150.1555 LP  0  0  0  0  0  0  0  0  0  0  0  0  # atno 17370 bound_to 10713
  156.9743  130.9844  151.3452 LP  0  0  0  0  0  0  0  0  0  0  0  0  # atno 17371 bound_to 10713
  141.2128  133.6724  156.6687 LP  0  0  0  0  0  0  0  0  0  0  0  0  # atno 17394 bound_to 11000
  140.3103  134.8091  157.4171 LP  0  0  0  0  0  0  0  0  0  0  0  0  # atno 17395 bound_to 11000

$$$$
