#       Name:                AV-unprocessed.smi:2442
#       Creating user name   scv26
#       Creation time:       Fri Mar 27 13:25:37 2020


#       File generated by GOLD software.
#

@<TRIPOS>MOLECULE
AV-unprocessed.smi:2442
    51    52     1
SMALL
NO_CHARGES


@<TRIPOS>ATOM
      1 ****        -3.0858  -1.2796  -1.5557 C.3            1 S1                 0.0000
      2 ****        -3.1306  -0.6126  -0.3041 O.3            1 S1                 0.0000
      3 ****        -2.8175   0.7758  -0.3687 C.3            1 S1                 0.0000
      4 ****        -4.0585   1.5970  -0.7793 C.3            1 S1                 0.0000
      5 ****        -5.1637   1.5382   0.2881 C.3            1 S1                 0.0000
      6 ****        -4.6382   1.9909   1.6587 C.3            1 S1                 0.0000
      7 ****        -3.4104   1.1697   2.0824 C.3            1 S1                 0.0000
      8 ****        -2.2981   1.2284   1.0173 C.3            1 S1                 0.0000
      9 ****        -1.1579   0.4222   1.4463 N.am           1 S1                 0.0000
     10 ****         0.0883   0.5279   0.9656 C.2            1 S1                 0.0000
     11 ****         0.4292   1.3362   0.1013 O.2            1 S1                 0.0000
     12 ****         0.9178  -0.3599   1.5312 N.am           1 S1                 0.0000
     13 ****         2.3276  -0.5079   1.1907 C.3            1 S1                 0.0000
     14 ****         2.5128  -1.3852  -0.0584 C.3            1 S1                 0.0000
     15 ****         3.9717  -1.4924  -0.4723 C.ar           1 S1                 0.0000
     16 ****         4.7734  -2.5211   0.0654 C.ar           1 S1                 0.0000
     17 ****         6.1242  -2.6019  -0.3257 C.ar           1 S1                 0.0000
     18 ****         6.6970  -1.7422  -1.1933 N.ar           1 S1                 0.0000
     19 ****         5.9284  -0.7578  -1.7050 C.ar           1 S1                 0.0000
     20 ****         4.5653  -0.5821  -1.3817 C.ar           1 S1                 0.0000
     21 ****         3.7820   0.5583  -2.0079 C.3            1 S1                 0.0000
     22 ****        -3.3216  -2.3339  -1.4123 H              1 S1                 0.0000
     23 ****        -2.0910  -1.2188  -1.9989 H              1 S1                 0.0000
     24 ****        -3.8093  -0.8706  -2.2605 H              1 S1                 0.0000
     25 ****        -2.0277   0.9374  -1.1045 H              1 S1                 0.0000
     26 ****        -3.7625   2.6363  -0.9269 H              1 S1                 0.0000
     27 ****        -4.4492   1.2604  -1.7389 H              1 S1                 0.0000
     28 ****        -6.0032   2.1654  -0.0129 H              1 S1                 0.0000
     29 ****        -5.5496   0.5205   0.3610 H              1 S1                 0.0000
     30 ****        -4.3741   3.0484   1.6180 H              1 S1                 0.0000
     31 ****        -5.4251   1.8971   2.4078 H              1 S1                 0.0000
     32 ****        -3.0352   1.5418   3.0363 H              1 S1                 0.0000
     33 ****        -3.7092   0.1342   2.2517 H              1 S1                 0.0000
     34 ****        -1.9696   2.2668   0.9397 H              1 S1                 0.0000
     35 ****        -1.3388  -0.2784   2.1502 H              1 S1                 0.0000
     36 ****         0.5465  -0.9847   2.2319 H              1 S1                 0.0000
     37 ****         2.7778   0.4749   1.0415 H              1 S1                 0.0000
     38 ****         2.8426  -0.9559   2.0408 H              1 S1                 0.0000
     39 ****         2.1277  -2.3870   0.1370 H              1 S1                 0.0000
     40 ****         1.9210  -1.0006  -0.8889 H              1 S1                 0.0000
     41 ****         4.3647  -3.2346   0.7658 H              1 S1                 0.0000
     42 ****         6.7623  -3.3784   0.0698 H              1 S1                 0.0000
     43 ****         6.4200  -0.0881  -2.3953 H              1 S1                 0.0000
     44 ****         4.4370   1.2258  -2.5686 H              1 S1                 0.0000
     45 ****         3.2793   1.1504  -1.2433 H              1 S1                 0.0000
     46 ****         3.0303   0.1693  -2.6950 H              1 S1                 0.0000
     47 ****        -2.4753  -1.0533   0.3094 LP             1 S1                 0.0000
     48 ****        -4.0533  -0.7086   0.0692 LP             1 S1                 0.0000
     49 ****        -0.2430   1.9671  -0.2862 LP             1 S1                 0.0000
     50 ****         1.3782   1.3617  -0.2130 LP             1 S1                 0.0000
     51 ****         7.6596  -1.8314  -1.4490 LP             1 S1                 0.0000
@<TRIPOS>BOND
    1    1    2 1     
    2    1   22 1     
    3    1   23 1     
    4    1   24 1     
    5    2    3 1     
    6    3    8 1     
    7    3    4 1     
    8    3   25 1     
    9    4    5 1     
   10    4   26 1     
   11    4   27 1     
   12    5    6 1     
   13    5   28 1     
   14    5   29 1     
   15    6    7 1     
   16    6   30 1     
   17    6   31 1     
   18    7    8 1     
   19    7   32 1     
   20    7   33 1     
   21    8    9 1     
   22    8   34 1     
   23    9   10 am    
   24    9   35 1     
   25   10   11 2     
   26   10   12 am    
   27   12   13 1     
   28   12   36 1     
   29   13   14 1     
   30   13   37 1     
   31   13   38 1     
   32   14   15 1     
   33   14   39 1     
   34   14   40 1     
   35   15   20 ar    
   36   15   16 ar    
   37   16   17 ar    
   38   16   41 1     
   39   17   18 ar    
   40   17   42 1     
   41   18   19 ar    
   42   19   20 ar    
   43   19   43 1     
   44   20   21 1     
   45   21   44 1     
   46   21   45 1     
   47   21   46 1     
   48    2   47 1     
   49    2   48 1     
   50   11   49 1     
   51   11   50 1     
   52   18   51 1     
@<TRIPOS>SUBSTRUCTURE
      1 S1             1
@<TRIPOS>SET
LONE_PAIRS      STATIC     ATOMS    <user>   **** ""
5 47 48 49 50 51
DONOR_HYDROGENS      STATIC     ATOMS    <user>   **** ""
2 35 36
ATOM$BLUE        STATIC     ATOMS    COLORGROUP SYSTEM
5 47 48 49 50 51
ATOM$RED        STATIC     ATOMS    COLORGROUP SYSTEM
2 35 36
