AV-unprocessed.smi:1592|AV-procd|sdf|6406|dock10
  -GOLD-   22720 7 43D 1   1.00000     0.00000
 Structure written by MMmdl.
 26 27  0  0  0  0  0  0  0  0  2 V2000
  151.5117  144.5759  157.7842 O   0  0  0  0  0  0  0  0  0  0  0  0
  152.1383  143.6448  158.2986 C   0  0  0  0  0  0  0  0  0  0  0  0
  152.2588  142.3227  157.8770 N   0  0  0  0  0  0  0  0  0  0  0  0
  151.6606  141.8436  156.8203 C   0  0  0  0  0  0  0  0  0  0  0  0
  150.8337  142.6142  155.9844 N   0  0  0  0  0  0  0  0  0  0  0  0
  150.2125  142.1049  154.8638 C   0  0  0  0  0  0  0  0  0  0  0  0
  150.3586  140.8287  154.5046 C   0  0  0  0  0  0  0  0  0  0  0  0
  151.1912  139.9646  155.3158 C   0  0  0  0  0  0  0  0  0  0  0  0
  151.8487  140.4260  156.4622 C   0  0  0  0  0  0  0  0  0  0  0  0
  152.5610  139.6432  157.1327 O   0  5  0  0  0  0  0  0  0  0  0  0
  152.9164  143.8924  159.6026 C   0  0  1  0  0  0  0  0  0  0  0  0
  152.0179  144.3764  160.7588 C   0  0  0  0  0  0  0  0  0  0  0  0
  152.2181  143.3405  161.8512 C   0  0  0  0  0  0  0  0  0  0  0  0
  152.6709  142.1147  161.0727 C   0  0  0  0  0  0  0  0  0  0  0  0
  153.5006  142.6732  160.0654 O   0  0  0  0  0  0  0  0  0  0  0  0
  149.6120  142.8152  154.3153 H   0  0  0  0  0  0  0  0  0  0  0  0
  149.8658  140.4459  153.6230 H   0  0  0  0  0  0  0  0  0  0  0  0
  151.3015  138.9325  155.0156 H   0  0  0  0  0  0  0  0  0  0  0  0
  150.6678  143.5900  156.1821 H   0  0  0  0  0  0  0  0  0  0  0  0
  153.7201  144.6042  159.4091 H   0  0  0  0  0  0  0  0  0  0  0  0
  152.2933  145.3750  161.0993 H   0  0  0  0  0  0  0  0  0  0  0  0
  150.9661  144.4100  160.4696 H   0  0  0  0  0  0  0  0  0  0  0  0
  153.0110  143.6625  162.5271 H   0  0  0  0  0  0  0  0  0  0  0  0
  151.3189  143.1618  162.4411 H   0  0  0  0  0  0  0  0  0  0  0  0
  153.2126  141.3978  161.6900 H   0  0  0  0  0  0  0  0  0  0  0  0
  151.8215  141.6052  160.6148 H   0  0  0  0  0  0  0  0  0  0  0  0
  1  2  2  0  0  0  0
  2  3  1  0  0  0  0
  2 11  1  0  0  0  0
  3  4  2  0  0  0  0
  4  9  1  0  0  0  0
  4  5  1  0  0  0  0
  5 19  1  0  0  0  0
  5  6  1  0  0  0  0
  6 16  1  0  0  0  0
  6  7  2  0  0  0  0
  7 17  1  0  0  0  0
  7  8  1  0  0  0  0
  8  9  2  0  0  0  0
  8 18  1  0  0  0  0
  9 10  1  0  0  0  0
 11 15  1  0  0  0  0
 11 12  1  0  0  0  0
 11 20  1  0  0  0  0
 12 13  1  0  0  0  0
 12 21  1  0  0  0  0
 12 22  1  0  0  0  0
 13 14  1  0  0  0  0
 13 23  1  0  0  0  0
 13 24  1  0  0  0  0
 14 15  1  0  0  0  0
 14 25  1  0  0  0  0
 14 26  1  0  0  0  0
M  CHG  1  10  -1
M  END
> <s_m_source_file>
AV-unprocessed.smi

> <i_m_source_file_index>
1592

> <i_lp_mmshare_version>
43012

> <i_f3d_flags>
0

> <s_epik_input>
TzFbQ0gyXVtDSDJdW0NIMl1bQ0BIXTFDKD1PKVtOSF1jMm5bY0hdW2NIXVtjSF1jMltPSF0=

> <s_epik_cmdline>
J2VwaWtfcHl0aG9uJywgJy1waCcsICc3LjAnLCAnLXRuJywgJzgnLCAnLW1hJywgJzIwMCcsICctbWV0YWxfYmluZGluZycsICctaW1hZScsICc8aW5maWxlLm1hZT4nLCAnLW9tYWUnLCAnPG91dGZpbGUubWFlPic=

> <r_epik_Ionization_Penalty>
0.780127

> <r_epik_Ionization_Penalty_Charging>
0.780127

> <r_epik_Ionization_Penalty_Neutral>
6.55423e-13

> <r_epik_State_Penalty>
1.4426

> <r_epik_Charging_Adjusted_Penalty>
2.22273

> <i_epik_Tot_Q>
-1

> <i_epik_Tot_abs_Q>
1

> <r_epik_Metal_State_Penalty>
1.40439

> <b_epik_Metal_Only>
0

> <s_lp_Force_Field>
OPLS_2005

> <r_lp_Energy>
49.5573

> <b_lp_Chiralities_Consistent>
1

> <s_lp_Variant>
AV-unprocessed.smi:1592-6

> <Gold.Version>
5.8.1

> <Gold.Id.Protein>
6NUR|6NUR_protein|mol2

> <Gold.PLP.Fitness>
43.6038

> <Gold.PLP.PLP>
-33.4590

> <Gold.PLP.part.hbond>
-2.0000

> <Gold.PLP.part.metal>
0.0000

> <Gold.PLP.part.buried>
-2.1274

> <Gold.PLP.part.nonpolar>
-29.3984

> <Gold.PLP.part.repulsive>
0.3477

> <Gold.PLP.ligand.clash>
0.0000

> <Gold.PLP.ligand.torsion>
0.0117

> <Gold.PLP.Chemscore.Hbond>
2.7137

> <Gold.PLP.Chemscore.CHOScore>
0.6733

> <Gold.PLP.Chemscore.Metal>
0.0000

> <Gold.Chemscore.Hbonds>
donor molecule, donor type, donor heavy atom, donor atom, acceptor molecule, acceptor atom, score
      L1  H     5    19       P1  8028  0.37
      P1  H  7997  8010       L1    10  2.00
      L1  C     6    16       P1  8028  0.69

> <Gold.PLP.Chemscore.Internal.Correction>
0.0073

> <Gold.Rescore>
     Score         DG    S(hbond)    S(metal)    S(lipo)     H(rot)  DE(clash)    DE(int)     intcor
     16.36     -16.64       1.49        0.00      74.90       1.00       0.19       0.09       ----

> <Gold.Chemscore.Fitness>
16.3565

> <Gold.Chemscore.DG>
-16.6439

> <Gold.Chemscore.ZeroCoef>
-5.4800

> <Gold.Chemscore.Hbond>
1.4853

> <Gold.Chemscore.Metal>
0.0000

> <Gold.Chemscore.Lipo>
74.8974

> <Gold.Chemscore.Internal_Hbond>
0.0000

> <Gold.Chemscore.DEClash>
0.1934

> <Gold.Chemscore.DEInternal>
0.0941

> <Gold.Chemscore.Rot>
1.0000

> <Gold.Chemscore.Internal.Correction>
   9.000000E+99

> <Gold.Chemscore.Hbonds>
donor molecule, donor type, donor heavy atom, donor atom, acceptor molecule, acceptor atom, score
      L1  H     5    19       P1  8028  0.36
      P1  H  7997  8010       L1    10  0.50

> <Gold.Chemscore.Hbond.Weighted>
-4.9609

> <Gold.Chemscore.Metal.Weighted>
-0.0000

> <Gold.Chemscore.Lipo.Weighted>
-8.7630

> <Gold.Chemscore.Internal_Hbond.Weighted>
0.0000

> <Gold.Chemscore.DEClash.Weighted>
0.1934

> <Gold.Chemscore.DEInternal.Weighted>
0.0941

> <Gold.Chemscore.Rot.Weighted>
2.5600

> <Gold.Chemscore.Internal.Correction.Weighted>
   9.000000E+99

> <Gold.Protein.RotatedTorsions>
[ 6907 6896 6895 6894 ] final -100.61 input  -60.11 | X-H torsion
[ 7974 7965 7964 7962 ] final -100.61 input  175.53 | X-H torsion
[ 8008 7997 7996 7995 ] final   59.14 input   59.86 | X-H torsion
[ 10167 10162 10161 10158 ] final  112.78 input  -65.29 | X-H torsion
[ 10718 10713 10712 10709 ] final  142.21 input   66.30 | X-H torsion
[ 10763 10752 10751 10750 ] final -171.42 input  -60.55 | X-H torsion
[ 11005 11000 10999 10996 ] final   71.48 input  -57.11 | X-H torsion

> <Gold.Protein.ActiveResidues>
 VAL166  LYS551  ARG553  GLY616  TRP617  ASP618  TYR619  PRO620  LYS621  CYS622 
 ASP623  PHE694  ASN695  SER759  ASP760  ASP761  ALA762  ILE779  LEU786  VAL792 
 PHE793  MET794  SER795  GLU796  ALA797  LYS798  CYS799  TRP800  GLU811  SER814 

> <Gold.Protein.RotatedAtoms>
  150.7122  134.0861  159.3914 H   0  0  0  0  0  0  0  0  0  0  0  0  # atno 6907 bound_to 6896
  151.8846  135.0438  160.0501 H   0  0  0  0  0  0  0  0  0  0  0  0  # atno 6908 bound_to 6896
  152.2541  133.5204  159.5379 H   0  0  0  0  0  0  0  0  0  0  0  0  # atno 6909 bound_to 6896
  145.2923  140.9356  143.2871 H   0  0  0  0  0  0  0  0  0  0  0  0  # atno 7974 bound_to 7965
  155.5614  140.3488  155.4492 H   0  0  0  0  0  0  0  0  0  0  0  0  # atno 8008 bound_to 7997
  156.0512  140.1318  157.0074 H   0  0  0  0  0  0  0  0  0  0  0  0  # atno 8009 bound_to 7997
  154.4435  140.1004  156.6363 H   0  0  0  0  0  0  0  0  0  0  0  0  # atno 8010 bound_to 7997
  139.6510  144.7128  151.2048 H   0  0  0  0  0  0  0  0  0  0  0  0  # atno 10167 bound_to 10162
  157.3831  131.0995  151.0719 H   0  0  0  0  0  0  0  0  0  0  0  0  # atno 10718 bound_to 10713
  154.6307  135.2886  155.0219 H   0  0  0  0  0  0  0  0  0  0  0  0  # atno 10763 bound_to 10752
  154.1381  135.6523  153.4940 H   0  0  0  0  0  0  0  0  0  0  0  0  # atno 10764 bound_to 10752
  153.0278  135.5326  154.7134 H   0  0  0  0  0  0  0  0  0  0  0  0  # atno 10765 bound_to 10752
  139.9541  134.7175  156.0793 H   0  0  0  0  0  0  0  0  0  0  0  0  # atno 11005 bound_to 11000
  144.9162  139.4467  143.6563 LP  0  0  0  0  0  0  0  0  0  0  0  0  # atno 17320 bound_to 7965
  146.3180  139.7998  142.8968 LP  0  0  0  0  0  0  0  0  0  0  0  0  # atno 17321 bound_to 7965
  140.7537  143.6150  150.8568 LP  0  0  0  0  0  0  0  0  0  0  0  0  # atno 17342 bound_to 10162
  139.9798  143.5964  152.2946 LP  0  0  0  0  0  0  0  0  0  0  0  0  # atno 17343 bound_to 10162
  157.1781  130.6297  149.5662 LP  0  0  0  0  0  0  0  0  0  0  0  0  # atno 17370 bound_to 10713
  155.9780  130.4763  150.6630 LP  0  0  0  0  0  0  0  0  0  0  0  0  # atno 17371 bound_to 10713
  141.1210  133.6613  156.3214 LP  0  0  0  0  0  0  0  0  0  0  0  0  # atno 17394 bound_to 11000
  140.5650  134.5897  157.5443 LP  0  0  0  0  0  0  0  0  0  0  0  0  # atno 17395 bound_to 11000

$$$$
