AV-unprocessed.smi:3056|AV-procd|sdf|11647|dock2
  -GOLD-   2272017 43D 1   1.00000     0.00000
 Structure written by MMmdl.
 48 49  0  0  0  0  0  0  0  0  2 V2000
  144.3242  133.8309  150.5965 C   0  0  0  0  0  0  0  0  0  0  0  0
  145.3569  133.1410  151.4403 C   0  0  0  0  0  0  0  0  0  0  0  0
  145.3374  131.8039  151.9285 C   0  0  0  0  0  0  0  0  0  0  0  0
  146.4099  131.5029  152.6415 N   0  0  0  0  0  0  0  0  0  0  0  0
  147.1458  132.6351  152.6470 N   0  0  0  0  0  0  0  0  0  0  0  0
  148.4337  132.6546  153.3308 C   0  0  2  0  0  0  0  0  0  0  0  0
  148.7537  131.2524  153.8809 C   0  0  0  0  0  0  0  0  0  0  0  0
  148.4690  133.7605  154.4215 C   0  0  1  0  0  0  0  0  0  0  0  0
  148.9307  133.2517  155.8002 C   0  0  0  0  0  0  0  0  0  0  0  0
  149.2548  134.9491  153.9994 N   0  3  0  0  0  0  0  0  0  0  0  0
  149.3751  136.0582  154.9748 C   0  0  0  0  0  0  0  0  0  0  0  0
  150.7898  136.6555  155.0013 C   0  0  0  0  0  0  0  0  0  0  0  0
  151.7108  135.9805  155.4651 O   0  0  0  0  0  0  0  0  0  0  0  0
  150.9830  137.9055  154.5172 N   0  0  0  0  0  0  0  0  0  0  0  0
  152.2794  138.5874  154.5484 C   0  0  0  0  0  0  0  0  0  0  0  0
  152.1575  139.8133  155.4707 C   0  0  0  0  0  0  0  0  0  0  0  0
  151.1127  140.6643  155.0040 O   0  0  0  0  0  0  0  0  0  0  0  0
  149.8413  140.0200  154.9367 C   0  0  1  0  0  0  0  0  0  0  0  0
  148.8094  141.0424  154.4479 C   0  0  0  0  0  0  0  0  0  0  0  0
  149.9451  138.8013  153.9974 C   0  0  0  0  0  0  0  0  0  0  0  0
  146.5345  133.6382  151.9215 C   0  0  0  0  0  0  0  0  0  0  0  0
  143.4689  133.1859  150.3936 H   0  0  0  0  0  0  0  0  0  0  0  0
  144.7311  134.1373  149.6329 H   0  0  0  0  0  0  0  0  0  0  0  0
  143.9410  134.7272  151.0846 H   0  0  0  0  0  0  0  0  0  0  0  0
  144.5817  131.0462  151.7830 H   0  0  0  0  0  0  0  0  0  0  0  0
  149.1995  132.8759  152.5858 H   0  0  0  0  0  0  0  0  0  0  0  0
  149.7757  131.1914  154.2542 H   0  0  0  0  0  0  0  0  0  0  0  0
  148.6551  130.4962  153.1011 H   0  0  0  0  0  0  0  0  0  0  0  0
  148.0841  130.9769  154.6963 H   0  0  0  0  0  0  0  0  0  0  0  0
  147.4505  134.1310  154.5447 H   0  0  0  0  0  0  0  0  0  0  0  0
  148.2266  132.5307  156.2151 H   0  0  0  0  0  0  0  0  0  0  0  0
  149.0052  134.0711  156.5161 H   0  0  0  0  0  0  0  0  0  0  0  0
  149.9046  132.7647  155.7460 H   0  0  0  0  0  0  0  0  0  0  0  0
  150.1896  134.6369  153.7773 H   0  0  0  0  0  0  0  0  0  0  0  0
  148.6656  136.8450  154.7188 H   0  0  0  0  0  0  0  0  0  0  0  0
  149.1357  135.6973  155.9743 H   0  0  0  0  0  0  0  0  0  0  0  0
  153.0916  137.9457  154.8923 H   0  0  0  0  0  0  0  0  0  0  0  0
  152.5483  138.9007  153.5386 H   0  0  0  0  0  0  0  0  0  0  0  0
  151.9587  139.5073  156.4990 H   0  0  0  0  0  0  0  0  0  0  0  0
  153.0923  140.3738  155.4792 H   0  0  0  0  0  0  0  0  0  0  0  0
  149.5569  139.6896  155.9376 H   0  0  0  0  0  0  0  0  0  0  0  0
  147.8149  140.5996  154.3895 H   0  0  0  0  0  0  0  0  0  0  0  0
  149.0663  141.4211  153.4582 H   0  0  0  0  0  0  0  0  0  0  0  0
  148.7530  141.8943  155.1260 H   0  0  0  0  0  0  0  0  0  0  0  0
  150.2229  139.1232  152.9925 H   0  0  0  0  0  0  0  0  0  0  0  0
  148.9690  138.3299  153.8959 H   0  0  0  0  0  0  0  0  0  0  0  0
  146.9839  134.6137  151.8060 H   0  0  0  0  0  0  0  0  0  0  0  0
  148.8417  135.3229  153.1568 H   0  0  0  0  0  0  0  0  0  0  0  0
  1  2  1  0  0  0  0
  1 22  1  0  0  0  0
  1 23  1  0  0  0  0
  1 24  1  0  0  0  0
  2 21  2  0  0  0  0
  2  3  1  0  0  0  0
  3  4  2  0  0  0  0
  3 25  1  0  0  0  0
  4  5  1  0  0  0  0
  5  6  1  0  0  0  0
  5 21  1  0  0  0  0
  6  7  1  0  0  0  0
  6  8  1  0  0  0  0
  6 26  1  0  0  0  0
  7 27  1  0  0  0  0
  7 28  1  0  0  0  0
  7 29  1  0  0  0  0
  8  9  1  0  0  0  0
  8 10  1  0  0  0  0
  8 30  1  0  0  0  0
  9 31  1  0  0  0  0
  9 32  1  0  0  0  0
  9 33  1  0  0  0  0
 10 11  1  0  0  0  0
 10 34  1  0  0  0  0
 10 48  1  0  0  0  0
 11 12  1  0  0  0  0
 11 35  1  0  0  0  0
 11 36  1  0  0  0  0
 12 13  2  0  0  0  0
 12 14  1  0  0  0  0
 14 20  1  0  0  0  0
 14 15  1  0  0  0  0
 15 16  1  0  0  0  0
 15 37  1  0  0  0  0
 15 38  1  0  0  0  0
 16 17  1  0  0  0  0
 16 39  1  0  0  0  0
 16 40  1  0  0  0  0
 17 18  1  0  0  0  0
 18 19  1  0  0  0  0
 18 20  1  0  0  0  0
 18 41  1  0  0  0  0
 19 42  1  0  0  0  0
 19 43  1  0  0  0  0
 19 44  1  0  0  0  0
 20 45  1  0  0  0  0
 20 46  1  0  0  0  0
 21 47  1  0  0  0  0
M  CHG  1  10   1
M  END
> <s_m_source_file>
AV-unprocessed.smi

> <i_m_source_file_index>
3056

> <i_lp_mmshare_version>
43012

> <i_f3d_flags>
0

> <s_epik_input>
W0NIM11jMVtjSF1ubihbY0hdMSlbQ0BIXShbQ0gzXSlbQ0BIXShbQ0gzXSlbTkhdW0NIMl1DKD1PKU4yW0NIMl1bQ0gyXU9bQ0BASF0oW0NIM10pW0NIMl0y

> <s_epik_cmdline>
J2VwaWtfcHl0aG9uJywgJy1waCcsICc3LjAnLCAnLXRuJywgJzgnLCAnLW1hJywgJzIwMCcsICctbWV0YWxfYmluZGluZycsICctaW1hZScsICc8aW5maWxlLm1hZT4nLCAnLW9tYWUnLCAnPG91dGZpbGUubWFlPic=

> <r_lp_tautomer_probability>
1

> <r_epik_Ionization_Penalty>
0.233715

> <r_epik_Ionization_Penalty_Charging>
0.233698

> <r_epik_Ionization_Penalty_Neutral>
1.68157e-05

> <r_epik_State_Penalty>
0.225221

> <r_epik_Charging_Adjusted_Penalty>
0.458919

> <i_epik_Tot_Q>
1

> <i_epik_Tot_abs_Q>
1

> <r_epik_Metal_State_Penalty>
0.225535

> <b_epik_Metal_Only>
0

> <s_lp_Force_Field>
OPLS_2005

> <r_lp_Energy>
27.3139

> <b_lp_Chiralities_Consistent>
1

> <s_lp_Variant>
AV-unprocessed.smi:3056-3

> <Gold.Version>
5.8.1

> <Gold.Id.Protein>
6NUR|6NUR_protein|mol2

> <Gold.PLP.Fitness>
52.6653

> <Gold.PLP.PLP>
-41.1649

> <Gold.PLP.part.hbond>
-3.0000

> <Gold.PLP.part.metal>
0.0000

> <Gold.PLP.part.buried>
-3.4231

> <Gold.PLP.part.nonpolar>
-35.7247

> <Gold.PLP.part.repulsive>
0.2673

> <Gold.PLP.ligand.clash>
0.0000

> <Gold.PLP.ligand.torsion>
1.8035

> <Gold.PLP.Chemscore.Hbond>
3.9920

> <Gold.PLP.Chemscore.CHOScore>
1.0000

> <Gold.PLP.Chemscore.Metal>
0.0000

> <Gold.Chemscore.Hbonds>
donor molecule, donor type, donor heavy atom, donor atom, acceptor molecule, acceptor atom, score
      L1  H    10    48       P1  7948  1.95
      P1  H  7989  7998       L1    17  0.85
      P1  H 10752 10764       L1    13  0.94
      L1  C    21    47       P1  7948  1.00

> <Gold.PLP.Chemscore.Internal.Correction>
0.1314

> <Gold.Rescore>
     Score         DG    S(hbond)    S(metal)    S(lipo)     H(rot)  DE(clash)    DE(int)     intcor
     15.54     -17.36       1.97        0.00      83.24       1.74       0.12       1.70       ----

> <Gold.Chemscore.Fitness>
15.5372

> <Gold.Chemscore.DG>
-17.3628

> <Gold.Chemscore.ZeroCoef>
-5.4800

> <Gold.Chemscore.Hbond>
1.9718

> <Gold.Chemscore.Metal>
0.0000

> <Gold.Chemscore.Lipo>
83.2446

> <Gold.Chemscore.Internal_Hbond>
0.0000

> <Gold.Chemscore.DEClash>
0.1224

> <Gold.Chemscore.DEInternal>
1.7033

> <Gold.Chemscore.Rot>
1.7354

> <Gold.Chemscore.Internal.Correction>
   9.000000E+99

> <Gold.Chemscore.Hbonds>
donor molecule, donor type, donor heavy atom, donor atom, acceptor molecule, acceptor atom, score
      L1  H    10    48       P1  7948  0.58
      P1  H  7989  7998       L1    17  0.12
      P1  H 10752 10764       L1    13  0.90

> <Gold.Chemscore.Hbond.Weighted>
-6.5858

> <Gold.Chemscore.Metal.Weighted>
-0.0000

> <Gold.Chemscore.Lipo.Weighted>
-9.7396

> <Gold.Chemscore.Internal_Hbond.Weighted>
0.0000

> <Gold.Chemscore.DEClash.Weighted>
0.1224

> <Gold.Chemscore.DEInternal.Weighted>
1.7033

> <Gold.Chemscore.Rot.Weighted>
4.4426

> <Gold.Chemscore.Internal.Correction.Weighted>
   9.000000E+99

> <Gold.Protein.RotatedTorsions>
[ 6907 6896 6895 6894 ] final  -86.53 input  -60.11 | X-H torsion
[ 7974 7965 7964 7962 ] final  137.85 input  175.53 | X-H torsion
[ 8008 7997 7996 7995 ] final  122.08 input   59.86 | X-H torsion
[ 10167 10162 10161 10158 ] final    0.41 input  -65.29 | X-H torsion
[ 10718 10713 10712 10709 ] final -163.63 input   66.30 | X-H torsion
[ 10763 10752 10751 10750 ] final  -47.95 input  -60.55 | X-H torsion
[ 11005 11000 10999 10996 ] final   25.09 input  -57.11 | X-H torsion

> <Gold.Protein.ActiveResidues>
 VAL166  LYS551  ARG553  GLY616  TRP617  ASP618  TYR619  PRO620  LYS621  CYS622 
 ASP623  PHE694  ASN695  SER759  ASP760  ASP761  ALA762  ILE779  LEU786  VAL792 
 PHE793  MET794  SER795  GLU796  ALA797  LYS798  CYS799  TRP800  GLU811  SER814 

> <Gold.Protein.RotatedAtoms>
  150.6867  134.3036  159.4716 H   0  0  0  0  0  0  0  0  0  0  0  0  # atno 6907 bound_to 6896
  152.0929  134.9392  160.0580 H   0  0  0  0  0  0  0  0  0  0  0  0  # atno 6908 bound_to 6896
  152.0701  133.4068  159.4492 H   0  0  0  0  0  0  0  0  0  0  0  0  # atno 6909 bound_to 6896
  144.9428  139.4910  143.5563 H   0  0  0  0  0  0  0  0  0  0  0  0  # atno 7974 bound_to 7965
  156.2713  140.2794  156.1411 H   0  0  0  0  0  0  0  0  0  0  0  0  # atno 8008 bound_to 7997
  155.0952  140.0389  157.2698 H   0  0  0  0  0  0  0  0  0  0  0  0  # atno 8009 bound_to 7997
  154.6858  140.2618  155.6868 H   0  0  0  0  0  0  0  0  0  0  0  0  # atno 8010 bound_to 7997
  140.6730  143.6996  150.7962 H   0  0  0  0  0  0  0  0  0  0  0  0  # atno 10167 bound_to 10162
  156.6274  130.8915  151.2970 H   0  0  0  0  0  0  0  0  0  0  0  0  # atno 10718 bound_to 10713
  154.0699  135.6606  153.4823 H   0  0  0  0  0  0  0  0  0  0  0  0  # atno 10763 bound_to 10752
  153.0395  135.5154  154.7577 H   0  0  0  0  0  0  0  0  0  0  0  0  # atno 10764 bound_to 10752
  154.6640  135.3019  154.9797 H   0  0  0  0  0  0  0  0  0  0  0  0  # atno 10765 bound_to 10752
  140.3516  134.2223  155.7679 H   0  0  0  0  0  0  0  0  0  0  0  0  # atno 11005 bound_to 11000
  146.3292  139.8459  142.8882 LP  0  0  0  0  0  0  0  0  0  0  0  0  # atno 17320 bound_to 7965
  145.2964  141.0182  143.3633 LP  0  0  0  0  0  0  0  0  0  0  0  0  # atno 17321 bound_to 7965
  140.0684  143.5085  152.2592 LP  0  0  0  0  0  0  0  0  0  0  0  0  # atno 17342 bound_to 10162
  139.6007  144.7581  151.3178 LP  0  0  0  0  0  0  0  0  0  0  0  0  # atno 17343 bound_to 10162
  157.7210  130.9558  150.1438 LP  0  0  0  0  0  0  0  0  0  0  0  0  # atno 17370 bound_to 10713
  156.2262  130.3678  149.8498 LP  0  0  0  0  0  0  0  0  0  0  0  0  # atno 17371 bound_to 10713
  141.2010  133.7972  157.0460 LP  0  0  0  0  0  0  0  0  0  0  0  0  # atno 17394 bound_to 11000
  140.0699  134.9708  157.1449 LP  0  0  0  0  0  0  0  0  0  0  0  0  # atno 17395 bound_to 11000

$$$$
