AV-unprocessed.smi:334|AV-procd|sdf|2367|dock7
  -GOLD-   2262022283D 1   1.00000     0.00000
 Structure written by MMmdl.
 44 46  0  0  0  0  0  0  0  0  3 V2000
  147.3768  134.2947  155.1424 C   0  0  0  0  0  0  0  0  0  0  0  0
  146.3340  135.0580  154.3095 C   0  0  1  0  0  0  0  0  0  0  0  0
  146.9461  136.2414  153.7146 N   0  0  0  0  0  0  0  0  0  0  0  0
  146.6918  137.5185  154.0463 C   0  0  0  0  0  0  0  0  0  0  0  0
  145.9408  137.8330  154.9686 O   0  0  0  0  0  0  0  0  0  0  0  0
  147.3633  138.6264  153.2158 C   0  0  0  0  0  0  0  0  0  0  0  0
  148.4589  139.3361  153.9031 N   0  0  0  0  0  0  0  0  0  0  0  0
  149.6634  138.6285  154.0858 C   0  0  0  0  0  0  0  0  0  0  0  0
  150.7352  139.1824  154.6858 C   0  0  0  0  0  0  0  0  0  0  0  0
  151.9662  138.4431  154.8585 N   0  3  0  0  0  0  0  0  0  0  0  0
  152.9336  139.0176  155.3471 O   0  0  0  0  0  0  0  0  0  0  0  0
  152.0077  137.2664  154.5117 O   0  5  0  0  0  0  0  0  0  0  0  0
  150.6163  140.5513  155.1490 C   0  0  0  0  0  0  0  0  0  0  0  0
  149.4681  141.2346  154.9749 C   0  0  0  0  0  0  0  0  0  0  0  0
  148.3041  140.6311  154.3184 C   0  0  0  0  0  0  0  0  0  0  0  0
  147.2577  141.2547  154.1427 O   0  0  0  0  0  0  0  0  0  0  0  0
  145.7306  134.1924  153.1790 C   0  0  2  0  0  0  0  0  0  0  0  0
  146.6349  134.0241  151.9355 C   0  0  0  0  0  0  0  0  0  0  0  0
  145.6823  134.3466  150.7694 C   0  0  2  0  0  0  0  0  0  0  0  0
  145.4363  135.8656  150.7292 C   0  0  0  0  0  0  0  0  0  0  0  0
  144.5250  136.0920  151.9493 C   0  0  0  0  0  0  0  0  0  0  0  0
  144.3998  134.6774  152.5524 C   0  0  1  0  0  0  0  0  0  0  0  0
  144.3468  133.8248  151.2880 C   0  0  0  0  0  0  0  0  0  0  0  0
  146.9309  133.4342  155.6416 H   0  0  0  0  0  0  0  0  0  0  0  0
  147.8055  134.9307  155.9174 H   0  0  0  0  0  0  0  0  0  0  0  0
  148.1948  133.9320  154.5194 H   0  0  0  0  0  0  0  0  0  0  0  0
  145.5325  135.3888  154.9703 H   0  0  0  0  0  0  0  0  0  0  0  0
  147.5834  136.0765  152.9493 H   0  0  0  0  0  0  0  0  0  0  0  0
  147.7280  138.1877  152.2854 H   0  0  0  0  0  0  0  0  0  0  0  0
  146.5894  139.3309  152.9078 H   0  0  0  0  0  0  0  0  0  0  0  0
  149.6531  137.6192  153.7001 H   0  0  0  0  0  0  0  0  0  0  0  0
  151.4470  141.0389  155.6374 H   0  0  0  0  0  0  0  0  0  0  0  0
  149.4016  142.2537  155.3269 H   0  0  0  0  0  0  0  0  0  0  0  0
  145.5490  133.1979  153.5917 H   0  0  0  0  0  0  0  0  0  0  0  0
  147.5009  134.6877  151.9419 H   0  0  0  0  0  0  0  0  0  0  0  0
  147.0068  133.0009  151.8694 H   0  0  0  0  0  0  0  0  0  0  0  0
  146.0028  133.9298  149.8142 H   0  0  0  0  0  0  0  0  0  0  0  0
  146.3630  136.4374  150.7902 H   0  0  0  0  0  0  0  0  0  0  0  0
  144.9252  136.1538  149.8097 H   0  0  0  0  0  0  0  0  0  0  0  0
  144.9227  136.8299  152.6445 H   0  0  0  0  0  0  0  0  0  0  0  0
  143.5477  136.4523  151.6254 H   0  0  0  0  0  0  0  0  0  0  0  0
  143.5381  134.5586  153.2098 H   0  0  0  0  0  0  0  0  0  0  0  0
  143.5056  134.0665  150.6359 H   0  0  0  0  0  0  0  0  0  0  0  0
  144.3483  132.7512  151.4854 H   0  0  0  0  0  0  0  0  0  0  0  0
  1  2  1  0  0  0  0
  1 24  1  0  0  0  0
  1 25  1  0  0  0  0
  1 26  1  0  0  0  0
  2  3  1  0  0  0  0
  2 17  1  0  0  0  0
  2 27  1  0  0  0  0
  3  4  1  0  0  0  0
  3 28  1  0  0  0  0
  4  5  2  0  0  0  0
  4  6  1  0  0  0  0
  6  7  1  0  0  0  0
  6 29  1  0  0  0  0
  6 30  1  0  0  0  0
  7 15  1  0  0  0  0
  7  8  1  0  0  0  0
  8  9  2  0  0  0  0
  8 31  1  0  0  0  0
  9 10  1  0  0  0  0
  9 13  1  0  0  0  0
 10 11  2  0  0  0  0
 10 12  1  0  0  0  0
 13 14  2  0  0  0  0
 13 32  1  0  0  0  0
 14 15  1  0  0  0  0
 14 33  1  0  0  0  0
 15 16  2  0  0  0  0
 17 22  1  0  0  0  0
 17 18  1  0  0  0  0
 17 34  1  0  0  0  0
 18 19  1  0  0  0  0
 18 35  1  0  0  0  0
 18 36  1  0  0  0  0
 19 23  1  0  0  0  0
 19 20  1  0  0  0  0
 19 37  1  0  0  0  0
 20 21  1  0  0  0  0
 20 38  1  0  0  0  0
 20 39  1  0  0  0  0
 21 22  1  0  0  0  0
 21 40  1  0  0  0  0
 21 41  1  0  0  0  0
 22 23  1  0  0  0  0
 22 42  1  0  0  0  0
 23 43  1  0  0  0  0
 23 44  1  0  0  0  0
M  CHG  1  10   1
M  CHG  1  12  -1
M  END
> <s_m_source_file>
AV-unprocessed.smi

> <i_m_source_file_index>
334

> <i_lp_mmshare_version>
43012

> <i_f3d_flags>
0

> <s_epik_input>
W0NIMl0xW0NIMl1bQ0BIXShbQ0gyXTIpW0NAQEhdKFtDSDJdW0NAQEhdMTIpW0NASF0oW0NIM10pW05IXUMoPU8pW0NIMl1uM1tjSF1jKFtOK10oPU8pW08tXSlbY0hdW2NIXWMzPU8=

> <s_epik_cmdline>
J2VwaWtfcHl0aG9uJywgJy1waCcsICc3LjAnLCAnLXRuJywgJzgnLCAnLW1hJywgJzIwMCcsICctbWV0YWxfYmluZGluZycsICctaW1hZScsICc8aW5maWxlLm1hZT4nLCAnLW9tYWUnLCAnPG91dGZpbGUubWFlPic=

> <r_lp_tautomer_probability>
1

> <r_epik_Ionization_Penalty>
2.17081e-08

> <r_epik_Ionization_Penalty_Charging>
8.1195e-11

> <r_epik_Ionization_Penalty_Neutral>
2.16269e-08

> <r_epik_State_Penalty>
-0

> <r_epik_Charging_Adjusted_Penalty>
8.1195e-11

> <i_epik_Tot_Q>
0

> <i_epik_Tot_abs_Q>
2

> <r_epik_Metal_State_Penalty>
-0

> <b_epik_Metal_Only>
0

> <s_lp_Force_Field>
OPLS_2005

> <r_lp_Energy>
62.3621

> <b_lp_Chiralities_Consistent>
1

> <s_lp_Variant>
AV-unprocessed.smi:334-6

> <Gold.Version>
5.8.1

> <Gold.Id.Protein>
6NUR|6NUR_protein|mol2

> <Gold.PLP.Fitness>
47.3654

> <Gold.PLP.PLP>
-36.7304

> <Gold.PLP.part.hbond>
-3.0000

> <Gold.PLP.part.metal>
0.0000

> <Gold.PLP.part.buried>
-0.7593

> <Gold.PLP.part.nonpolar>
-32.3625

> <Gold.PLP.part.repulsive>
0.3397

> <Gold.PLP.ligand.clash>
0.0000

> <Gold.PLP.ligand.torsion>
0.6188

> <Gold.PLP.Chemscore.Hbond>
2.9440

> <Gold.PLP.Chemscore.CHOScore>
1.0000

> <Gold.PLP.Chemscore.Metal>
0.0000

> <Gold.Chemscore.Hbonds>
donor molecule, donor type, donor heavy atom, donor atom, acceptor molecule, acceptor atom, score
      L1  H     3    28       P1  7948  1.00
      P1  H  7997  8010       L1    11  1.00
      P1  H 10752 10763       L1    12  0.91
      L1  C     8    31       P1  7948  1.00

> <Gold.PLP.Chemscore.Internal.Correction>
0.0406

> <Gold.Rescore>
     Score         DG    S(hbond)    S(metal)    S(lipo)     H(rot)  DE(clash)    DE(int)     intcor
     16.96     -18.81       2.85        0.00      70.76       1.75       0.07       1.77       ----

> <Gold.Chemscore.Fitness>
16.9634

> <Gold.Chemscore.DG>
-18.8097

> <Gold.Chemscore.ZeroCoef>
-5.4800

> <Gold.Chemscore.Hbond>
2.8515

> <Gold.Chemscore.Metal>
0.0000

> <Gold.Chemscore.Lipo>
70.7603

> <Gold.Chemscore.Internal_Hbond>
0.0000

> <Gold.Chemscore.DEClash>
0.0745

> <Gold.Chemscore.DEInternal>
1.7718

> <Gold.Chemscore.Rot>
1.7474

> <Gold.Chemscore.Internal.Correction>
   9.000000E+99

> <Gold.Chemscore.Hbonds>
donor molecule, donor type, donor heavy atom, donor atom, acceptor molecule, acceptor atom, score
      L1  H     3    28       P1  7948  1.00
      P1  H  7997  8010       L1    11  0.98
      P1  H 10752 10763       L1    12  0.90

> <Gold.Chemscore.Hbond.Weighted>
-9.5241

> <Gold.Chemscore.Metal.Weighted>
-0.0000

> <Gold.Chemscore.Lipo.Weighted>
-8.2790

> <Gold.Chemscore.Internal_Hbond.Weighted>
0.0000

> <Gold.Chemscore.DEClash.Weighted>
0.0745

> <Gold.Chemscore.DEInternal.Weighted>
1.7718

> <Gold.Chemscore.Rot.Weighted>
4.4733

> <Gold.Chemscore.Internal.Correction.Weighted>
   9.000000E+99

> <Gold.Protein.RotatedTorsions>
[ 6907 6896 6895 6894 ] final   12.42 input  -60.11 | X-H torsion
[ 7974 7965 7964 7962 ] final  120.54 input  175.53 | X-H torsion
[ 8008 7997 7996 7995 ] final   94.46 input   59.86 | X-H torsion
[ 10167 10162 10161 10158 ] final -166.70 input  -65.29 | X-H torsion
[ 10718 10713 10712 10709 ] final -151.96 input   66.30 | X-H torsion
[ 10763 10752 10751 10750 ] final   39.51 input  -60.55 | X-H torsion
[ 11005 11000 10999 10996 ] final   68.38 input  -57.11 | X-H torsion

> <Gold.Protein.ActiveResidues>
 VAL166  LYS551  ARG553  GLY616  TRP617  ASP618  TYR619  PRO620  LYS621  CYS622 
 ASP623  PHE694  ASN695  SER759  ASP760  ASP761  ALA762  ILE779  LEU786  VAL792 
 PHE793  MET794  SER795  GLU796  ALA797  LYS798  CYS799  TRP800  GLU811  SER814 

> <Gold.Protein.RotatedAtoms>
  151.7701  135.0788  160.0358 H   0  0  0  0  0  0  0  0  0  0  0  0  # atno 6907 bound_to 6896
  152.3294  133.5937  159.5807 H   0  0  0  0  0  0  0  0  0  0  0  0  # atno 6908 bound_to 6896
  150.7414  133.9807  159.3617 H   0  0  0  0  0  0  0  0  0  0  0  0  # atno 6909 bound_to 6896
  145.1300  139.3334  143.4670 H   0  0  0  0  0  0  0  0  0  0  0  0  # atno 7974 bound_to 7965
  156.0582  140.3299  155.7430 H   0  0  0  0  0  0  0  0  0  0  0  0  # atno 8008 bound_to 7997
  155.5497  140.0609  157.2870 H   0  0  0  0  0  0  0  0  0  0  0  0  # atno 8009 bound_to 7997
  154.4468  140.1896  156.0662 H   0  0  0  0  0  0  0  0  0  0  0  0  # atno 8010 bound_to 7997
  139.6098  144.0838  152.1830 H   0  0  0  0  0  0  0  0  0  0  0  0  # atno 10167 bound_to 10162
  156.4662  130.8237  151.2467 H   0  0  0  0  0  0  0  0  0  0  0  0  # atno 10718 bound_to 10713
  152.9965  135.6218  154.2477 H   0  0  0  0  0  0  0  0  0  0  0  0  # atno 10763 bound_to 10752
  154.2216  135.2795  155.2924 H   0  0  0  0  0  0  0  0  0  0  0  0  # atno 10764 bound_to 10752
  154.5524  135.5729  153.6992 H   0  0  0  0  0  0  0  0  0  0  0  0  # atno 10765 bound_to 10752
  139.9714  134.6893  156.0438 H   0  0  0  0  0  0  0  0  0  0  0  0  # atno 11005 bound_to 11000
  146.3514  140.1294  142.8597 LP  0  0  0  0  0  0  0  0  0  0  0  0  # atno 17320 bound_to 7965
  145.0646  140.9112  143.4918 LP  0  0  0  0  0  0  0  0  0  0  0  0  # atno 17321 bound_to 7965
  140.0454  144.5974  150.7377 LP  0  0  0  0  0  0  0  0  0  0  0  0  # atno 17342 bound_to 10162
  140.7311  143.2690  151.3949 LP  0  0  0  0  0  0  0  0  0  0  0  0  # atno 17343 bound_to 10162
  157.7494  131.0091  150.3254 LP  0  0  0  0  0  0  0  0  0  0  0  0  # atno 17370 bound_to 10713
  156.3665  130.3856  149.7209 LP  0  0  0  0  0  0  0  0  0  0  0  0  # atno 17371 bound_to 10713
  141.1394  133.6568  156.3686 LP  0  0  0  0  0  0  0  0  0  0  0  0  # atno 17394 bound_to 11000
  140.5284  134.6236  157.5342 LP  0  0  0  0  0  0  0  0  0  0  0  0  # atno 17395 bound_to 11000

$$$$
