AV-unprocessed.smi:2449|AV-procd|sdf|9664|dock9
  -GOLD-   2272013303D 1   1.00000     0.00000
 Structure written by MMmdl.
 36 36  0  0  0  0  0  0  0  0  2 V2000
  143.6418  132.6198  148.4029 C   0  0  0  0  0  0  0  0  0  0  0  0
  143.4846  132.5909  149.9269 C   0  0  0  0  0  0  0  0  0  0  0  0
  144.7942  132.9517  150.6576 C   0  0  0  0  0  0  0  0  0  0  0  0
  145.8785  131.8384  150.6990 C   0  0  0  0  0  0  0  0  0  0  0  0
  145.3363  130.6087  151.4599 C   0  0  0  0  0  0  0  0  0  0  0  0
  146.2393  131.3930  149.2682 C   0  0  0  0  0  0  0  0  0  0  0  0
  147.1190  132.3112  151.3271 N   0  0  0  0  0  0  0  0  0  0  0  0
  147.2898  132.8203  152.5602 C   0  0  0  0  0  0  0  0  0  0  0  0
  146.3862  132.9322  153.3890 O   0  0  0  0  0  0  0  0  0  0  0  0
  148.7178  133.2531  152.9143 C   0  0  0  0  0  0  0  0  0  0  0  0
  148.8509  133.6380  154.3281 N   0  0  0  0  0  0  0  0  0  0  0  0
  149.1365  134.9839  154.6179 C   0  0  0  0  0  0  0  0  0  0  0  0
  149.2827  135.4226  155.8827 C   0  0  0  0  0  0  0  0  0  0  0  0
  149.1372  134.4604  156.9684 C   0  0  0  0  0  0  0  0  0  0  0  0
  149.2642  134.8436  158.1296 O   0  0  0  0  0  0  0  0  0  0  0  0
  148.8632  133.1649  156.6360 N   0  5  0  0  0  0  0  0  0  0  0  0
  148.7189  132.7327  155.3446 C   0  0  0  0  0  0  0  0  0  0  0  0
  148.4731  131.5582  155.0666 O   0  0  0  0  0  0  0  0  0  0  0  0
  142.7023  132.3663  147.9113 H   0  0  0  0  0  0  0  0  0  0  0  0
  144.3933  131.9024  148.0725 H   0  0  0  0  0  0  0  0  0  0  0  0
  143.9437  133.6083  148.0558 H   0  0  0  0  0  0  0  0  0  0  0  0
  142.6921  133.2826  150.2106 H   0  0  0  0  0  0  0  0  0  0  0  0
  143.1473  131.5969  150.2205 H   0  0  0  0  0  0  0  0  0  0  0  0
  145.2100  133.8457  150.1920 H   0  0  0  0  0  0  0  0  0  0  0  0
  144.5535  133.2502  151.6788 H   0  0  0  0  0  0  0  0  0  0  0  0
  144.4673  130.1864  150.9542 H   0  0  0  0  0  0  0  0  0  0  0  0
  145.0245  130.8569  152.4743 H   0  0  0  0  0  0  0  0  0  0  0  0
  146.0877  129.8212  151.5310 H   0  0  0  0  0  0  0  0  0  0  0  0
  145.3561  131.0633  148.7202 H   0  0  0  0  0  0  0  0  0  0  0  0
  146.9453  130.5615  149.2790 H   0  0  0  0  0  0  0  0  0  0  0  0
  146.7016  132.1963  148.6945 H   0  0  0  0  0  0  0  0  0  0  0  0
  147.9417  132.2735  150.7430 H   0  0  0  0  0  0  0  0  0  0  0  0
  149.3902  132.4282  152.6758 H   0  0  0  0  0  0  0  0  0  0  0  0
  149.0344  134.0765  152.2710 H   0  0  0  0  0  0  0  0  0  0  0  0
  149.2345  135.6295  153.7576 H   0  0  0  0  0  0  0  0  0  0  0  0
  149.5049  136.4595  156.0884 H   0  0  0  0  0  0  0  0  0  0  0  0
  1  2  1  0  0  0  0
  1 19  1  0  0  0  0
  1 20  1  0  0  0  0
  1 21  1  0  0  0  0
  2  3  1  0  0  0  0
  2 22  1  0  0  0  0
  2 23  1  0  0  0  0
  3  4  1  0  0  0  0
  3 24  1  0  0  0  0
  3 25  1  0  0  0  0
  4  5  1  0  0  0  0
  4  6  1  0  0  0  0
  4  7  1  0  0  0  0
  5 26  1  0  0  0  0
  5 27  1  0  0  0  0
  5 28  1  0  0  0  0
  6 29  1  0  0  0  0
  6 30  1  0  0  0  0
  6 31  1  0  0  0  0
  7  8  1  0  0  0  0
  7 32  1  0  0  0  0
  8  9  2  0  0  0  0
  8 10  1  0  0  0  0
 10 11  1  0  0  0  0
 10 33  1  0  0  0  0
 10 34  1  0  0  0  0
 11 17  1  0  0  0  0
 11 12  1  0  0  0  0
 12 13  2  0  0  0  0
 12 35  1  0  0  0  0
 13 14  1  0  0  0  0
 13 36  1  0  0  0  0
 14 15  2  0  0  0  0
 14 16  1  0  0  0  0
 16 17  1  0  0  0  0
 17 18  2  0  0  0  0
M  CHG  1  16  -1
M  END
> <s_m_source_file>
AV-unprocessed.smi

> <i_m_source_file_index>
2449

> <i_lp_mmshare_version>
43012

> <i_f3d_flags>
0

> <s_epik_input>
W0NIM11bQ0gyXVtDSDJdQyhbQ0gzXSkoW0NIM10pW05IXUMoPU8pW0NIMl1uMVtjSF1bY0hdYyg9TylbbkhdYzE9Tw==

> <s_epik_cmdline>
J2VwaWtfcHl0aG9uJywgJy1waCcsICc3LjAnLCAnLXRuJywgJzgnLCAnLW1hJywgJzIwMCcsICctbWV0YWxfYmluZGluZycsICctaW1hZScsICc8aW5maWxlLm1hZT4nLCAnLW9tYWUnLCAnPG91dGZpbGUubWFlPic=

> <r_lp_tautomer_probability>
0.999537

> <r_epik_Ionization_Penalty>
3.14746

> <r_epik_Ionization_Penalty_Charging>
2.94994e-08

> <r_epik_Ionization_Penalty_Neutral>
3.14746

> <r_epik_State_Penalty>
3.14658

> <r_epik_Charging_Adjusted_Penalty>
3.14658

> <i_epik_Tot_Q>
-1

> <i_epik_Tot_abs_Q>
1

> <r_epik_Metal_State_Penalty>
0.466037

> <b_epik_Metal_Only>
1

> <s_lp_Force_Field>
OPLS_2005

> <r_lp_Energy>
14.91

> <b_lp_Chiralities_Consistent>
1

> <s_lp_Variant>
AV-unprocessed.smi:2449-2

> <Gold.Version>
5.8.1

> <Gold.Id.Protein>
6NUR|6NUR_protein|mol2

> <Gold.PLP.Fitness>
38.7342

> <Gold.PLP.PLP>
-31.0632

> <Gold.PLP.part.hbond>
-1.9112

> <Gold.PLP.part.metal>
0.0000

> <Gold.PLP.part.buried>
-0.9987

> <Gold.PLP.part.nonpolar>
-29.4439

> <Gold.PLP.part.repulsive>
0.1620

> <Gold.PLP.ligand.clash>
0.0000

> <Gold.PLP.ligand.torsion>
0.1703

> <Gold.PLP.Chemscore.Hbond>
1.6560

> <Gold.PLP.Chemscore.CHOScore>
1.0000

> <Gold.PLP.Chemscore.Metal>
0.0000

> <Gold.Chemscore.Hbonds>
donor molecule, donor type, donor heavy atom, donor atom, acceptor molecule, acceptor atom, score
      L1  H     7    32       P1 10747  0.62
      P1  H  6896  6908       L1    15  1.00
      L1  C    12    35       P1  7948  0.87

> <Gold.PLP.Chemscore.Internal.Correction>
0.0436

> <Gold.Rescore>
     Score         DG    S(hbond)    S(metal)    S(lipo)     H(rot)  DE(clash)    DE(int)     intcor
     13.51     -16.02       1.90        0.00      81.49       2.08       1.34       1.16       ----

> <Gold.Chemscore.Fitness>
13.5133

> <Gold.Chemscore.DG>
-16.0150

> <Gold.Chemscore.ZeroCoef>
-5.4800

> <Gold.Chemscore.Hbond>
1.8960

> <Gold.Chemscore.Metal>
0.0000

> <Gold.Chemscore.Lipo>
81.4896

> <Gold.Chemscore.Internal_Hbond>
0.0000

> <Gold.Chemscore.DEClash>
1.3411

> <Gold.Chemscore.DEInternal>
1.1606

> <Gold.Chemscore.Rot>
2.0828

> <Gold.Chemscore.Internal.Correction>
   9.000000E+99

> <Gold.Chemscore.Hbonds>
donor molecule, donor type, donor heavy atom, donor atom, acceptor molecule, acceptor atom, score
      L1  H     7    32       P1 10747  0.62
      P1  H  6896  6908       L1    15  0.97

> <Gold.Chemscore.Hbond.Weighted>
-6.3327

> <Gold.Chemscore.Metal.Weighted>
-0.0000

> <Gold.Chemscore.Lipo.Weighted>
-9.5343

> <Gold.Chemscore.Internal_Hbond.Weighted>
0.0000

> <Gold.Chemscore.DEClash.Weighted>
1.3411

> <Gold.Chemscore.DEInternal.Weighted>
1.1606

> <Gold.Chemscore.Rot.Weighted>
5.3319

> <Gold.Chemscore.Internal.Correction.Weighted>
   9.000000E+99

> <Gold.Protein.RotatedTorsions>
[ 6907 6896 6895 6894 ] final  143.62 input  -60.11 | X-H torsion
[ 7974 7965 7964 7962 ] final   52.34 input  175.53 | X-H torsion
[ 8008 7997 7996 7995 ] final  118.20 input   59.86 | X-H torsion
[ 10167 10162 10161 10158 ] final   -7.71 input  -65.29 | X-H torsion
[ 10718 10713 10712 10709 ] final  -79.42 input   66.30 | X-H torsion
[ 10763 10752 10751 10750 ] final   32.08 input  -60.55 | X-H torsion
[ 11005 11000 10999 10996 ] final   -0.34 input  -57.11 | X-H torsion

> <Gold.Protein.ActiveResidues>
 VAL166  LYS551  ARG553  GLY616  TRP617  ASP618  TYR619  PRO620  LYS621  CYS622 
 ASP623  PHE694  ASN695  SER759  ASP760  ASP761  ALA762  ILE779  LEU786  VAL792 
 PHE793  MET794  SER795  GLU796  ALA797  LYS798  CYS799  TRP800  GLU811  SER814 

> <Gold.Protein.RotatedAtoms>
  152.2040  133.4862  159.5073 H   0  0  0  0  0  0  0  0  0  0  0  0  # atno 6907 bound_to 6896
  150.6975  134.1553  159.4165 H   0  0  0  0  0  0  0  0  0  0  0  0  # atno 6908 bound_to 6896
  151.9471  135.0186  160.0590 H   0  0  0  0  0  0  0  0  0  0  0  0  # atno 6909 bound_to 6896
  145.9823  139.4254  143.0124 H   0  0  0  0  0  0  0  0  0  0  0  0  # atno 7974 bound_to 7965
  156.2534  140.2880  156.0797 H   0  0  0  0  0  0  0  0  0  0  0  0  # atno 8008 bound_to 7997
  155.1580  140.0399  157.2853 H   0  0  0  0  0  0  0  0  0  0  0  0  # atno 8009 bound_to 7997
  154.6413  140.2523  155.7325 H   0  0  0  0  0  0  0  0  0  0  0  0  # atno 8010 bound_to 7997
  140.7037  143.6051  150.8759 H   0  0  0  0  0  0  0  0  0  0  0  0  # atno 10167 bound_to 10162
  156.0093  130.4545  150.3645 H   0  0  0  0  0  0  0  0  0  0  0  0  # atno 10718 bound_to 10713
  153.0281  135.6422  154.1300 H   0  0  0  0  0  0  0  0  0  0  0  0  # atno 10763 bound_to 10752
  154.1026  135.2858  155.3250 H   0  0  0  0  0  0  0  0  0  0  0  0  # atno 10764 bound_to 10752
  154.6388  135.5467  153.7828 H   0  0  0  0  0  0  0  0  0  0  0  0  # atno 10765 bound_to 10752
  140.6351  133.9539  155.8295 H   0  0  0  0  0  0  0  0  0  0  0  0  # atno 11005 bound_to 11000
  145.7752  140.9880  143.1128 LP  0  0  0  0  0  0  0  0  0  0  0  0  # atno 17320 bound_to 7965
  144.6865  139.9496  143.7477 LP  0  0  0  0  0  0  0  0  0  0  0  0  # atno 17321 bound_to 7965
  139.9774  143.5989  152.2954 LP  0  0  0  0  0  0  0  0  0  0  0  0  # atno 17342 bound_to 10162
  139.6597  144.7662  151.1986 LP  0  0  0  0  0  0  0  0  0  0  0  0  # atno 17343 bound_to 10162
  157.1732  131.0374  151.2785 LP  0  0  0  0  0  0  0  0  0  0  0  0  # atno 17370 bound_to 10713
  157.4210  130.7438  149.6914 LP  0  0  0  0  0  0  0  0  0  0  0  0  # atno 17371 bound_to 10713
  141.0647  134.0294  157.3610 LP  0  0  0  0  0  0  0  0  0  0  0  0  # atno 17394 bound_to 11000
  139.9101  135.0188  156.7655 LP  0  0  0  0  0  0  0  0  0  0  0  0  # atno 17395 bound_to 11000

$$$$
