AV-unprocessed.smi:240|AV-procd|sdf|1831|dock9
  -GOLD-   2262020433D 1   1.00000     0.00000
 Structure written by MMmdl.
 55 59  0  0  0  0  0  0  0  0  1 V2000
  150.4681  139.8261  153.6728 O   0  0  0  0  0  0  0  0  0  0  0  0
  149.7152  140.3564  154.7445 C   0  0  1  0  0  0  0  0  0  0  0  0
  148.2783  140.6580  154.3210 C   0  0  0  0  0  0  0  0  0  0  0  0
  147.4928  140.6907  155.6359 C   0  0  0  0  0  0  0  0  0  0  0  0
  148.2775  139.8179  156.6293 C   0  0  0  0  0  0  0  0  0  0  0  0
  149.5421  139.3452  155.8862 C   0  0  2  0  0  0  0  0  0  0  0  0
  150.8014  139.0893  156.7691 C   0  0  1  0  0  0  0  0  0  0  0  0
  151.5305  140.3855  157.2070 C   0  0  0  0  0  0  0  0  0  0  0  0
  152.6756  140.0673  157.9895 O   0  0  0  0  0  0  0  0  0  0  0  0
  152.3268  139.3818  159.1843 C   0  0  0  0  0  0  0  0  0  0  0  0
  151.6625  138.0492  158.8161 C   0  0  0  0  0  0  0  0  0  0  0  0
  150.5055  138.2776  157.9584 N   0  0  0  0  0  0  0  0  0  0  0  0
  149.8231  137.1253  157.7689 C   0  0  0  0  0  0  0  0  0  0  0  0
  149.7940  136.6300  156.5072 N   0  0  0  0  0  0  0  0  0  0  0  0
  149.1419  135.4920  156.2514 C   0  0  0  0  0  0  0  0  0  0  0  0
  148.4609  134.7124  157.0941 N   0  0  0  0  0  0  0  0  0  0  0  0
  148.4765  135.2165  158.3617 C   0  0  0  0  0  0  0  0  0  0  0  0
  149.1288  136.4082  158.7851 C   0  0  0  0  0  0  0  0  0  0  0  0
  148.9278  136.5991  160.1469 N   0  0  0  0  0  0  0  0  0  0  0  0
  148.2052  135.5748  160.5089 C   0  0  0  0  0  0  0  0  0  0  0  0
  147.8767  134.7002  159.4975 N   0  0  0  0  0  0  0  0  0  0  0  0
  147.0808  133.4874  159.6131 C   0  0  0  0  0  0  0  0  0  0  0  0
  146.1401  133.4768  160.8416 C   0  0  1  0  0  0  0  0  0  0  0  0
  146.9131  133.3248  162.0200 O   0  0  0  0  0  0  0  0  0  0  0  0
  145.3219  134.7562  160.9687 C   0  0  0  0  0  0  0  0  0  0  0  0
  144.0553  134.2791  161.6659 C   0  0  0  0  0  0  0  0  0  0  0  0
  143.8118  133.0258  161.0508 O   0  0  0  0  0  0  0  0  0  0  0  0
  145.0586  132.3758  160.8208 C   0  0  0  0  0  0  0  0  0  0  0  0
  149.9992  139.9848  152.8677 H   0  0  0  0  0  0  0  0  0  0  0  0
  150.1781  141.2787  155.0927 H   0  0  0  0  0  0  0  0  0  0  0  0
  148.1908  141.5861  153.7552 H   0  0  0  0  0  0  0  0  0  0  0  0
  147.8958  139.8509  153.6939 H   0  0  0  0  0  0  0  0  0  0  0  0
  147.4405  141.7135  156.0109 H   0  0  0  0  0  0  0  0  0  0  0  0
  146.4690  140.3402  155.5008 H   0  0  0  0  0  0  0  0  0  0  0  0
  148.5161  140.4032  157.5160 H   0  0  0  0  0  0  0  0  0  0  0  0
  147.6853  138.9653  156.9639 H   0  0  0  0  0  0  0  0  0  0  0  0
  149.2705  138.4078  155.3979 H   0  0  0  0  0  0  0  0  0  0  0  0
  151.5137  138.5291  156.1636 H   0  0  0  0  0  0  0  0  0  0  0  0
  151.8797  140.9483  156.3430 H   0  0  0  0  0  0  0  0  0  0  0  0
  150.8798  141.0488  157.7769 H   0  0  0  0  0  0  0  0  0  0  0  0
  153.2289  139.2035  159.7697 H   0  0  0  0  0  0  0  0  0  0  0  0
  151.6635  139.9958  159.7957 H   0  0  0  0  0  0  0  0  0  0  0  0
  152.3788  137.4083  158.2997 H   0  0  0  0  0  0  0  0  0  0  0  0
  151.3590  137.5267  159.7247 H   0  0  0  0  0  0  0  0  0  0  0  0
  149.1706  135.1576  155.2249 H   0  0  0  0  0  0  0  0  0  0  0  0
  147.8874  135.4323  161.5315 H   0  0  0  0  0  0  0  0  0  0  0  0
  146.5021  133.3690  158.6961 H   0  0  0  0  0  0  0  0  0  0  0  0
  147.7632  132.6373  159.6543 H   0  0  0  0  0  0  0  0  0  0  0  0
  146.6118  132.5561  162.4795 H   0  0  0  0  0  0  0  0  0  0  0  0
  145.8345  135.5546  161.5073 H   0  0  0  0  0  0  0  0  0  0  0  0
  145.0601  135.1383  159.9810 H   0  0  0  0  0  0  0  0  0  0  0  0
  144.2242  134.1375  162.7345 H   0  0  0  0  0  0  0  0  0  0  0  0
  143.2161  134.9625  161.5348 H   0  0  0  0  0  0  0  0  0  0  0  0
  144.9993  131.8693  159.8580 H   0  0  0  0  0  0  0  0  0  0  0  0
  145.2295  131.6126  161.5818 H   0  0  0  0  0  0  0  0  0  0  0  0
  1  2  1  0  0  0  0
  1 29  1  0  0  0  0
  2  6  1  0  0  0  0
  2  3  1  0  0  0  0
  2 30  1  0  0  0  0
  3  4  1  0  0  0  0
  3 31  1  0  0  0  0
  3 32  1  0  0  0  0
  4  5  1  0  0  0  0
  4 33  1  0  0  0  0
  4 34  1  0  0  0  0
  5  6  1  0  0  0  0
  5 35  1  0  0  0  0
  5 36  1  0  0  0  0
  6  7  1  0  0  0  0
  6 37  1  0  0  0  0
  7 12  1  0  0  0  0
  7  8  1  0  0  0  0
  7 38  1  0  0  0  0
  8  9  1  0  0  0  0
  8 39  1  0  0  0  0
  8 40  1  0  0  0  0
  9 10  1  0  0  0  0
 10 11  1  0  0  0  0
 10 41  1  0  0  0  0
 10 42  1  0  0  0  0
 11 12  1  0  0  0  0
 11 43  1  0  0  0  0
 11 44  1  0  0  0  0
 12 13  1  0  0  0  0
 13 18  1  0  0  0  0
 13 14  2  0  0  0  0
 14 15  1  0  0  0  0
 15 16  2  0  0  0  0
 15 45  1  0  0  0  0
 16 17  1  0  0  0  0
 17 21  1  0  0  0  0
 17 18  2  0  0  0  0
 18 19  1  0  0  0  0
 19 20  2  0  0  0  0
 20 21  1  0  0  0  0
 20 46  1  0  0  0  0
 21 22  1  0  0  0  0
 22 23  1  0  0  0  0
 22 47  1  0  0  0  0
 22 48  1  0  0  0  0
 23 28  1  0  0  0  0
 23 24  1  0  0  0  0
 23 25  1  0  0  0  0
 24 49  1  0  0  0  0
 25 26  1  0  0  0  0
 25 50  1  0  0  0  0
 25 51  1  0  0  0  0
 26 27  1  0  0  0  0
 26 52  1  0  0  0  0
 26 53  1  0  0  0  0
 27 28  1  0  0  0  0
 28 54  1  0  0  0  0
 28 55  1  0  0  0  0
M  END
> <s_m_source_file>
AV-unprocessed.smi

> <i_m_source_file_index>
240

> <i_lp_mmshare_version>
43012

> <i_f3d_flags>
0

> <s_epik_input>
W09IXVtDQEBIXTFbQ0gyXVtDSDJdW0NIMl1bQ0BIXTFbQ0BASF0yW0NIMl1PW0NIMl1bQ0gyXU4yYyhuW2NIXW4zKWMoYzM0KW5bY0hdbjRbQ0gyXVtDQEBdNShbT0hdKVtDSDJdW0NIMl1PW0NIMl01

> <s_epik_cmdline>
J2VwaWtfcHl0aG9uJywgJy1waCcsICc3LjAnLCAnLXRuJywgJzgnLCAnLW1hJywgJzIwMCcsICctbWV0YWxfYmluZGluZycsICctaW1hZScsICc8aW5maWxlLm1hZT4nLCAnLW9tYWUnLCAnPG91dGZpbGUubWFlPic=

> <r_lp_tautomer_probability>
1

> <r_epik_Ionization_Penalty>
0.000130618

> <r_epik_Ionization_Penalty_Charging>
0

> <r_epik_Ionization_Penalty_Neutral>
0.000130618

> <r_epik_State_Penalty>
-0

> <r_epik_Charging_Adjusted_Penalty>
0

> <i_epik_Tot_Q>
0

> <i_epik_Tot_abs_Q>
0

> <r_epik_Metal_State_Penalty>
-0

> <b_epik_Metal_Only>
0

> <s_lp_Force_Field>
OPLS_2005

> <r_lp_Energy>
62.0257

> <b_lp_Chiralities_Consistent>
1

> <s_lp_Variant>
AV-unprocessed.smi:240-8

> <Gold.Version>
5.8.1

> <Gold.Id.Protein>
6NUR|6NUR_protein|mol2

> <Gold.PLP.Fitness>
44.6945

> <Gold.PLP.PLP>
-35.8878

> <Gold.PLP.part.hbond>
-4.9996

> <Gold.PLP.part.metal>
0.0000

> <Gold.PLP.part.buried>
-5.3849

> <Gold.PLP.part.nonpolar>
-24.6830

> <Gold.PLP.part.repulsive>
0.0695

> <Gold.PLP.ligand.clash>
0.0000

> <Gold.PLP.ligand.torsion>
0.8774

> <Gold.PLP.Chemscore.Hbond>
3.4560

> <Gold.PLP.Chemscore.CHOScore>
0.0000

> <Gold.PLP.Chemscore.Metal>
0.0000

> <Gold.Chemscore.Hbonds>
donor molecule, donor type, donor heavy atom, donor atom, acceptor molecule, acceptor atom, score
      L1  H     1    29       P1  7957  1.00
      P1  H  6931  6943       L1    19  0.06
      P1  H  7989  7998       L1     1  0.82
      P1  H  7997  8009       L1     9  0.56

> <Gold.PLP.Chemscore.Internal.Correction>
0.1934

> <Gold.Rescore>
     Score         DG    S(hbond)    S(metal)    S(lipo)     H(rot)  DE(clash)    DE(int)     intcor
     10.78     -14.06       2.30        0.00      73.36       3.00       0.02       3.26       ----

> <Gold.Chemscore.Fitness>
10.7794

> <Gold.Chemscore.DG>
-14.0573

> <Gold.Chemscore.ZeroCoef>
-5.4800

> <Gold.Chemscore.Hbond>
2.3005

> <Gold.Chemscore.Metal>
0.0000

> <Gold.Chemscore.Lipo>
73.3635

> <Gold.Chemscore.Internal_Hbond>
0.0000

> <Gold.Chemscore.DEClash>
0.0174

> <Gold.Chemscore.DEInternal>
3.2605

> <Gold.Chemscore.Rot>
3.0039

> <Gold.Chemscore.Internal.Correction>
   9.000000E+99

> <Gold.Chemscore.Hbonds>
donor molecule, donor type, donor heavy atom, donor atom, acceptor molecule, acceptor atom, score
      L1  H     1    29       P1  7957  1.00
      P1  H  6931  6943       L1    19  0.07
      P1  H  7989  7998       L1     1  0.07
      P1  H  7997  8009       L1     9  0.53

> <Gold.Chemscore.Hbond.Weighted>
-7.6836

> <Gold.Chemscore.Metal.Weighted>
-0.0000

> <Gold.Chemscore.Lipo.Weighted>
-8.5835

> <Gold.Chemscore.Internal_Hbond.Weighted>
0.0000

> <Gold.Chemscore.DEClash.Weighted>
0.0174

> <Gold.Chemscore.DEInternal.Weighted>
3.2605

> <Gold.Chemscore.Rot.Weighted>
7.6899

> <Gold.Chemscore.Internal.Correction.Weighted>
   9.000000E+99

> <Gold.Protein.RotatedTorsions>
[ 6907 6896 6895 6894 ] final   53.85 input  -60.11 | X-H torsion
[ 7974 7965 7964 7962 ] final -137.42 input  175.53 | X-H torsion
[ 8008 7997 7996 7995 ] final  147.56 input   59.86 | X-H torsion
[ 10167 10162 10161 10158 ] final  -90.56 input  -65.29 | X-H torsion
[ 10718 10713 10712 10709 ] final   40.25 input   66.30 | X-H torsion
[ 10763 10752 10751 10750 ] final -161.40 input  -60.55 | X-H torsion
[ 11005 11000 10999 10996 ] final  -30.82 input  -57.11 | X-H torsion

> <Gold.Protein.ActiveResidues>
 VAL166  LYS551  ARG553  GLY616  TRP617  ASP618  TYR619  PRO620  LYS621  CYS622 
 ASP623  PHE694  ASN695  SER759  ASP760  ASP761  ALA762  ILE779  LEU786  VAL792 
 PHE793  MET794  SER795  GLU796  ALA797  LYS798  CYS799  TRP800  GLU811  SER814 

> <Gold.Protein.RotatedAtoms>
  152.3379  134.7173  160.0271 H   0  0  0  0  0  0  0  0  0  0  0  0  # atno 6907 bound_to 6896
  151.7568  133.3325  159.3414 H   0  0  0  0  0  0  0  0  0  0  0  0  # atno 6908 bound_to 6896
  150.7462  134.6075  159.6113 H   0  0  0  0  0  0  0  0  0  0  0  0  # atno 6909 bound_to 6896
  144.8844  140.6553  143.5185 H   0  0  0  0  0  0  0  0  0  0  0  0  # atno 7974 bound_to 7965
  156.2820  140.2152  156.5558 H   0  0  0  0  0  0  0  0  0  0  0  0  # atno 8008 bound_to 7997
  154.7254  140.0500  157.0700 H   0  0  0  0  0  0  0  0  0  0  0  0  # atno 8009 bound_to 7997
  155.0424  140.3147  155.4723 H   0  0  0  0  0  0  0  0  0  0  0  0  # atno 8010 bound_to 7997
  140.3537  143.2878  151.9696 H   0  0  0  0  0  0  0  0  0  0  0  0  # atno 10167 bound_to 10162
  157.3800  130.7748  149.7185 H   0  0  0  0  0  0  0  0  0  0  0  0  # atno 10718 bound_to 10713
  154.7306  135.3045  154.8897 H   0  0  0  0  0  0  0  0  0  0  0  0  # atno 10763 bound_to 10752
  153.9741  135.6738  153.4752 H   0  0  0  0  0  0  0  0  0  0  0  0  # atno 10764 bound_to 10752
  153.0915  135.4957  154.8620 H   0  0  0  0  0  0  0  0  0  0  0  0  # atno 10765 bound_to 10752
  140.9415  133.7276  156.1083 H   0  0  0  0  0  0  0  0  0  0  0  0  # atno 11005 bound_to 11000
  145.3896  139.1619  143.4236 LP  0  0  0  0  0  0  0  0  0  0  0  0  # atno 17320 bound_to 7965
  146.3015  140.3984  142.8702 LP  0  0  0  0  0  0  0  0  0  0  0  0  # atno 17321 bound_to 7965
  139.4823  144.6054  151.7531 LP  0  0  0  0  0  0  0  0  0  0  0  0  # atno 17342 bound_to 10162
  140.5194  144.0902  150.6018 LP  0  0  0  0  0  0  0  0  0  0  0  0  # atno 17343 bound_to 10162
  155.9773  130.4064  150.3718 LP  0  0  0  0  0  0  0  0  0  0  0  0  # atno 17370 bound_to 10713
  157.1820  131.0394  151.2743 LP  0  0  0  0  0  0  0  0  0  0  0  0  # atno 17371 bound_to 10713
  140.7727  134.3814  157.5504 LP  0  0  0  0  0  0  0  0  0  0  0  0  # atno 17394 bound_to 11000
  139.8822  134.9032  156.2850 LP  0  0  0  0  0  0  0  0  0  0  0  0  # atno 17395 bound_to 11000

$$$$
