AV-unprocessed.smi:72|AV-procd|sdf|708|dock4
  -GOLD-   2262017 33D 1   1.00000     0.00000
 Structure written by MMmdl.
 30 31  0  0  0  0  0  0  0  0  2 V2000
  146.2477  139.2743  152.4979 N   0  0  0  0  0  0  0  0  0  0  0  0
  147.3349  139.5099  153.3132 C   0  0  0  0  0  0  0  0  0  0  0  0
  148.4315  138.6786  153.1784 N   0  3  0  0  0  0  0  0  0  0  0  0
  149.5666  138.7768  153.8839 C   0  0  0  0  0  0  0  0  0  0  0  0
  149.6885  139.7453  154.7722 N   0  0  0  0  0  0  0  0  0  0  0  0
  150.9337  139.9085  155.6146 C   0  0  1  0  0  0  0  0  0  0  0  0
  150.6357  139.4974  156.9126 O   0  0  0  0  0  0  0  0  0  0  0  0
  150.9848  138.1252  157.0611 C   0  0  2  0  0  0  0  0  0  0  0  0
  151.0134  137.7106  158.5421 C   0  0  0  0  0  0  0  0  0  0  0  0
  150.8229  136.3158  158.6484 O   0  0  0  0  0  0  0  0  0  0  0  0
  152.3246  138.0685  156.3208 C   0  0  2  0  0  0  0  0  0  0  0  0
  153.3734  138.5332  157.1559 O   0  0  0  0  0  0  0  0  0  0  0  0
  152.0712  138.9845  155.1210 C   0  0  2  0  0  0  0  0  0  0  0  0
  153.2306  139.6899  154.7204 O   0  0  0  0  0  0  0  0  0  0  0  0
  148.5958  140.6189  155.0128 C   0  0  0  0  0  0  0  0  0  0  0  0
  148.6725  141.4871  155.8806 O   0  0  0  0  0  0  0  0  0  0  0  0
  147.4523  140.4384  154.2211 N   0  0  0  0  0  0  0  0  0  0  0  0
  151.1610  140.9759  155.5928 H   0  0  0  0  0  0  0  0  0  0  0  0
  150.2712  137.5040  156.5159 H   0  0  0  0  0  0  0  0  0  0  0  0
  152.5678  137.0526  156.0071 H   0  0  0  0  0  0  0  0  0  0  0  0
  151.7173  138.3846  154.2814 H   0  0  0  0  0  0  0  0  0  0  0  0
  145.4022  139.8262  152.5313 H   0  0  0  0  0  0  0  0  0  0  0  0
  146.2047  138.5333  151.8130 H   0  0  0  0  0  0  0  0  0  0  0  0
  150.3481  138.0493  153.7088 H   0  0  0  0  0  0  0  0  0  0  0  0
  151.9852  137.9430  158.9790 H   0  0  0  0  0  0  0  0  0  0  0  0
  150.2578  138.2413  159.1221 H   0  0  0  0  0  0  0  0  0  0  0  0
  149.9476  136.1097  158.3569 H   0  0  0  0  0  0  0  0  0  0  0  0
  153.9575  137.8109  157.3316 H   0  0  0  0  0  0  0  0  0  0  0  0
  153.1699  139.8653  153.7935 H   0  0  0  0  0  0  0  0  0  0  0  0
  148.3659  137.9351  152.4979 H   0  0  0  0  0  0  0  0  0  0  0  0
  1  2  1  0  0  0  0
  1 22  1  0  0  0  0
  1 23  1  0  0  0  0
  2 17  2  0  0  0  0
  2  3  1  0  0  0  0
  3  4  2  0  0  0  0
  3 30  1  0  0  0  0
  4  5  1  0  0  0  0
  4 24  1  0  0  0  0
  5  6  1  0  0  0  0
  5 15  1  0  0  0  0
  6 18  1  0  0  0  0
  6 13  1  0  0  0  0
  6  7  1  0  0  0  0
  7  8  1  0  0  0  0
  8 19  1  0  0  0  0
  8  9  1  0  0  0  0
  8 11  1  0  0  0  0
  9 10  1  0  0  0  0
  9 25  1  0  0  0  0
  9 26  1  0  0  0  0
 10 27  1  0  0  0  0
 11 20  1  0  0  0  0
 11 12  1  0  0  0  0
 11 13  1  0  0  0  0
 12 28  1  0  0  0  0
 13 21  1  0  0  0  0
 13 14  1  0  0  0  0
 14 29  1  0  0  0  0
 15 16  2  0  0  0  0
 15 17  1  0  0  0  0
M  CHG  1   3   1
M  END
> <s_m_source_file>
AV-unprocessed.smi

> <i_m_source_file_index>
72

> <i_lp_mmshare_version>
43012

> <i_f3d_flags>
0

> <s_epik_input>
W05IMl1jMW5bY0hdbihjKD1PKW4xKVtDQEBIXTJPW0NASF0oW0NIMl1bT0hdKVtDQEBIXShbT0hdKVtDQEhdMltPSF0=

> <s_epik_cmdline>
J2VwaWtfcHl0aG9uJywgJy1waCcsICc3LjAnLCAnLXRuJywgJzgnLCAnLW1hJywgJzIwMCcsICctbWV0YWxfYmluZGluZycsICctaW1hZScsICc8aW5maWxlLm1hZT4nLCAnLW9tYWUnLCAnPG91dGZpbGUubWFlPic=

> <r_lp_tautomer_probability>
4.77166e-05

> <r_epik_Ionization_Penalty>
0.104979

> <r_epik_Ionization_Penalty_Charging>
0.0999619

> <r_epik_Ionization_Penalty_Neutral>
0.00501745

> <r_epik_State_Penalty>
2.51541

> <r_epik_Charging_Adjusted_Penalty>
2.61537

> <i_epik_Tot_Q>
1

> <i_epik_Tot_abs_Q>
1

> <r_epik_Metal_State_Penalty>
3.53763

> <b_epik_Metal_Only>
0

> <s_epik_Chemistry_Notes>
This compound contains an acetal/aminal-like group ( X-CH(R)-Y where X, Y are N, S, or O) that may be acid/base labile, releasing an aldehyde.

> <s_lp_Force_Field>
OPLS_2005

> <r_lp_Energy>
33.6404

> <b_lp_Chiralities_Consistent>
1

> <s_lp_Variant>
AV-unprocessed.smi:72-46

> <Gold.Version>
5.8.1

> <Gold.Id.Protein>
6NUR|6NUR_protein|mol2

> <Gold.PLP.Fitness>
39.9085

> <Gold.PLP.PLP>
-25.8041

> <Gold.PLP.part.hbond>
-7.0000

> <Gold.PLP.part.metal>
0.0000

> <Gold.PLP.part.buried>
-2.5867

> <Gold.PLP.part.nonpolar>
-16.6385

> <Gold.PLP.part.repulsive>
1.0308

> <Gold.PLP.ligand.clash>
0.0000

> <Gold.PLP.ligand.torsion>
0.4895

> <Gold.PLP.Chemscore.Hbond>
5.0133

> <Gold.PLP.Chemscore.CHOScore>
0.0029

> <Gold.PLP.Chemscore.Metal>
0.0000

> <Gold.Chemscore.Hbonds>
donor molecule, donor type, donor heavy atom, donor atom, acceptor molecule, acceptor atom, score
      L1  H     1    22       P1 10175  1.00
      L1  H     3    30       P1  7948  1.98
      P1  H  6896  6908       L1    10  0.86
      P1  H  7997  8008       L1    14  1.00
      P1  H  7997  8010       L1    12  0.01
      L1  C     4    24       P1  7948  0.04

> <Gold.PLP.Chemscore.Internal.Correction>
0.0348

> <Gold.Rescore>
     Score         DG    S(hbond)    S(metal)    S(lipo)     H(rot)  DE(clash)    DE(int)     intcor
      8.48     -10.63       3.92        0.00      21.33       4.08       0.19       1.95       ----

> <Gold.Chemscore.Fitness>
8.4843

> <Gold.Chemscore.DG>
-10.6323

> <Gold.Chemscore.ZeroCoef>
-5.4800

> <Gold.Chemscore.Hbond>
3.9213

> <Gold.Chemscore.Metal>
0.0000

> <Gold.Chemscore.Lipo>
21.3285

> <Gold.Chemscore.Internal_Hbond>
0.0000

> <Gold.Chemscore.DEClash>
0.1949

> <Gold.Chemscore.DEInternal>
1.9530

> <Gold.Chemscore.Rot>
4.0783

> <Gold.Chemscore.Internal.Correction>
   9.000000E+99

> <Gold.Chemscore.Hbonds>
donor molecule, donor type, donor heavy atom, donor atom, acceptor molecule, acceptor atom, score
      L1  H     1    22       P1 10175  0.99
      L1  H     3    30       P1  7948  0.94
      P1  H  6896  6908       L1    10  0.29
      P1  H  7997  8008       L1    14  1.00

> <Gold.Chemscore.Hbond.Weighted>
-13.0972

> <Gold.Chemscore.Metal.Weighted>
-0.0000

> <Gold.Chemscore.Lipo.Weighted>
-2.4954

> <Gold.Chemscore.Internal_Hbond.Weighted>
0.0000

> <Gold.Chemscore.DEClash.Weighted>
0.1949

> <Gold.Chemscore.DEInternal.Weighted>
1.9530

> <Gold.Chemscore.Rot.Weighted>
10.4404

> <Gold.Chemscore.Internal.Correction.Weighted>
   9.000000E+99

> <Gold.Protein.RotatedTorsions>
[ 6907 6896 6895 6894 ] final -149.75 input  -60.11 | X-H torsion
[ 7974 7965 7964 7962 ] final   15.05 input  175.53 | X-H torsion
[ 8008 7997 7996 7995 ] final  -10.38 input   59.86 | X-H torsion
[ 10167 10162 10161 10158 ] final  102.09 input  -65.29 | X-H torsion
[ 10718 10713 10712 10709 ] final -108.43 input   66.30 | X-H torsion
[ 10763 10752 10751 10750 ] final  -75.08 input  -60.55 | X-H torsion
[ 11005 11000 10999 10996 ] final   98.87 input  -57.11 | X-H torsion

> <Gold.Protein.ActiveResidues>
 VAL166  LYS551  ARG553  GLY616  TRP617  ASP618  TYR619  PRO620  LYS621  CYS622 
 ASP623  PHE694  ASN695  SER759  ASP760  ASP761  ALA762  ILE779  LEU786  VAL792 
 PHE793  MET794  SER795  GLU796  ALA797  LYS798  CYS799  TRP800  GLU811  SER814 

> <Gold.Protein.RotatedAtoms>
  151.1886  133.4681  159.2594 H   0  0  0  0  0  0  0  0  0  0  0  0  # atno 6907 bound_to 6896
  151.1186  135.0067  159.8538 H   0  0  0  0  0  0  0  0  0  0  0  0  # atno 6908 bound_to 6896
  152.5455  134.1799  159.8684 H   0  0  0  0  0  0  0  0  0  0  0  0  # atno 6909 bound_to 6896
  146.2289  139.8951  142.8548 H   0  0  0  0  0  0  0  0  0  0  0  0  # atno 7974 bound_to 7965
  154.5560  140.2330  155.8410 H   0  0  0  0  0  0  0  0  0  0  0  0  # atno 8008 bound_to 7997
  156.1988  140.3058  155.9443 H   0  0  0  0  0  0  0  0  0  0  0  0  # atno 8009 bound_to 7997
  155.2980  140.0430  157.3018 H   0  0  0  0  0  0  0  0  0  0  0  0  # atno 8010 bound_to 7997
  139.7380  144.7019  151.0619 H   0  0  0  0  0  0  0  0  0  0  0  0  # atno 10167 bound_to 10162
  156.0485  130.5713  150.7960 H   0  0  0  0  0  0  0  0  0  0  0  0  # atno 10718 bound_to 10713
  154.4817  135.5843  153.6394 H   0  0  0  0  0  0  0  0  0  0  0  0  # atno 10763 bound_to 10752
  152.9848  135.6091  154.3238 H   0  0  0  0  0  0  0  0  0  0  0  0  # atno 10764 bound_to 10752
  154.3129  135.2845  155.2536 H   0  0  0  0  0  0  0  0  0  0  0  0  # atno 10765 bound_to 10752
  139.8771  134.9069  156.4521 H   0  0  0  0  0  0  0  0  0  0  0  0  # atno 11005 bound_to 11000
  145.2379  140.9998  143.3953 LP  0  0  0  0  0  0  0  0  0  0  0  0  # atno 17320 bound_to 7965
  144.9476  139.4118  143.6418 LP  0  0  0  0  0  0  0  0  0  0  0  0  # atno 17321 bound_to 7965
  140.7782  143.4959  150.9833 LP  0  0  0  0  0  0  0  0  0  0  0  0  # atno 17342 bound_to 10162
  139.8648  143.7268  152.3171 LP  0  0  0  0  0  0  0  0  0  0  0  0  # atno 17343 bound_to 10162
  157.5387  131.0940  150.9857 LP  0  0  0  0  0  0  0  0  0  0  0  0  # atno 17370 bound_to 10713
  157.0145  130.5650  149.5324 LP  0  0  0  0  0  0  0  0  0  0  0  0  # atno 17371 bound_to 10713
  140.8925  133.7838  155.9587 LP  0  0  0  0  0  0  0  0  0  0  0  0  # atno 17394 bound_to 11000
  140.8739  134.2694  157.5177 LP  0  0  0  0  0  0  0  0  0  0  0  0  # atno 17395 bound_to 11000

$$$$
