#       Name:                AV-unprocessed.smi:1059
#       Creating user name   scv26
#       Creation time:       Fri Mar 27 03:16:15 2020


#       File generated by GOLD software.
#

@<TRIPOS>MOLECULE
AV-unprocessed.smi:1059
    60    61     1
SMALL
NO_CHARGES


@<TRIPOS>ATOM
      1 ****        -5.1265  -5.1277  -1.4656 C.3            1 S1                 0.0000
      2 ****        -5.0825  -4.5041  -0.0619 C.3            1 S1                 0.0000
      3 ****        -6.4885  -4.5162   0.5672 C.3            1 S1                 0.0000
      4 ****        -4.4654  -3.0849  -0.1180 C.3            1 S1                 0.0000
      5 ****        -4.0634  -2.4771   1.2410 C.2            1 S1                 0.0000
      6 ****        -4.1498  -3.1682   2.2572 O.2            1 S1                 0.0000
      7 ****        -3.6187  -1.1967   1.2807 N.am           1 S1                 0.0000
      8 ****        -3.2019  -0.5417   2.5271 C.3            1 S1                 0.0000
      9 ****        -1.6718  -0.3754   2.5180 C.3            1 S1                 0.0000
     10 ****        -1.2014   0.4059   1.2728 C.3            1 S1                 0.0000
     11 ****         0.2571   0.3972   1.2101 N.am           1 S1                 0.0000
     12 ****         1.0070   1.2857   0.5427 C.2            1 S1                 0.0000
     13 ****         0.5370   2.2192  -0.1074 O.2            1 S1                 0.0000
     14 ****         2.3177   1.0294   0.6962 N.am           1 S1                 0.0000
     15 ****         3.4232   1.7247   0.1360 C.ar           1 S1                 0.0000
     16 ****         4.6852   1.5573   0.7462 C.ar           1 S1                 0.0000
     17 ****         5.8120   2.2198   0.2175 C.ar           1 S1                 0.0000
     18 ****         5.6626   3.0362  -0.9229 C.ar           1 S1                 0.0000
     19 ****         6.7540   3.7159  -1.4809 N.3            1 S1                 0.0000
     20 ****         7.1431   3.1869  -2.7793 C.3            1 S1                 0.0000
     21 ****         6.6239   5.1631  -1.3965 C.3            1 S1                 0.0000
     22 ****         4.4399   3.1598  -1.4916 N.pl3          1 S1                 1.0000
     23 ****         3.3359   2.5438  -1.0165 C.ar           1 S1                 0.0000
     24 ****        -1.8137  -0.1794  -0.0208 C.3            1 S1                 0.0000
     25 ****        -3.3375  -0.3515   0.1123 C.3            1 S1                 0.0000
     26 ****        -5.7550  -4.5443  -2.1393 H              1 S1                 0.0000
     27 ****        -5.5256  -6.1418  -1.4337 H              1 S1                 0.0000
     28 ****        -4.1299  -5.1833  -1.9048 H              1 S1                 0.0000
     29 ****        -4.4370  -5.1408   0.5453 H              1 S1                 0.0000
     30 ****        -7.1810  -3.8963  -0.0028 H              1 S1                 0.0000
     31 ****        -6.4828  -4.1467   1.5920 H              1 S1                 0.0000
     32 ****        -6.8960  -5.5270   0.5938 H              1 S1                 0.0000
     33 ****        -3.5674  -3.1109  -0.7368 H              1 S1                 0.0000
     34 ****        -5.1734  -2.4200  -0.6138 H              1 S1                 0.0000
     35 ****        -3.6845   0.4340   2.6011 H              1 S1                 0.0000
     36 ****        -3.5102  -1.0900   3.4183 H              1 S1                 0.0000
     37 ****        -1.3483   0.1354   3.4257 H              1 S1                 0.0000
     38 ****        -1.2064  -1.3623   2.5357 H              1 S1                 0.0000
     39 ****        -1.5440   1.4369   1.3805 H              1 S1                 0.0000
     40 ****         0.7276  -0.3353   1.7212 H              1 S1                 0.0000
     41 ****         2.5514   0.2775   1.3282 H              1 S1                 0.0000
     42 ****         4.7918   0.9303   1.6196 H              1 S1                 0.0000
     43 ****         6.7788   2.1013   0.6847 H              1 S1                 0.0000
     44 ****         7.2352   2.1006  -2.7455 H              1 S1                 0.0000
     45 ****         8.1077   3.5969  -3.0795 H              1 S1                 0.0000
     46 ****         6.4094   3.4474  -3.5432 H              1 S1                 0.0000
     47 ****         6.3542   5.4702  -0.3853 H              1 S1                 0.0000
     48 ****         5.8598   5.5287  -2.0836 H              1 S1                 0.0000
     49 ****         7.5693   5.6421  -1.6522 H              1 S1                 0.0000
     50 ****         2.4365   2.7251  -1.5854 H              1 S1                 0.0000
     51 ****        -1.5898   0.4659  -0.8710 H              1 S1                 0.0000
     52 ****        -1.3613  -1.1478  -0.2406 H              1 S1                 0.0000
     53 ****        -3.7424  -0.7365  -0.8216 H              1 S1                 0.0000
     54 ****        -3.8098   0.6219   0.2530 H              1 S1                 0.0000
     55 ****         4.3465   3.7454  -2.3217 H              1 S1                 0.0000
     56 ****        -4.4774  -4.1109   2.1943 LP             1 S1                 0.0000
     57 ****        -3.8924  -2.7864   3.1448 LP             1 S1                 0.0000
     58 ****        -0.4538   2.3449  -0.1573 LP             1 S1                 0.0000
     59 ****         1.1459   2.8520  -0.5858 LP             1 S1                 0.0000
     60 ****         7.5479   3.5232  -0.9043 LP             1 S1                 0.0000
@<TRIPOS>BOND
    1    1    2 1     
    2    1   26 1     
    3    1   27 1     
    4    1   28 1     
    5    2    3 1     
    6    2    4 1     
    7    2   29 1     
    8    3   30 1     
    9    3   31 1     
   10    3   32 1     
   11    4    5 1     
   12    4   33 1     
   13    4   34 1     
   14    5    6 2     
   15    5    7 am    
   16    7   25 1     
   17    7    8 1     
   18    8    9 1     
   19    8   35 1     
   20    8   36 1     
   21    9   10 1     
   22    9   37 1     
   23    9   38 1     
   24   10   11 1     
   25   10   24 1     
   26   10   39 1     
   27   11   12 am    
   28   11   40 1     
   29   12   13 2     
   30   12   14 am    
   31   14   15 1     
   32   14   41 1     
   33   15   23 ar    
   34   15   16 ar    
   35   16   17 ar    
   36   16   42 1     
   37   17   18 ar    
   38   17   43 1     
   39   18   19 1     
   40   18   22 ar    
   41   19   20 1     
   42   19   21 1     
   43   20   44 1     
   44   20   45 1     
   45   20   46 1     
   46   21   47 1     
   47   21   48 1     
   48   21   49 1     
   49   22   23 ar    
   50   22   55 1     
   51   23   50 1     
   52   24   25 1     
   53   24   51 1     
   54   24   52 1     
   55   25   53 1     
   56   25   54 1     
   57    6   56 1     
   58    6   57 1     
   59   13   58 1     
   60   13   59 1     
   61   19   60 1     
@<TRIPOS>SUBSTRUCTURE
      1 S1             1
@<TRIPOS>SET
LONE_PAIRS      STATIC     ATOMS    <user>   **** ""
5 56 57 58 59 60
DONOR_HYDROGENS      STATIC     ATOMS    <user>   **** ""
3 40 41 55
ATOM$BLUE        STATIC     ATOMS    COLORGROUP SYSTEM
5 56 57 58 59 60
ATOM$RED        STATIC     ATOMS    COLORGROUP SYSTEM
3 40 41 55
