AV-unprocessed.smi:507|AV-procd|sdf|2757|dock1
  -GOLD-   2262023223D 1   1.00000     0.00000
 Structure written by MMmdl.
 33 34  0  0  0  0  0  0  0  0  1 V2000
  152.8986  143.0698  161.4281 C   0  0  0  0  0  0  0  0  0  0  0  0
  152.3305  142.6793  160.0748 C   0  0  0  0  0  0  0  0  0  0  0  0
  152.7387  141.4627  159.4828 C   0  0  0  0  0  0  0  0  0  0  0  0
  152.2349  141.0641  158.2254 C   0  0  0  0  0  0  0  0  0  0  0  0
  152.4932  139.9327  157.4702 N   0  0  0  0  0  0  0  0  0  0  0  0
  151.7224  140.1388  156.4060 C   0  0  0  0  0  0  0  0  0  0  0  0
  150.9980  141.2742  156.3805 N   0  0  0  0  0  0  0  0  0  0  0  0
  150.0912  141.7150  155.3351 C   0  0  0  0  0  0  0  0  0  0  0  0
  148.8253  140.8408  155.2428 C   0  0  1  0  0  0  0  0  0  0  0  0
  147.9420  141.4192  154.3018 O   0  0  0  0  0  0  0  0  0  0  0  0
  149.1533  139.4096  154.7854 C   0  0  0  0  0  0  0  0  0  0  0  0
  150.2204  139.3712  153.7748 N   0  0  0  0  0  0  0  0  0  0  0  0
  151.3031  141.9225  157.5718 C   0  0  0  0  0  0  0  0  0  0  0  0
  150.8887  143.1349  158.1505 C   0  0  0  0  0  0  0  0  0  0  0  0
  151.4031  143.5187  159.4065 C   0  0  0  0  0  0  0  0  0  0  0  0
  150.9529  144.8320  160.0211 C   0  0  0  0  0  0  0  0  0  0  0  0
  153.5960  142.3183  161.7994 H   0  0  0  0  0  0  0  0  0  0  0  0
  152.0994  143.1753  162.1620 H   0  0  0  0  0  0  0  0  0  0  0  0
  153.4336  144.0171  161.3591 H   0  0  0  0  0  0  0  0  0  0  0  0
  153.4452  140.8232  159.9912 H   0  0  0  0  0  0  0  0  0  0  0  0
  151.6845  139.4248  155.5962 H   0  0  0  0  0  0  0  0  0  0  0  0
  149.8242  142.7570  155.5183 H   0  0  0  0  0  0  0  0  0  0  0  0
  150.6330  141.6938  154.3888 H   0  0  0  0  0  0  0  0  0  0  0  0
  148.3380  140.8184  156.2187 H   0  0  0  0  0  0  0  0  0  0  0  0
  148.3613  142.1784  153.9260 H   0  0  0  0  0  0  0  0  0  0  0  0
  149.4109  138.7844  155.6413 H   0  0  0  0  0  0  0  0  0  0  0  0
  148.2590  138.9635  154.3493 H   0  0  0  0  0  0  0  0  0  0  0  0
  150.7774  138.5246  153.8834 H   0  0  0  0  0  0  0  0  0  0  0  0
  149.8214  139.3459  152.8375 H   0  0  0  0  0  0  0  0  0  0  0  0
  150.1825  143.7644  157.6295 H   0  0  0  0  0  0  0  0  0  0  0  0
  150.2264  145.3400  159.3861 H   0  0  0  0  0  0  0  0  0  0  0  0
  151.8032  145.5002  160.1580 H   0  0  0  0  0  0  0  0  0  0  0  0
  150.4862  144.6607  160.9913 H   0  0  0  0  0  0  0  0  0  0  0  0
  1  2  1  0  0  0  0
  1 17  1  0  0  0  0
  1 18  1  0  0  0  0
  1 19  1  0  0  0  0
  2 15  1  0  0  0  0
  2  3  2  0  0  0  0
  3  4  1  0  0  0  0
  3 20  1  0  0  0  0
  4 13  2  0  0  0  0
  4  5  1  0  0  0  0
  5  6  2  0  0  0  0
  6  7  1  0  0  0  0
  6 21  1  0  0  0  0
  7  8  1  0  0  0  0
  7 13  1  0  0  0  0
  8  9  1  0  0  0  0
  8 22  1  0  0  0  0
  8 23  1  0  0  0  0
  9 10  1  0  0  0  0
  9 11  1  0  0  0  0
  9 24  1  0  0  0  0
 10 25  1  0  0  0  0
 11 12  1  0  0  0  0
 11 26  1  0  0  0  0
 11 27  1  0  0  0  0
 12 28  1  0  0  0  0
 12 29  1  0  0  0  0
 13 14  1  0  0  0  0
 14 15  2  0  0  0  0
 14 30  1  0  0  0  0
 15 16  1  0  0  0  0
 16 31  1  0  0  0  0
 16 32  1  0  0  0  0
 16 33  1  0  0  0  0
M  END
> <s_m_source_file>
AV-unprocessed.smi

> <i_m_source_file_index>
507

> <i_lp_mmshare_version>
43012

> <i_f3d_flags>
0

> <s_epik_input>
W0NIM11jKFtjSF0xKWMoW0NIM10pW2NIXWMoYzEyKW4oW2NIXW4yKVtDSDJdW0NASF0oW09IXSlbQ0gyXVtOSDJd

> <s_epik_cmdline>
J2VwaWtfcHl0aG9uJywgJy1waCcsICc3LjAnLCAnLXRuJywgJzgnLCAnLW1hJywgJzIwMCcsICctbWV0YWxfYmluZGluZycsICctaW1hZScsICc8aW5maWxlLm1hZT4nLCAnLW9tYWUnLCAnPG91dGZpbGUubWFlPic=

> <r_epik_Ionization_Penalty>
2.36719

> <r_epik_Ionization_Penalty_Charging>
0

> <r_epik_Ionization_Penalty_Neutral>
2.36719

> <r_epik_State_Penalty>
2.51088

> <r_epik_Charging_Adjusted_Penalty>
2.51088

> <i_epik_Tot_Q>
0

> <i_epik_Tot_abs_Q>
0

> <r_epik_Metal_State_Penalty>
2.40105

> <b_epik_Metal_Only>
0

> <s_lp_Force_Field>
OPLS_2005

> <r_lp_Energy>
13.0346

> <b_lp_Chiralities_Consistent>
1

> <s_lp_Variant>
AV-unprocessed.smi:507-6

> <Gold.Version>
5.8.1

> <Gold.Id.Protein>
6NUR|6NUR_protein|mol2

> <Gold.PLP.Fitness>
43.0620

> <Gold.PLP.PLP>
-34.9196

> <Gold.PLP.part.hbond>
-3.0000

> <Gold.PLP.part.metal>
0.0000

> <Gold.PLP.part.buried>
-3.4813

> <Gold.PLP.part.nonpolar>
-27.8639

> <Gold.PLP.part.repulsive>
0.0000

> <Gold.PLP.ligand.clash>
0.0000

> <Gold.PLP.ligand.torsion>
0.3263

> <Gold.PLP.Chemscore.Hbond>
2.9280

> <Gold.PLP.Chemscore.CHOScore>
0.0000

> <Gold.PLP.Chemscore.Metal>
0.0000

> <Gold.Chemscore.Hbonds>
donor molecule, donor type, donor heavy atom, donor atom, acceptor molecule, acceptor atom, score
      L1  H    12    29       P1  7957  1.00
      P1  H  7989  7998       L1    12  0.80
      P1  H  7997  8008       L1     5  0.93

> <Gold.PLP.Chemscore.Internal.Correction>
0.0109

> <Gold.Rescore>
     Score         DG    S(hbond)    S(metal)    S(lipo)     H(rot)  DE(clash)    DE(int)     intcor
     15.96     -16.46       1.64        0.00      95.26       2.20       0.13       0.37       ----

> <Gold.Chemscore.Fitness>
15.9558

> <Gold.Chemscore.DG>
-16.4595

> <Gold.Chemscore.ZeroCoef>
-5.4800

> <Gold.Chemscore.Hbond>
1.6384

> <Gold.Chemscore.Metal>
0.0000

> <Gold.Chemscore.Lipo>
95.2602

> <Gold.Chemscore.Internal_Hbond>
0.0000

> <Gold.Chemscore.DEClash>
0.1323

> <Gold.Chemscore.DEInternal>
0.3714

> <Gold.Chemscore.Rot>
2.2025

> <Gold.Chemscore.Internal.Correction>
   9.000000E+99

> <Gold.Chemscore.Hbonds>
donor molecule, donor type, donor heavy atom, donor atom, acceptor molecule, acceptor atom, score
      L1  H    12    29       P1  7957  0.95
      P1  H  7989  7998       L1    12  0.07
      P1  H  7997  8008       L1     5  0.18

> <Gold.Chemscore.Hbond.Weighted>
-5.4723

> <Gold.Chemscore.Metal.Weighted>
-0.0000

> <Gold.Chemscore.Lipo.Weighted>
-11.1454

> <Gold.Chemscore.Internal_Hbond.Weighted>
0.0000

> <Gold.Chemscore.DEClash.Weighted>
0.1323

> <Gold.Chemscore.DEInternal.Weighted>
0.3714

> <Gold.Chemscore.Rot.Weighted>
5.6383

> <Gold.Chemscore.Internal.Correction.Weighted>
   9.000000E+99

> <Gold.Protein.RotatedTorsions>
[ 6907 6896 6895 6894 ] final   87.45 input  -60.11 | X-H torsion
[ 7974 7965 7964 7962 ] final  -74.22 input  175.53 | X-H torsion
[ 8008 7997 7996 7995 ] final  -60.21 input   59.86 | X-H torsion
[ 10167 10162 10161 10158 ] final   -0.16 input  -65.29 | X-H torsion
[ 10718 10713 10712 10709 ] final -158.43 input   66.30 | X-H torsion
[ 10763 10752 10751 10750 ] final  -98.32 input  -60.55 | X-H torsion
[ 11005 11000 10999 10996 ] final  -88.84 input  -57.11 | X-H torsion

> <Gold.Protein.ActiveResidues>
 VAL166  LYS551  ARG553  GLY616  TRP617  ASP618  TYR619  PRO620  LYS621  CYS622 
 ASP623  PHE694  ASN695  SER759  ASP760  ASP761  ALA762  ILE779  LEU786  VAL792 
 PHE793  MET794  SER795  GLU796  ALA797  LYS798  CYS799  TRP800  GLU811  SER814 

> <Gold.Protein.RotatedAtoms>
  152.5411  134.2275  159.8811 H   0  0  0  0  0  0  0  0  0  0  0  0  # atno 6907 bound_to 6896
  151.2249  133.4475  159.2609 H   0  0  0  0  0  0  0  0  0  0  0  0  # atno 6908 bound_to 6896
  151.0770  134.9848  159.8393 H   0  0  0  0  0  0  0  0  0  0  0  0  # atno 6909 bound_to 6896
  145.6420  140.9308  143.1031 H   0  0  0  0  0  0  0  0  0  0  0  0  # atno 7974 bound_to 7965
  154.4388  140.1044  156.6238 H   0  0  0  0  0  0  0  0  0  0  0  0  # atno 8008 bound_to 7997
  155.5679  140.3488  155.4489 H   0  0  0  0  0  0  0  0  0  0  0  0  # atno 8009 bound_to 7997
  156.0412  140.1282  157.0143 H   0  0  0  0  0  0  0  0  0  0  0  0  # atno 8010 bound_to 7997
  140.6755  143.6928  150.8014 H   0  0  0  0  0  0  0  0  0  0  0  0  # atno 10167 bound_to 10162
  156.5540  130.8618  151.2789 H   0  0  0  0  0  0  0  0  0  0  0  0  # atno 10718 bound_to 10713
  154.7404  135.5013  153.9114 H   0  0  0  0  0  0  0  0  0  0  0  0  # atno 10763 bound_to 10752
  153.1038  135.6692  153.9632 H   0  0  0  0  0  0  0  0  0  0  0  0  # atno 10764 bound_to 10752
  153.9411  135.3067  155.3422 H   0  0  0  0  0  0  0  0  0  0  0  0  # atno 10765 bound_to 10752
  141.1595  133.7594  156.9509 H   0  0  0  0  0  0  0  0  0  0  0  0  # atno 11005 bound_to 11000
  144.7154  139.8217  143.7400 LP  0  0  0  0  0  0  0  0  0  0  0  0  # atno 17320 bound_to 7965
  146.1273  139.4302  143.0191 LP  0  0  0  0  0  0  0  0  0  0  0  0  # atno 17321 bound_to 7965
  140.0620  143.5145  152.2623 LP  0  0  0  0  0  0  0  0  0  0  0  0  # atno 17342 bound_to 10162
  139.6045  144.7592  151.3093 LP  0  0  0  0  0  0  0  0  0  0  0  0  # atno 17343 bound_to 10162
  157.7382  130.9809  150.2237 LP  0  0  0  0  0  0  0  0  0  0  0  0  # atno 17370 bound_to 10713
  156.2859  130.3739  149.7889 LP  0  0  0  0  0  0  0  0  0  0  0  0  # atno 17371 bound_to 10713
  140.1258  134.9388  157.2268 LP  0  0  0  0  0  0  0  0  0  0  0  0  # atno 17394 bound_to 11000
  140.3015  134.3126  155.7289 LP  0  0  0  0  0  0  0  0  0  0  0  0  # atno 17395 bound_to 11000

$$$$
