AV-unprocessed.smi:2151|AV-procd|sdf|8761|dock10
  -GOLD-   2272011543D 1   1.00000     0.00000
 Structure written by MMmdl.
 39 40  0  0  0  0  0  0  0  0  1 V2000
  146.4004  141.3008  154.2061 C   0  0  0  0  0  0  0  0  0  0  0  0
  146.7069  142.1241  155.4668 C   0  0  1  0  0  0  0  0  0  0  0  0
  148.1465  142.3700  155.5230 N   0  0  0  0  0  0  0  0  0  0  0  0
  149.0951  141.4303  155.6584 C   0  0  0  0  0  0  0  0  0  0  0  0
  148.8464  140.2264  155.7402 O   0  0  0  0  0  0  0  0  0  0  0  0
  150.5395  141.9463  155.7290 C   0  0  0  0  0  0  0  0  0  0  0  0
  151.1548  141.7846  157.0570 N   0  0  0  0  0  0  0  0  0  0  0  0
  151.2703  142.9418  157.8521 C   0  0  0  0  0  0  0  0  0  0  0  0
  151.8126  142.9335  159.0848 C   0  0  0  0  0  0  0  0  0  0  0  0
  151.8613  144.1870  159.9449 C   0  0  0  0  0  0  0  0  0  0  0  0
  152.4791  143.9519  161.1028 F   0  0  0  0  0  0  0  0  0  0  0  0
  152.5270  145.1481  159.3063 F   0  0  0  0  0  0  0  0  0  0  0  0
  150.6341  144.6377  160.2089 F   0  0  0  0  0  0  0  0  0  0  0  0
  152.2585  141.6475  159.5842 C   0  0  0  0  0  0  0  0  0  0  0  0
  152.1414  140.5285  158.8428 C   0  0  0  0  0  0  0  0  0  0  0  0
  151.5607  140.5565  157.4983 C   0  0  0  0  0  0  0  0  0  0  0  0
  151.4453  139.5400  156.8132 O   0  0  0  0  0  0  0  0  0  0  0  0
  145.9428  143.4650  155.4925 C   0  0  1  0  0  0  0  0  0  0  0  0
  145.6409  144.0533  154.1138 C   0  0  0  0  0  0  0  0  0  0  0  0
  144.4748  144.9654  154.4186 C   0  0  0  0  0  0  0  0  0  0  0  0
  143.7022  144.1569  155.4571 C   0  0  0  0  0  0  0  0  0  0  0  0
  144.6563  143.3068  156.0882 O   0  0  0  0  0  0  0  0  0  0  0  0
  145.3450  141.0336  154.1522 H   0  0  0  0  0  0  0  0  0  0  0  0
  146.9699  140.3706  154.1982 H   0  0  0  0  0  0  0  0  0  0  0  0
  146.6513  141.8528  153.2997 H   0  0  0  0  0  0  0  0  0  0  0  0
  146.4027  141.5294  156.3301 H   0  0  0  0  0  0  0  0  0  0  0  0
  148.4429  143.3336  155.4692 H   0  0  0  0  0  0  0  0  0  0  0  0
  151.1351  141.4420  154.9658 H   0  0  0  0  0  0  0  0  0  0  0  0
  150.5415  142.9989  155.4410 H   0  0  0  0  0  0  0  0  0  0  0  0
  150.8738  143.8385  157.3978 H   0  0  0  0  0  0  0  0  0  0  0  0
  152.6963  141.5794  160.5692 H   0  0  0  0  0  0  0  0  0  0  0  0
  152.4851  139.5875  159.2469 H   0  0  0  0  0  0  0  0  0  0  0  0
  146.4923  144.2012  156.0819 H   0  0  0  0  0  0  0  0  0  0  0  0
  146.4900  144.5811  153.6788 H   0  0  0  0  0  0  0  0  0  0  0  0
  145.3309  143.2700  153.4204 H   0  0  0  0  0  0  0  0  0  0  0  0
  144.8353  145.8957  154.8598 H   0  0  0  0  0  0  0  0  0  0  0  0
  143.8788  145.2121  153.5396 H   0  0  0  0  0  0  0  0  0  0  0  0
  143.1994  144.7952  156.1838 H   0  0  0  0  0  0  0  0  0  0  0  0
  142.9485  143.5325  154.9766 H   0  0  0  0  0  0  0  0  0  0  0  0
  1  2  1  0  0  0  0
  1 23  1  0  0  0  0
  1 24  1  0  0  0  0
  1 25  1  0  0  0  0
  2  3  1  0  0  0  0
  2 18  1  0  0  0  0
  2 26  1  0  0  0  0
  3  4  1  0  0  0  0
  3 27  1  0  0  0  0
  4  5  2  0  0  0  0
  4  6  1  0  0  0  0
  6  7  1  0  0  0  0
  6 28  1  0  0  0  0
  6 29  1  0  0  0  0
  7 16  1  0  0  0  0
  7  8  1  0  0  0  0
  8  9  2  0  0  0  0
  8 30  1  0  0  0  0
  9 10  1  0  0  0  0
  9 14  1  0  0  0  0
 10 11  1  0  0  0  0
 10 12  1  0  0  0  0
 10 13  1  0  0  0  0
 14 15  2  0  0  0  0
 14 31  1  0  0  0  0
 15 16  1  0  0  0  0
 15 32  1  0  0  0  0
 16 17  2  0  0  0  0
 18 22  1  0  0  0  0
 18 19  1  0  0  0  0
 18 33  1  0  0  0  0
 19 20  1  0  0  0  0
 19 34  1  0  0  0  0
 19 35  1  0  0  0  0
 20 21  1  0  0  0  0
 20 36  1  0  0  0  0
 20 37  1  0  0  0  0
 21 22  1  0  0  0  0
 21 38  1  0  0  0  0
 21 39  1  0  0  0  0
M  END
> <s_m_source_file>
AV-unprocessed.smi

> <i_m_source_file_index>
2151

> <i_lp_mmshare_version>
43012

> <i_f3d_flags>
0

> <s_epik_input>
TzFbQ0gyXVtDSDJdW0NIMl1bQ0BIXTFbQ0BIXShbQ0gzXSlbTkhdQyg9TylbQ0gyXW4yW2NIXWMoQyhGKShGKUYpW2NIXVtjSF1jMj1P

> <s_epik_cmdline>
J2VwaWtfcHl0aG9uJywgJy1waCcsICc3LjAnLCAnLXRuJywgJzgnLCAnLW1hJywgJzIwMCcsICctbWV0YWxfYmluZGluZycsICctaW1hZScsICc8aW5maWxlLm1hZT4nLCAnLW9tYWUnLCAnPG91dGZpbGUubWFlPic=

> <r_lp_tautomer_probability>
1

> <r_epik_Ionization_Penalty>
4.20109e-08

> <r_epik_Ionization_Penalty_Charging>
1.89977e-08

> <r_epik_Ionization_Penalty_Neutral>
2.30132e-08

> <r_epik_State_Penalty>
-0

> <r_epik_Charging_Adjusted_Penalty>
1.89977e-08

> <i_epik_Tot_Q>
0

> <i_epik_Tot_abs_Q>
0

> <r_epik_Metal_State_Penalty>
-0

> <b_epik_Metal_Only>
0

> <s_lp_Force_Field>
OPLS_2005

> <r_lp_Energy>
30.384

> <b_lp_Chiralities_Consistent>
1

> <s_lp_Variant>
AV-unprocessed.smi:2151-4

> <Gold.Version>
5.8.1

> <Gold.Id.Protein>
6NUR|6NUR_protein|mol2

> <Gold.PLP.Fitness>
48.8316

> <Gold.PLP.PLP>
-44.9687

> <Gold.PLP.part.hbond>
-1.0000

> <Gold.PLP.part.metal>
0.0000

> <Gold.PLP.part.buried>
-6.8220

> <Gold.PLP.part.nonpolar>
-37.7124

> <Gold.PLP.part.repulsive>
0.2732

> <Gold.PLP.ligand.clash>
0.0000

> <Gold.PLP.ligand.torsion>
1.0991

> <Gold.PLP.Chemscore.Hbond>
1.0000

> <Gold.PLP.Chemscore.CHOScore>
1.0000

> <Gold.PLP.Chemscore.Metal>
0.0000

> <Gold.Chemscore.Hbonds>
donor molecule, donor type, donor heavy atom, donor atom, acceptor molecule, acceptor atom, score
      L1  H     3    27       P1  8028  0.80
      L1  C     8    30       P1  8028  0.42

> <Gold.PLP.Chemscore.Internal.Correction>
0.0610

> <Gold.Rescore>
     Score         DG    S(hbond)    S(metal)    S(lipo)     H(rot)  DE(clash)    DE(int)     intcor
     12.14     -14.37       1.00        0.00      87.43       1.82       0.13       2.10       ----

> <Gold.Chemscore.Fitness>
12.1409

> <Gold.Chemscore.DG>
-14.3702

> <Gold.Chemscore.ZeroCoef>
-5.4800

> <Gold.Chemscore.Hbond>
0.9963

> <Gold.Chemscore.Metal>
0.0000

> <Gold.Chemscore.Lipo>
87.4263

> <Gold.Chemscore.Internal_Hbond>
0.0000

> <Gold.Chemscore.DEClash>
0.1336

> <Gold.Chemscore.DEInternal>
2.0957

> <Gold.Chemscore.Rot>
1.8228

> <Gold.Chemscore.Internal.Correction>
   9.000000E+99

> <Gold.Chemscore.Hbonds>
donor molecule, donor type, donor heavy atom, donor atom, acceptor molecule, acceptor atom, score
      L1  H     3    27       P1  8028  0.78

> <Gold.Chemscore.Hbond.Weighted>
-3.3278

> <Gold.Chemscore.Metal.Weighted>
-0.0000

> <Gold.Chemscore.Lipo.Weighted>
-10.2289

> <Gold.Chemscore.Internal_Hbond.Weighted>
0.0000

> <Gold.Chemscore.DEClash.Weighted>
0.1336

> <Gold.Chemscore.DEInternal.Weighted>
2.0957

> <Gold.Chemscore.Rot.Weighted>
4.6665

> <Gold.Chemscore.Internal.Correction.Weighted>
   9.000000E+99

> <Gold.Protein.RotatedTorsions>
[ 6907 6896 6895 6894 ] final   31.92 input  -60.11 | X-H torsion
[ 7974 7965 7964 7962 ] final  158.38 input  175.53 | X-H torsion
[ 8008 7997 7996 7995 ] final -109.98 input   59.86 | X-H torsion
[ 10167 10162 10161 10158 ] final  -86.93 input  -65.29 | X-H torsion
[ 10718 10713 10712 10709 ] final -144.26 input   66.30 | X-H torsion
[ 10763 10752 10751 10750 ] final  -54.90 input  -60.55 | X-H torsion
[ 11005 11000 10999 10996 ] final   45.57 input  -57.11 | X-H torsion

> <Gold.Protein.ActiveResidues>
 VAL166  LYS551  ARG553  GLY616  TRP617  ASP618  TYR619  PRO620  LYS621  CYS622 
 ASP623  PHE694  ASN695  SER759  ASP760  ASP761  ALA762  ILE779  LEU786  VAL792 
 PHE793  MET794  SER795  GLU796  ALA797  LYS798  CYS799  TRP800  GLU811  SER814 

> <Gold.Protein.RotatedAtoms>
  152.0671  134.9557  160.0574 H   0  0  0  0  0  0  0  0  0  0  0  0  # atno 6907 bound_to 6896
  152.0898  133.4190  159.4547 H   0  0  0  0  0  0  0  0  0  0  0  0  # atno 6908 bound_to 6896
  150.6836  134.2805  159.4668 H   0  0  0  0  0  0  0  0  0  0  0  0  # atno 6909 bound_to 6896
  144.7849  139.7471  143.6245 H   0  0  0  0  0  0  0  0  0  0  0  0  # atno 7974 bound_to 7965
  154.9676  140.0398  157.2219 H   0  0  0  0  0  0  0  0  0  0  0  0  # atno 8008 bound_to 7997
  154.7831  140.2822  155.6026 H   0  0  0  0  0  0  0  0  0  0  0  0  # atno 8009 bound_to 7997
  156.2939  140.2588  156.2661 H   0  0  0  0  0  0  0  0  0  0  0  0  # atno 8010 bound_to 7997
  140.3894  143.2712  151.9284 H   0  0  0  0  0  0  0  0  0  0  0  0  # atno 10167 bound_to 10162
  156.3680  130.7773  151.1950 H   0  0  0  0  0  0  0  0  0  0  0  0  # atno 10718 bound_to 10713
  154.1822  135.6441  153.5037 H   0  0  0  0  0  0  0  0  0  0  0  0  # atno 10763 bound_to 10752
  153.0056  135.5408  154.6503 H   0  0  0  0  0  0  0  0  0  0  0  0  # atno 10764 bound_to 10752
  154.5870  135.2930  155.0647 H   0  0  0  0  0  0  0  0  0  0  0  0  # atno 10765 bound_to 10752
  140.1448  134.4537  155.8424 H   0  0  0  0  0  0  0  0  0  0  0  0  # atno 11005 bound_to 11000
  146.2076  139.5410  142.9702 LP  0  0  0  0  0  0  0  0  0  0  0  0  # atno 17320 bound_to 7965
  145.5949  141.0364  143.2050 LP  0  0  0  0  0  0  0  0  0  0  0  0  # atno 17321 bound_to 7965
  139.4790  144.5742  151.8038 LP  0  0  0  0  0  0  0  0  0  0  0  0  # atno 17342 bound_to 10162
  140.4856  144.1386  150.5940 LP  0  0  0  0  0  0  0  0  0  0  0  0  # atno 17343 bound_to 10162
  157.7481  131.0380  150.4485 LP  0  0  0  0  0  0  0  0  0  0  0  0  # atno 17370 bound_to 10713
  156.4707  130.4052  149.6520 LP  0  0  0  0  0  0  0  0  0  0  0  0  # atno 17371 bound_to 10713
  141.2191  133.6848  156.7313 LP  0  0  0  0  0  0  0  0  0  0  0  0  # atno 17394 bound_to 11000
  140.2677  134.8416  157.3818 LP  0  0  0  0  0  0  0  0  0  0  0  0  # atno 17395 bound_to 11000

$$$$
