AV-unprocessed.smi:1326|AV-procd|sdf|5475|dock1
  -GOLD-   22720 5 43D 1   1.00000     0.00000
 Structure written by MMmdl.
 39 39  0  0  0  0  0  0  0  0  1 V2000
  145.6536  137.8102  152.8134 C   0  0  0  0  0  0  0  0  0  0  0  0
  146.7199  138.7718  153.2911 C   0  0  0  0  0  0  0  0  0  0  0  0
  146.2903  140.0863  153.3650 N   0  0  0  0  0  0  0  0  0  0  0  0
  147.1944  141.0397  153.7990 C   0  0  0  0  0  0  0  0  0  0  0  0
  146.6419  142.4532  153.8539 C   0  0  0  0  0  0  0  0  0  0  0  0
  148.4642  140.7010  154.1382 C   0  0  0  0  0  0  0  0  0  0  0  0
  149.4908  141.7236  154.6242 C   0  0  0  0  0  0  0  0  0  0  0  0
  150.0075  141.5230  156.0503 C   0  0  0  0  0  0  0  0  0  0  0  0
  150.6991  140.5417  156.3213 O   0  0  0  0  0  0  0  0  0  0  0  0
  149.6765  142.4649  156.9474 N   0  0  0  0  0  0  0  0  0  0  0  0
  150.0854  142.4723  158.3466 C   0  0  0  0  0  0  0  0  0  0  0  0
  151.5925  142.1912  158.4878 C   0  0  0  0  0  0  0  0  0  0  0  0
  152.3018  143.0665  159.5409 C   0  0  0  0  0  0  0  0  0  0  0  0
  152.3061  144.5572  159.1616 C   0  0  0  0  0  0  0  0  0  0  0  0
  153.7364  142.5706  159.7793 C   0  0  0  0  0  0  0  0  0  0  0  0
  148.8680  139.2787  154.0299 C   0  0  0  0  0  0  0  0  0  0  0  0
  150.0092  138.9103  154.3054 O   0  0  0  0  0  0  0  0  0  0  0  0
  147.9105  138.3497  153.5914 N   0  0  0  0  0  0  0  0  0  0  0  0
  145.3551  140.3816  153.1240 H   0  0  0  0  0  0  0  0  0  0  0  0
  146.0674  136.8123  152.6626 H   0  0  0  0  0  0  0  0  0  0  0  0
  145.2302  138.1487  151.8673 H   0  0  0  0  0  0  0  0  0  0  0  0
  144.8509  137.7401  153.5482 H   0  0  0  0  0  0  0  0  0  0  0  0
  147.2240  143.1155  153.2130 H   0  0  0  0  0  0  0  0  0  0  0  0
  146.6796  142.8379  154.8730 H   0  0  0  0  0  0  0  0  0  0  0  0
  145.6046  142.4932  153.5197 H   0  0  0  0  0  0  0  0  0  0  0  0
  149.0991  142.7378  154.5402 H   0  0  0  0  0  0  0  0  0  0  0  0
  150.3440  141.7038  153.9454 H   0  0  0  0  0  0  0  0  0  0  0  0
  149.1072  143.2384  156.6346 H   0  0  0  0  0  0  0  0  0  0  0  0
  149.8394  143.4524  158.7537 H   0  0  0  0  0  0  0  0  0  0  0  0
  149.5038  141.7442  158.9144 H   0  0  0  0  0  0  0  0  0  0  0  0
  151.7242  141.1430  158.7600 H   0  0  0  0  0  0  0  0  0  0  0  0
  152.0807  142.3134  157.5199 H   0  0  0  0  0  0  0  0  0  0  0  0
  151.7642  142.9627  160.4844 H   0  0  0  0  0  0  0  0  0  0  0  0
  152.7927  144.7201  158.1993 H   0  0  0  0  0  0  0  0  0  0  0  0
  152.8392  145.1486  159.9066 H   0  0  0  0  0  0  0  0  0  0  0  0
  151.2958  144.9601  159.0979 H   0  0  0  0  0  0  0  0  0  0  0  0
  154.3326  142.6311  158.8681 H   0  0  0  0  0  0  0  0  0  0  0  0
  153.7444  141.5326  160.1133 H   0  0  0  0  0  0  0  0  0  0  0  0
  154.2372  143.1637  160.5448 H   0  0  0  0  0  0  0  0  0  0  0  0
  1 20  1  0  0  0  0
  1 21  1  0  0  0  0
  1 22  1  0  0  0  0
  1  2  1  0  0  0  0
  2  3  1  0  0  0  0
  2 18  2  0  0  0  0
  3  4  1  0  0  0  0
  3 19  1  0  0  0  0
  4  6  2  0  0  0  0
  4  5  1  0  0  0  0
  5 23  1  0  0  0  0
  5 24  1  0  0  0  0
  5 25  1  0  0  0  0
  6 16  1  0  0  0  0
  6  7  1  0  0  0  0
  7  8  1  0  0  0  0
  7 26  1  0  0  0  0
  7 27  1  0  0  0  0
  8  9  2  0  0  0  0
  8 10  1  0  0  0  0
 10 11  1  0  0  0  0
 10 28  1  0  0  0  0
 11 12  1  0  0  0  0
 11 29  1  0  0  0  0
 11 30  1  0  0  0  0
 12 13  1  0  0  0  0
 12 31  1  0  0  0  0
 12 32  1  0  0  0  0
 13 14  1  0  0  0  0
 13 15  1  0  0  0  0
 13 33  1  0  0  0  0
 14 34  1  0  0  0  0
 14 35  1  0  0  0  0
 14 36  1  0  0  0  0
 15 37  1  0  0  0  0
 15 38  1  0  0  0  0
 15 39  1  0  0  0  0
 16 17  2  0  0  0  0
 16 18  1  0  0  0  0
M  END
> <s_m_source_file>
AV-unprocessed.smi

> <i_m_source_file_index>
1326

> <i_lp_mmshare_version>
43012

> <i_f3d_flags>
0

> <s_epik_input>
W0NIM11jMW5jKFtDSDNdKWMoYyg9TylbbkhdMSlbQ0gyXUMoPU8pW05IXVtDSDJdW0NIMl1bQ0hdKFtDSDNdKVtDSDNd

> <s_epik_cmdline>
J2VwaWtfcHl0aG9uJywgJy1waCcsICc3LjAnLCAnLXRuJywgJzgnLCAnLW1hJywgJzIwMCcsICctbWV0YWxfYmluZGluZycsICctaW1hZScsICc8aW5maWxlLm1hZT4nLCAnLW9tYWUnLCAnPG91dGZpbGUubWFlPic=

> <r_lp_tautomer_probability>
0.156392

> <r_epik_Ionization_Penalty>
0.0135605

> <r_epik_Ionization_Penalty_Charging>
0.013428

> <r_epik_Ionization_Penalty_Neutral>
0.000132491

> <r_epik_State_Penalty>
1.15342

> <r_epik_Charging_Adjusted_Penalty>
1.16684

> <i_epik_Tot_Q>
0

> <i_epik_Tot_abs_Q>
0

> <r_epik_Metal_State_Penalty>
1.31299

> <b_epik_Metal_Only>
0

> <s_lp_Force_Field>
OPLS_2005

> <r_lp_Energy>
9.03726

> <b_lp_Chiralities_Consistent>
1

> <s_lp_Variant>
AV-unprocessed.smi:1326-2

> <Gold.Version>
5.8.1

> <Gold.Id.Protein>
6NUR|6NUR_protein|mol2

> <Gold.PLP.Fitness>
40.5927

> <Gold.PLP.PLP>
-35.4171

> <Gold.PLP.part.hbond>
-2.0000

> <Gold.PLP.part.metal>
0.0000

> <Gold.PLP.part.buried>
-3.3276

> <Gold.PLP.part.nonpolar>
-30.3083

> <Gold.PLP.part.repulsive>
1.3068

> <Gold.PLP.ligand.clash>
0.0000

> <Gold.PLP.ligand.torsion>
0.4444

> <Gold.PLP.Chemscore.Hbond>
2.0000

> <Gold.PLP.Chemscore.CHOScore>
0.0000

> <Gold.PLP.Chemscore.Metal>
0.0000

> <Gold.Chemscore.Hbonds>
donor molecule, donor type, donor heavy atom, donor atom, acceptor molecule, acceptor atom, score
      L1  H     3    19       P1 10175  1.00
      L1  H    10    28       P1  8028  1.00

> <Gold.PLP.Chemscore.Internal.Correction>
0.0643

> <Gold.Rescore>
     Score         DG    S(hbond)    S(metal)    S(lipo)     H(rot)  DE(clash)    DE(int)     intcor
     14.50     -17.57       1.98        0.00      88.21       1.89       0.19       2.88       ----

> <Gold.Chemscore.Fitness>
14.4993

> <Gold.Chemscore.DG>
-17.5678

> <Gold.Chemscore.ZeroCoef>
-5.4800

> <Gold.Chemscore.Hbond>
1.9791

> <Gold.Chemscore.Metal>
0.0000

> <Gold.Chemscore.Lipo>
88.2054

> <Gold.Chemscore.Internal_Hbond>
0.0000

> <Gold.Chemscore.DEClash>
0.1854

> <Gold.Chemscore.DEInternal>
2.8832

> <Gold.Chemscore.Rot>
1.8916

> <Gold.Chemscore.Internal.Correction>
   9.000000E+99

> <Gold.Chemscore.Hbonds>
donor molecule, donor type, donor heavy atom, donor atom, acceptor molecule, acceptor atom, score
      L1  H     3    19       P1 10175  0.97
      L1  H    10    28       P1  8028  0.94

> <Gold.Chemscore.Hbond.Weighted>
-6.6102

> <Gold.Chemscore.Metal.Weighted>
-0.0000

> <Gold.Chemscore.Lipo.Weighted>
-10.3200

> <Gold.Chemscore.Internal_Hbond.Weighted>
0.0000

> <Gold.Chemscore.DEClash.Weighted>
0.1854

> <Gold.Chemscore.DEInternal.Weighted>
2.8832

> <Gold.Chemscore.Rot.Weighted>
4.8424

> <Gold.Chemscore.Internal.Correction.Weighted>
   9.000000E+99

> <Gold.Protein.RotatedTorsions>
[ 6907 6896 6895 6894 ] final -174.71 input  -60.11 | X-H torsion
[ 7974 7965 7964 7962 ] final   12.40 input  175.53 | X-H torsion
[ 8008 7997 7996 7995 ] final   39.55 input   59.86 | X-H torsion
[ 10167 10162 10161 10158 ] final  145.19 input  -65.29 | X-H torsion
[ 10718 10713 10712 10709 ] final -179.46 input   66.30 | X-H torsion
[ 10763 10752 10751 10750 ] final  115.23 input  -60.55 | X-H torsion
[ 11005 11000 10999 10996 ] final  -83.17 input  -57.11 | X-H torsion

> <Gold.Protein.ActiveResidues>
 VAL166  LYS551  ARG553  GLY616  TRP617  ASP618  TYR619  PRO620  LYS621  CYS622 
 ASP623  PHE694  ASN695  SER759  ASP760  ASP761  ALA762  ILE779  LEU786  VAL792 
 PHE793  MET794  SER795  GLU796  ALA797  LYS798  CYS799  TRP800  GLU811  SER814 

> <Gold.Protein.RotatedAtoms>
  151.5768  133.3383  159.3000 H   0  0  0  0  0  0  0  0  0  0  0  0  # atno 6907 bound_to 6896
  150.8336  134.7602  159.6885 H   0  0  0  0  0  0  0  0  0  0  0  0  # atno 6908 bound_to 6896
  152.4416  134.5586  159.9939 H   0  0  0  0  0  0  0  0  0  0  0  0  # atno 6909 bound_to 6896
  146.2352  139.9343  142.8492 H   0  0  0  0  0  0  0  0  0  0  0  0  # atno 7974 bound_to 7965
  155.2385  140.3343  155.4295 H   0  0  0  0  0  0  0  0  0  0  0  0  # atno 8008 bound_to 7997
  156.2266  140.1832  156.7393 H   0  0  0  0  0  0  0  0  0  0  0  0  # atno 8009 bound_to 7997
  154.5908  140.0638  156.9221 H   0  0  0  0  0  0  0  0  0  0  0  0  # atno 8010 bound_to 7997
  139.4931  144.5919  151.6662 H   0  0  0  0  0  0  0  0  0  0  0  0  # atno 10167 bound_to 10162
  156.8594  130.9746  151.3085 H   0  0  0  0  0  0  0  0  0  0  0  0  # atno 10718 bound_to 10713
  153.5191  135.3601  155.2623 H   0  0  0  0  0  0  0  0  0  0  0  0  # atno 10763 bound_to 10752
  154.8736  135.4041  154.3280 H   0  0  0  0  0  0  0  0  0  0  0  0  # atno 10764 bound_to 10752
  153.3948  135.7073  153.6536 H   0  0  0  0  0  0  0  0  0  0  0  0  # atno 10765 bound_to 10752
  141.1659  133.7281  156.8681 H   0  0  0  0  0  0  0  0  0  0  0  0  # atno 11005 bound_to 11000
  145.2014  140.9856  143.4153 LP  0  0  0  0  0  0  0  0  0  0  0  0  # atno 17320 bound_to 7965
  144.9770  139.3822  143.6281 LP  0  0  0  0  0  0  0  0  0  0  0  0  # atno 17321 bound_to 7965
  140.5548  144.0365  150.6143 LP  0  0  0  0  0  0  0  0  0  0  0  0  # atno 17342 bound_to 10162
  140.3432  143.3007  152.0566 LP  0  0  0  0  0  0  0  0  0  0  0  0  # atno 17343 bound_to 10162
  157.6259  130.8691  149.9188 LP  0  0  0  0  0  0  0  0  0  0  0  0  # atno 17370 bound_to 10713
  156.0785  130.3676  150.0629 LP  0  0  0  0  0  0  0  0  0  0  0  0  # atno 17371 bound_to 10713
  140.1801  134.9039  157.2938 LP  0  0  0  0  0  0  0  0  0  0  0  0  # atno 17394 bound_to 11000
  140.2405  134.3802  155.7483 LP  0  0  0  0  0  0  0  0  0  0  0  0  # atno 17395 bound_to 11000

$$$$
