#       Name:                AV-unprocessed.smi:3177
#       Creating user name   scv26
#       Creation time:       Fri Mar 27 17:57:00 2020


#       File generated by GOLD software.
#

@<TRIPOS>MOLECULE
AV-unprocessed.smi:3177
    37    38     1
SMALL
NO_CHARGES


@<TRIPOS>ATOM
      1 ****        -5.8946   1.3545   0.4242 C.3            1 S1                 0.0000
      2 ****        -5.2160   0.1091   0.3047 O.3            1 S1                 0.0000
      3 ****        -3.8363   0.1138   0.2877 C.ar           1 S1                 0.0000
      4 ****        -3.1593  -1.1175   0.1811 C.ar           1 S1                 0.0000
      5 ****        -1.7514  -1.1222   0.1675 C.ar           1 S1                 0.0000
      6 ****        -1.0630   0.1099   0.2694 C.ar           1 S1                 0.0000
      7 ****         0.3519   0.2354   0.2472 N.am           1 S1                 0.0000
      8 ****         1.2796  -0.6766   0.5948 C.2            1 S1                 0.0000
      9 ****         1.0177  -1.7897   1.0507 O.2            1 S1                 0.0000
     10 ****         2.7466  -0.2416   0.4553 C.3            1 S1                 0.0000
     11 ****         3.7058  -1.3515  -0.0188 C.3            1 S1                 0.0000
     12 ****         4.4099  -0.7494  -1.2243 C.3            1 S1                 0.0000
     13 ****         4.1777   0.7449  -1.0475 C.3            1 S1                 0.0000
     14 ****         2.8622   0.7891  -0.5237 O.3            1 S1                 0.0000
     15 ****        -1.8333   1.2880   0.3534 C.ar           1 S1                 0.0000
     16 ****        -3.1829   1.2993   0.3692 N.ar           1 S1                 0.0000
     17 ****        -6.9705   1.1803   0.4235 H              1 S1                 0.0000
     18 ****        -5.6663   2.0160  -0.4126 H              1 S1                 0.0000
     19 ****        -5.6421   1.8581   1.3585 H              1 S1                 0.0000
     20 ****        -3.7105  -2.0433   0.1071 H              1 S1                 0.0000
     21 ****        -1.2309  -2.0620   0.0655 H              1 S1                 0.0000
     22 ****         0.7057   1.1450  -0.0127 H              1 S1                 0.0000
     23 ****         3.0883   0.1544   1.4129 H              1 S1                 0.0000
     24 ****         4.4235  -1.5829   0.7689 H              1 S1                 0.0000
     25 ****         3.2069  -2.2826  -0.2905 H              1 S1                 0.0000
     26 ****         5.4669  -1.0114  -1.2771 H              1 S1                 0.0000
     27 ****         3.9294  -1.0905  -2.1421 H              1 S1                 0.0000
     28 ****         4.8783   1.1707  -0.3271 H              1 S1                 0.0000
     29 ****         4.2594   1.2991  -1.9827 H              1 S1                 0.0000
     30 ****        -1.3531   2.2537   0.4176 H              1 S1                 0.0000
     31 ****        -5.5210  -0.3133  -0.5489 LP             1 S1                 0.0000
     32 ****        -5.5004  -0.4582   1.0775 LP             1 S1                 0.0000
     33 ****         0.0653  -2.0643   1.1833 LP             1 S1                 0.0000
     34 ****         1.7573  -2.4193   1.2884 LP             1 S1                 0.0000
     35 ****         2.6943   1.6797  -0.1011 LP             1 S1                 0.0000
     36 ****         2.1991   0.6376  -1.2568 LP             1 S1                 0.0000
     37 ****        -3.6879   2.1596   0.4392 LP             1 S1                 0.0000
@<TRIPOS>BOND
    1    1    2 1     
    2    1   17 1     
    3    1   18 1     
    4    1   19 1     
    5    2    3 1     
    6    3   16 ar    
    7    3    4 ar    
    8    4    5 ar    
    9    4   20 1     
   10    5    6 ar    
   11    5   21 1     
   12    6    7 1     
   13    6   15 ar    
   14    7    8 am    
   15    7   22 1     
   16    8    9 2     
   17    8   10 1     
   18   10   14 1     
   19   10   11 1     
   20   10   23 1     
   21   11   12 1     
   22   11   24 1     
   23   11   25 1     
   24   12   13 1     
   25   12   26 1     
   26   12   27 1     
   27   13   14 1     
   28   13   28 1     
   29   13   29 1     
   30   15   16 ar    
   31   15   30 1     
   32    2   31 1     
   33    2   32 1     
   34    9   33 1     
   35    9   34 1     
   36   14   35 1     
   37   14   36 1     
   38   16   37 1     
@<TRIPOS>SUBSTRUCTURE
      1 S1             1
@<TRIPOS>SET
LONE_PAIRS      STATIC     ATOMS    <user>   **** ""
7 31 32 33 34 35 36 37
DONOR_HYDROGENS      STATIC     ATOMS    <user>   **** ""
1 22
ATOM$BLUE        STATIC     ATOMS    COLORGROUP SYSTEM
7 31 32 33 34 35 36 37
ATOM$RED        STATIC     ATOMS    COLORGROUP SYSTEM
1 22
