AV-unprocessed.smi:652|AV-procd|sdf|3193|dock5
  -GOLD-   22720 0123D 1   1.00000     0.00000
 Structure written by MMmdl.
 48 49  0  0  0  0  0  0  0  0  2 V2000
  146.5442  133.2030  162.1032 C   0  0  0  0  0  0  0  0  0  0  0  0
  146.9481  134.6854  162.0855 C   0  0  0  0  0  0  0  0  0  0  0  0
  145.7221  135.6073  162.1242 C   0  0  0  0  0  0  0  0  0  0  0  0
  147.7405  134.9816  160.8954 N   0  0  0  0  0  0  0  0  0  0  0  0
  148.0082  136.2088  160.4224 C   0  0  0  0  0  0  0  0  0  0  0  0
  147.6005  137.2416  160.9548 O   0  0  0  0  0  0  0  0  0  0  0  0
  148.8664  136.2617  159.1537 C   0  0  0  0  0  0  0  0  0  0  0  0
  149.1367  137.6956  158.6496 C   0  0  0  0  0  0  0  0  0  0  0  0
  150.2457  137.7577  157.6595 N   0  3  2  0  0  0  0  0  0  0  0  0
  151.5918  137.6824  158.2789 C   0  0  0  0  0  0  0  0  0  0  0  0
  151.9969  139.0332  158.8973 C   0  0  0  0  0  0  0  0  0  0  0  0
  151.9312  140.0499  157.9046 O   0  0  0  0  0  0  0  0  0  0  0  0
  150.6169  140.2212  157.3822 C   0  0  1  0  0  0  0  0  0  0  0  0
  150.6444  141.3804  156.3768 C   0  0  0  0  0  0  0  0  0  0  0  0
  150.2250  142.6325  156.9907 N   0  0  0  0  0  0  0  0  0  0  0  0
  150.8449  143.1034  158.1556 C   0  0  0  0  0  0  0  0  0  0  0  0
  151.4021  144.3975  158.1558 C   0  0  0  0  0  0  0  0  0  0  0  0
  152.0225  144.8402  159.3368 C   0  0  0  0  0  0  0  0  0  0  0  0
  152.0378  143.9538  160.4290 C   0  0  0  0  0  0  0  0  0  0  0  0
  151.4857  142.7208  160.3737 N   0  0  0  0  0  0  0  0  0  0  0  0
  150.8960  142.3006  159.2484 N   0  0  0  0  0  0  0  0  0  0  0  0
  150.1810  138.9005  156.7121 C   0  0  0  0  0  0  0  0  0  0  0  0
  145.9643  132.9671  162.9957 H   0  0  0  0  0  0  0  0  0  0  0  0
  147.4201  132.5534  162.1010 H   0  0  0  0  0  0  0  0  0  0  0  0
  145.9365  132.9462  161.2347 H   0  0  0  0  0  0  0  0  0  0  0  0
  147.5462  134.8928  162.9747 H   0  0  0  0  0  0  0  0  0  0  0  0
  145.1240  135.4258  163.0176 H   0  0  0  0  0  0  0  0  0  0  0  0
  145.0791  135.4516  161.2571 H   0  0  0  0  0  0  0  0  0  0  0  0
  146.0189  136.6565  162.1360 H   0  0  0  0  0  0  0  0  0  0  0  0
  148.1148  134.1889  160.3942 H   0  0  0  0  0  0  0  0  0  0  0  0
  149.8125  135.7615  159.3645 H   0  0  0  0  0  0  0  0  0  0  0  0
  148.3609  135.6741  158.3878 H   0  0  0  0  0  0  0  0  0  0  0  0
  148.2267  138.1350  158.2404 H   0  0  0  0  0  0  0  0  0  0  0  0
  149.4165  138.3134  159.5045 H   0  0  0  0  0  0  0  0  0  0  0  0
  151.6324  136.8863  159.0231 H   0  0  0  0  0  0  0  0  0  0  0  0
  152.3106  137.4126  157.5040 H   0  0  0  0  0  0  0  0  0  0  0  0
  151.3603  139.2901  159.7451 H   0  0  0  0  0  0  0  0  0  0  0  0
  153.0178  138.9793  159.2752 H   0  0  0  0  0  0  0  0  0  0  0  0
  149.9278  140.4748  158.1891 H   0  0  0  0  0  0  0  0  0  0  0  0
  151.6435  141.4928  155.9533 H   0  0  0  0  0  0  0  0  0  0  0  0
  149.9674  141.1574  155.5508 H   0  0  0  0  0  0  0  0  0  0  0  0
  149.4613  143.1504  156.5810 H   0  0  0  0  0  0  0  0  0  0  0  0
  151.3584  145.0303  157.2813 H   0  0  0  0  0  0  0  0  0  0  0  0
  152.4702  145.8206  159.4027 H   0  0  0  0  0  0  0  0  0  0  0  0
  152.4999  144.2371  161.3631 H   0  0  0  0  0  0  0  0  0  0  0  0
  150.8505  138.6831  155.8785 H   0  0  0  0  0  0  0  0  0  0  0  0
  149.1876  138.9971  156.2767 H   0  0  0  0  0  0  0  0  0  0  0  0
  150.1500  136.9192  157.1046 H   0  0  0  0  0  0  0  0  0  0  0  0
  1  2  1  0  0  0  0
  1 23  1  0  0  0  0
  1 24  1  0  0  0  0
  1 25  1  0  0  0  0
  2  3  1  0  0  0  0
  2  4  1  0  0  0  0
  2 26  1  0  0  0  0
  3 27  1  0  0  0  0
  3 28  1  0  0  0  0
  3 29  1  0  0  0  0
  4  5  1  0  0  0  0
  4 30  1  0  0  0  0
  5  6  2  0  0  0  0
  5  7  1  0  0  0  0
  7  8  1  0  0  0  0
  7 31  1  0  0  0  0
  7 32  1  0  0  0  0
  8  9  1  0  0  0  0
  8 33  1  0  0  0  0
  8 34  1  0  0  0  0
  9 22  1  0  0  0  0
  9 10  1  0  0  0  0
  9 48  1  0  0  0  0
 10 11  1  0  0  0  0
 10 35  1  0  0  0  0
 10 36  1  0  0  0  0
 11 12  1  0  0  0  0
 11 37  1  0  0  0  0
 11 38  1  0  0  0  0
 12 13  1  0  0  0  0
 13 14  1  0  0  0  0
 13 22  1  0  0  0  0
 13 39  1  0  0  0  0
 14 15  1  0  0  0  0
 14 40  1  0  0  0  0
 14 41  1  0  0  0  0
 15 16  1  0  0  0  0
 15 42  1  0  0  0  0
 16 21  1  0  0  0  0
 16 17  2  0  0  0  0
 17 18  1  0  0  0  0
 17 43  1  0  0  0  0
 18 19  2  0  0  0  0
 18 44  1  0  0  0  0
 19 20  1  0  0  0  0
 19 45  1  0  0  0  0
 20 21  2  0  0  0  0
 22 46  1  0  0  0  0
 22 47  1  0  0  0  0
M  CHG  1   9   1
M  END
> <s_m_source_file>
AV-unprocessed.smi

> <i_m_source_file_index>
652

> <i_lp_mmshare_version>
43012

> <i_f3d_flags>
0

> <s_epik_input>
W0NIM11bQ0hdKFtDSDNdKVtOSF1DKD1PKVtDSDJdW0NIMl1OMVtDSDJdW0NIMl1PW0NASF0oW0NIMl0xKVtDSDJdW05IXWMyW2NIXVtjSF1bY0hdbm4y

> <s_epik_cmdline>
J2VwaWtfcHl0aG9uJywgJy1waCcsICc3LjAnLCAnLXRuJywgJzgnLCAnLW1hJywgJzIwMCcsICctbWV0YWxfYmluZGluZycsICctaW1hZScsICc8aW5maWxlLm1hZT4nLCAnLW9tYWUnLCAnPG91dGZpbGUubWFlPic=

> <r_lp_tautomer_probability>
0.999978

> <r_epik_Ionization_Penalty>
0.433079

> <r_epik_Ionization_Penalty_Charging>
0.413784

> <r_epik_Ionization_Penalty_Neutral>
0.0192945

> <r_epik_State_Penalty>
0.425138

> <r_epik_Charging_Adjusted_Penalty>
0.838922

> <i_epik_Tot_Q>
1

> <i_epik_Tot_abs_Q>
1

> <r_epik_Metal_State_Penalty>
0.422073

> <b_epik_Metal_Only>
0

> <s_lp_Force_Field>
OPLS_2005

> <r_lp_Energy>
24.1608

> <b_lp_Chiralities_Consistent>
1

> <s_lp_Variant>
AV-unprocessed.smi:652-2

> <Gold.Version>
5.8.1

> <Gold.Id.Protein>
6NUR|6NUR_protein|mol2

> <Gold.PLP.Fitness>
47.4800

> <Gold.PLP.PLP>
-42.2151

> <Gold.PLP.part.hbond>
-4.2643

> <Gold.PLP.part.metal>
0.0000

> <Gold.PLP.part.buried>
-6.3010

> <Gold.PLP.part.nonpolar>
-32.1114

> <Gold.PLP.part.repulsive>
0.1889

> <Gold.PLP.ligand.clash>
0.0000

> <Gold.PLP.ligand.torsion>
1.5175

> <Gold.PLP.Chemscore.Hbond>
2.7280

> <Gold.PLP.Chemscore.CHOScore>
0.0000

> <Gold.PLP.Chemscore.Metal>
0.0000

> <Gold.Chemscore.Hbonds>
donor molecule, donor type, donor heavy atom, donor atom, acceptor molecule, acceptor atom, score
      L1  H    15    42       P1  8028  0.96
      P1  H  6931  6943       L1     6  0.83
      P1  H  6934  6947       L1     6  0.94

> <Gold.PLP.Chemscore.Internal.Correction>
0.1157

> <Gold.Rescore>
     Score         DG    S(hbond)    S(metal)    S(lipo)     H(rot)  DE(clash)    DE(int)     intcor
     15.03     -19.36       2.65        0.00      92.48       2.26       0.04       4.28       ----

> <Gold.Chemscore.Fitness>
15.0323

> <Gold.Chemscore.DG>
-19.3571

> <Gold.Chemscore.ZeroCoef>
-5.4800

> <Gold.Chemscore.Hbond>
2.6471

> <Gold.Chemscore.Metal>
0.0000

> <Gold.Chemscore.Lipo>
92.4793

> <Gold.Chemscore.Internal_Hbond>
0.0000

> <Gold.Chemscore.DEClash>
0.0403

> <Gold.Chemscore.DEInternal>
4.2845

> <Gold.Chemscore.Rot>
2.2594

> <Gold.Chemscore.Internal.Correction>
   9.000000E+99

> <Gold.Chemscore.Hbonds>
donor molecule, donor type, donor heavy atom, donor atom, acceptor molecule, acceptor atom, score
      L1  H    15    42       P1  8028  0.92
      P1  H  6931  6943       L1     6  0.69
      P1  H  6934  6947       L1     6  0.91

> <Gold.Chemscore.Hbond.Weighted>
-8.8412

> <Gold.Chemscore.Metal.Weighted>
-0.0000

> <Gold.Chemscore.Lipo.Weighted>
-10.8201

> <Gold.Chemscore.Internal_Hbond.Weighted>
0.0000

> <Gold.Chemscore.DEClash.Weighted>
0.0403

> <Gold.Chemscore.DEInternal.Weighted>
4.2845

> <Gold.Chemscore.Rot.Weighted>
5.7841

> <Gold.Chemscore.Internal.Correction.Weighted>
   9.000000E+99

> <Gold.Protein.RotatedTorsions>
[ 6907 6896 6895 6894 ] final -119.61 input  -60.11 | X-H torsion
[ 7974 7965 7964 7962 ] final  -44.02 input  175.53 | X-H torsion
[ 8008 7997 7996 7995 ] final  143.05 input   59.86 | X-H torsion
[ 10167 10162 10161 10158 ] final    5.57 input  -65.29 | X-H torsion
[ 10718 10713 10712 10709 ] final  -56.38 input   66.30 | X-H torsion
[ 10763 10752 10751 10750 ] final  -62.46 input  -60.55 | X-H torsion
[ 11005 11000 10999 10996 ] final  142.24 input  -57.11 | X-H torsion

> <Gold.Protein.ActiveResidues>
 VAL166  LYS551  ARG553  GLY616  TRP617  ASP618  TYR619  PRO620  LYS621  CYS622 
 ASP623  PHE694  ASN695  SER759  ASP760  ASP761  ALA762  ILE779  LEU786  VAL792 
 PHE793  MET794  SER795  GLU796  ALA797  LYS798  CYS799  TRP800  GLU811  SER814 

> <Gold.Protein.RotatedAtoms>
  150.8320  133.8075  159.3094 H   0  0  0  0  0  0  0  0  0  0  0  0  # atno 6907 bound_to 6896
  151.5802  135.1057  160.0025 H   0  0  0  0  0  0  0  0  0  0  0  0  # atno 6908 bound_to 6896
  152.4398  133.7386  159.6684 H   0  0  0  0  0  0  0  0  0  0  0  0  # atno 6909 bound_to 6896
  145.9962  140.7126  142.9293 H   0  0  0  0  0  0  0  0  0  0  0  0  # atno 7974 bound_to 7965
  156.2938  140.2272  156.4827 H   0  0  0  0  0  0  0  0  0  0  0  0  # atno 8008 bound_to 7997
  154.7839  140.0458  157.1170 H   0  0  0  0  0  0  0  0  0  0  0  0  # atno 8009 bound_to 7997
  154.9726  140.3068  155.4985 H   0  0  0  0  0  0  0  0  0  0  0  0  # atno 8010 bound_to 7997
  140.6475  143.7626  150.7522 H   0  0  0  0  0  0  0  0  0  0  0  0  # atno 10167 bound_to 10162
  156.1293  130.4160  150.0298 H   0  0  0  0  0  0  0  0  0  0  0  0  # atno 10718 bound_to 10713
  154.3002  135.6236  153.5421 H   0  0  0  0  0  0  0  0  0  0  0  0  # atno 10763 bound_to 10752
  152.9841  135.5676  154.5293 H   0  0  0  0  0  0  0  0  0  0  0  0  # atno 10764 bound_to 10752
  154.4921  135.2868  155.1464 H   0  0  0  0  0  0  0  0  0  0  0  0  # atno 10765 bound_to 10752
  140.0462  134.9280  157.0933 H   0  0  0  0  0  0  0  0  0  0  0  0  # atno 11005 bound_to 11000
  144.6904  140.3154  143.7241 LP  0  0  0  0  0  0  0  0  0  0  0  0  # atno 17320 bound_to 7965
  145.7557  139.1808  143.2296 LP  0  0  0  0  0  0  0  0  0  0  0  0  # atno 17321 bound_to 7965
  140.1270  143.4560  152.2278 LP  0  0  0  0  0  0  0  0  0  0  0  0  # atno 17342 bound_to 10162
  139.5687  144.7450  151.3951 LP  0  0  0  0  0  0  0  0  0  0  0  0  # atno 17343 bound_to 10162
  156.8214  130.9360  151.3641 LP  0  0  0  0  0  0  0  0  0  0  0  0  # atno 17370 bound_to 10713
  157.6472  130.8854  149.9562 LP  0  0  0  0  0  0  0  0  0  0  0  0  # atno 17371 bound_to 10713
  140.3990  134.2102  155.7164 LP  0  0  0  0  0  0  0  0  0  0  0  0  # atno 17394 bound_to 11000
  141.1908  133.8209  157.0905 LP  0  0  0  0  0  0  0  0  0  0  0  0  # atno 17395 bound_to 11000

$$$$
