AV-unprocessed.smi:313|AV-procd|sdf|2310|dock8
  -GOLD-   2262022213D 1   1.00000     0.00000
 Structure written by MMmdl.
 50 51  0  0  0  0  0  0  0  0  1 V2000
  144.1659  135.3354  151.0281 C   0  0  0  0  0  0  0  0  0  0  0  0
  145.5881  135.5782  151.5554 C   0  0  0  0  0  0  0  0  0  0  0  0
  145.7370  135.3800  153.0772 C   0  0  1  0  0  0  0  0  0  0  0  0
  145.0317  134.1020  153.5516 C   0  0  0  0  0  0  0  0  0  0  0  0
  147.1475  135.3142  153.4543 N   0  0  0  0  0  0  0  0  0  0  0  0
  147.6268  135.2079  154.7037 C   0  0  0  0  0  0  0  0  0  0  0  0
  146.9099  135.1316  155.7029 O   0  0  0  0  0  0  0  0  0  0  0  0
  149.1574  135.1796  154.8377 C   0  0  2  0  0  0  0  0  0  0  0  0
  149.5489  133.9322  155.6469 C   0  0  0  0  0  0  0  0  0  0  0  0
  149.6309  136.3576  155.5621 N   0  0  0  0  0  0  0  0  0  0  0  0
  150.7777  137.0124  155.3122 C   0  0  0  0  0  0  0  0  0  0  0  0
  151.5601  136.6944  154.4161 O   0  0  0  0  0  0  0  0  0  0  0  0
  151.0331  138.2227  156.1629 C   0  0  0  0  0  0  0  0  0  0  0  0
  150.2576  138.5029  157.3091 C   0  0  0  0  0  0  0  0  0  0  0  0
  150.5653  139.6367  158.0849 C   0  0  0  0  0  0  0  0  0  0  0  0
  151.6498  140.4620  157.7041 C   0  0  0  0  0  0  0  0  0  0  0  0
  151.9818  141.5987  158.4731 N   0  0  0  0  0  0  0  0  0  0  0  0
  152.3585  141.3924  159.8706 C   0  0  0  0  0  0  0  0  0  0  0  0
  152.9470  142.6832  160.4643 C   0  0  0  0  0  0  0  0  0  0  0  0
  152.0209  143.7514  160.2984 O   0  0  0  0  0  0  0  0  0  0  0  0
  151.7548  144.0111  158.9244 C   0  0  0  0  0  0  0  0  0  0  0  0
  151.1288  142.7674  158.2698 C   0  0  0  0  0  0  0  0  0  0  0  0
  152.3933  140.1901  156.6032 N   0  0  0  0  0  0  0  0  0  0  0  0
  152.0955  139.1014  155.8627 C   0  0  0  0  0  0  0  0  0  0  0  0
  144.1372  135.4224  149.9419 H   0  0  0  0  0  0  0  0  0  0  0  0
  143.4574  136.0583  151.4328 H   0  0  0  0  0  0  0  0  0  0  0  0
  143.8143  134.3375  151.2909 H   0  0  0  0  0  0  0  0  0  0  0  0
  146.2669  134.8974  151.0404 H   0  0  0  0  0  0  0  0  0  0  0  0
  145.9057  136.5850  151.2811 H   0  0  0  0  0  0  0  0  0  0  0  0
  145.2537  136.2203  153.5788 H   0  0  0  0  0  0  0  0  0  0  0  0
  143.9688  134.1280  153.3105 H   0  0  0  0  0  0  0  0  0  0  0  0
  145.1198  133.9827  154.6321 H   0  0  0  0  0  0  0  0  0  0  0  0
  145.4573  133.2143  153.0823 H   0  0  0  0  0  0  0  0  0  0  0  0
  147.8172  135.3712  152.7009 H   0  0  0  0  0  0  0  0  0  0  0  0
  149.6251  135.1376  153.8517 H   0  0  0  0  0  0  0  0  0  0  0  0
  149.2189  133.0186  155.1505 H   0  0  0  0  0  0  0  0  0  0  0  0
  149.1141  133.9432  156.6474 H   0  0  0  0  0  0  0  0  0  0  0  0
  150.6314  133.8663  155.7594 H   0  0  0  0  0  0  0  0  0  0  0  0
  149.0337  136.7101  156.2958 H   0  0  0  0  0  0  0  0  0  0  0  0
  149.4369  137.8638  157.6013 H   0  0  0  0  0  0  0  0  0  0  0  0
  149.9634  139.8637  158.9521 H   0  0  0  0  0  0  0  0  0  0  0  0
  151.4802  141.0866  160.4409 H   0  0  0  0  0  0  0  0  0  0  0  0
  153.0944  140.5909  159.9489 H   0  0  0  0  0  0  0  0  0  0  0  0
  153.1488  142.5498  161.5271 H   0  0  0  0  0  0  0  0  0  0  0  0
  153.8971  142.9330  159.9886 H   0  0  0  0  0  0  0  0  0  0  0  0
  151.0727  144.8578  158.8487 H   0  0  0  0  0  0  0  0  0  0  0  0
  152.6751  144.2977  158.4128 H   0  0  0  0  0  0  0  0  0  0  0  0
  150.9672  142.9700  157.2123 H   0  0  0  0  0  0  0  0  0  0  0  0
  150.1498  142.5689  158.7078 H   0  0  0  0  0  0  0  0  0  0  0  0
  152.7280  138.9344  155.0028 H   0  0  0  0  0  0  0  0  0  0  0  0
  1  2  1  0  0  0  0
  1 25  1  0  0  0  0
  1 26  1  0  0  0  0
  1 27  1  0  0  0  0
  2  3  1  0  0  0  0
  2 28  1  0  0  0  0
  2 29  1  0  0  0  0
  3  4  1  0  0  0  0
  3  5  1  0  0  0  0
  3 30  1  0  0  0  0
  4 31  1  0  0  0  0
  4 32  1  0  0  0  0
  4 33  1  0  0  0  0
  5  6  1  0  0  0  0
  5 34  1  0  0  0  0
  6  7  2  0  0  0  0
  6  8  1  0  0  0  0
  8  9  1  0  0  0  0
  8 10  1  0  0  0  0
  8 35  1  0  0  0  0
  9 36  1  0  0  0  0
  9 37  1  0  0  0  0
  9 38  1  0  0  0  0
 10 11  1  0  0  0  0
 10 39  1  0  0  0  0
 11 12  2  0  0  0  0
 11 13  1  0  0  0  0
 13 24  1  0  0  0  0
 13 14  2  0  0  0  0
 14 15  1  0  0  0  0
 14 40  1  0  0  0  0
 15 16  2  0  0  0  0
 15 41  1  0  0  0  0
 16 17  1  0  0  0  0
 16 23  1  0  0  0  0
 17 22  1  0  0  0  0
 17 18  1  0  0  0  0
 18 19  1  0  0  0  0
 18 42  1  0  0  0  0
 18 43  1  0  0  0  0
 19 20  1  0  0  0  0
 19 44  1  0  0  0  0
 19 45  1  0  0  0  0
 20 21  1  0  0  0  0
 21 22  1  0  0  0  0
 21 46  1  0  0  0  0
 21 47  1  0  0  0  0
 22 48  1  0  0  0  0
 22 49  1  0  0  0  0
 23 24  2  0  0  0  0
 24 50  1  0  0  0  0
M  END
> <s_m_source_file>
AV-unprocessed.smi

> <i_m_source_file_index>
313

> <i_lp_mmshare_version>
43012

> <i_f3d_flags>
0

> <s_epik_input>
W0NIM11bQ0gyXVtDQEhdKFtDSDNdKVtOSF1DKD1PKVtDQEhdKFtDSDNdKVtOSF1DKD1PKWMxW2NIXVtjSF1jKG5bY0hdMSlOMltDSDJdW0NIMl1PW0NIMl1bQ0gyXTI=

> <s_epik_cmdline>
J2VwaWtfcHl0aG9uJywgJy1waCcsICc3LjAnLCAnLXRuJywgJzgnLCAnLW1hJywgJzIwMCcsICctbWV0YWxfYmluZGluZycsICctaW1hZScsICc8aW5maWxlLm1hZT4nLCAnLW9tYWUnLCAnPG91dGZpbGUubWFlPic=

> <r_lp_tautomer_probability>
1

> <r_epik_Ionization_Penalty>
9.96442e-06

> <r_epik_Ionization_Penalty_Charging>
0

> <r_epik_Ionization_Penalty_Neutral>
9.96442e-06

> <r_epik_State_Penalty>
-0

> <r_epik_Charging_Adjusted_Penalty>
0

> <i_epik_Tot_Q>
0

> <i_epik_Tot_abs_Q>
0

> <r_epik_Metal_State_Penalty>
-0

> <b_epik_Metal_Only>
0

> <s_lp_Force_Field>
OPLS_2005

> <r_lp_Energy>
19.2481

> <b_lp_Chiralities_Consistent>
1

> <s_lp_Variant>
AV-unprocessed.smi:313-2

> <Gold.Version>
5.8.1

> <Gold.Id.Protein>
6NUR|6NUR_protein|mol2

> <Gold.PLP.Fitness>
42.3871

> <Gold.PLP.PLP>
-34.6437

> <Gold.PLP.part.hbond>
-3.0000

> <Gold.PLP.part.metal>
0.0000

> <Gold.PLP.part.buried>
-3.9297

> <Gold.PLP.part.nonpolar>
-28.0558

> <Gold.PLP.part.repulsive>
0.8779

> <Gold.PLP.ligand.clash>
0.0000

> <Gold.PLP.ligand.torsion>
0.7913

> <Gold.PLP.Chemscore.Hbond>
2.9920

> <Gold.PLP.Chemscore.CHOScore>
0.0000

> <Gold.PLP.Chemscore.Metal>
0.0000

> <Gold.Chemscore.Hbonds>
donor molecule, donor type, donor heavy atom, donor atom, acceptor molecule, acceptor atom, score
      L1  H     5    34       P1  7948  1.00
      P1  H  7997  8010       L1    23  0.95
      P1  H 10752 10763       L1    12  1.00

> <Gold.PLP.Chemscore.Internal.Correction>
0.3500

> <Gold.Rescore>
     Score         DG    S(hbond)    S(metal)    S(lipo)     H(rot)  DE(clash)    DE(int)     intcor
     19.36     -20.28       2.82        0.00      85.24       1.79       0.07       0.85       ----

> <Gold.Chemscore.Fitness>
19.3590

> <Gold.Chemscore.DG>
-20.2769

> <Gold.Chemscore.ZeroCoef>
-5.4800

> <Gold.Chemscore.Hbond>
2.8154

> <Gold.Chemscore.Metal>
0.0000

> <Gold.Chemscore.Lipo>
85.2376

> <Gold.Chemscore.Internal_Hbond>
0.0000

> <Gold.Chemscore.DEClash>
0.0657

> <Gold.Chemscore.DEInternal>
0.8522

> <Gold.Chemscore.Rot>
1.7888

> <Gold.Chemscore.Internal.Correction>
   9.000000E+99

> <Gold.Chemscore.Hbonds>
donor molecule, donor type, donor heavy atom, donor atom, acceptor molecule, acceptor atom, score
      L1  H     5    34       P1  7948  0.95
      P1  H  7997  8010       L1    23  0.21
      P1  H 10752 10763       L1    12  1.00

> <Gold.Chemscore.Hbond.Weighted>
-9.4034

> <Gold.Chemscore.Metal.Weighted>
-0.0000

> <Gold.Chemscore.Lipo.Weighted>
-9.9728

> <Gold.Chemscore.Internal_Hbond.Weighted>
0.0000

> <Gold.Chemscore.DEClash.Weighted>
0.0657

> <Gold.Chemscore.DEInternal.Weighted>
0.8522

> <Gold.Chemscore.Rot.Weighted>
4.5793

> <Gold.Chemscore.Internal.Correction.Weighted>
   9.000000E+99

> <Gold.Protein.RotatedTorsions>
[ 6907 6896 6895 6894 ] final   34.48 input  -60.11 | X-H torsion
[ 7974 7965 7964 7962 ] final   17.77 input  175.53 | X-H torsion
[ 8008 7997 7996 7995 ] final   68.73 input   59.86 | X-H torsion
[ 10167 10162 10161 10158 ] final -135.70 input  -65.29 | X-H torsion
[ 10718 10713 10712 10709 ] final -167.62 input   66.30 | X-H torsion
[ 10763 10752 10751 10750 ] final   54.10 input  -60.55 | X-H torsion
[ 11005 11000 10999 10996 ] final -174.45 input  -57.11 | X-H torsion

> <Gold.Protein.ActiveResidues>
 VAL166  LYS551  ARG553  GLY616  TRP617  ASP618  TYR619  PRO620  LYS621  CYS622 
 ASP623  PHE694  ASN695  SER759  ASP760  ASP761  ALA762  ILE779  LEU786  VAL792 
 PHE793  MET794  SER795  GLU796  ALA797  LYS798  CYS799  TRP800  GLU811  SER814 

> <Gold.Protein.RotatedAtoms>
  152.1030  134.9328  160.0568 H   0  0  0  0  0  0  0  0  0  0  0  0  # atno 6907 bound_to 6896
  152.0535  133.4025  159.4395 H   0  0  0  0  0  0  0  0  0  0  0  0  # atno 6908 bound_to 6896
  150.6840  134.3202  159.4827 H   0  0  0  0  0  0  0  0  0  0  0  0  # atno 6909 bound_to 6896
  146.2207  139.8554  142.8614 H   0  0  0  0  0  0  0  0  0  0  0  0  # atno 7974 bound_to 7965
  155.7127  140.3494  155.4981 H   0  0  0  0  0  0  0  0  0  0  0  0  # atno 8008 bound_to 7997
  155.9341  140.1089  157.1131 H   0  0  0  0  0  0  0  0  0  0  0  0  # atno 8009 bound_to 7997
  154.4090  140.1225  156.4827 H   0  0  0  0  0  0  0  0  0  0  0  0  # atno 8010 bound_to 7997
  139.8752  143.6907  152.2634 H   0  0  0  0  0  0  0  0  0  0  0  0  # atno 10167 bound_to 10162
  156.6851  130.9137  151.3062 H   0  0  0  0  0  0  0  0  0  0  0  0  # atno 10718 bound_to 10713
  152.9801  135.5756  154.4849 H   0  0  0  0  0  0  0  0  0  0  0  0  # atno 10763 bound_to 10752
  154.4392  135.2775  155.1861 H   0  0  0  0  0  0  0  0  0  0  0  0  # atno 10764 bound_to 10752
  154.3536  135.6204  153.5709 H   0  0  0  0  0  0  0  0  0  0  0  0  # atno 10765 bound_to 10752
  140.4744  134.6135  157.4895 H   0  0  0  0  0  0  0  0  0  0  0  0  # atno 11005 bound_to 11000
  145.2758  141.0123  143.3745 LP  0  0  0  0  0  0  0  0  0  0  0  0  # atno 17320 bound_to 7965
  144.9188  139.4437  143.6551 LP  0  0  0  0  0  0  0  0  0  0  0  0  # atno 17321 bound_to 7965
  139.7246  144.7595  151.0899 LP  0  0  0  0  0  0  0  0  0  0  0  0  # atno 17342 bound_to 10162
  140.7754  143.5164  150.9590 LP  0  0  0  0  0  0  0  0  0  0  0  0  # atno 17343 bound_to 10162
  157.7029  130.9353  150.0842 LP  0  0  0  0  0  0  0  0  0  0  0  0  # atno 17370 bound_to 10713
  156.1839  130.3651  149.8999 LP  0  0  0  0  0  0  0  0  0  0  0  0  # atno 17371 bound_to 10713
  139.9865  134.7053  155.9764 LP  0  0  0  0  0  0  0  0  0  0  0  0  # atno 17394 bound_to 11000
  141.1562  133.6542  156.4168 LP  0  0  0  0  0  0  0  0  0  0  0  0  # atno 17395 bound_to 11000

$$$$
