AV-unprocessed.smi:3261|AV-procd|sdf|12478|dock8
  -GOLD-   2272018383D 1   1.00000     0.00000
 Structure written by MMmdl.
 30 31  0  0  0  0  0  0  0  0  1 V2000
  146.4495  133.1744  153.6794 O   0  0  0  0  0  0  0  0  0  0  0  0
  147.2883  132.6017  152.9876 C   0  0  0  0  0  0  0  0  0  0  0  0
  147.0757  132.1470  151.7364 N   0  0  0  0  0  0  0  0  0  0  0  0
  145.8802  132.1568  150.9676 C   0  0  0  0  0  0  0  0  0  0  0  0
  146.0084  132.2396  149.5656 C   0  0  0  0  0  0  0  0  0  0  0  0
  144.8424  132.2329  148.7745 C   0  0  0  0  0  0  0  0  0  0  0  0
  143.5983  132.1429  149.2891 N   0  0  0  0  0  0  0  0  0  0  0  0
  143.4772  132.0512  150.6302 C   0  0  0  0  0  0  0  0  0  0  0  0
  144.5771  132.0496  151.5113 C   0  0  0  0  0  0  0  0  0  0  0  0
  148.5412  132.4084  153.4384 N   0  0  0  0  0  0  0  0  0  0  0  0
  149.1041  132.7770  154.7385 C   0  0  2  0  0  0  0  0  0  0  0  0
  150.1286  133.9175  154.5926 C   0  0  0  0  0  0  0  0  0  0  0  0
  150.9359  134.0222  155.8924 C   0  0  0  0  0  0  0  0  0  0  0  0
  151.0124  132.3256  156.5828 S   0  0  0  0  0  0  0  0  0  0  0  0
  152.3432  131.7501  156.3362 O   0  0  0  0  0  0  0  0  0  0  0  0
  150.4289  132.3342  157.9327 O   0  0  0  0  0  0  0  0  0  0  0  0
  149.8150  131.5899  155.4078 C   0  0  0  0  0  0  0  0  0  0  0  0
  147.8855  131.7747  151.2632 H   0  0  0  0  0  0  0  0  0  0  0  0
  146.9805  132.3107  149.0998 H   0  0  0  0  0  0  0  0  0  0  0  0
  144.9117  132.2996  147.6989 H   0  0  0  0  0  0  0  0  0  0  0  0
  142.4715  131.9702  151.0150 H   0  0  0  0  0  0  0  0  0  0  0  0
  144.3968  131.9540  152.5705 H   0  0  0  0  0  0  0  0  0  0  0  0
  149.1856  131.9784  152.7904 H   0  0  0  0  0  0  0  0  0  0  0  0
  148.3146  133.1354  155.4018 H   0  0  0  0  0  0  0  0  0  0  0  0
  150.8132  133.6839  153.7756 H   0  0  0  0  0  0  0  0  0  0  0  0
  149.6493  134.8649  154.3437 H   0  0  0  0  0  0  0  0  0  0  0  0
  151.9418  134.4132  155.7385 H   0  0  0  0  0  0  0  0  0  0  0  0
  150.4232  134.6566  156.6159 H   0  0  0  0  0  0  0  0  0  0  0  0
  149.1353  130.9207  155.9358 H   0  0  0  0  0  0  0  0  0  0  0  0
  150.3809  131.0077  154.6795 H   0  0  0  0  0  0  0  0  0  0  0  0
  1  2  2  0  0  0  0
  2  3  1  0  0  0  0
  2 10  1  0  0  0  0
  3  4  1  0  0  0  0
  3 18  1  0  0  0  0
  4  9  1  0  0  0  0
  4  5  2  0  0  0  0
  5  6  1  0  0  0  0
  5 19  1  0  0  0  0
  6  7  2  0  0  0  0
  6 20  1  0  0  0  0
  7  8  1  0  0  0  0
  8  9  2  0  0  0  0
  8 21  1  0  0  0  0
  9 22  1  0  0  0  0
 10 11  1  0  0  0  0
 10 23  1  0  0  0  0
 11 17  1  0  0  0  0
 11 12  1  0  0  0  0
 11 24  1  0  0  0  0
 12 13  1  0  0  0  0
 12 25  1  0  0  0  0
 12 26  1  0  0  0  0
 13 14  1  0  0  0  0
 13 27  1  0  0  0  0
 13 28  1  0  0  0  0
 14 15  2  0  0  0  0
 14 16  2  0  0  0  0
 14 17  1  0  0  0  0
 17 29  1  0  0  0  0
 17 30  1  0  0  0  0
M  END
> <s_m_source_file>
AV-unprocessed.smi

> <i_m_source_file_index>
3261

> <i_lp_mmshare_version>
43012

> <i_f3d_flags>
0

> <s_epik_input>
Tz1TMSg9TylbQ0gyXVtDSDJdW0NASF0oW0NIMl0xKVtOSF1DKD1PKVtOSF1jMltjSF1bY0hdbltjSF1bY0hdMg==

> <s_epik_cmdline>
J2VwaWtfcHl0aG9uJywgJy1waCcsICc3LjAnLCAnLXRuJywgJzgnLCAnLW1hJywgJzIwMCcsICctbWV0YWxfYmluZGluZycsICctaW1hZScsICc8aW5maWxlLm1hZT4nLCAnLW9tYWUnLCAnPG91dGZpbGUubWFlPic=

> <r_epik_Ionization_Penalty>
0.0999693

> <r_epik_Ionization_Penalty_Charging>
0

> <r_epik_Ionization_Penalty_Neutral>
0.0999693

> <r_epik_State_Penalty>
0.0899812

> <r_epik_Charging_Adjusted_Penalty>
0.0899812

> <i_epik_Tot_Q>
0

> <i_epik_Tot_abs_Q>
0

> <r_epik_Metal_State_Penalty>
0.0778619

> <b_epik_Metal_Only>
0

> <s_lp_Force_Field>
OPLS_2005

> <r_lp_Energy>
18.6703

> <b_lp_Chiralities_Consistent>
1

> <s_lp_Variant>
AV-unprocessed.smi:3261-1

> <Gold.Version>
5.8.1

> <Gold.Id.Protein>
6NUR|6NUR_protein|mol2

> <Gold.PLP.Fitness>
38.2373

> <Gold.PLP.PLP>
-28.2219

> <Gold.PLP.part.hbond>
-3.0000

> <Gold.PLP.part.metal>
0.0000

> <Gold.PLP.part.buried>
-1.8922

> <Gold.PLP.part.nonpolar>
-23.7073

> <Gold.PLP.part.repulsive>
0.3587

> <Gold.PLP.ligand.clash>
0.0000

> <Gold.PLP.ligand.torsion>
0.2746

> <Gold.PLP.Chemscore.Hbond>
2.8960

> <Gold.PLP.Chemscore.CHOScore>
0.6254

> <Gold.PLP.Chemscore.Metal>
0.0000

> <Gold.Chemscore.Hbonds>
donor molecule, donor type, donor heavy atom, donor atom, acceptor molecule, acceptor atom, score
      L1  H     3    18       P1 10747  1.00
      P1  H  6896  6908       L1    16  1.00
      P1  H 10785 10796       L1     7  0.67
      L1  C     6    20       P1  7921  0.09
      L1  C     8    21       P1 10952  0.32

> <Gold.PLP.Chemscore.Internal.Correction>
0.0006

> <Gold.Rescore>
     Score         DG    S(hbond)    S(metal)    S(lipo)     H(rot)  DE(clash)    DE(int)     intcor
     17.97     -18.38       2.09        0.00      72.58       1.00       0.14       0.27       ----

> <Gold.Chemscore.Fitness>
17.9716

> <Gold.Chemscore.DG>
-18.3810

> <Gold.Chemscore.ZeroCoef>
-5.4800

> <Gold.Chemscore.Hbond>
2.0866

> <Gold.Chemscore.Metal>
0.0000

> <Gold.Chemscore.Lipo>
72.5796

> <Gold.Chemscore.Internal_Hbond>
0.0000

> <Gold.Chemscore.DEClash>
0.1427

> <Gold.Chemscore.DEInternal>
0.2667

> <Gold.Chemscore.Rot>
1.0000

> <Gold.Chemscore.Internal.Correction>
   9.000000E+99

> <Gold.Chemscore.Hbonds>
donor molecule, donor type, donor heavy atom, donor atom, acceptor molecule, acceptor atom, score
      L1  H     3    18       P1 10747  1.00
      P1  H  6896  6908       L1    16  0.98
      P1  H 10785 10796       L1     7  0.03

> <Gold.Chemscore.Hbond.Weighted>
-6.9692

> <Gold.Chemscore.Metal.Weighted>
-0.0000

> <Gold.Chemscore.Lipo.Weighted>
-8.4918

> <Gold.Chemscore.Internal_Hbond.Weighted>
0.0000

> <Gold.Chemscore.DEClash.Weighted>
0.1427

> <Gold.Chemscore.DEInternal.Weighted>
0.2667

> <Gold.Chemscore.Rot.Weighted>
2.5600

> <Gold.Chemscore.Internal.Correction.Weighted>
   9.000000E+99

> <Gold.Protein.RotatedTorsions>
[ 6907 6896 6895 6894 ] final   95.60 input  -60.11 | X-H torsion
[ 7974 7965 7964 7962 ] final  -41.63 input  175.53 | X-H torsion
[ 8008 7997 7996 7995 ] final -100.09 input   59.86 | X-H torsion
[ 10167 10162 10161 10158 ] final  -67.00 input  -65.29 | X-H torsion
[ 10718 10713 10712 10709 ] final   54.75 input   66.30 | X-H torsion
[ 10763 10752 10751 10750 ] final   16.60 input  -60.55 | X-H torsion
[ 11005 11000 10999 10996 ] final    7.71 input  -57.11 | X-H torsion

> <Gold.Protein.ActiveResidues>
 VAL166  LYS551  ARG553  GLY616  TRP617  ASP618  TYR619  PRO620  LYS621  CYS622 
 ASP623  PHE694  ASN695  SER759  ASP760  ASP761  ALA762  ILE779  LEU786  VAL792 
 PHE793  MET794  SER795  GLU796  ALA797  LYS798  CYS799  TRP800  GLU811  SER814 

> <Gold.Protein.RotatedAtoms>
  152.5442  134.1014  159.8319 H   0  0  0  0  0  0  0  0  0  0  0  0  # atno 6907 bound_to 6896
  151.1091  133.5179  159.2614 H   0  0  0  0  0  0  0  0  0  0  0  0  # atno 6908 bound_to 6896
  151.1904  135.0409  159.8884 H   0  0  0  0  0  0  0  0  0  0  0  0  # atno 6909 bound_to 6896
  146.0192  140.6870  142.9186 H   0  0  0  0  0  0  0  0  0  0  0  0  # atno 7974 bound_to 7965
  154.8238  140.0443  157.1429 H   0  0  0  0  0  0  0  0  0  0  0  0  # atno 8008 bound_to 7997
  154.9229  140.3029  155.5187 H   0  0  0  0  0  0  0  0  0  0  0  0  # atno 8009 bound_to 7997
  156.2982  140.2337  156.4281 H   0  0  0  0  0  0  0  0  0  0  0  0  # atno 8010 bound_to 7997
  140.5615  143.2313  151.6718 H   0  0  0  0  0  0  0  0  0  0  0  0  # atno 10167 bound_to 10162
  157.5285  130.8614  149.8654 H   0  0  0  0  0  0  0  0  0  0  0  0  # atno 10718 bound_to 10713
  153.1416  135.6761  153.9018 H   0  0  0  0  0  0  0  0  0  0  0  0  # atno 10763 bound_to 10752
  153.8473  135.3097  155.3431 H   0  0  0  0  0  0  0  0  0  0  0  0  # atno 10764 bound_to 10752
  154.7792  135.4898  153.9892 H   0  0  0  0  0  0  0  0  0  0  0  0  # atno 10765 bound_to 10752
  140.5451  134.0337  155.7917 H   0  0  0  0  0  0  0  0  0  0  0  0  # atno 11005 bound_to 11000
  144.6983  140.3536  143.7177 LP  0  0  0  0  0  0  0  0  0  0  0  0  # atno 17320 bound_to 7965
  145.7219  139.1712  143.2479 LP  0  0  0  0  0  0  0  0  0  0  0  0  # atno 17321 bound_to 7965
  139.5072  144.3653  152.0522 LP  0  0  0  0  0  0  0  0  0  0  0  0  # atno 17342 bound_to 10162
  140.2780  144.3891  150.6128 LP  0  0  0  0  0  0  0  0  0  0  0  0  # atno 17343 bound_to 10162
  156.0405  130.3740  150.1449 LP  0  0  0  0  0  0  0  0  0  0  0  0  # atno 17370 bound_to 10713
  156.9634  130.9812  151.3474 LP  0  0  0  0  0  0  0  0  0  0  0  0  # atno 17371 bound_to 10713
  141.1204  133.9470  157.2740 LP  0  0  0  0  0  0  0  0  0  0  0  0  # atno 17394 bound_to 11000
  139.9484  135.0180  156.8920 LP  0  0  0  0  0  0  0  0  0  0  0  0  # atno 17395 bound_to 11000

$$$$
