AV-unprocessed.smi:1803|AV-procd|sdf|7283|dock7
  -GOLD-   22720 8543D 1   1.00000     0.00000
 Structure written by MMmdl.
 36 38  0  0  0  0  0  0  0  0  2 V2000
  149.5715  134.5376  155.9780 O   0  0  0  0  0  0  0  0  0  0  0  0
  149.1810  134.9958  154.9060 C   0  0  0  0  0  0  0  0  0  0  0  0
  149.5994  136.2016  154.4671 N   0  0  0  0  0  0  0  0  0  0  0  0
  150.4893  137.1525  155.0465 C   0  0  0  0  0  0  0  0  0  0  0  0
  151.4729  136.8421  155.9074 N   0  0  0  0  0  0  0  0  0  0  0  0
  152.2019  137.9586  156.2929 N   0  0  0  0  0  0  0  0  0  0  0  0
  151.7512  139.0666  155.6982 C   0  0  0  0  0  0  0  0  0  0  0  0
  150.3908  138.8527  154.6104 S   0  0  0  0  0  0  0  0  0  0  0  0
  148.3244  134.3413  154.1040 N   0  0  0  0  0  0  0  0  0  0  0  0
  147.7011  133.0509  154.3877 C   0  0  2  0  0  0  0  0  0  0  0  0
  148.7221  131.8976  154.4437 C   0  0  0  0  0  0  0  0  0  0  0  0
  148.0534  130.7462  153.6859 C   0  0  0  0  0  0  0  0  0  0  0  0
  147.2567  131.4408  152.6680 N   0  3  1  0  0  0  0  0  0  0  0  0
  146.2695  130.6613  151.8937 C   0  0  0  0  0  0  0  0  0  0  0  0
  145.6960  131.5654  150.7813 C   0  0  0  0  0  0  0  0  0  0  0  0
  145.1578  132.9041  151.3350 C   0  0  0  0  0  0  0  0  0  0  0  0
  146.1932  133.6077  152.2387 C   0  0  0  0  0  0  0  0  0  0  0  0
  146.6658  132.6209  153.3221 C   0  0  2  0  0  0  0  0  0  0  0  0
  149.2933  136.4364  153.5337 H   0  0  0  0  0  0  0  0  0  0  0  0
  152.2252  140.0160  155.8991 H   0  0  0  0  0  0  0  0  0  0  0  0
  148.0640  134.7903  153.2373 H   0  0  0  0  0  0  0  0  0  0  0  0
  147.1977  133.1011  155.3552 H   0  0  0  0  0  0  0  0  0  0  0  0
  149.6414  132.1794  153.9272 H   0  0  0  0  0  0  0  0  0  0  0  0
  148.9908  131.6235  155.4643 H   0  0  0  0  0  0  0  0  0  0  0  0
  148.7736  130.0581  153.2427 H   0  0  0  0  0  0  0  0  0  0  0  0
  147.3949  130.1818  154.3481 H   0  0  0  0  0  0  0  0  0  0  0  0
  146.7521  129.7866  151.4564 H   0  0  0  0  0  0  0  0  0  0  0  0
  145.4765  130.3006  152.5505 H   0  0  0  0  0  0  0  0  0  0  0  0
  146.4796  131.7735  150.0514 H   0  0  0  0  0  0  0  0  0  0  0  0
  144.9074  131.0402  150.2415 H   0  0  0  0  0  0  0  0  0  0  0  0
  144.8701  133.5608  150.5134 H   0  0  0  0  0  0  0  0  0  0  0  0
  144.2497  132.7146  151.9087 H   0  0  0  0  0  0  0  0  0  0  0  0
  147.0383  133.9513  151.6402 H   0  0  0  0  0  0  0  0  0  0  0  0
  145.7452  134.4912  152.6945 H   0  0  0  0  0  0  0  0  0  0  0  0
  145.7850  132.2824  153.8720 H   0  0  0  0  0  0  0  0  0  0  0  0
  147.9258  131.7988  152.0013 H   0  0  0  0  0  0  0  0  0  0  0  0
  1  2  2  0  0  0  0
  2  3  1  0  0  0  0
  2  9  1  0  0  0  0
  3  4  1  0  0  0  0
  3 19  1  0  0  0  0
  4  8  1  0  0  0  0
  4  5  2  0  0  0  0
  5  6  1  0  0  0  0
  6  7  2  0  0  0  0
  7  8  1  0  0  0  0
  7 20  1  0  0  0  0
  9 10  1  0  0  0  0
  9 21  1  0  0  0  0
 10 18  1  0  0  0  0
 10 11  1  0  0  0  0
 10 22  1  0  0  0  0
 11 12  1  0  0  0  0
 11 23  1  0  0  0  0
 11 24  1  0  0  0  0
 12 13  1  0  0  0  0
 12 25  1  0  0  0  0
 12 26  1  0  0  0  0
 13 18  1  0  0  0  0
 13 14  1  0  0  0  0
 13 36  1  0  0  0  0
 14 15  1  0  0  0  0
 14 27  1  0  0  0  0
 14 28  1  0  0  0  0
 15 16  1  0  0  0  0
 15 29  1  0  0  0  0
 15 30  1  0  0  0  0
 16 17  1  0  0  0  0
 16 31  1  0  0  0  0
 16 32  1  0  0  0  0
 17 18  1  0  0  0  0
 17 33  1  0  0  0  0
 17 34  1  0  0  0  0
 18 35  1  0  0  0  0
M  CHG  1  13   1
M  END
> <s_m_source_file>
AV-unprocessed.smi

> <i_m_source_file_index>
1803

> <i_lp_mmshare_version>
43012

> <i_f3d_flags>
0

> <s_epik_input>
czFbY0hdbm5jMVtOSF1DKD1PKVtOSF1bQ0BIXShbQ0gyXVtDSDJdMilbQ0BASF0oTjIzKVtDSDJdW0NIMl1bQ0gyXVtDSDJdMw==

> <s_epik_cmdline>
J2VwaWtfcHl0aG9uJywgJy1waCcsICc3LjAnLCAnLXRuJywgJzgnLCAnLW1hJywgJzIwMCcsICctbWV0YWxfYmluZGluZycsICctaW1hZScsICc8aW5maWxlLm1hZT4nLCAnLW9tYWUnLCAnPG91dGZpbGUubWFlPic=

> <r_lp_tautomer_probability>
1

> <r_epik_Ionization_Penalty>
0.00213286

> <r_epik_Ionization_Penalty_Charging>
0.00107044

> <r_epik_Ionization_Penalty_Neutral>
0.00106242

> <r_epik_State_Penalty>
-0

> <r_epik_Charging_Adjusted_Penalty>
0.00107044

> <i_epik_Tot_Q>
1

> <i_epik_Tot_abs_Q>
1

> <r_epik_Metal_State_Penalty>
0.292783

> <b_epik_Metal_Only>
0

> <s_lp_Force_Field>
OPLS_2005

> <r_lp_Energy>
42.6799

> <b_lp_Chiralities_Consistent>
1

> <s_lp_Variant>
AV-unprocessed.smi:1803-5

> <Gold.Version>
5.8.1

> <Gold.Id.Protein>
6NUR|6NUR_protein|mol2

> <Gold.PLP.Fitness>
40.7681

> <Gold.PLP.PLP>
-30.6707

> <Gold.PLP.part.hbond>
-6.0000

> <Gold.PLP.part.metal>
0.0000

> <Gold.PLP.part.buried>
-1.9662

> <Gold.PLP.part.nonpolar>
-23.2395

> <Gold.PLP.part.repulsive>
0.1595

> <Gold.PLP.ligand.clash>
0.0000

> <Gold.PLP.ligand.torsion>
0.1644

> <Gold.PLP.Chemscore.Hbond>
3.4750

> <Gold.PLP.Chemscore.CHOScore>
0.0000

> <Gold.PLP.Chemscore.Metal>
0.0000

> <Gold.Chemscore.Hbonds>
donor molecule, donor type, donor heavy atom, donor atom, acceptor molecule, acceptor atom, score
      L1  H     3    19       P1  7948  1.00
      L1  H     9    21       P1  7948  0.51
      L1  H    13    36       P1 10747  0.34
      P1  H 10752 10763       L1     5  0.37

> <Gold.PLP.Chemscore.Internal.Correction>
0.0013

> <Gold.Rescore>
     Score         DG    S(hbond)    S(metal)    S(lipo)     H(rot)  DE(clash)    DE(int)     intcor
     17.41     -18.24       2.52        0.00      59.02       1.00       0.10       0.74       ----

> <Gold.Chemscore.Fitness>
17.4080

> <Gold.Chemscore.DG>
-18.2430

> <Gold.Chemscore.ZeroCoef>
-5.4800

> <Gold.Chemscore.Hbond>
2.5202

> <Gold.Chemscore.Metal>
0.0000

> <Gold.Chemscore.Lipo>
59.0225

> <Gold.Chemscore.Internal_Hbond>
0.0000

> <Gold.Chemscore.DEClash>
0.0955

> <Gold.Chemscore.DEInternal>
0.7395

> <Gold.Chemscore.Rot>
1.0000

> <Gold.Chemscore.Internal.Correction>
   9.000000E+99

> <Gold.Chemscore.Hbonds>
donor molecule, donor type, donor heavy atom, donor atom, acceptor molecule, acceptor atom, score
      L1  H     3    19       P1  7948  0.90
      L1  H     9    21       P1  7948  0.46
      L1  H    13    36       P1 10747  0.34
      P1  H 10752 10763       L1     5  0.11

> <Gold.Chemscore.Hbond.Weighted>
-8.4174

> <Gold.Chemscore.Metal.Weighted>
-0.0000

> <Gold.Chemscore.Lipo.Weighted>
-6.9056

> <Gold.Chemscore.Internal_Hbond.Weighted>
0.0000

> <Gold.Chemscore.DEClash.Weighted>
0.0955

> <Gold.Chemscore.DEInternal.Weighted>
0.7395

> <Gold.Chemscore.Rot.Weighted>
2.5600

> <Gold.Chemscore.Internal.Correction.Weighted>
   9.000000E+99

> <Gold.Protein.RotatedTorsions>
[ 6907 6896 6895 6894 ] final   68.97 input  -60.11 | X-H torsion
[ 7974 7965 7964 7962 ] final   93.25 input  175.53 | X-H torsion
[ 8008 7997 7996 7995 ] final   94.00 input   59.86 | X-H torsion
[ 10167 10162 10161 10158 ] final  176.96 input  -65.29 | X-H torsion
[ 10718 10713 10712 10709 ] final   -6.25 input   66.30 | X-H torsion
[ 10763 10752 10751 10750 ] final   77.03 input  -60.55 | X-H torsion
[ 11005 11000 10999 10996 ] final   37.43 input  -57.11 | X-H torsion

> <Gold.Protein.ActiveResidues>
 VAL166  LYS551  ARG553  GLY616  TRP617  ASP618  TYR619  PRO620  LYS621  CYS622 
 ASP623  PHE694  ASN695  SER759  ASP760  ASP761  ALA762  ILE779  LEU786  VAL792 
 PHE793  MET794  SER795  GLU796  ALA797  LYS798  CYS799  TRP800  GLU811  SER814 

> <Gold.Protein.RotatedAtoms>
  152.4656  134.5084  159.9745 H   0  0  0  0  0  0  0  0  0  0  0  0  # atno 6907 bound_to 6896
  151.5122  133.3477  159.2895 H   0  0  0  0  0  0  0  0  0  0  0  0  # atno 6908 bound_to 6896
  150.8638  134.8025  159.7165 H   0  0  0  0  0  0  0  0  0  0  0  0  # atno 6909 bound_to 6896
  145.4814  139.2278  143.2880 H   0  0  0  0  0  0  0  0  0  0  0  0  # atno 7974 bound_to 7965
  156.0531  140.3305  155.7374 H   0  0  0  0  0  0  0  0  0  0  0  0  # atno 8008 bound_to 7997
  155.5570  140.0615  157.2855 H   0  0  0  0  0  0  0  0  0  0  0  0  # atno 8009 bound_to 7997
  154.4445  140.1884  156.0733 H   0  0  0  0  0  0  0  0  0  0  0  0  # atno 8010 bound_to 7997
  139.5234  144.2854  152.0510 H   0  0  0  0  0  0  0  0  0  0  0  0  # atno 10167 bound_to 10162
  156.7347  130.5191  149.5837 H   0  0  0  0  0  0  0  0  0  0  0  0  # atno 10718 bound_to 10713
  153.0768  135.4929  154.8422 H   0  0  0  0  0  0  0  0  0  0  0  0  # atno 10763 bound_to 10752
  154.7098  135.3018  154.9216 H   0  0  0  0  0  0  0  0  0  0  0  0  # atno 10764 bound_to 10752
  153.9913  135.6778  153.4807 H   0  0  0  0  0  0  0  0  0  0  0  0  # atno 10765 bound_to 10752
  140.2227  134.3622  155.7998 H   0  0  0  0  0  0  0  0  0  0  0  0  # atno 11005 bound_to 11000
  146.2339  140.5601  142.8963 LP  0  0  0  0  0  0  0  0  0  0  0  0  # atno 17320 bound_to 7965
  144.7887  140.5988  143.6556 LP  0  0  0  0  0  0  0  0  0  0  0  0  # atno 17321 bound_to 7965
  140.2307  144.4371  150.6301 LP  0  0  0  0  0  0  0  0  0  0  0  0  # atno 17342 bound_to 10162
  140.6357  143.2194  151.6400 LP  0  0  0  0  0  0  0  0  0  0  0  0  # atno 17343 bound_to 10162
  156.1505  130.6306  151.0589 LP  0  0  0  0  0  0  0  0  0  0  0  0  # atno 17370 bound_to 10713
  157.6844  131.0829  150.7283 LP  0  0  0  0  0  0  0  0  0  0  0  0  # atno 17371 bound_to 10713
  141.2222  133.7202  156.8601 LP  0  0  0  0  0  0  0  0  0  0  0  0  # atno 17394 bound_to 11000
  140.1833  134.9018  157.2974 LP  0  0  0  0  0  0  0  0  0  0  0  0  # atno 17395 bound_to 11000

$$$$
