#       Name:                AV-unprocessed.smi:2581
#       Creating user name   scv26
#       Creation time:       Fri Mar 27 14:14:50 2020


#       File generated by GOLD software.
#

@<TRIPOS>MOLECULE
AV-unprocessed.smi:2581
    45    47     1
SMALL
NO_CHARGES


@<TRIPOS>ATOM
      1 ****        -1.3463  -1.9832  -1.7190 O.2            1 S1                 0.0000
      2 ****        -0.6186  -1.3614  -0.9455 C.2            1 S1                 0.0000
      3 ****         0.8276  -1.5816  -0.8686 C.2            1 S1                 0.0000
      4 ****         1.6502  -0.8851  -0.0419 C.2            1 S1                 0.0000
      5 ****         3.0269  -1.1187  -0.0013 N.pl3          1 S1                 0.0000
      6 ****         3.8259  -1.4914  -1.1664 C.3            1 S1                 0.0000
      7 ****         4.8366  -0.3754  -1.4903 C.3            1 S1                 0.0000
      8 ****         5.6552  -0.1199  -0.3527 O.3            1 S1                 0.0000
      9 ****         4.8909   0.2824   0.7797 C.3            1 S1                 0.0000
     10 ****         3.8959  -0.8339   1.1385 C.3            1 S1                 0.0000
     11 ****         0.9996   0.1225   0.7828 C.2            1 S1                 0.0000
     12 ****        -0.2702   0.3422   0.7522 N.2            1 S1                 0.0000
     13 ****        -1.0816  -0.3996  -0.0904 N.am           1 S1                 0.0000
     14 ****        -2.5109  -0.0295  -0.0598 C.3            1 S1                 0.0000
     15 ****        -2.7576   1.2626  -0.8648 C.3            1 S1                 0.0000
     16 ****        -4.2478   1.6360  -0.8331 C.3            1 S1                 0.0000
     17 ****        -4.7632   1.7316   0.6130 C.3            1 S1                 0.0000
     18 ****        -4.5007   0.4746   1.3483 N.4            1 S1                 1.0000
     19 ****        -3.0665   0.1137   1.3779 C.3            1 S1                 0.0000
     20 ****         1.2375  -2.3539  -1.5022 H              1 S1                 0.0000
     21 ****         4.3478  -2.4258  -0.9575 H              1 S1                 0.0000
     22 ****         3.2027  -1.6682  -2.0421 H              1 S1                 0.0000
     23 ****         5.4722  -0.6728  -2.3242 H              1 S1                 0.0000
     24 ****         4.3210   0.5382  -1.7908 H              1 S1                 0.0000
     25 ****         5.5658   0.4689   1.6151 H              1 S1                 0.0000
     26 ****         4.3699   1.2184   0.5720 H              1 S1                 0.0000
     27 ****         3.3253  -0.5685   2.0276 H              1 S1                 0.0000
     28 ****         4.4412  -1.7431   1.3946 H              1 S1                 0.0000
     29 ****         1.6511   0.7017   1.4359 H              1 S1                 0.0000
     30 ****        -3.1060  -0.8180  -0.5240 H              1 S1                 0.0000
     31 ****        -2.1677   2.0822  -0.4521 H              1 S1                 0.0000
     32 ****        -2.4307   1.1324  -1.8972 H              1 S1                 0.0000
     33 ****        -4.4057   2.5832  -1.3497 H              1 S1                 0.0000
     34 ****        -4.8238   0.8872  -1.3784 H              1 S1                 0.0000
     35 ****        -4.2813   2.5601   1.1338 H              1 S1                 0.0000
     36 ****        -5.8349   1.9310   0.6200 H              1 S1                 0.0000
     37 ****        -4.8331   0.5735   2.2970 H              1 S1                 0.0000
     38 ****        -2.9490  -0.8221   1.9251 H              1 S1                 0.0000
     39 ****        -2.5363   0.8834   1.9405 H              1 S1                 0.0000
     40 ****        -5.0104  -0.2733   0.8997 H              1 S1                 0.0000
     41 ****        -2.3281  -1.7945  -1.7427 LP             1 S1                 0.0000
     42 ****        -0.9559  -2.6772  -2.3240 LP             1 S1                 0.0000
     43 ****         6.3032   0.6073  -0.5789 LP             1 S1                 0.0000
     44 ****         6.1569  -0.9539  -0.1230 LP             1 S1                 0.0000
     45 ****        -0.6696   1.0483   1.3369 LP             1 S1                 0.0000
@<TRIPOS>BOND
    1    1    2 2     
    2    2   13 am    
    3    2    3 1     
    4    3    4 2     
    5    3   20 1     
    6    4    5 1     
    7    4   11 1     
    8    5   10 1     
    9    5    6 1     
   10    6    7 1     
   11    6   21 1     
   12    6   22 1     
   13    7    8 1     
   14    7   23 1     
   15    7   24 1     
   16    8    9 1     
   17    9   10 1     
   18    9   25 1     
   19    9   26 1     
   20   10   27 1     
   21   10   28 1     
   22   11   12 2     
   23   11   29 1     
   24   12   13 1     
   25   13   14 1     
   26   14   19 1     
   27   14   15 1     
   28   14   30 1     
   29   15   16 1     
   30   15   31 1     
   31   15   32 1     
   32   16   17 1     
   33   16   33 1     
   34   16   34 1     
   35   17   18 1     
   36   17   35 1     
   37   17   36 1     
   38   18   19 1     
   39   18   37 1     
   40   18   40 1     
   41   19   38 1     
   42   19   39 1     
   43    1   41 1     
   44    1   42 1     
   45    8   43 1     
   46    8   44 1     
   47   12   45 1     
@<TRIPOS>SUBSTRUCTURE
      1 S1             1
@<TRIPOS>SET
LONE_PAIRS      STATIC     ATOMS    <user>   **** ""
5 41 42 43 44 45
DONOR_HYDROGENS      STATIC     ATOMS    <user>   **** ""
2 37 40
ATOM$BLUE        STATIC     ATOMS    COLORGROUP SYSTEM
5 41 42 43 44 45
ATOM$RED        STATIC     ATOMS    COLORGROUP SYSTEM
2 37 40
