AV-unprocessed.smi:1265|AV-procd|sdf|5316|dock2
  -GOLD-   22720 4443D 1   1.00000     0.00000
 Structure written by MMmdl.
 44 46  0  0  0  0  0  0  0  0  1 V2000
  144.7961  135.6606  153.4375 O   0  0  0  0  0  0  0  0  0  0  0  0
  145.9197  135.7798  152.9496 C   0  0  0  0  0  0  0  0  0  0  0  0
  146.8216  136.6744  153.3776 N   0  0  0  0  0  0  0  0  0  0  0  0
  146.6273  137.6330  154.4655 C   0  0  0  0  0  0  0  0  0  0  0  0
  147.8630  138.5706  154.6743 C   0  0  2  0  0  0  0  0  0  0  0  0
  149.1334  137.7945  154.5298 N   0  0  0  0  0  0  0  0  0  0  0  0
  149.2494  136.5840  155.3559 C   0  0  0  0  0  0  0  0  0  0  0  0
  150.5498  135.8089  155.0824 C   0  0  0  0  0  0  0  0  0  0  0  0
  151.6698  136.6589  155.2883 O   0  0  0  0  0  0  0  0  0  0  0  0
  151.6343  137.8036  154.4473 C   0  0  0  0  0  0  0  0  0  0  0  0
  150.3475  138.6019  154.7138 C   0  0  0  0  0  0  0  0  0  0  0  0
  147.7145  139.2623  156.0609 C   0  0  0  0  0  0  0  0  0  0  0  0
  146.5662  140.2753  155.9998 C   0  0  0  0  0  0  0  0  0  0  0  0
  146.5322  140.9470  154.3214 S   0  0  0  0  0  0  0  0  0  0  0  0
  147.7431  139.7560  153.6821 C   0  0  0  0  0  0  0  0  0  0  0  0
  146.4186  135.0308  151.9508 N   0  0  0  0  0  0  0  0  0  0  0  0
  145.7814  134.0005  151.2068 C   0  0  0  0  0  0  0  0  0  0  0  0
  146.5941  132.9810  150.6691 C   0  0  0  0  0  0  0  0  0  0  0  0
  145.9893  131.9584  149.9113 C   0  0  0  0  0  0  0  0  0  0  0  0
  144.6641  131.9050  149.6615 N   0  0  0  0  0  0  0  0  0  0  0  0
  143.8895  132.8894  150.1646 C   0  0  0  0  0  0  0  0  0  0  0  0
  144.3925  133.9566  150.9355 C   0  0  0  0  0  0  0  0  0  0  0  0
  147.7245  136.6880  152.9262 H   0  0  0  0  0  0  0  0  0  0  0  0
  145.7336  138.2108  154.2352 H   0  0  0  0  0  0  0  0  0  0  0  0
  146.3553  137.1108  155.3824 H   0  0  0  0  0  0  0  0  0  0  0  0
  149.2083  136.8356  156.4150 H   0  0  0  0  0  0  0  0  0  0  0  0
  148.4330  135.8941  155.1561 H   0  0  0  0  0  0  0  0  0  0  0  0
  150.6266  134.9515  155.7513 H   0  0  0  0  0  0  0  0  0  0  0  0
  150.5606  135.4201  154.0629 H   0  0  0  0  0  0  0  0  0  0  0  0
  152.5104  138.4200  154.6493 H   0  0  0  0  0  0  0  0  0  0  0  0
  151.6912  137.4994  153.4009 H   0  0  0  0  0  0  0  0  0  0  0  0
  150.3557  139.4576  154.0425 H   0  0  0  0  0  0  0  0  0  0  0  0
  150.3810  138.9982  155.7292 H   0  0  0  0  0  0  0  0  0  0  0  0
  147.5864  138.5542  156.8793 H   0  0  0  0  0  0  0  0  0  0  0  0
  148.5960  139.8511  156.3034 H   0  0  0  0  0  0  0  0  0  0  0  0
  145.6108  139.7933  156.2072 H   0  0  0  0  0  0  0  0  0  0  0  0
  146.6910  141.0734  156.7320 H   0  0  0  0  0  0  0  0  0  0  0  0
  148.6837  140.2965  153.5906 H   0  0  0  0  0  0  0  0  0  0  0  0
  147.4630  139.4361  152.6780 H   0  0  0  0  0  0  0  0  0  0  0  0
  147.3887  135.1895  151.7218 H   0  0  0  0  0  0  0  0  0  0  0  0
  147.6616  132.9755  150.8350 H   0  0  0  0  0  0  0  0  0  0  0  0
  146.5879  131.1629  149.4925 H   0  0  0  0  0  0  0  0  0  0  0  0
  142.8347  132.8293  149.9398 H   0  0  0  0  0  0  0  0  0  0  0  0
  143.7112  134.7165  151.2858 H   0  0  0  0  0  0  0  0  0  0  0  0
  1  2  2  0  0  0  0
  2  3  1  0  0  0  0
  2 16  1  0  0  0  0
  3  4  1  0  0  0  0
  3 23  1  0  0  0  0
  4  5  1  0  0  0  0
  4 24  1  0  0  0  0
  4 25  1  0  0  0  0
  5 15  1  0  0  0  0
  5  6  1  0  0  0  0
  5 12  1  0  0  0  0
  6 11  1  0  0  0  0
  6  7  1  0  0  0  0
  7  8  1  0  0  0  0
  7 26  1  0  0  0  0
  7 27  1  0  0  0  0
  8  9  1  0  0  0  0
  8 28  1  0  0  0  0
  8 29  1  0  0  0  0
  9 10  1  0  0  0  0
 10 11  1  0  0  0  0
 10 30  1  0  0  0  0
 10 31  1  0  0  0  0
 11 32  1  0  0  0  0
 11 33  1  0  0  0  0
 12 13  1  0  0  0  0
 12 34  1  0  0  0  0
 12 35  1  0  0  0  0
 13 14  1  0  0  0  0
 13 36  1  0  0  0  0
 13 37  1  0  0  0  0
 14 15  1  0  0  0  0
 15 38  1  0  0  0  0
 15 39  1  0  0  0  0
 16 17  1  0  0  0  0
 16 40  1  0  0  0  0
 17 22  1  0  0  0  0
 17 18  2  0  0  0  0
 18 19  1  0  0  0  0
 18 41  1  0  0  0  0
 19 20  2  0  0  0  0
 19 42  1  0  0  0  0
 20 21  1  0  0  0  0
 21 22  2  0  0  0  0
 21 43  1  0  0  0  0
 22 44  1  0  0  0  0
M  END
> <s_m_source_file>
AV-unprocessed.smi

> <i_m_source_file_index>
1265

> <i_lp_mmshare_version>
43012

> <i_f3d_flags>
0

> <s_epik_input>
W2NIXTFbY0hdbltjSF1bY0hdYzFbTkhdQyg9TylbTkhdW0NIMl1bQ0BdMihbQ0gyXVtDSDJdU1tDSDJdMilOM1tDSDJdW0NIMl1PW0NIMl1bQ0gyXTM=

> <s_epik_cmdline>
J2VwaWtfcHl0aG9uJywgJy1waCcsICc3LjAnLCAnLXRuJywgJzgnLCAnLW1hJywgJzIwMCcsICctbWV0YWxfYmluZGluZycsICctaW1hZScsICc8aW5maWxlLm1hZT4nLCAnLW9tYWUnLCAnPG91dGZpbGUubWFlPic=

> <r_epik_Ionization_Penalty>
0.131531

> <r_epik_Ionization_Penalty_Charging>
0

> <r_epik_Ionization_Penalty_Neutral>
0.131531

> <r_epik_State_Penalty>
0.114508

> <r_epik_Charging_Adjusted_Penalty>
0.114508

> <i_epik_Tot_Q>
0

> <i_epik_Tot_abs_Q>
0

> <r_epik_Metal_State_Penalty>
0.0964753

> <b_epik_Metal_Only>
0

> <s_lp_Force_Field>
OPLS_2005

> <r_lp_Energy>
59.7031

> <b_lp_Chiralities_Consistent>
1

> <s_lp_Variant>
AV-unprocessed.smi:1265-2

> <Gold.Version>
5.8.1

> <Gold.Id.Protein>
6NUR|6NUR_protein|mol2

> <Gold.PLP.Fitness>
44.0770

> <Gold.PLP.PLP>
-30.5356

> <Gold.PLP.part.hbond>
-3.6216

> <Gold.PLP.part.metal>
0.0000

> <Gold.PLP.part.buried>
-4.4012

> <Gold.PLP.part.nonpolar>
-24.7578

> <Gold.PLP.part.repulsive>
0.9569

> <Gold.PLP.ligand.clash>
0.0000

> <Gold.PLP.ligand.torsion>
0.5018

> <Gold.PLP.Chemscore.Hbond>
3.0000

> <Gold.PLP.Chemscore.CHOScore>
1.8155

> <Gold.PLP.Chemscore.Metal>
0.0000

> <Gold.Chemscore.Hbonds>
donor molecule, donor type, donor heavy atom, donor atom, acceptor molecule, acceptor atom, score
      L1  H     3    23       P1  7948  1.00
      L1  H    16    40       P1  7948  1.00
      P1  H 10752 10764       L1     9  1.00
      L1  C    19    42       P1 10747  0.81
      L1  C    21    43       P1 10186  1.00

> <Gold.PLP.Chemscore.Internal.Correction>
0.0987

> <Gold.Rescore>
     Score         DG    S(hbond)    S(metal)    S(lipo)     H(rot)  DE(clash)    DE(int)     intcor
     18.54     -19.54       2.52        0.00      79.93       1.44       0.41       0.58       ----

> <Gold.Chemscore.Fitness>
18.5388

> <Gold.Chemscore.DG>
-19.5374

> <Gold.Chemscore.ZeroCoef>
-5.4800

> <Gold.Chemscore.Hbond>
2.5160

> <Gold.Chemscore.Metal>
0.0000

> <Gold.Chemscore.Lipo>
79.9297

> <Gold.Chemscore.Internal_Hbond>
0.0000

> <Gold.Chemscore.DEClash>
0.4138

> <Gold.Chemscore.DEInternal>
0.5848

> <Gold.Chemscore.Rot>
1.4445

> <Gold.Chemscore.Internal.Correction>
   9.000000E+99

> <Gold.Chemscore.Hbonds>
donor molecule, donor type, donor heavy atom, donor atom, acceptor molecule, acceptor atom, score
      L1  H     3    23       P1  7948  0.99
      L1  H    16    40       P1  7948  0.89
      P1  H 10752 10764       L1     9  0.24
      P1  H 10785 10796       L1    20  0.01

> <Gold.Chemscore.Hbond.Weighted>
-8.4036

> <Gold.Chemscore.Metal.Weighted>
-0.0000

> <Gold.Chemscore.Lipo.Weighted>
-9.3518

> <Gold.Chemscore.Internal_Hbond.Weighted>
0.0000

> <Gold.Chemscore.DEClash.Weighted>
0.4138

> <Gold.Chemscore.DEInternal.Weighted>
0.5848

> <Gold.Chemscore.Rot.Weighted>
3.6980

> <Gold.Chemscore.Internal.Correction.Weighted>
   9.000000E+99

> <Gold.Protein.RotatedTorsions>
[ 6907 6896 6895 6894 ] final -137.67 input  -60.11 | X-H torsion
[ 7974 7965 7964 7962 ] final   36.18 input  175.53 | X-H torsion
[ 8008 7997 7996 7995 ] final   71.98 input   59.86 | X-H torsion
[ 10167 10162 10161 10158 ] final   76.54 input  -65.29 | X-H torsion
[ 10718 10713 10712 10709 ] final  148.70 input   66.30 | X-H torsion
[ 10763 10752 10751 10750 ] final  -42.83 input  -60.55 | X-H torsion
[ 11005 11000 10999 10996 ] final -140.80 input  -57.11 | X-H torsion

> <Gold.Protein.ActiveResidues>
 VAL166  LYS551  ARG553  GLY616  TRP617  ASP618  TYR619  PRO620  LYS621  CYS622 
 ASP623  PHE694  ASN695  SER759  ASP760  ASP761  ALA762  ILE779  LEU786  VAL792 
 PHE793  MET794  SER795  GLU796  ALA797  LYS798  CYS799  TRP800  GLU811  SER814 

> <Gold.Protein.RotatedAtoms>
  151.0254  133.5839  159.2666 H   0  0  0  0  0  0  0  0  0  0  0  0  # atno 6907 bound_to 6896
  151.2940  135.0749  159.9224 H   0  0  0  0  0  0  0  0  0  0  0  0  # atno 6908 bound_to 6896
  152.5333  133.9947  159.7921 H   0  0  0  0  0  0  0  0  0  0  0  0  # atno 6909 bound_to 6896
  146.1230  139.6050  142.9277 H   0  0  0  0  0  0  0  0  0  0  0  0  # atno 7974 bound_to 7965
  155.7621  140.3486  155.5203 H   0  0  0  0  0  0  0  0  0  0  0  0  # atno 8008 bound_to 7997
  155.8904  140.1017  157.1443 H   0  0  0  0  0  0  0  0  0  0  0  0  # atno 8009 bound_to 7997
  154.4033  140.1305  156.4295 H   0  0  0  0  0  0  0  0  0  0  0  0  # atno 8010 bound_to 7997
  139.9912  144.5756  150.7816 H   0  0  0  0  0  0  0  0  0  0  0  0  # atno 10167 bound_to 10162
  157.3053  131.0878  151.1359 H   0  0  0  0  0  0  0  0  0  0  0  0  # atno 10718 bound_to 10713
  153.9855  135.6712  153.4752 H   0  0  0  0  0  0  0  0  0  0  0  0  # atno 10763 bound_to 10752
  153.0729  135.4964  154.8339 H   0  0  0  0  0  0  0  0  0  0  0  0  # atno 10764 bound_to 10752
  154.7140  135.3103  154.9115 H   0  0  0  0  0  0  0  0  0  0  0  0  # atno 10765 bound_to 10752
  140.8387  134.2428  157.4821 H   0  0  0  0  0  0  0  0  0  0  0  0  # atno 11005 bound_to 11000
  145.5426  141.0419  143.2322 LP  0  0  0  0  0  0  0  0  0  0  0  0  # atno 17320 bound_to 7965
  144.7615  139.6946  143.7232 LP  0  0  0  0  0  0  0  0  0  0  0  0  # atno 17321 bound_to 7965
  140.7454  143.2875  151.3423 LP  0  0  0  0  0  0  0  0  0  0  0  0  # atno 17342 bound_to 10162
  139.6339  144.0668  152.2499 LP  0  0  0  0  0  0  0  0  0  0  0  0  # atno 17343 bound_to 10162
  157.2702  130.6700  149.6016 LP  0  0  0  0  0  0  0  0  0  0  0  0  # atno 17370 bound_to 10713
  155.9674  130.4481  150.5608 LP  0  0  0  0  0  0  0  0  0  0  0  0  # atno 17371 bound_to 10713
  139.8703  134.9624  156.4428 LP  0  0  0  0  0  0  0  0  0  0  0  0  # atno 17394 bound_to 11000
  140.8919  133.7842  155.9581 LP  0  0  0  0  0  0  0  0  0  0  0  0  # atno 17395 bound_to 11000

$$$$
