AV-unprocessed.smi:2879|AV-procd|sdf|11049|dock7
  -GOLD-   2272015513D 1   1.00000     0.00000
 Structure written by MMmdl.
 44 45  0  0  0  0  0  0  0  0  1 V2000
  148.5926  133.8031  154.6331 C   0  0  0  0  0  0  0  0  0  0  0  0
  149.4137  134.9102  155.2003 C   0  0  0  0  0  0  0  0  0  0  0  0
  150.0887  135.0222  156.3831 C   0  0  0  0  0  0  0  0  0  0  0  0
  150.6795  136.3196  156.3318 C   0  0  0  0  0  0  0  0  0  0  0  0
  151.5493  136.9834  157.3669 C   0  0  0  0  0  0  0  0  0  0  0  0
  151.6426  138.4868  157.0993 C   0  0  0  0  0  0  0  0  0  0  0  0
  152.7399  139.0169  156.9260 O   0  0  0  0  0  0  0  0  0  0  0  0
  150.4843  139.1620  157.0715 N   0  0  0  0  0  0  0  0  0  0  0  0
  150.3588  140.5871  156.7978 C   0  0  0  0  0  0  0  0  0  0  0  0
  150.6746  141.4296  158.0485 C   0  0  0  0  0  0  0  0  0  0  0  0
  150.4324  142.9371  157.8229 C   0  0  0  0  0  0  0  0  0  0  0  0
  150.7709  143.7636  159.0769 C   0  0  0  0  0  0  0  0  0  0  0  0
  152.2123  143.5370  159.5945 C   0  0  0  0  0  0  0  0  0  0  0  0
  153.2478  144.1515  158.6276 C   0  0  0  0  0  0  0  0  0  0  0  0
  152.3680  144.2332  160.9604 C   0  0  0  0  0  0  0  0  0  0  0  0
  152.4566  142.0187  159.7746 C   0  0  0  0  0  0  0  0  0  0  0  0
  152.1209  141.1927  158.5199 C   0  0  0  0  0  0  0  0  0  0  0  0
  150.3875  136.9622  155.2085 N   0  0  0  0  0  0  0  0  0  0  0  0
  149.6186  136.0925  154.5275 N   0  0  0  0  0  0  0  0  0  0  0  0
  149.2440  136.3165  153.6165 H   0  0  0  0  0  0  0  0  0  0  0  0
  148.6243  132.9245  155.2779 H   0  0  0  0  0  0  0  0  0  0  0  0
  148.9610  133.5112  153.6495 H   0  0  0  0  0  0  0  0  0  0  0  0
  147.5509  134.1074  154.5291 H   0  0  0  0  0  0  0  0  0  0  0  0
  150.1563  134.2850  157.1695 H   0  0  0  0  0  0  0  0  0  0  0  0
  151.1570  136.8224  158.3722 H   0  0  0  0  0  0  0  0  0  0  0  0
  152.5500  136.5497  157.3525 H   0  0  0  0  0  0  0  0  0  0  0  0
  149.6292  138.6457  157.2214 H   0  0  0  0  0  0  0  0  0  0  0  0
  151.0420  140.8474  155.9881 H   0  0  0  0  0  0  0  0  0  0  0  0
  149.3490  140.8057  156.4461 H   0  0  0  0  0  0  0  0  0  0  0  0
  150.0090  141.0992  158.8479 H   0  0  0  0  0  0  0  0  0  0  0  0
  151.0217  143.2851  156.9744 H   0  0  0  0  0  0  0  0  0  0  0  0
  149.3904  143.1171  157.5569 H   0  0  0  0  0  0  0  0  0  0  0  0
  150.6076  144.8222  158.8715 H   0  0  0  0  0  0  0  0  0  0  0  0
  150.0599  143.4995  159.8612 H   0  0  0  0  0  0  0  0  0  0  0  0
  154.2639  144.0117  158.9981 H   0  0  0  0  0  0  0  0  0  0  0  0
  153.0889  145.2240  158.5104 H   0  0  0  0  0  0  0  0  0  0  0  0
  153.2047  143.7099  157.6331 H   0  0  0  0  0  0  0  0  0  0  0  0
  153.3695  144.0901  161.3676 H   0  0  0  0  0  0  0  0  0  0  0  0
  151.6596  143.8427  161.6921 H   0  0  0  0  0  0  0  0  0  0  0  0
  152.1962  145.3073  160.8808 H   0  0  0  0  0  0  0  0  0  0  0  0
  153.4920  141.8366  160.0656 H   0  0  0  0  0  0  0  0  0  0  0  0
  151.8455  141.6497  160.5996 H   0  0  0  0  0  0  0  0  0  0  0  0
  152.2675  140.1347  158.7395 H   0  0  0  0  0  0  0  0  0  0  0  0
  152.8187  141.4311  157.7169 H   0  0  0  0  0  0  0  0  0  0  0  0
  1  2  1  0  0  0  0
  1 21  1  0  0  0  0
  1 22  1  0  0  0  0
  1 23  1  0  0  0  0
  2 19  1  0  0  0  0
  2  3  2  0  0  0  0
  3  4  1  0  0  0  0
  3 24  1  0  0  0  0
  4  5  1  0  0  0  0
  4 18  2  0  0  0  0
  5  6  1  0  0  0  0
  5 25  1  0  0  0  0
  5 26  1  0  0  0  0
  6  7  2  0  0  0  0
  6  8  1  0  0  0  0
  8  9  1  0  0  0  0
  8 27  1  0  0  0  0
  9 10  1  0  0  0  0
  9 28  1  0  0  0  0
  9 29  1  0  0  0  0
 10 17  1  0  0  0  0
 10 11  1  0  0  0  0
 10 30  1  0  0  0  0
 11 12  1  0  0  0  0
 11 31  1  0  0  0  0
 11 32  1  0  0  0  0
 12 13  1  0  0  0  0
 12 33  1  0  0  0  0
 12 34  1  0  0  0  0
 13 14  1  0  0  0  0
 13 15  1  0  0  0  0
 13 16  1  0  0  0  0
 14 35  1  0  0  0  0
 14 36  1  0  0  0  0
 14 37  1  0  0  0  0
 15 38  1  0  0  0  0
 15 39  1  0  0  0  0
 15 40  1  0  0  0  0
 16 17  1  0  0  0  0
 16 41  1  0  0  0  0
 16 42  1  0  0  0  0
 17 43  1  0  0  0  0
 17 44  1  0  0  0  0
 18 19  1  0  0  0  0
 19 20  1  0  0  0  0
M  END
> <s_m_source_file>
AV-unprocessed.smi

> <i_m_source_file_index>
2879

> <i_lp_mmshare_version>
43012

> <i_f3d_flags>
0

> <s_epik_input>
W0NIM11jMVtjSF1jKG5bbkhdMSlbQ0gyXUMoPU8pW05IXVtDSDJdW0NIXShbQ0gyXVtDSDJdMilbQ0gyXVtDSDJdQzIoW0NIM10pW0NIM10=

> <s_epik_cmdline>
J2VwaWtfcHl0aG9uJywgJy1waCcsICc3LjAnLCAnLXRuJywgJzgnLCAnLW1hJywgJzIwMCcsICctbWV0YWxfYmluZGluZycsICctaW1hZScsICc8aW5maWxlLm1hZT4nLCAnLW9tYWUnLCAnPG91dGZpbGUubWFlPic=

> <r_lp_tautomer_probability>
0.5

> <r_epik_Ionization_Penalty>
7.93509e-05

> <r_epik_Ionization_Penalty_Charging>
0

> <r_epik_Ionization_Penalty_Neutral>
7.93509e-05

> <r_epik_State_Penalty>
0.41068

> <r_epik_Charging_Adjusted_Penalty>
0.41068

> <i_epik_Tot_Q>
0

> <i_epik_Tot_abs_Q>
0

> <r_epik_Metal_State_Penalty>
0.4107

> <b_epik_Metal_Only>
0

> <s_lp_Force_Field>
OPLS_2005

> <r_lp_Energy>
12.5825

> <b_lp_Chiralities_Consistent>
1

> <s_lp_Variant>
AV-unprocessed.smi:2879-1

> <Gold.Version>
5.8.1

> <Gold.Id.Protein>
6NUR|6NUR_protein|mol2

> <Gold.PLP.Fitness>
40.2199

> <Gold.PLP.PLP>
-34.9306

> <Gold.PLP.part.hbond>
-2.8200

> <Gold.PLP.part.metal>
0.0000

> <Gold.PLP.part.buried>
-4.0087

> <Gold.PLP.part.nonpolar>
-27.9784

> <Gold.PLP.part.repulsive>
0.2073

> <Gold.PLP.ligand.clash>
0.0000

> <Gold.PLP.ligand.torsion>
0.3606

> <Gold.PLP.Chemscore.Hbond>
2.0000

> <Gold.PLP.Chemscore.CHOScore>
0.0000

> <Gold.PLP.Chemscore.Metal>
0.0000

> <Gold.Chemscore.Hbonds>
donor molecule, donor type, donor heavy atom, donor atom, acceptor molecule, acceptor atom, score
      L1  H    19    20       P1  7948  1.00
      P1  H  7997  8008       L1     7  1.00

> <Gold.PLP.Chemscore.Internal.Correction>
0.0105

> <Gold.Rescore>
     Score         DG    S(hbond)    S(metal)    S(lipo)     H(rot)  DE(clash)    DE(int)     intcor
     18.32     -19.83       1.88        0.00     102.77       1.55       0.01       1.51       ----

> <Gold.Chemscore.Fitness>
18.3162

> <Gold.Chemscore.DG>
-19.8308

> <Gold.Chemscore.ZeroCoef>
-5.4800

> <Gold.Chemscore.Hbond>
1.8837

> <Gold.Chemscore.Metal>
0.0000

> <Gold.Chemscore.Lipo>
102.7734

> <Gold.Chemscore.Internal_Hbond>
0.0000

> <Gold.Chemscore.DEClash>
0.0060

> <Gold.Chemscore.DEInternal>
1.5086

> <Gold.Chemscore.Rot>
1.5489

> <Gold.Chemscore.Internal.Correction>
   9.000000E+99

> <Gold.Chemscore.Hbonds>
donor molecule, donor type, donor heavy atom, donor atom, acceptor molecule, acceptor atom, score
      L1  H    19    20       P1  7948  0.90
      P1  H  7997  8008       L1     7  0.98

> <Gold.Chemscore.Hbond.Weighted>
-6.2915

> <Gold.Chemscore.Metal.Weighted>
-0.0000

> <Gold.Chemscore.Lipo.Weighted>
-12.0245

> <Gold.Chemscore.Internal_Hbond.Weighted>
0.0000

> <Gold.Chemscore.DEClash.Weighted>
0.0060

> <Gold.Chemscore.DEInternal.Weighted>
1.5086

> <Gold.Chemscore.Rot.Weighted>
3.9652

> <Gold.Chemscore.Internal.Correction.Weighted>
   9.000000E+99

> <Gold.Protein.RotatedTorsions>
[ 6907 6896 6895 6894 ] final  -48.38 input  -60.11 | X-H torsion
[ 7974 7965 7964 7962 ] final   42.09 input  175.53 | X-H torsion
[ 8008 7997 7996 7995 ] final  -66.24 input   59.86 | X-H torsion
[ 10167 10162 10161 10158 ] final  124.26 input  -65.29 | X-H torsion
[ 10718 10713 10712 10709 ] final -125.15 input   66.30 | X-H torsion
[ 10763 10752 10751 10750 ] final  -57.24 input  -60.55 | X-H torsion
[ 11005 11000 10999 10996 ] final    0.38 input  -57.11 | X-H torsion

> <Gold.Protein.ActiveResidues>
 VAL166  LYS551  ARG553  GLY616  TRP617  ASP618  TYR619  PRO620  LYS621  CYS622 
 ASP623  PHE694  ASN695  SER759  ASP760  ASP761  ALA762  ILE779  LEU786  VAL792 
 PHE793  MET794  SER795  GLU796  ALA797  LYS798  CYS799  TRP800  GLU811  SER814 

> <Gold.Protein.RotatedAtoms>
  150.8912  134.8315  159.7294 H   0  0  0  0  0  0  0  0  0  0  0  0  # atno 6907 bound_to 6896
  152.4838  134.4646  159.9626 H   0  0  0  0  0  0  0  0  0  0  0  0  # atno 6908 bound_to 6896
  151.4708  133.3530  159.2858 H   0  0  0  0  0  0  0  0  0  0  0  0  # atno 6909 bound_to 6896
  146.0769  139.5340  142.9562 H   0  0  0  0  0  0  0  0  0  0  0  0  # atno 7974 bound_to 7965
  154.4722  140.0917  156.7172 H   0  0  0  0  0  0  0  0  0  0  0  0  # atno 8008 bound_to 7997
  155.4694  140.3464  155.4305 H   0  0  0  0  0  0  0  0  0  0  0  0  # atno 8009 bound_to 7997
  156.1057  140.1434  156.9395 H   0  0  0  0  0  0  0  0  0  0  0  0  # atno 8010 bound_to 7997
  139.5752  144.6959  151.3672 H   0  0  0  0  0  0  0  0  0  0  0  0  # atno 10167 bound_to 10162
  156.1650  130.6628  151.0102 H   0  0  0  0  0  0  0  0  0  0  0  0  # atno 10718 bound_to 10713
  154.2193  135.6380  153.5139 H   0  0  0  0  0  0  0  0  0  0  0  0  # atno 10763 bound_to 10752
  152.9972  135.5493  154.6131 H   0  0  0  0  0  0  0  0  0  0  0  0  # atno 10764 bound_to 10752
  154.5587  135.2907  155.0913 H   0  0  0  0  0  0  0  0  0  0  0  0  # atno 10765 bound_to 10752
  140.6272  133.9608  155.8255 H   0  0  0  0  0  0  0  0  0  0  0  0  # atno 11005 bound_to 11000
  145.6290  141.0308  143.1874 LP  0  0  0  0  0  0  0  0  0  0  0  0  # atno 17320 bound_to 7965
  144.7267  139.7852  143.7362 LP  0  0  0  0  0  0  0  0  0  0  0  0  # atno 17321 bound_to 7965
  140.7035  143.7573  150.7442 LP  0  0  0  0  0  0  0  0  0  0  0  0  # atno 17342 bound_to 10162
  140.1090  143.4716  152.2381 LP  0  0  0  0  0  0  0  0  0  0  0  0  # atno 17343 bound_to 10162
  157.6761  131.0850  150.7491 LP  0  0  0  0  0  0  0  0  0  0  0  0  # atno 17370 bound_to 10713
  156.7552  130.4781  149.5448 LP  0  0  0  0  0  0  0  0  0  0  0  0  # atno 17371 bound_to 10713
  141.0701  134.0218  157.3538 LP  0  0  0  0  0  0  0  0  0  0  0  0  # atno 17394 bound_to 11000
  139.9130  135.0193  156.7769 LP  0  0  0  0  0  0  0  0  0  0  0  0  # atno 17395 bound_to 11000

$$$$
