AV-unprocessed.smi:49|AV-procd|sdf|465|dock1
  -GOLD-   2262016333D 1   1.00000     0.00000
 Structure written by MMmdl.
 28 29  0  0  0  0  0  0  0  0  2 V2000
  153.4332  142.0634  161.2338 C   0  0  0  0  0  0  0  0  0  0  0  0
  152.5530  143.2462  160.8159 C   0  0  0  0  0  0  0  0  0  0  0  0
  151.9063  143.0405  159.4853 C   0  0  0  0  0  0  0  0  0  0  0  0
  151.0905  142.0376  159.1774 N   0  0  0  0  0  0  0  0  0  0  0  0
  150.7914  142.3542  157.8819 C   0  0  0  0  0  0  0  0  0  0  0  0
  149.9213  141.4840  157.0294 C   0  0  2  0  0  0  0  0  0  0  0  0
  150.6056  141.0125  155.7435 C   0  0  0  0  0  0  0  0  0  0  0  0
  149.4202  140.6987  154.8365 C   0  0  2  0  0  0  0  0  0  0  0  0
  149.7746  140.7242  153.4702 O   0  0  0  0  0  0  0  0  0  0  0  0
  148.4083  141.7920  155.1938 C   0  0  0  0  0  0  0  0  0  0  0  0
  148.6778  142.1576  156.5991 N   0  3  0  0  0  0  0  0  0  0  0  0
  151.3769  143.4516  157.4005 N   0  0  0  0  0  0  0  0  0  0  0  0
  152.0843  143.8836  158.4661 N   0  0  0  0  0  0  0  0  0  0  0  0
  149.6222  140.6086  157.6080 H   0  0  0  0  0  0  0  0  0  0  0  0
  149.0121  139.7190  155.0899 H   0  0  0  0  0  0  0  0  0  0  0  0
  152.6557  144.7167  158.4503 H   0  0  0  0  0  0  0  0  0  0  0  0
  153.8966  142.2477  162.2032 H   0  0  0  0  0  0  0  0  0  0  0  0
  154.2311  141.8914  160.5110 H   0  0  0  0  0  0  0  0  0  0  0  0
  152.8484  141.1465  161.3130 H   0  0  0  0  0  0  0  0  0  0  0  0
  151.7797  143.4171  161.5658 H   0  0  0  0  0  0  0  0  0  0  0  0
  153.1519  144.1567  160.7752 H   0  0  0  0  0  0  0  0  0  0  0  0
  151.1904  141.8275  155.3124 H   0  0  0  0  0  0  0  0  0  0  0  0
  151.2742  140.1653  155.8994 H   0  0  0  0  0  0  0  0  0  0  0  0
  149.3887  139.9749  153.0416 H   0  0  0  0  0  0  0  0  0  0  0  0
  148.5676  142.6819  154.5830 H   0  0  0  0  0  0  0  0  0  0  0  0
  147.3771  141.4674  155.0524 H   0  0  0  0  0  0  0  0  0  0  0  0
  147.9138  141.8773  157.1967 H   0  0  0  0  0  0  0  0  0  0  0  0
  148.8062  143.1581  156.6569 H   0  0  0  0  0  0  0  0  0  0  0  0
  1  2  1  0  0  0  0
  1 17  1  0  0  0  0
  1 18  1  0  0  0  0
  1 19  1  0  0  0  0
  2  3  1  0  0  0  0
  2 20  1  0  0  0  0
  2 21  1  0  0  0  0
  3 13  1  0  0  0  0
  3  4  2  0  0  0  0
  4  5  1  0  0  0  0
  5  6  1  0  0  0  0
  5 12  2  0  0  0  0
  6 14  1  0  0  0  0
  6 11  1  0  0  0  0
  6  7  1  0  0  0  0
  7  8  1  0  0  0  0
  7 22  1  0  0  0  0
  7 23  1  0  0  0  0
  8 15  1  0  0  0  0
  8  9  1  0  0  0  0
  8 10  1  0  0  0  0
  9 24  1  0  0  0  0
 10 11  1  0  0  0  0
 10 25  1  0  0  0  0
 10 26  1  0  0  0  0
 11 27  1  0  0  0  0
 11 28  1  0  0  0  0
 12 13  1  0  0  0  0
 13 16  1  0  0  0  0
M  CHG  1  11   1
M  END
> <s_m_source_file>
AV-unprocessed.smi

> <i_m_source_file_index>
49

> <i_lp_mmshare_version>
43012

> <i_f3d_flags>
0

> <s_epik_input>
W0NIM11bQ0gyXWMxbmMobltuSF0xKVtDQEBIXTJbQ0gyXVtDQEBIXShbT0hdKVtDSDJdW05IXTI=

> <s_epik_cmdline>
J2VwaWtfcHl0aG9uJywgJy1waCcsICc3LjAnLCAnLXRuJywgJzgnLCAnLW1hJywgJzIwMCcsICctbWV0YWxfYmluZGluZycsICctaW1hZScsICc8aW5maWxlLm1hZT4nLCAnLW9tYWUnLCAnPG91dGZpbGUubWFlPic=

> <r_lp_tautomer_probability>
0.948284

> <r_epik_Ionization_Penalty>
0.045643

> <r_epik_Ionization_Penalty_Charging>
0.0371552

> <r_epik_Ionization_Penalty_Neutral>
0.00848778

> <r_epik_State_Penalty>
0.283309

> <r_epik_Charging_Adjusted_Penalty>
0.320465

> <i_epik_Tot_Q>
1

> <i_epik_Tot_abs_Q>
1

> <r_epik_Metal_State_Penalty>
0.558162

> <b_epik_Metal_Only>
0

> <s_lp_Force_Field>
OPLS_2005

> <r_lp_Energy>
16.4717

> <b_lp_Chiralities_Consistent>
1

> <s_lp_Variant>
AV-unprocessed.smi:49-3

> <Gold.Version>
5.8.1

> <Gold.Id.Protein>
6NUR|6NUR_protein|mol2

> <Gold.PLP.Fitness>
38.1374

> <Gold.PLP.PLP>
-27.9640

> <Gold.PLP.part.hbond>
-3.7461

> <Gold.PLP.part.metal>
0.0000

> <Gold.PLP.part.buried>
-2.6077

> <Gold.PLP.part.nonpolar>
-20.8985

> <Gold.PLP.part.repulsive>
0.1547

> <Gold.PLP.ligand.clash>
0.0000

> <Gold.PLP.ligand.torsion>
0.0438

> <Gold.PLP.Chemscore.Hbond>
3.4160

> <Gold.PLP.Chemscore.CHOScore>
0.0000

> <Gold.PLP.Chemscore.Metal>
0.0000

> <Gold.Chemscore.Hbonds>
donor molecule, donor type, donor heavy atom, donor atom, acceptor molecule, acceptor atom, score
      L1  H     9    24       P1  7957  0.24
      L1  H    11    28       P1  8028  1.79
      P1  H  7989  7998       L1     9  0.37
      P1  H  8011  8017       L1     9  0.99

> <Gold.PLP.Chemscore.Internal.Correction>
0.0131

> <Gold.Rescore>
     Score         DG    S(hbond)    S(metal)    S(lipo)     H(rot)  DE(clash)    DE(int)     intcor
     13.03     -13.37       2.08        0.00      49.49       1.89       0.33       0.01       ----

> <Gold.Chemscore.Fitness>
13.0319

> <Gold.Chemscore.DG>
-13.3702

> <Gold.Chemscore.ZeroCoef>
-5.4800

> <Gold.Chemscore.Hbond>
2.0760

> <Gold.Chemscore.Metal>
0.0000

> <Gold.Chemscore.Lipo>
49.4892

> <Gold.Chemscore.Internal_Hbond>
0.0000

> <Gold.Chemscore.DEClash>
0.3263

> <Gold.Chemscore.DEInternal>
0.0120

> <Gold.Chemscore.Rot>
1.8883

> <Gold.Chemscore.Internal.Correction>
   9.000000E+99

> <Gold.Chemscore.Hbonds>
donor molecule, donor type, donor heavy atom, donor atom, acceptor molecule, acceptor atom, score
      L1  H     9    24       P1  7957  0.24
      L1  H    11    28       P1  8028  0.76
      P1  H  7989  7998       L1     9  0.17
      P1  H  8011  8017       L1     9  0.80

> <Gold.Chemscore.Hbond.Weighted>
-6.9339

> <Gold.Chemscore.Metal.Weighted>
-0.0000

> <Gold.Chemscore.Lipo.Weighted>
-5.7902

> <Gold.Chemscore.Internal_Hbond.Weighted>
0.0000

> <Gold.Chemscore.DEClash.Weighted>
0.3263

> <Gold.Chemscore.DEInternal.Weighted>
0.0120

> <Gold.Chemscore.Rot.Weighted>
4.8340

> <Gold.Chemscore.Internal.Correction.Weighted>
   9.000000E+99

> <Gold.Protein.RotatedTorsions>
[ 6907 6896 6895 6894 ] final  -79.35 input  -60.11 | X-H torsion
[ 7974 7965 7964 7962 ] final   83.96 input  175.53 | X-H torsion
[ 8008 7997 7996 7995 ] final   26.63 input   59.86 | X-H torsion
[ 10167 10162 10161 10158 ] final    8.78 input  -65.29 | X-H torsion
[ 10718 10713 10712 10709 ] final   -9.77 input   66.30 | X-H torsion
[ 10763 10752 10751 10750 ] final   -6.26 input  -60.55 | X-H torsion
[ 11005 11000 10999 10996 ] final   94.24 input  -57.11 | X-H torsion

> <Gold.Protein.ActiveResidues>
 VAL166  LYS551  ARG553  GLY616  TRP617  ASP618  TYR619  PRO620  LYS621  CYS622 
 ASP623  PHE694  ASN695  SER759  ASP760  ASP761  ALA762  ILE779  LEU786  VAL792 
 PHE793  MET794  SER795  GLU796  ALA797  LYS798  CYS799  TRP800  GLU811  SER814 

> <Gold.Protein.RotatedAtoms>
  150.6952  134.4134  159.5171 H   0  0  0  0  0  0  0  0  0  0  0  0  # atno 6907 bound_to 6896
  152.1889  134.8687  160.0528 H   0  0  0  0  0  0  0  0  0  0  0  0  # atno 6908 bound_to 6896
  151.9649  133.3672  159.4086 H   0  0  0  0  0  0  0  0  0  0  0  0  # atno 6909 bound_to 6896
  145.6051  139.2359  143.2224 H   0  0  0  0  0  0  0  0  0  0  0  0  # atno 7974 bound_to 7965
  155.0303  140.3158  155.4761 H   0  0  0  0  0  0  0  0  0  0  0  0  # atno 8008 bound_to 7997
  156.2875  140.2181  156.5367 H   0  0  0  0  0  0  0  0  0  0  0  0  # atno 8009 bound_to 7997
  154.7376  140.0476  157.0770 H   0  0  0  0  0  0  0  0  0  0  0  0  # atno 8010 bound_to 7997
  140.6294  143.8027  150.7276 H   0  0  0  0  0  0  0  0  0  0  0  0  # atno 10167 bound_to 10162
  156.6832  130.5043  149.5965 H   0  0  0  0  0  0  0  0  0  0  0  0  # atno 10718 bound_to 10713
  153.4099  135.7007  153.6366 H   0  0  0  0  0  0  0  0  0  0  0  0  # atno 10763 bound_to 10752
  153.4865  135.3682  155.2470 H   0  0  0  0  0  0  0  0  0  0  0  0  # atno 10764 bound_to 10752
  154.8716  135.4078  154.3449 H   0  0  0  0  0  0  0  0  0  0  0  0  # atno 10765 bound_to 10752
  139.8801  134.8834  156.3834 H   0  0  0  0  0  0  0  0  0  0  0  0  # atno 11005 bound_to 11000
  146.1547  140.6875  142.9305 LP  0  0  0  0  0  0  0  0  0  0  0  0  # atno 17320 bound_to 7965
  144.7293  140.4623  143.6949 LP  0  0  0  0  0  0  0  0  0  0  0  0  # atno 17321 bound_to 7965
  140.1635  143.4255  152.2050 LP  0  0  0  0  0  0  0  0  0  0  0  0  # atno 17342 bound_to 10162
  139.5510  144.7337  151.4435 LP  0  0  0  0  0  0  0  0  0  0  0  0  # atno 17343 bound_to 10162
  156.1852  130.6524  151.0998 LP  0  0  0  0  0  0  0  0  0  0  0  0  # atno 17370 bound_to 10713
  157.7036  131.0766  150.6741 LP  0  0  0  0  0  0  0  0  0  0  0  0  # atno 17371 bound_to 10713
  140.9383  133.7532  156.0113 LP  0  0  0  0  0  0  0  0  0  0  0  0  # atno 17394 bound_to 11000
  140.8250  134.3245  157.5369 LP  0  0  0  0  0  0  0  0  0  0  0  0  # atno 17395 bound_to 11000

$$$$
