#       Name:                AV-unprocessed.smi:5
#       Creating user name   scv26
#       Creation time:       Thu Mar 26 15:15:23 2020


#       File generated by GOLD software.
#

@<TRIPOS>MOLECULE
AV-unprocessed.smi:5
    50    51     1
SMALL
NO_CHARGES


@<TRIPOS>ATOM
      1 ****        -0.2101   3.4414  -2.8205 C.3            1 S1                 0.0000
      2 ****        -0.9076   2.7231  -1.6836 C.2            1 S1                 0.0000
      3 ****        -0.6328   2.9786  -0.3898 C.2            1 S1                 0.0000
      4 ****        -1.3427   2.2792   0.7562 C.3            1 S1                 0.0000
      5 ****        -2.5758   1.5009   0.2597 C.3            1 S1                 0.0000
      6 ****        -2.2332   0.7596  -0.9671 N.am           1 S1                 0.0000
      7 ****        -2.0417  -0.5813  -1.0568 C.2            1 S1                 0.0000
      8 ****        -1.7295  -1.1519  -2.1027 O.2            1 S1                 0.0000
      9 ****        -2.1592  -1.2417   0.1085 N.am           1 S1                 0.0000
     10 ****        -1.7817  -2.6354   0.3318 C.3            1 S1                 0.0000
     11 ****        -0.2918  -2.8282   0.6226 C.2            1 S1                 0.0000
     12 ****         0.5934  -1.8145   0.7557 C.2            1 S1                 0.0000
     13 ****         1.9619  -2.0158   1.0119 N.am           1 S1                 0.0000
     14 ****         2.8235  -0.8169   1.1186 C.3            1 S1                 0.0000
     15 ****         2.4506   0.0274   2.3502 C.3            1 S1                 0.0000
     16 ****         2.8135   0.0084  -0.1827 C.3            1 S1                 0.0000
     17 ****         2.4357  -3.2907   1.1570 C.2            1 S1                 0.0000
     18 ****         3.6302  -3.4691   1.3957 O.2            1 S1                 0.0000
     19 ****         1.5635  -4.3370   1.0335 N.pl3          1 S1                -1.0000
     20 ****         0.2328  -4.1873   0.7740 C.2            1 S1                 0.0000
     21 ****        -0.5275  -5.1494   0.6698 O.2            1 S1                 0.0000
     22 ****        -1.9310   1.6654  -2.0892 C.3            1 S1                 0.0000
     23 ****        -0.9418   3.9394  -3.4569 H              1 S1                 0.0000
     24 ****         0.3496   2.7315  -3.4297 H              1 S1                 0.0000
     25 ****         0.4863   4.1937  -2.4487 H              1 S1                 0.0000
     26 ****         0.1167   3.7094  -0.1233 H              1 S1                 0.0000
     27 ****        -0.6345   1.6032   1.2362 H              1 S1                 0.0000
     28 ****        -1.6405   3.0164   1.5021 H              1 S1                 0.0000
     29 ****        -2.9858   0.8849   1.0601 H              1 S1                 0.0000
     30 ****        -3.3705   2.2070   0.0138 H              1 S1                 0.0000
     31 ****        -2.4276  -0.7103   0.9237 H              1 S1                 0.0000
     32 ****        -2.3536  -3.0086   1.1817 H              1 S1                 0.0000
     33 ****        -2.0698  -3.2429  -0.5281 H              1 S1                 0.0000
     34 ****         0.3102  -0.7772   0.6735 H              1 S1                 0.0000
     35 ****         3.8642  -1.1072   1.2646 H              1 S1                 0.0000
     36 ****         3.1429   0.8606   2.4735 H              1 S1                 0.0000
     37 ****         2.4935  -0.5713   3.2606 H              1 S1                 0.0000
     38 ****         1.4473   0.4462   2.2730 H              1 S1                 0.0000
     39 ****         3.5395   0.8199  -0.1305 H              1 S1                 0.0000
     40 ****         1.8414   0.4589  -0.3839 H              1 S1                 0.0000
     41 ****         3.0781  -0.6116  -1.0398 H              1 S1                 0.0000
     42 ****        -2.8457   2.1596  -2.4181 H              1 S1                 0.0000
     43 ****        -1.5403   1.1333  -2.9574 H              1 S1                 0.0000
     44 ****        -1.6046  -0.6235  -2.9425 LP             1 S1                 0.0000
     45 ****        -1.6009  -2.1435  -2.1121 LP             1 S1                 0.0000
     46 ****         4.2453  -2.6854   1.4820 LP             1 S1                 0.0000
     47 ****         3.9853  -4.3977   1.5033 LP             1 S1                 0.0000
     48 ****         1.9218  -5.2646   1.1395 LP             1 S1                 0.0000
     49 ****        -1.4986  -5.0013   0.4826 LP             1 S1                 0.0000
     50 ****        -0.1742  -6.0793   0.7724 LP             1 S1                 0.0000
@<TRIPOS>BOND
    1    1    2 1     
    2    1   23 1     
    3    1   24 1     
    4    1   25 1     
    5    2   22 1     
    6    2    3 2     
    7    3    4 1     
    8    3   26 1     
    9    4    5 1     
   10    4   27 1     
   11    4   28 1     
   12    5    6 1     
   13    5   29 1     
   14    5   30 1     
   15    6    7 am    
   16    6   22 1     
   17    7    8 2     
   18    7    9 am    
   19    9   10 1     
   20    9   31 1     
   21   10   11 1     
   22   10   32 1     
   23   10   33 1     
   24   11   20 1     
   25   11   12 2     
   26   12   13 1     
   27   12   34 1     
   28   13   14 1     
   29   13   17 am    
   30   14   15 1     
   31   14   16 1     
   32   14   35 1     
   33   15   36 1     
   34   15   37 1     
   35   15   38 1     
   36   16   39 1     
   37   16   40 1     
   38   16   41 1     
   39   17   18 2     
   40   17   19 1     
   41   19   20 1     
   42   20   21 2     
   43   22   42 1     
   44   22   43 1     
   45    8   44 1     
   46    8   45 1     
   47   18   46 1     
   48   18   47 1     
   49   19   48 1     
   50   21   49 1     
   51   21   50 1     
@<TRIPOS>SUBSTRUCTURE
      1 S1             1
@<TRIPOS>SET
LONE_PAIRS      STATIC     ATOMS    <user>   **** ""
7 44 45 46 47 48 49 50
DONOR_HYDROGENS      STATIC     ATOMS    <user>   **** ""
1 31
ATOM$BLUE        STATIC     ATOMS    COLORGROUP SYSTEM
7 44 45 46 47 48 49 50
ATOM$RED        STATIC     ATOMS    COLORGROUP SYSTEM
1 31
