AV-unprocessed.smi:2346|AV-procd|sdf|9367|dock1
  -GOLD-   2272012593D 1   1.00000     0.00000
 Structure written by MMmdl.
 45 47  0  0  0  0  0  0  0  0  2 V2000
  148.5582  133.0479  157.2182 C   0  0  0  0  0  0  0  0  0  0  0  0
  148.9172  134.3833  157.5413 O   0  0  0  0  0  0  0  0  0  0  0  0
  148.5927  134.8651  158.7929 C   0  0  0  0  0  0  0  0  0  0  0  0
  147.8966  134.1080  159.7695 C   0  0  0  0  0  0  0  0  0  0  0  0
  147.5987  134.6645  161.0286 C   0  0  0  0  0  0  0  0  0  0  0  0
  146.8831  133.8808  162.0215 C   0  0  0  0  0  0  0  0  0  0  0  0
  146.3138  133.2567  162.8121 N   0  0  0  0  0  0  0  0  0  0  0  0
  147.9943  135.9822  161.3225 C   0  0  0  0  0  0  0  0  0  0  0  0
  148.6861  136.7403  160.3610 C   0  0  0  0  0  0  0  0  0  0  0  0
  148.9910  136.1887  159.0911 C   0  0  0  0  0  0  0  0  0  0  0  0
  149.6663  136.8738  158.1021 O   0  0  0  0  0  0  0  0  0  0  0  0
  149.9787  138.2420  158.3174 C   0  0  0  0  0  0  0  0  0  0  0  0
  150.8554  138.7252  157.1563 C   0  0  0  0  0  0  0  0  0  0  0  0
  150.8277  140.1881  157.0248 N   0  0  0  0  0  0  0  0  0  0  0  0
  150.2579  140.9789  156.0690 C   0  0  0  0  0  0  0  0  0  0  0  0
  149.4666  140.5246  154.8803 C   0  0  2  0  0  0  0  0  0  0  0  0
  148.2202  139.7283  155.2946 C   0  0  0  0  0  0  0  0  0  0  0  0
  150.2438  139.7279  154.0133 O   0  0  0  0  0  0  0  0  0  0  0  0
  150.5009  142.2731  156.4248 N   0  3  0  0  0  0  0  0  0  0  0  0
  151.2577  142.3101  157.5959 C   0  0  0  0  0  0  0  0  0  0  0  0
  151.7543  143.3854  158.3260 C   0  0  0  0  0  0  0  0  0  0  0  0
  152.4995  143.0746  159.4823 C   0  0  0  0  0  0  0  0  0  0  0  0
  152.7253  141.7386  159.8729 C   0  0  0  0  0  0  0  0  0  0  0  0
  152.2133  140.6566  159.1260 C   0  0  0  0  0  0  0  0  0  0  0  0
  151.4764  140.9730  157.9848 C   0  0  0  0  0  0  0  0  0  0  0  0
  148.8841  132.8249  156.2024 H   0  0  0  0  0  0  0  0  0  0  0  0
  147.4775  132.9051  157.2561 H   0  0  0  0  0  0  0  0  0  0  0  0
  149.0420  132.3320  157.8841 H   0  0  0  0  0  0  0  0  0  0  0  0
  147.5815  133.0946  159.5699 H   0  0  0  0  0  0  0  0  0  0  0  0
  147.7698  136.4196  162.2850 H   0  0  0  0  0  0  0  0  0  0  0  0
  148.9713  137.7474  160.6242 H   0  0  0  0  0  0  0  0  0  0  0  0
  149.0654  138.8369  158.3672 H   0  0  0  0  0  0  0  0  0  0  0  0
  150.5180  138.3615  159.2586 H   0  0  0  0  0  0  0  0  0  0  0  0
  151.8911  138.4235  157.3145 H   0  0  0  0  0  0  0  0  0  0  0  0
  150.5469  138.2725  156.2136 H   0  0  0  0  0  0  0  0  0  0  0  0
  149.1398  141.4002  154.3193 H   0  0  0  0  0  0  0  0  0  0  0  0
  147.5757  140.3209  155.9447 H   0  0  0  0  0  0  0  0  0  0  0  0
  148.4835  138.8143  155.8280 H   0  0  0  0  0  0  0  0  0  0  0  0
  147.6312  139.4421  154.4225 H   0  0  0  0  0  0  0  0  0  0  0  0
  149.7824  139.6385  153.1931 H   0  0  0  0  0  0  0  0  0  0  0  0
  151.5833  144.4095  158.0278 H   0  0  0  0  0  0  0  0  0  0  0  0
  152.9063  143.8769  160.0810 H   0  0  0  0  0  0  0  0  0  0  0  0
  153.3021  141.5390  160.7644 H   0  0  0  0  0  0  0  0  0  0  0  0
  152.3930  139.6374  159.4346 H   0  0  0  0  0  0  0  0  0  0  0  0
  150.1724  143.0715  155.8968 H   0  0  0  0  0  0  0  0  0  0  0  0
  1  2  1  0  0  0  0
  1 26  1  0  0  0  0
  1 27  1  0  0  0  0
  1 28  1  0  0  0  0
  2  3  1  0  0  0  0
  3 10  1  0  0  0  0
  3  4  2  0  0  0  0
  4  5  1  0  0  0  0
  4 29  1  0  0  0  0
  5  6  1  0  0  0  0
  5  8  2  0  0  0  0
  6  7  3  0  0  0  0
  8  9  1  0  0  0  0
  8 30  1  0  0  0  0
  9 10  2  0  0  0  0
  9 31  1  0  0  0  0
 10 11  1  0  0  0  0
 11 12  1  0  0  0  0
 12 13  1  0  0  0  0
 12 32  1  0  0  0  0
 12 33  1  0  0  0  0
 13 14  1  0  0  0  0
 13 34  1  0  0  0  0
 13 35  1  0  0  0  0
 14 25  1  0  0  0  0
 14 15  1  0  0  0  0
 15 16  1  0  0  0  0
 15 19  2  0  0  0  0
 16 17  1  0  0  0  0
 16 18  1  0  0  0  0
 16 36  1  0  0  0  0
 17 37  1  0  0  0  0
 17 38  1  0  0  0  0
 17 39  1  0  0  0  0
 18 40  1  0  0  0  0
 19 20  1  0  0  0  0
 19 45  1  0  0  0  0
 20 25  2  0  0  0  0
 20 21  1  0  0  0  0
 21 22  2  0  0  0  0
 21 41  1  0  0  0  0
 22 23  1  0  0  0  0
 22 42  1  0  0  0  0
 23 24  2  0  0  0  0
 23 43  1  0  0  0  0
 24 25  1  0  0  0  0
 24 44  1  0  0  0  0
M  CHG  1  19   1
M  END
> <s_m_source_file>
AV-unprocessed.smi

> <i_m_source_file_index>
2346

> <i_lp_mmshare_version>
43012

> <i_f3d_flags>
0

> <s_epik_input>
W0NIM11PYzFbY0hdYyhDI04pW2NIXVtjSF1jMU9bQ0gyXVtDSDJdbihjKG4yKVtDQEhdKFtDSDNdKVtPSF0pYyhjMjMpW2NIXVtjSF1bY0hdW2NIXTM=

> <s_epik_cmdline>
J2VwaWtfcHl0aG9uJywgJy1waCcsICc3LjAnLCAnLXRuJywgJzgnLCAnLW1hJywgJzIwMCcsICctbWV0YWxfYmluZGluZycsICctaW1hZScsICc8aW5maWxlLm1hZT4nLCAnLW9tYWUnLCAnPG91dGZpbGUubWFlPic=

> <r_epik_Ionization_Penalty>
1.58928

> <r_epik_Ionization_Penalty_Charging>
1.58925

> <r_epik_Ionization_Penalty_Neutral>
2.92192e-05

> <r_epik_State_Penalty>
1.68649

> <r_epik_Charging_Adjusted_Penalty>
3.27574

> <i_epik_Tot_Q>
1

> <i_epik_Tot_abs_Q>
1

> <r_epik_Metal_State_Penalty>
5.74385

> <b_epik_Metal_Only>
0

> <s_lp_Force_Field>
OPLS_2005

> <r_lp_Energy>
24.6554

> <b_lp_Chiralities_Consistent>
1

> <s_lp_Variant>
AV-unprocessed.smi:2346-3

> <Gold.Version>
5.8.1

> <Gold.Id.Protein>
6NUR|6NUR_protein|mol2

> <Gold.PLP.Fitness>
53.6365

> <Gold.PLP.PLP>
-42.0131

> <Gold.PLP.part.hbond>
-3.7693

> <Gold.PLP.part.metal>
0.0000

> <Gold.PLP.part.buried>
-3.6406

> <Gold.PLP.part.nonpolar>
-36.3630

> <Gold.PLP.part.repulsive>
0.1175

> <Gold.PLP.ligand.clash>
0.0000

> <Gold.PLP.ligand.torsion>
0.2555

> <Gold.PLP.Chemscore.Hbond>
3.9600

> <Gold.PLP.Chemscore.CHOScore>
0.0000

> <Gold.PLP.Chemscore.Metal>
0.0000

> <Gold.Chemscore.Hbonds>
donor molecule, donor type, donor heavy atom, donor atom, acceptor molecule, acceptor atom, score
      L1  H    18    40       P1  7957  0.89
      L1  H    19    45       P1  8028  1.66
      P1  H  7989  7998       L1    18  0.95

> <Gold.PLP.Chemscore.Internal.Correction>
0.2544

> <Gold.Rescore>
     Score         DG    S(hbond)    S(metal)    S(lipo)     H(rot)  DE(clash)    DE(int)     intcor
     18.25     -18.54       2.29        0.00     104.28       2.65       0.01       0.29       ----

> <Gold.Chemscore.Fitness>
18.2450

> <Gold.Chemscore.DG>
-18.5449

> <Gold.Chemscore.ZeroCoef>
-5.4800

> <Gold.Chemscore.Hbond>
2.2875

> <Gold.Chemscore.Metal>
0.0000

> <Gold.Chemscore.Lipo>
104.2757

> <Gold.Chemscore.Internal_Hbond>
0.0000

> <Gold.Chemscore.DEClash>
0.0115

> <Gold.Chemscore.DEInternal>
0.2883

> <Gold.Chemscore.Rot>
2.6467

> <Gold.Chemscore.Internal.Correction>
   9.000000E+99

> <Gold.Chemscore.Hbonds>
donor molecule, donor type, donor heavy atom, donor atom, acceptor molecule, acceptor atom, score
      L1  H    18    40       P1  7957  0.81
      L1  H    19    45       P1  8028  0.77
      P1  H  7989  7998       L1    18  0.09

> <Gold.Chemscore.Hbond.Weighted>
-7.6402

> <Gold.Chemscore.Metal.Weighted>
-0.0000

> <Gold.Chemscore.Lipo.Weighted>
-12.2003

> <Gold.Chemscore.Internal_Hbond.Weighted>
0.0000

> <Gold.Chemscore.DEClash.Weighted>
0.0115

> <Gold.Chemscore.DEInternal.Weighted>
0.2883

> <Gold.Chemscore.Rot.Weighted>
6.7756

> <Gold.Chemscore.Internal.Correction.Weighted>
   9.000000E+99

> <Gold.Protein.RotatedTorsions>
[ 6907 6896 6895 6894 ] final  154.46 input  -60.11 | X-H torsion
[ 7974 7965 7964 7962 ] final   43.70 input  175.53 | X-H torsion
[ 8008 7997 7996 7995 ] final  -64.11 input   59.86 | X-H torsion
[ 10167 10162 10161 10158 ] final   56.60 input  -65.29 | X-H torsion
[ 10718 10713 10712 10709 ] final -163.55 input   66.30 | X-H torsion
[ 10763 10752 10751 10750 ] final  -43.25 input  -60.55 | X-H torsion
[ 11005 11000 10999 10996 ] final  -93.05 input  -57.11 | X-H torsion

> <Gold.Protein.ActiveResidues>
 VAL166  LYS551  ARG553  GLY616  TRP617  ASP618  TYR619  PRO620  LYS621  CYS622 
 ASP623  PHE694  ASN695  SER759  ASP760  ASP761  ALA762  ILE779  LEU786  VAL792 
 PHE793  MET794  SER795  GLU796  ALA797  LYS798  CYS799  TRP800  GLU811  SER814 

> <Gold.Protein.RotatedAtoms>
  152.0582  133.4050  159.4405 H   0  0  0  0  0  0  0  0  0  0  0  0  # atno 6907 bound_to 6896
  150.6867  134.3231  159.4804 H   0  0  0  0  0  0  0  0  0  0  0  0  # atno 6908 bound_to 6896
  152.1049  134.9315  160.0619 H   0  0  0  0  0  0  0  0  0  0  0  0  # atno 6909 bound_to 6896
  146.0633  139.5157  142.9644 H   0  0  0  0  0  0  0  0  0  0  0  0  # atno 7974 bound_to 7965
  154.4592  140.0961  156.6846 H   0  0  0  0  0  0  0  0  0  0  0  0  # atno 8008 bound_to 7997
  155.5044  140.3474  155.4358 H   0  0  0  0  0  0  0  0  0  0  0  0  # atno 8009 bound_to 7997
  156.0838  140.1380  156.9667 H   0  0  0  0  0  0  0  0  0  0  0  0  # atno 8010 bound_to 7997
  140.2069  144.3929  150.6505 H   0  0  0  0  0  0  0  0  0  0  0  0  # atno 10167 bound_to 10162
  156.6263  130.8911  151.2968 H   0  0  0  0  0  0  0  0  0  0  0  0  # atno 10718 bound_to 10713
  153.9924  135.6703  153.4755 H   0  0  0  0  0  0  0  0  0  0  0  0  # atno 10763 bound_to 10752
  153.0699  135.4980  154.8278 H   0  0  0  0  0  0  0  0  0  0  0  0  # atno 10764 bound_to 10752
  154.7101  135.3095  154.9172 H   0  0  0  0  0  0  0  0  0  0  0  0  # atno 10765 bound_to 10752
  141.1507  133.7861  157.0105 H   0  0  0  0  0  0  0  0  0  0  0  0  # atno 11005 bound_to 11000
  145.6522  141.0260  143.1754 LP  0  0  0  0  0  0  0  0  0  0  0  0  # atno 17320 bound_to 7965
  144.7187  139.8104  143.7389 LP  0  0  0  0  0  0  0  0  0  0  0  0  # atno 17321 bound_to 7965
  140.6351  143.2193  151.6413 LP  0  0  0  0  0  0  0  0  0  0  0  0  # atno 17342 bound_to 10162
  139.5195  144.3252  152.0875 LP  0  0  0  0  0  0  0  0  0  0  0  0  # atno 17343 bound_to 10162
  157.7213  130.9562  150.1450 LP  0  0  0  0  0  0  0  0  0  0  0  0  # atno 17370 bound_to 10713
  156.2270  130.3679  149.8489 LP  0  0  0  0  0  0  0  0  0  0  0  0  # atno 17371 bound_to 10713
  140.0881  134.9609  157.1732 LP  0  0  0  0  0  0  0  0  0  0  0  0  # atno 17394 bound_to 11000
  140.3484  134.2626  155.7202 LP  0  0  0  0  0  0  0  0  0  0  0  0  # atno 17395 bound_to 11000

$$$$
