AV-unprocessed.smi:3259|AV-procd|sdf|12472|dock4
  -GOLD-   2272018373D 1   1.00000     0.00000
 Structure written by MMmdl.
 39 40  0  0  0  0  0  0  0  0  1 V2000
  148.7785  140.6574  154.3339 C   0  0  0  0  0  0  0  0  0  0  0  0
  150.1570  140.7026  154.6786 O   0  0  0  0  0  0  0  0  0  0  0  0
  150.5871  139.7924  155.6923 C   0  0  1  0  0  0  0  0  0  0  0  0
  150.4751  138.3470  155.1827 C   0  0  0  0  0  0  0  0  0  0  0  0
  151.9145  140.2265  156.3402 C   0  0  0  0  0  0  0  0  0  0  0  0
  151.2756  139.8705  157.6808 C   0  0  1  0  0  0  0  0  0  0  0  0
  151.6669  140.7851  158.7459 N   0  0  0  0  0  0  0  0  0  0  0  0
  152.8978  140.8567  159.2744 C   0  0  0  0  0  0  0  0  0  0  0  0
  153.8526  140.2003  158.8598 O   0  0  0  0  0  0  0  0  0  0  0  0
  153.0751  141.8056  160.4609 C   0  0  0  0  0  0  0  0  0  0  0  0
  152.5938  143.1396  160.1438 N   0  0  0  0  0  0  0  0  0  0  0  0
  152.0907  144.0960  161.0016 C   0  0  0  0  0  0  0  0  0  0  0  0
  151.7845  145.1949  160.2516 C   0  0  0  0  0  0  0  0  0  0  0  0
  152.1386  144.8101  158.9284 C   0  0  0  0  0  0  0  0  0  0  0  0
  152.6227  143.5802  158.8667 N   0  0  0  0  0  0  0  0  0  0  0  0
  149.8959  140.1752  157.0415 C   0  0  0  0  0  0  0  0  0  0  0  0
  149.3825  141.6261  157.1555 C   0  0  0  0  0  0  0  0  0  0  0  0
  148.7371  139.2845  157.5002 C   0  0  0  0  0  0  0  0  0  0  0  0
  148.6019  141.3215  153.4881 H   0  0  0  0  0  0  0  0  0  0  0  0
  148.1434  140.9990  155.1508 H   0  0  0  0  0  0  0  0  0  0  0  0
  148.4633  139.6566  154.0383 H   0  0  0  0  0  0  0  0  0  0  0  0
  150.6683  137.6216  155.9727 H   0  0  0  0  0  0  0  0  0  0  0  0
  151.1957  138.1370  154.3929 H   0  0  0  0  0  0  0  0  0  0  0  0
  149.4801  138.1418  154.7875 H   0  0  0  0  0  0  0  0  0  0  0  0
  152.7760  139.6138  156.0733 H   0  0  0  0  0  0  0  0  0  0  0  0
  152.1311  141.2904  156.2267 H   0  0  0  0  0  0  0  0  0  0  0  0
  151.4110  138.8155  157.9297 H   0  0  0  0  0  0  0  0  0  0  0  0
  150.9414  141.3640  159.1432 H   0  0  0  0  0  0  0  0  0  0  0  0
  152.5388  141.4270  161.3325 H   0  0  0  0  0  0  0  0  0  0  0  0
  154.1300  141.8636  160.7318 H   0  0  0  0  0  0  0  0  0  0  0  0
  151.9975  143.9177  162.0628 H   0  0  0  0  0  0  0  0  0  0  0  0
  151.3714  146.1312  160.5962 H   0  0  0  0  0  0  0  0  0  0  0  0
  152.0595  145.3844  158.0170 H   0  0  0  0  0  0  0  0  0  0  0  0
  149.0921  141.8729  158.1774 H   0  0  0  0  0  0  0  0  0  0  0  0
  148.5078  141.7901  156.5253 H   0  0  0  0  0  0  0  0  0  0  0  0
  150.1334  142.3568  156.8544 H   0  0  0  0  0  0  0  0  0  0  0  0
  148.3669  139.5821  158.4815 H   0  0  0  0  0  0  0  0  0  0  0  0
  149.0334  138.2391  157.5836 H   0  0  0  0  0  0  0  0  0  0  0  0
  147.8990  139.3310  156.8043 H   0  0  0  0  0  0  0  0  0  0  0  0
  1  2  1  0  0  0  0
  1 19  1  0  0  0  0
  1 20  1  0  0  0  0
  1 21  1  0  0  0  0
  2  3  1  0  0  0  0
  3 16  1  0  0  0  0
  3  4  1  0  0  0  0
  3  5  1  0  0  0  0
  4 22  1  0  0  0  0
  4 23  1  0  0  0  0
  4 24  1  0  0  0  0
  5  6  1  0  0  0  0
  5 25  1  0  0  0  0
  5 26  1  0  0  0  0
  6  7  1  0  0  0  0
  6 16  1  0  0  0  0
  6 27  1  0  0  0  0
  7  8  1  0  0  0  0
  7 28  1  0  0  0  0
  8  9  2  0  0  0  0
  8 10  1  0  0  0  0
 10 11  1  0  0  0  0
 10 29  1  0  0  0  0
 10 30  1  0  0  0  0
 11 15  1  0  0  0  0
 11 12  1  0  0  0  0
 12 13  2  0  0  0  0
 12 31  1  0  0  0  0
 13 14  1  0  0  0  0
 13 32  1  0  0  0  0
 14 15  2  0  0  0  0
 14 33  1  0  0  0  0
 16 17  1  0  0  0  0
 16 18  1  0  0  0  0
 17 34  1  0  0  0  0
 17 35  1  0  0  0  0
 17 36  1  0  0  0  0
 18 37  1  0  0  0  0
 18 38  1  0  0  0  0
 18 39  1  0  0  0  0
M  END
> <s_m_source_file>
AV-unprocessed.smi

> <i_m_source_file_index>
3259

> <i_lp_mmshare_version>
43012

> <i_f3d_flags>
0

> <s_epik_input>
W0NIM11PW0NAQF0xKFtDSDNdKVtDSDJdW0NASF0oQzEoW0NIM10pW0NIM10pW05IXUMoPU8pW0NIMl1uMltjSF1bY0hdW2NIXW4y

> <s_epik_cmdline>
J2VwaWtfcHl0aG9uJywgJy1waCcsICc3LjAnLCAnLXRuJywgJzgnLCAnLW1hJywgJzIwMCcsICctbWV0YWxfYmluZGluZycsICctaW1hZScsICc8aW5maWxlLm1hZT4nLCAnLW9tYWUnLCAnPG91dGZpbGUubWFlPic=

> <r_lp_tautomer_probability>
1

> <r_epik_Ionization_Penalty>
1.78399e-05

> <r_epik_Ionization_Penalty_Charging>
0

> <r_epik_Ionization_Penalty_Neutral>
1.78399e-05

> <r_epik_State_Penalty>
-0

> <r_epik_Charging_Adjusted_Penalty>
0

> <i_epik_Tot_Q>
0

> <i_epik_Tot_abs_Q>
0

> <r_epik_Metal_State_Penalty>
-0

> <b_epik_Metal_Only>
0

> <s_lp_Force_Field>
OPLS_2005

> <r_lp_Energy>
22.2184

> <b_lp_Chiralities_Consistent>
1

> <s_lp_Variant>
AV-unprocessed.smi:3259-1

> <Gold.Version>
5.8.1

> <Gold.Id.Protein>
6NUR|6NUR_protein|mol2

> <Gold.PLP.Fitness>
44.3930

> <Gold.PLP.PLP>
-39.8333

> <Gold.PLP.part.hbond>
-2.0000

> <Gold.PLP.part.metal>
0.0000

> <Gold.PLP.part.buried>
-5.6302

> <Gold.PLP.part.nonpolar>
-32.7429

> <Gold.PLP.part.repulsive>
0.2501

> <Gold.PLP.ligand.clash>
0.0000

> <Gold.PLP.ligand.torsion>
0.6450

> <Gold.PLP.Chemscore.Hbond>
1.8240

> <Gold.PLP.Chemscore.CHOScore>
0.0000

> <Gold.PLP.Chemscore.Metal>
0.0000

> <Gold.Chemscore.Hbonds>
donor molecule, donor type, donor heavy atom, donor atom, acceptor molecule, acceptor atom, score
      P1  H  7989  7998       L1     2  0.83
      P1  H  7997  8008       L1     9  0.93

> <Gold.PLP.Chemscore.Internal.Correction>
0.3776

> <Gold.Rescore>
     Score         DG    S(hbond)    S(metal)    S(lipo)     H(rot)  DE(clash)    DE(int)     intcor
     17.20     -17.69       1.87        0.00      85.85       1.60       0.00       0.49       ----

> <Gold.Chemscore.Fitness>
17.2022

> <Gold.Chemscore.DG>
-17.6876

> <Gold.Chemscore.ZeroCoef>
-5.4800

> <Gold.Chemscore.Hbond>
1.8712

> <Gold.Chemscore.Metal>
0.0000

> <Gold.Chemscore.Lipo>
85.8469

> <Gold.Chemscore.Internal_Hbond>
0.0000

> <Gold.Chemscore.DEClash>
0.0000

> <Gold.Chemscore.DEInternal>
0.4854

> <Gold.Chemscore.Rot>
1.5962

> <Gold.Chemscore.Internal.Correction>
   9.000000E+99

> <Gold.Chemscore.Hbonds>
donor molecule, donor type, donor heavy atom, donor atom, acceptor molecule, acceptor atom, score
      P1  H  7989  7998       L1     2  0.45
      P1  H  7997  8008       L1     9  0.91

> <Gold.Chemscore.Hbond.Weighted>
-6.2498

> <Gold.Chemscore.Metal.Weighted>
-0.0000

> <Gold.Chemscore.Lipo.Weighted>
-10.0441

> <Gold.Chemscore.Internal_Hbond.Weighted>
0.0000

> <Gold.Chemscore.DEClash.Weighted>
0.0000

> <Gold.Chemscore.DEInternal.Weighted>
0.4854

> <Gold.Chemscore.Rot.Weighted>
4.0862

> <Gold.Chemscore.Internal.Correction.Weighted>
   9.000000E+99

> <Gold.Protein.RotatedTorsions>
[ 6907 6896 6895 6894 ] final   39.69 input  -60.11 | X-H torsion
[ 7974 7965 7964 7962 ] final -176.20 input  175.53 | X-H torsion
[ 8008 7997 7996 7995 ] final -102.34 input   59.86 | X-H torsion
[ 10167 10162 10161 10158 ] final  150.49 input  -65.29 | X-H torsion
[ 10718 10713 10712 10709 ] final  107.94 input   66.30 | X-H torsion
[ 10763 10752 10751 10750 ] final -167.66 input  -60.55 | X-H torsion
[ 11005 11000 10999 10996 ] final -143.82 input  -57.11 | X-H torsion

> <Gold.Protein.ActiveResidues>
 VAL166  LYS551  ARG553  GLY616  TRP617  ASP618  TYR619  PRO620  LYS621  CYS622 
 ASP623  PHE694  ASN695  SER759  ASP760  ASP761  ALA762  ILE779  LEU786  VAL792 
 PHE793  MET794  SER795  GLU796  ALA797  LYS798  CYS799  TRP800  GLU811  SER814 

> <Gold.Protein.RotatedAtoms>
  152.1729  134.8819  160.0532 H   0  0  0  0  0  0  0  0  0  0  0  0  # atno 6907 bound_to 6896
  151.9773  133.3741  159.4102 H   0  0  0  0  0  0  0  0  0  0  0  0  # atno 6908 bound_to 6896
  150.6904  134.3999  159.5158 H   0  0  0  0  0  0  0  0  0  0  0  0  # atno 6909 bound_to 6896
  144.7127  140.1206  143.6405 H   0  0  0  0  0  0  0  0  0  0  0  0  # atno 7974 bound_to 7965
  154.8553  140.0429  157.1630 H   0  0  0  0  0  0  0  0  0  0  0  0  # atno 8008 bound_to 7997
  154.8899  140.2985  155.5356 H   0  0  0  0  0  0  0  0  0  0  0  0  # atno 8009 bound_to 7997
  156.2997  140.2395  156.3913 H   0  0  0  0  0  0  0  0  0  0  0  0  # atno 8010 bound_to 7997
  139.4849  144.5518  151.7388 H   0  0  0  0  0  0  0  0  0  0  0  0  # atno 10167 bound_to 10162
  157.6607  131.0883  150.6231 H   0  0  0  0  0  0  0  0  0  0  0  0  # atno 10718 bound_to 10713
  154.6709  135.2939  154.9743 H   0  0  0  0  0  0  0  0  0  0  0  0  # atno 10763 bound_to 10752
  154.0771  135.6610  153.4836 H   0  0  0  0  0  0  0  0  0  0  0  0  # atno 10764 bound_to 10752
  153.0486  135.5188  154.7704 H   0  0  0  0  0  0  0  0  0  0  0  0  # atno 10765 bound_to 10752
  140.8086  134.2771  157.4950 H   0  0  0  0  0  0  0  0  0  0  0  0  # atno 11005 bound_to 11000
  145.9375  139.2646  143.1289 LP  0  0  0  0  0  0  0  0  0  0  0  0  # atno 17320 bound_to 7965
  145.9459  140.8945  143.0284 LP  0  0  0  0  0  0  0  0  0  0  0  0  # atno 17321 bound_to 7965
  140.5073  144.1079  150.5986 LP  0  0  0  0  0  0  0  0  0  0  0  0  # atno 17342 bound_to 10162
  140.3992  143.2712  151.9967 LP  0  0  0  0  0  0  0  0  0  0  0  0  # atno 17343 bound_to 10162
  156.6534  130.4492  149.5711 LP  0  0  0  0  0  0  0  0  0  0  0  0  # atno 17370 bound_to 10713
  156.2120  130.6685  151.1279 LP  0  0  0  0  0  0  0  0  0  0  0  0  # atno 17371 bound_to 10713
  139.8716  134.9470  156.3956 LP  0  0  0  0  0  0  0  0  0  0  0  0  # atno 17394 bound_to 11000
  140.9221  133.7638  155.9919 LP  0  0  0  0  0  0  0  0  0  0  0  0  # atno 17395 bound_to 11000

$$$$
