AV-unprocessed.smi:3011|AV-procd|sdf|11459|dock3
  -GOLD-   2272016393D 1   1.00000     0.00000
 Structure written by MMmdl.
 47 49  0  0  0  0  0  0  0  0  2 V2000
  147.9369  137.6124  164.1979 C   0  0  0  0  0  0  0  0  0  0  0  0
  147.7957  137.5001  162.7896 O   0  0  0  0  0  0  0  0  0  0  0  0
  147.4999  136.2607  162.2588 C   0  0  0  0  0  0  0  0  0  0  0  0
  147.2054  135.1179  163.0451 C   0  0  0  0  0  0  0  0  0  0  0  0
  146.9112  133.8866  162.4321 C   0  0  0  0  0  0  0  0  0  0  0  0
  146.9071  133.7819  161.0308 C   0  0  0  0  0  0  0  0  0  0  0  0
  147.1978  134.9087  160.2409 C   0  0  0  0  0  0  0  0  0  0  0  0
  147.4959  136.1538  160.8491 C   0  0  0  0  0  0  0  0  0  0  0  0
  147.7928  137.2985  160.1425 O   0  0  0  0  0  0  0  0  0  0  0  0
  147.6891  137.2805  158.7259 C   0  0  0  0  0  0  0  0  0  0  0  0
  149.1049  137.2185  158.1354 C   0  0  0  0  0  0  0  0  0  0  0  0
  149.1258  137.5777  156.7095 N   0  0  0  0  0  0  0  0  0  0  0  0
  149.1668  136.7858  155.5975 C   0  0  0  0  0  0  0  0  0  0  0  0
  149.1658  135.2821  155.5660 C   0  0  2  0  0  0  0  0  0  0  0  0
  150.4297  134.6803  156.2082 C   0  0  0  0  0  0  0  0  0  0  0  0
  148.9413  134.7512  154.2233 N   0  0  0  0  0  0  0  0  0  0  0  0
  148.8482  133.4530  153.9039 C   0  0  0  0  0  0  0  0  0  0  0  0
  148.9449  132.5490  154.7294 O   0  0  0  0  0  0  0  0  0  0  0  0
  149.1615  137.6182  154.5160 N   0  3  0  0  0  0  0  0  0  0  0  0
  149.1410  138.9471  154.9385 C   0  0  0  0  0  0  0  0  0  0  0  0
  149.1358  140.1340  154.2125 C   0  0  0  0  0  0  0  0  0  0  0  0
  149.1159  141.3312  154.9580 C   0  0  0  0  0  0  0  0  0  0  0  0
  149.1034  141.3180  156.3679 C   0  0  0  0  0  0  0  0  0  0  0  0
  149.1071  140.1079  157.0926 C   0  0  0  0  0  0  0  0  0  0  0  0
  149.1235  138.9290  156.3477 C   0  0  0  0  0  0  0  0  0  0  0  0
  148.1720  138.6452  164.4541 H   0  0  0  0  0  0  0  0  0  0  0  0
  148.7510  136.9882  164.5681 H   0  0  0  0  0  0  0  0  0  0  0  0
  147.0131  137.3473  164.7137 H   0  0  0  0  0  0  0  0  0  0  0  0
  147.1985  135.1592  164.1237 H   0  0  0  0  0  0  0  0  0  0  0  0
  146.6880  133.0212  163.0386 H   0  0  0  0  0  0  0  0  0  0  0  0
  146.6813  132.8360  160.5609 H   0  0  0  0  0  0  0  0  0  0  0  0
  147.1875  134.7916  159.1681 H   0  0  0  0  0  0  0  0  0  0  0  0
  147.1166  136.4131  158.3949 H   0  0  0  0  0  0  0  0  0  0  0  0
  147.1796  138.1790  158.3742 H   0  0  0  0  0  0  0  0  0  0  0  0
  149.7596  137.9133  158.6620 H   0  0  0  0  0  0  0  0  0  0  0  0
  149.5437  136.2287  158.2632 H   0  0  0  0  0  0  0  0  0  0  0  0
  148.3182  134.9450  156.1621 H   0  0  0  0  0  0  0  0  0  0  0  0
  150.5395  135.0161  157.2398 H   0  0  0  0  0  0  0  0  0  0  0  0
  151.3363  134.9601  155.6706 H   0  0  0  0  0  0  0  0  0  0  0  0
  150.3778  133.5914  156.2242 H   0  0  0  0  0  0  0  0  0  0  0  0
  148.8574  135.4261  153.4764 H   0  0  0  0  0  0  0  0  0  0  0  0
  148.6774  133.3048  152.8260 H   0  0  0  0  0  0  0  0  0  0  0  0
  149.1468  140.1462  153.1325 H   0  0  0  0  0  0  0  0  0  0  0  0
  149.1113  142.2782  154.4379 H   0  0  0  0  0  0  0  0  0  0  0  0
  149.0896  142.2552  156.9052 H   0  0  0  0  0  0  0  0  0  0  0  0
  149.0981  140.1090  158.1724 H   0  0  0  0  0  0  0  0  0  0  0  0
  149.1750  137.2945  153.5574 H   0  0  0  0  0  0  0  0  0  0  0  0
  1  2  1  0  0  0  0
  1 26  1  0  0  0  0
  1 27  1  0  0  0  0
  1 28  1  0  0  0  0
  2  3  1  0  0  0  0
  3  8  1  0  0  0  0
  3  4  2  0  0  0  0
  4  5  1  0  0  0  0
  4 29  1  0  0  0  0
  5  6  2  0  0  0  0
  5 30  1  0  0  0  0
  6  7  1  0  0  0  0
  6 31  1  0  0  0  0
  7  8  2  0  0  0  0
  7 32  1  0  0  0  0
  8  9  1  0  0  0  0
  9 10  1  0  0  0  0
 10 11  1  0  0  0  0
 10 33  1  0  0  0  0
 10 34  1  0  0  0  0
 11 12  1  0  0  0  0
 11 35  1  0  0  0  0
 11 36  1  0  0  0  0
 12 25  1  0  0  0  0
 12 13  1  0  0  0  0
 13 14  1  0  0  0  0
 13 19  2  0  0  0  0
 14 15  1  0  0  0  0
 14 16  1  0  0  0  0
 14 37  1  0  0  0  0
 15 38  1  0  0  0  0
 15 39  1  0  0  0  0
 15 40  1  0  0  0  0
 16 17  1  0  0  0  0
 16 41  1  0  0  0  0
 17 18  2  0  0  0  0
 17 42  1  0  0  0  0
 19 20  1  0  0  0  0
 19 47  1  0  0  0  0
 20 25  2  0  0  0  0
 20 21  1  0  0  0  0
 21 22  2  0  0  0  0
 21 43  1  0  0  0  0
 22 23  1  0  0  0  0
 22 44  1  0  0  0  0
 23 24  2  0  0  0  0
 23 45  1  0  0  0  0
 24 25  1  0  0  0  0
 24 46  1  0  0  0  0
M  CHG  1  19   1
M  END
> <s_m_source_file>
AV-unprocessed.smi

> <i_m_source_file_index>
3011

> <i_lp_mmshare_version>
43012

> <i_f3d_flags>
0

> <s_epik_input>
W0NIM11PYzFbY0hdW2NIXVtjSF1bY0hdYzFPW0NIMl1bQ0gyXW4oYyhuMilbQ0BIXShbQ0gzXSlbTkhdW0NIXT1PKWMoYzIzKVtjSF1bY0hdW2NIXVtjSF0z

> <s_epik_cmdline>
J2VwaWtfcHl0aG9uJywgJy1waCcsICc3LjAnLCAnLXRuJywgJzgnLCAnLW1hJywgJzIwMCcsICctbWV0YWxfYmluZGluZycsICctaW1hZScsICc8aW5maWxlLm1hZT4nLCAnLW9tYWUnLCAnPG91dGZpbGUubWFlPic=

> <r_lp_tautomer_probability>
1

> <r_epik_Ionization_Penalty>
1.14644

> <r_epik_Ionization_Penalty_Charging>
1.14644

> <r_epik_Ionization_Penalty_Neutral>
5.5802e-08

> <r_epik_State_Penalty>
1.20743

> <r_epik_Charging_Adjusted_Penalty>
2.35387

> <i_epik_Tot_Q>
1

> <i_epik_Tot_abs_Q>
1

> <r_epik_Metal_State_Penalty>
1.28856

> <b_epik_Metal_Only>
0

> <s_lp_Force_Field>
OPLS_2005

> <r_lp_Energy>
19.8167

> <b_lp_Chiralities_Consistent>
1

> <s_lp_Variant>
AV-unprocessed.smi:3011-3

> <Gold.Version>
5.8.1

> <Gold.Id.Protein>
6NUR|6NUR_protein|mol2

> <Gold.PLP.Fitness>
52.4589

> <Gold.PLP.PLP>
-40.5714

> <Gold.PLP.part.hbond>
-5.4549

> <Gold.PLP.part.metal>
0.0000

> <Gold.PLP.part.buried>
-1.8686

> <Gold.PLP.part.nonpolar>
-34.0028

> <Gold.PLP.part.repulsive>
0.0437

> <Gold.PLP.ligand.clash>
0.0000

> <Gold.PLP.ligand.torsion>
0.8783

> <Gold.PLP.Chemscore.Hbond>
4.4013

> <Gold.PLP.Chemscore.CHOScore>
0.0000

> <Gold.PLP.Chemscore.Metal>
0.0000

> <Gold.Chemscore.Hbonds>
donor molecule, donor type, donor heavy atom, donor atom, acceptor molecule, acceptor atom, score
      L1  H    16    41       P1  7948  1.00
      L1  H    19    47       P1  7948  2.00
      P1  H  6931  6943       L1     2  0.62
      P1  H  6934  6947       L1     9  0.82

> <Gold.PLP.Chemscore.Internal.Correction>
0.4402

> <Gold.Rescore>
     Score         DG    S(hbond)    S(metal)    S(lipo)     H(rot)  DE(clash)    DE(int)     intcor
     17.76     -20.50       3.15        0.00      96.70       2.66       0.60       2.14       ----

> <Gold.Chemscore.Fitness>
17.7593

> <Gold.Chemscore.DG>
-20.4984

> <Gold.Chemscore.ZeroCoef>
-5.4800

> <Gold.Chemscore.Hbond>
3.1484

> <Gold.Chemscore.Metal>
0.0000

> <Gold.Chemscore.Lipo>
96.6964

> <Gold.Chemscore.Internal_Hbond>
0.0000

> <Gold.Chemscore.DEClash>
0.5984

> <Gold.Chemscore.DEInternal>
2.1406

> <Gold.Chemscore.Rot>
2.6604

> <Gold.Chemscore.Internal.Correction>
   9.000000E+99

> <Gold.Chemscore.Hbonds>
donor molecule, donor type, donor heavy atom, donor atom, acceptor molecule, acceptor atom, score
      L1  H    16    41       P1  7948  0.82
      L1  H    19    47       P1  7948  0.96
      P1  H  6931  6943       L1     2  0.42
      P1  H  6934  6947       L1     9  0.62

> <Gold.Chemscore.Hbond.Weighted>
-10.5155

> <Gold.Chemscore.Metal.Weighted>
-0.0000

> <Gold.Chemscore.Lipo.Weighted>
-11.3135

> <Gold.Chemscore.Internal_Hbond.Weighted>
0.0000

> <Gold.Chemscore.DEClash.Weighted>
0.5984

> <Gold.Chemscore.DEInternal.Weighted>
2.1406

> <Gold.Chemscore.Rot.Weighted>
6.8106

> <Gold.Chemscore.Internal.Correction.Weighted>
   9.000000E+99

> <Gold.Protein.RotatedTorsions>
[ 6907 6896 6895 6894 ] final   13.89 input  -60.11 | X-H torsion
[ 7974 7965 7964 7962 ] final  -48.43 input  175.53 | X-H torsion
[ 8008 7997 7996 7995 ] final -115.16 input   59.86 | X-H torsion
[ 10167 10162 10161 10158 ] final  156.49 input  -65.29 | X-H torsion
[ 10718 10713 10712 10709 ] final  172.41 input   66.30 | X-H torsion
[ 10763 10752 10751 10750 ] final   -7.03 input  -60.55 | X-H torsion
[ 11005 11000 10999 10996 ] final   72.51 input  -57.11 | X-H torsion

> <Gold.Protein.ActiveResidues>
 VAL166  LYS551  ARG553  GLY616  TRP617  ASP618  TYR619  PRO620  LYS621  CYS622 
 ASP623  PHE694  ASN695  SER759  ASP760  ASP761  ALA762  ILE779  LEU786  VAL792 
 PHE793  MET794  SER795  GLU796  ALA797  LYS798  CYS799  TRP800  GLU811  SER814 

> <Gold.Protein.RotatedAtoms>
  151.7936  135.0729  160.0390 H   0  0  0  0  0  0  0  0  0  0  0  0  # atno 6907 bound_to 6896
  152.3139  133.5777  159.5707 H   0  0  0  0  0  0  0  0  0  0  0  0  # atno 6908 bound_to 6896
  150.7334  134.0027  159.3685 H   0  0  0  0  0  0  0  0  0  0  0  0  # atno 6909 bound_to 6896
  145.9512  140.7570  142.9503 H   0  0  0  0  0  0  0  0  0  0  0  0  # atno 7974 bound_to 7965
  155.0476  140.0392  157.2532 H   0  0  0  0  0  0  0  0  0  0  0  0  # atno 8008 bound_to 7997
  154.7164  140.2703  155.6557 H   0  0  0  0  0  0  0  0  0  0  0  0  # atno 8009 bound_to 7997
  156.2804  140.2711  156.1822 H   0  0  0  0  0  0  0  0  0  0  0  0  # atno 8010 bound_to 7997
  139.4821  144.5004  151.8177 H   0  0  0  0  0  0  0  0  0  0  0  0  # atno 10167 bound_to 10162
  156.9794  131.0114  151.2885 H   0  0  0  0  0  0  0  0  0  0  0  0  # atno 10718 bound_to 10713
  153.4206  135.7010  153.6297 H   0  0  0  0  0  0  0  0  0  0  0  0  # atno 10763 bound_to 10752
  153.4753  135.3706  155.2413 H   0  0  0  0  0  0  0  0  0  0  0  0  # atno 10764 bound_to 10752
  154.8722  135.4053  154.3574 H   0  0  0  0  0  0  0  0  0  0  0  0  # atno 10765 bound_to 10752
  139.9487  134.7266  156.0915 H   0  0  0  0  0  0  0  0  0  0  0  0  # atno 11005 bound_to 11000
  144.6796  140.2439  143.7340 LP  0  0  0  0  0  0  0  0  0  0  0  0  # atno 17320 bound_to 7965
  145.8168  139.2026  143.1961 LP  0  0  0  0  0  0  0  0  0  0  0  0  # atno 17321 bound_to 7965
  140.4496  144.1873  150.5896 LP  0  0  0  0  0  0  0  0  0  0  0  0  # atno 17342 bound_to 10162
  140.4598  143.2453  151.9235 LP  0  0  0  0  0  0  0  0  0  0  0  0  # atno 17343 bound_to 10162
  157.5537  130.8199  149.8177 LP  0  0  0  0  0  0  0  0  0  0  0  0  # atno 17370 bound_to 10713
  156.0250  130.3782  150.1848 LP  0  0  0  0  0  0  0  0  0  0  0  0  # atno 17371 bound_to 10713
  141.1144  133.6632  156.3059 LP  0  0  0  0  0  0  0  0  0  0  0  0  # atno 17394 bound_to 11000
  140.5771  134.5782  157.5471 LP  0  0  0  0  0  0  0  0  0  0  0  0  # atno 17395 bound_to 11000

$$$$
