AV-unprocessed.smi:69|AV-procd|sdf|651|dock10
  -GOLD-   2262016553D 1   1.00000     0.00000
 Structure written by MMmdl.
 32 34  0  0  0  0  0  0  0  0  1 V2000
  154.1726  137.5394  156.5859 N   0  0  0  0  0  0  0  0  0  0  0  0
  153.0450  138.2634  156.5789 C   0  0  0  0  0  0  0  0  0  0  0  0
  152.9961  139.3854  157.3352 N   0  0  0  0  0  0  0  0  0  0  0  0
  151.8833  140.1275  157.3434 C   0  0  0  0  0  0  0  0  0  0  0  0
  150.7389  139.9260  156.6840 N   0  0  0  0  0  0  0  0  0  0  0  0
  150.7932  138.7927  155.9249 C   0  0  0  0  0  0  0  0  0  0  0  0
  151.9031  137.9113  155.8162 C   0  0  0  0  0  0  0  0  0  0  0  0
  151.5960  136.8696  154.9500 N   0  0  0  0  0  0  0  0  0  0  0  0
  150.3724  137.1271  154.5698 C   0  0  0  0  0  0  0  0  0  0  0  0
  149.8156  138.2670  155.1105 N   0  0  0  0  0  0  0  0  0  0  0  0
  148.4596  138.8529  154.8834 C   0  0  2  0  0  0  0  0  0  0  0  0
  147.7722  138.0293  154.0023 O   0  0  0  0  0  0  0  0  0  0  0  0
  146.7517  138.8061  153.3966 C   0  0  2  0  0  0  0  0  0  0  0  0
  146.2436  138.1071  152.1267 C   0  0  0  0  0  0  0  0  0  0  0  0
  147.3172  137.8731  151.2407 O   0  0  0  0  0  0  0  0  0  0  0  0
  147.4599  140.1407  153.1210 C   0  0  1  0  0  0  0  0  0  0  0  0
  146.5343  141.2062  153.1993 O   0  0  0  0  0  0  0  0  0  0  0  0
  148.5036  140.2517  154.2341 C   0  0  2  0  0  0  0  0  0  0  0  0
  149.7694  140.6040  153.7028 O   0  0  0  0  0  0  0  0  0  0  0  0
  147.9701  138.8456  155.8591 H   0  0  0  0  0  0  0  0  0  0  0  0
  145.9436  138.9521  154.1175 H   0  0  0  0  0  0  0  0  0  0  0  0
  147.9349  140.1250  152.1385 H   0  0  0  0  0  0  0  0  0  0  0  0
  148.2248  140.9843  154.9933 H   0  0  0  0  0  0  0  0  0  0  0  0
  154.2340  136.6994  156.0288 H   0  0  0  0  0  0  0  0  0  0  0  0
  154.9583  137.8361  157.1464 H   0  0  0  0  0  0  0  0  0  0  0  0
  151.9145  141.0088  157.9668 H   0  0  0  0  0  0  0  0  0  0  0  0
  149.8420  136.4899  153.8770 H   0  0  0  0  0  0  0  0  0  0  0  0
  145.8125  137.1383  152.3802 H   0  0  0  0  0  0  0  0  0  0  0  0
  145.4647  138.6913  151.6360 H   0  0  0  0  0  0  0  0  0  0  0  0
  147.7453  137.0691  151.4925 H   0  0  0  0  0  0  0  0  0  0  0  0
  145.6639  140.8551  153.0866 H   0  0  0  0  0  0  0  0  0  0  0  0
  149.8057  140.3176  152.8030 H   0  0  0  0  0  0  0  0  0  0  0  0
  1  2  1  0  0  0  0
  1 24  1  0  0  0  0
  1 25  1  0  0  0  0
  2  7  1  0  0  0  0
  2  3  2  0  0  0  0
  3  4  1  0  0  0  0
  4  5  2  0  0  0  0
  4 26  1  0  0  0  0
  5  6  1  0  0  0  0
  6 10  1  0  0  0  0
  6  7  2  0  0  0  0
  7  8  1  0  0  0  0
  8  9  2  0  0  0  0
  9 10  1  0  0  0  0
  9 27  1  0  0  0  0
 10 11  1  0  0  0  0
 11 20  1  0  0  0  0
 11 18  1  0  0  0  0
 11 12  1  0  0  0  0
 12 13  1  0  0  0  0
 13 21  1  0  0  0  0
 13 14  1  0  0  0  0
 13 16  1  0  0  0  0
 14 15  1  0  0  0  0
 14 28  1  0  0  0  0
 14 29  1  0  0  0  0
 15 30  1  0  0  0  0
 16 22  1  0  0  0  0
 16 17  1  0  0  0  0
 16 18  1  0  0  0  0
 17 31  1  0  0  0  0
 18 23  1  0  0  0  0
 18 19  1  0  0  0  0
 19 32  1  0  0  0  0
M  END
> <s_m_source_file>
AV-unprocessed.smi

> <i_m_source_file_index>
69

> <i_lp_mmshare_version>
43012

> <i_f3d_flags>
0

> <s_epik_input>
bjFbY0hdbmMoW05IMl0pYyhjMTIpbltjSF1uMltDQEBIXTNPW0NASF0oW0NIMl1bT0hdKVtDQEBIXShbT0hdKVtDQEhdM1tPSF0=

> <s_epik_cmdline>
J2VwaWtfcHl0aG9uJywgJy1waCcsICc3LjAnLCAnLXRuJywgJzgnLCAnLW1hJywgJzIwMCcsICctbWV0YWxfYmluZGluZycsICctaW1hZScsICc8aW5maWxlLm1hZT4nLCAnLW9tYWUnLCAnPG91dGZpbGUubWFlPic=

> <r_lp_tautomer_probability>
1

> <r_epik_Ionization_Penalty>
0.000428445

> <r_epik_Ionization_Penalty_Charging>
0

> <r_epik_Ionization_Penalty_Neutral>
0.000428445

> <r_epik_State_Penalty>
-0

> <r_epik_Charging_Adjusted_Penalty>
0

> <i_epik_Tot_Q>
0

> <i_epik_Tot_abs_Q>
0

> <r_epik_Metal_State_Penalty>
-0

> <b_epik_Metal_Only>
0

> <s_epik_Chemistry_Notes>
This compound contains an acetal/aminal-like group ( X-CH(R)-Y where X, Y are N, S, or O) that may be acid/base labile, releasing an aldehyde.

> <s_lp_Force_Field>
OPLS_2005

> <r_lp_Energy>
36.244

> <b_lp_Chiralities_Consistent>
1

> <s_lp_Variant>
AV-unprocessed.smi:69-9

> <Gold.Version>
5.8.1

> <Gold.Id.Protein>
6NUR|6NUR_protein|mol2

> <Gold.PLP.Fitness>
42.9740

> <Gold.PLP.PLP>
-22.9998

> <Gold.PLP.part.hbond>
-6.9521

> <Gold.PLP.part.metal>
0.0000

> <Gold.PLP.part.buried>
-1.6717

> <Gold.PLP.part.nonpolar>
-17.0388

> <Gold.PLP.part.repulsive>
0.6009

> <Gold.PLP.ligand.clash>
0.0000

> <Gold.PLP.ligand.torsion>
0.0116

> <Gold.PLP.Chemscore.Hbond>
5.6615

> <Gold.PLP.Chemscore.CHOScore>
1.0000

> <Gold.PLP.Chemscore.Metal>
0.0000

> <Gold.Chemscore.Hbonds>
donor molecule, donor type, donor heavy atom, donor atom, acceptor molecule, acceptor atom, score
      L1  H    15    30       P1  7948  0.86
      L1  H    17    31       P1 10175  0.83
      L1  H    19    32       P1  7957  1.00
      P1  H  7954  7966       L1    15  0.45
      P1  H  7989  7998       L1    19  0.08
      P1  H  7997  8010       L1     3  0.85
      P1  H 10752 10763       L1     8  1.00
      L1  C     9    27       P1  7948  1.00

> <Gold.PLP.Chemscore.Internal.Correction>
0.0132

> <Gold.Rescore>
     Score         DG    S(hbond)    S(metal)    S(lipo)     H(rot)  DE(clash)    DE(int)     intcor
     10.69     -11.63       3.81        0.00      31.99       4.03       0.86       0.08       ----

> <Gold.Chemscore.Fitness>
10.6873

> <Gold.Chemscore.DG>
-11.6346

> <Gold.Chemscore.ZeroCoef>
-5.4800

> <Gold.Chemscore.Hbond>
3.8091

> <Gold.Chemscore.Metal>
0.0000

> <Gold.Chemscore.Lipo>
31.9929

> <Gold.Chemscore.Internal_Hbond>
0.0000

> <Gold.Chemscore.DEClash>
0.8634

> <Gold.Chemscore.DEInternal>
0.0840

> <Gold.Chemscore.Rot>
4.0277

> <Gold.Chemscore.Internal.Correction>
   9.000000E+99

> <Gold.Chemscore.Hbonds>
donor molecule, donor type, donor heavy atom, donor atom, acceptor molecule, acceptor atom, score
      L1  H    15    30       P1  7948  0.81
      L1  H    17    31       P1 10175  0.45
      L1  H    19    32       P1  7957  1.00
      P1  H  7954  7966       L1    15  0.02
      P1  H  7997  8010       L1     3  0.14
      P1  H 10752 10763       L1     8  0.95

> <Gold.Chemscore.Hbond.Weighted>
-12.7225

> <Gold.Chemscore.Metal.Weighted>
-0.0000

> <Gold.Chemscore.Lipo.Weighted>
-3.7432

> <Gold.Chemscore.Internal_Hbond.Weighted>
0.0000

> <Gold.Chemscore.DEClash.Weighted>
0.8634

> <Gold.Chemscore.DEInternal.Weighted>
0.0840

> <Gold.Chemscore.Rot.Weighted>
10.3110

> <Gold.Chemscore.Internal.Correction.Weighted>
   9.000000E+99

> <Gold.Protein.RotatedTorsions>
[ 6907 6896 6895 6894 ] final  155.19 input  -60.11 | X-H torsion
[ 7974 7965 7964 7962 ] final   64.53 input  175.53 | X-H torsion
[ 8008 7997 7996 7995 ] final   51.88 input   59.86 | X-H torsion
[ 10167 10162 10161 10158 ] final  107.16 input  -65.29 | X-H torsion
[ 10718 10713 10712 10709 ] final   65.47 input   66.30 | X-H torsion
[ 10763 10752 10751 10750 ] final   59.15 input  -60.55 | X-H torsion
[ 11005 11000 10999 10996 ] final  167.18 input  -57.11 | X-H torsion

> <Gold.Protein.ActiveResidues>
 VAL166  LYS551  ARG553  GLY616  TRP617  ASP618  TYR619  PRO620  LYS621  CYS622 
 ASP623  PHE694  ASN695  SER759  ASP760  ASP761  ALA762  ILE779  LEU786  VAL792 
 PHE793  MET794  SER795  GLU796  ALA797  LYS798  CYS799  TRP800  GLU811  SER814 

> <Gold.Protein.RotatedAtoms>
  152.0477  133.4005  159.4363 H   0  0  0  0  0  0  0  0  0  0  0  0  # atno 6907 bound_to 6896
  150.6872  134.3344  159.4850 H   0  0  0  0  0  0  0  0  0  0  0  0  # atno 6908 bound_to 6896
  152.1150  134.9247  160.0616 H   0  0  0  0  0  0  0  0  0  0  0  0  # atno 6909 bound_to 6896
  145.8491  139.3242  143.0886 H   0  0  0  0  0  0  0  0  0  0  0  0  # atno 7974 bound_to 7965
  155.4425  140.3455  155.4291 H   0  0  0  0  0  0  0  0  0  0  0  0  # atno 8008 bound_to 7997
  156.1270  140.1503  156.9152 H   0  0  0  0  0  0  0  0  0  0  0  0  # atno 8009 bound_to 7997
  154.4865  140.0853  156.7478 H   0  0  0  0  0  0  0  0  0  0  0  0  # atno 8010 bound_to 7997
  139.6949  144.7103  151.1284 H   0  0  0  0  0  0  0  0  0  0  0  0  # atno 10167 bound_to 10162
  157.6107  130.9216  149.9981 H   0  0  0  0  0  0  0  0  0  0  0  0  # atno 10718 bound_to 10713
  152.9887  135.5582  154.5666 H   0  0  0  0  0  0  0  0  0  0  0  0  # atno 10763 bound_to 10752
  154.5075  135.2800  155.1372 H   0  0  0  0  0  0  0  0  0  0  0  0  # atno 10764 bound_to 10752
  154.2778  135.6350  153.5388 H   0  0  0  0  0  0  0  0  0  0  0  0  # atno 10765 bound_to 10752
  140.2742  134.7803  157.3702 H   0  0  0  0  0  0  0  0  0  0  0  0  # atno 11005 bound_to 11000
  145.9378  140.9001  143.0323 LP  0  0  0  0  0  0  0  0  0  0  0  0  # atno 17320 bound_to 7965
  144.6730  140.1507  143.7430 LP  0  0  0  0  0  0  0  0  0  0  0  0  # atno 17321 bound_to 7965
  140.7693  143.5505  150.9209 LP  0  0  0  0  0  0  0  0  0  0  0  0  # atno 17342 bound_to 10162
  139.9185  143.6635  152.3101 LP  0  0  0  0  0  0  0  0  0  0  0  0  # atno 17343 bound_to 10162
  156.1209  130.3646  149.9888 LP  0  0  0  0  0  0  0  0  0  0  0  0  # atno 17370 bound_to 10713
  156.7968  130.9276  151.3646 LP  0  0  0  0  0  0  0  0  0  0  0  0  # atno 17371 bound_to 10713
  140.1345  134.5052  155.8079 LP  0  0  0  0  0  0  0  0  0  0  0  0  # atno 17394 bound_to 11000
  141.2173  133.6802  156.7098 LP  0  0  0  0  0  0  0  0  0  0  0  0  # atno 17395 bound_to 11000

$$$$
