AV-unprocessed.smi:261|AV-procd|sdf|1986|dock9
  -GOLD-   2262021163D 1   1.00000     0.00000
 Structure written by MMmdl.
 51 54  0  0  0  0  0  0  0  0  1 V2000
  147.7154  133.3577  152.4673 C   0  0  0  0  0  0  0  0  0  0  0  0
  148.0291  132.6985  153.6839 O   0  0  0  0  0  0  0  0  0  0  0  0
  149.4043  132.7691  154.0406 C   0  0  2  0  0  0  0  0  0  0  0  0
  149.6942  132.0585  155.3698 C   0  0  0  0  0  0  0  0  0  0  0  0
  149.3541  133.0914  156.4561 C   0  0  2  0  0  0  0  0  0  0  0  0
  147.8891  132.9634  156.9273 C   0  0  0  0  0  0  0  0  0  0  0  0
  147.4854  131.8157  157.4831 N   0  0  0  0  0  0  0  0  0  0  0  0
  147.1179  133.9083  156.7768 O   0  0  0  0  0  0  0  0  0  0  0  0
  149.6699  134.3626  155.8033 N   0  0  0  0  0  0  0  0  0  0  0  0
  149.9248  135.5380  156.4432 C   0  0  0  0  0  0  0  0  0  0  0  0
  149.4184  135.6990  157.6949 N   0  0  0  0  0  0  0  0  0  0  0  0
  149.6362  136.8221  158.3830 C   0  0  0  0  0  0  0  0  0  0  0  0
  150.3269  137.9013  158.0175 N   0  0  0  0  0  0  0  0  0  0  0  0
  150.8411  137.7545  156.7637 C   0  0  0  0  0  0  0  0  0  0  0  0
  150.6907  136.6209  155.9119 C   0  0  0  0  0  0  0  0  0  0  0  0
  151.3627  136.8548  154.7161 N   0  0  0  0  0  0  0  0  0  0  0  0
  151.8860  138.0408  154.8575 C   0  0  0  0  0  0  0  0  0  0  0  0
  151.6283  138.6506  156.0620 N   0  0  0  0  0  0  0  0  0  0  0  0
  152.0947  139.9565  156.4967 C   0  0  0  0  0  0  0  0  0  0  0  0
  151.3970  140.4795  157.7728 C   0  0  2  0  0  0  0  0  0  0  0  0
  150.2202  141.1928  157.4441 O   0  0  0  0  0  0  0  0  0  0  0  0
  152.2924  141.3164  158.7163 C   0  0  2  0  0  0  0  0  0  0  0  0
  153.3779  140.5489  159.4701 C   0  0  0  0  0  0  0  0  0  0  0  0
  153.7025  141.4713  160.6359 C   0  0  0  0  0  0  0  0  0  0  0  0
  152.5147  142.4391  160.7003 C   0  0  0  0  0  0  0  0  0  0  0  0
  151.5691  141.9452  159.7626 O   0  0  0  0  0  0  0  0  0  0  0  0
  149.7424  134.2312  154.3511 C   0  0  0  0  0  0  0  0  0  0  0  0
  150.0256  132.3935  153.2258 H   0  0  0  0  0  0  0  0  0  0  0  0
  150.0105  132.9184  157.3085 H   0  0  0  0  0  0  0  0  0  0  0  0
  146.6461  133.2720  152.2746 H   0  0  0  0  0  0  0  0  0  0  0  0
  148.2409  132.9193  151.6191 H   0  0  0  0  0  0  0  0  0  0  0  0
  147.9608  134.4192  152.5201 H   0  0  0  0  0  0  0  0  0  0  0  0
  149.1681  131.1107  155.4850 H   0  0  0  0  0  0  0  0  0  0  0  0
  150.7600  131.8311  155.4221 H   0  0  0  0  0  0  0  0  0  0  0  0
  146.5291  131.7155  157.7920 H   0  0  0  0  0  0  0  0  0  0  0  0
  148.1380  131.0525  157.5873 H   0  0  0  0  0  0  0  0  0  0  0  0
  149.1952  136.8601  159.3681 H   0  0  0  0  0  0  0  0  0  0  0  0
  152.4850  138.5018  154.0859 H   0  0  0  0  0  0  0  0  0  0  0  0
  153.1731  139.9015  156.6509 H   0  0  0  0  0  0  0  0  0  0  0  0
  151.9415  140.6640  155.6810 H   0  0  0  0  0  0  0  0  0  0  0  0
  151.0655  139.6052  158.3338 H   0  0  0  0  0  0  0  0  0  0  0  0
  150.0553  141.0903  156.5194 H   0  0  0  0  0  0  0  0  0  0  0  0
  152.7694  142.1041  158.1292 H   0  0  0  0  0  0  0  0  0  0  0  0
  152.9923  139.6042  159.8549 H   0  0  0  0  0  0  0  0  0  0  0  0
  154.2459  140.3288  158.8482 H   0  0  0  0  0  0  0  0  0  0  0  0
  153.8174  140.9070  161.5620 H   0  0  0  0  0  0  0  0  0  0  0  0
  154.6292  142.0184  160.4599 H   0  0  0  0  0  0  0  0  0  0  0  0
  152.0770  142.4987  161.6968 H   0  0  0  0  0  0  0  0  0  0  0  0
  152.8205  143.4432  160.4032 H   0  0  0  0  0  0  0  0  0  0  0  0
  150.7602  134.4560  154.0286 H   0  0  0  0  0  0  0  0  0  0  0  0
  149.0665  134.9211  153.8434 H   0  0  0  0  0  0  0  0  0  0  0  0
  1  2  1  0  0  0  0
  1 30  1  0  0  0  0
  1 31  1  0  0  0  0
  1 32  1  0  0  0  0
  2  3  1  0  0  0  0
  3 28  1  0  0  0  0
  3 27  1  0  0  0  0
  3  4  1  0  0  0  0
  4  5  1  0  0  0  0
  4 33  1  0  0  0  0
  4 34  1  0  0  0  0
  5 29  1  0  0  0  0
  5  6  1  0  0  0  0
  5  9  1  0  0  0  0
  6  7  1  0  0  0  0
  6  8  2  0  0  0  0
  7 35  1  0  0  0  0
  7 36  1  0  0  0  0
  9 10  1  0  0  0  0
  9 27  1  0  0  0  0
 10 15  1  0  0  0  0
 10 11  2  0  0  0  0
 11 12  1  0  0  0  0
 12 13  2  0  0  0  0
 12 37  1  0  0  0  0
 13 14  1  0  0  0  0
 14 18  1  0  0  0  0
 14 15  2  0  0  0  0
 15 16  1  0  0  0  0
 16 17  2  0  0  0  0
 17 18  1  0  0  0  0
 17 38  1  0  0  0  0
 18 19  1  0  0  0  0
 19 20  1  0  0  0  0
 19 39  1  0  0  0  0
 19 40  1  0  0  0  0
 20 21  1  0  0  0  0
 20 22  1  0  0  0  0
 20 41  1  0  0  0  0
 21 42  1  0  0  0  0
 22 26  1  0  0  0  0
 22 23  1  0  0  0  0
 22 43  1  0  0  0  0
 23 24  1  0  0  0  0
 23 44  1  0  0  0  0
 23 45  1  0  0  0  0
 24 25  1  0  0  0  0
 24 46  1  0  0  0  0
 24 47  1  0  0  0  0
 25 26  1  0  0  0  0
 25 48  1  0  0  0  0
 25 49  1  0  0  0  0
 27 50  1  0  0  0  0
 27 51  1  0  0  0  0
M  END
> <s_m_source_file>
AV-unprocessed.smi

> <i_m_source_file_index>
261

> <i_lp_mmshare_version>
43012

> <i_f3d_flags>
0

> <s_epik_input>
W0NIM11PW0NASF0xW0NIMl1bQ0BASF0oQyg9TylbTkgyXSlOKFtDSDJdMSljKG5bY0hdbjIpYyhjMjMpbltjSF1uM1tDSDJdW0NASF0oW09IXSlbQ0BASF00W0NIMl1bQ0gyXVtDSDJdTzQ=

> <s_epik_cmdline>
J2VwaWtfcHl0aG9uJywgJy1waCcsICc3LjAnLCAnLXRuJywgJzgnLCAnLW1hJywgJzIwMCcsICctbWV0YWxfYmluZGluZycsICctaW1hZScsICc8aW5maWxlLm1hZT4nLCAnLW9tYWUnLCAnPG91dGZpbGUubWFlPic=

> <r_lp_tautomer_probability>
1

> <r_epik_Ionization_Penalty>
0.000713824

> <r_epik_Ionization_Penalty_Charging>
0

> <r_epik_Ionization_Penalty_Neutral>
0.000713824

> <r_epik_State_Penalty>
0.000402132

> <r_epik_Charging_Adjusted_Penalty>
0.000402132

> <i_epik_Tot_Q>
0

> <i_epik_Tot_abs_Q>
0

> <r_epik_Metal_State_Penalty>
-0

> <b_epik_Metal_Only>
0

> <s_lp_Force_Field>
OPLS_2005

> <r_lp_Energy>
46.7805

> <b_lp_Chiralities_Consistent>
1

> <s_lp_Variant>
AV-unprocessed.smi:261-4

> <Gold.Version>
5.8.1

> <Gold.Id.Protein>
6NUR|6NUR_protein|mol2

> <Gold.PLP.Fitness>
43.1615

> <Gold.PLP.PLP>
-40.0922

> <Gold.PLP.part.hbond>
-2.4806

> <Gold.PLP.part.metal>
0.0000

> <Gold.PLP.part.buried>
-7.1676

> <Gold.PLP.part.nonpolar>
-31.1666

> <Gold.PLP.part.repulsive>
0.2358

> <Gold.PLP.ligand.clash>
0.0000

> <Gold.PLP.ligand.torsion>
0.9614

> <Gold.PLP.Chemscore.Hbond>
1.6354

> <Gold.PLP.Chemscore.CHOScore>
0.0000

> <Gold.PLP.Chemscore.Metal>
0.0000

> <Gold.Chemscore.Hbonds>
donor molecule, donor type, donor heavy atom, donor atom, acceptor molecule, acceptor atom, score
      P1  H 10752 10763       L1    16  1.00

> <Gold.PLP.Chemscore.Internal.Correction>
0.0858

> <Gold.Rescore>
     Score         DG    S(hbond)    S(metal)    S(lipo)     H(rot)  DE(clash)    DE(int)     intcor
      8.98     -11.32       1.29        0.00      82.60       3.18       0.02       2.32       ----

> <Gold.Chemscore.Fitness>
8.9782

> <Gold.Chemscore.DG>
-11.3152

> <Gold.Chemscore.ZeroCoef>
-5.4800

> <Gold.Chemscore.Hbond>
1.2932

> <Gold.Chemscore.Metal>
0.0000

> <Gold.Chemscore.Lipo>
82.6032

> <Gold.Chemscore.Internal_Hbond>
0.0000

> <Gold.Chemscore.DEClash>
0.0180

> <Gold.Chemscore.DEInternal>
2.3191

> <Gold.Chemscore.Rot>
3.1831

> <Gold.Chemscore.Internal.Correction>
   9.000000E+99

> <Gold.Chemscore.Hbonds>
donor molecule, donor type, donor heavy atom, donor atom, acceptor molecule, acceptor atom, score
      P1  H 10752 10763       L1    16  0.42

> <Gold.Chemscore.Hbond.Weighted>
-4.3193

> <Gold.Chemscore.Metal.Weighted>
-0.0000

> <Gold.Chemscore.Lipo.Weighted>
-9.6646

> <Gold.Chemscore.Internal_Hbond.Weighted>
0.0000

> <Gold.Chemscore.DEClash.Weighted>
0.0180

> <Gold.Chemscore.DEInternal.Weighted>
2.3191

> <Gold.Chemscore.Rot.Weighted>
8.1486

> <Gold.Chemscore.Internal.Correction.Weighted>
   9.000000E+99

> <Gold.Protein.RotatedTorsions>
[ 6907 6896 6895 6894 ] final   33.32 input  -60.11 | X-H torsion
[ 7974 7965 7964 7962 ] final  -73.62 input  175.53 | X-H torsion
[ 8008 7997 7996 7995 ] final -165.30 input   59.86 | X-H torsion
[ 10167 10162 10161 10158 ] final   96.60 input  -65.29 | X-H torsion
[ 10718 10713 10712 10709 ] final  117.02 input   66.30 | X-H torsion
[ 10763 10752 10751 10750 ] final   48.67 input  -60.55 | X-H torsion
[ 11005 11000 10999 10996 ] final  138.30 input  -57.11 | X-H torsion

> <Gold.Protein.ActiveResidues>
 VAL166  LYS551  ARG553  GLY616  TRP617  ASP618  TYR619  PRO620  LYS621  CYS622 
 ASP623  PHE694  ASN695  SER759  ASP760  ASP761  ALA762  ILE779  LEU786  VAL792 
 PHE793  MET794  SER795  GLU796  ALA797  LYS798  CYS799  TRP800  GLU811  SER814 

> <Gold.Protein.RotatedAtoms>
  152.0868  134.9434  160.0572 H   0  0  0  0  0  0  0  0  0  0  0  0  # atno 6907 bound_to 6896
  152.0701  133.4098  159.4464 H   0  0  0  0  0  0  0  0  0  0  0  0  # atno 6908 bound_to 6896
  150.6836  134.3021  159.4754 H   0  0  0  0  0  0  0  0  0  0  0  0  # atno 6909 bound_to 6896
  145.6497  140.9286  143.0991 H   0  0  0  0  0  0  0  0  0  0  0  0  # atno 7974 bound_to 7965
  155.8478  140.0958  157.1694 H   0  0  0  0  0  0  0  0  0  0  0  0  # atno 8008 bound_to 7997
  154.3984  140.1389  156.3869 H   0  0  0  0  0  0  0  0  0  0  0  0  # atno 8009 bound_to 7997
  155.7994  140.3453  155.5396 H   0  0  0  0  0  0  0  0  0  0  0  0  # atno 8010 bound_to 7997
  139.7879  144.6863  150.9932 H   0  0  0  0  0  0  0  0  0  0  0  0  # atno 10167 bound_to 10162
  157.6123  131.1032  150.7556 H   0  0  0  0  0  0  0  0  0  0  0  0  # atno 10718 bound_to 10713
  152.9790  135.5936  154.3964 H   0  0  0  0  0  0  0  0  0  0  0  0  # atno 10763 bound_to 10752
  154.3614  135.2767  155.2319 H   0  0  0  0  0  0  0  0  0  0  0  0  # atno 10764 bound_to 10752
  154.4315  135.6035  153.6126 H   0  0  0  0  0  0  0  0  0  0  0  0  # atno 10765 bound_to 10752
  140.0174  134.9412  157.0404 H   0  0  0  0  0  0  0  0  0  0  0  0  # atno 11005 bound_to 11000
  144.7127  139.8311  143.7409 LP  0  0  0  0  0  0  0  0  0  0  0  0  # atno 17320 bound_to 7965
  146.1213  139.4232  143.0226 LP  0  0  0  0  0  0  0  0  0  0  0  0  # atno 17321 bound_to 7965
  140.7820  143.4412  151.0549 LP  0  0  0  0  0  0  0  0  0  0  0  0  # atno 17342 bound_to 10162
  139.8090  143.7977  152.3170 LP  0  0  0  0  0  0  0  0  0  0  0  0  # atno 17343 bound_to 10162
  156.7930  130.4896  149.5381 LP  0  0  0  0  0  0  0  0  0  0  0  0  # atno 17370 bound_to 10713
  156.1231  130.6124  151.0223 LP  0  0  0  0  0  0  0  0  0  0  0  0  # atno 17371 bound_to 10713
  140.4447  134.1644  155.7176 LP  0  0  0  0  0  0  0  0  0  0  0  0  # atno 17394 bound_to 11000
  141.1751  133.8529  157.1445 LP  0  0  0  0  0  0  0  0  0  0  0  0  # atno 17395 bound_to 11000

$$$$
