AV-unprocessed.smi:3222|AV-procd|sdf|12305|dock3
  -GOLD-   2272018143D 1   1.00000     0.00000
 Structure written by MMmdl.
 41 42  0  0  0  0  0  0  0  0  2 V2000
  152.0608  144.6874  156.5712 C   0  0  0  0  0  0  0  0  0  0  0  0
  151.8651  143.7939  157.8099 C   0  0  2  0  0  0  0  0  0  0  0  0
  150.4486  143.3669  157.8676 N   0  3  0  0  0  0  0  0  0  0  0  0
  150.1890  142.0020  157.3667 C   0  0  0  0  0  0  0  0  0  0  0  0
  150.6584  141.8530  155.9114 C   0  0  0  0  0  0  0  0  0  0  0  0
  150.7253  140.4510  155.5080 N   0  0  0  0  0  0  0  0  0  0  0  0
  149.8053  139.9172  154.5178 C   0  0  0  0  0  0  0  0  0  0  0  0
  150.0737  138.4053  154.4964 C   0  0  0  0  0  0  0  0  0  0  0  0
  151.3863  138.2019  155.2609 C   0  0  0  0  0  0  0  0  0  0  0  0
  151.6201  139.5479  155.9252 C   0  0  0  0  0  0  0  0  0  0  0  0
  152.5244  139.7462  156.7350 O   0  0  0  0  0  0  0  0  0  0  0  0
  152.2796  144.4919  159.1343 C   0  0  1  0  0  0  0  0  0  0  0  0
  151.2075  145.4616  159.6672 C   0  0  0  0  0  0  0  0  0  0  0  0
  152.6385  143.5318  160.1705 N   0  0  0  0  0  0  0  0  0  0  0  0
  152.1968  143.4791  161.4767 C   0  0  0  0  0  0  0  0  0  0  0  0
  152.8004  142.4073  162.0692 C   0  0  0  0  0  0  0  0  0  0  0  0
  153.6029  141.8548  161.0324 C   0  0  0  0  0  0  0  0  0  0  0  0
  153.5038  142.5286  159.8981 N   0  0  0  0  0  0  0  0  0  0  0  0
  153.1083  144.9474  156.4181 H   0  0  0  0  0  0  0  0  0  0  0  0
  151.4965  145.6164  156.6587 H   0  0  0  0  0  0  0  0  0  0  0  0
  151.7252  144.1790  155.6667 H   0  0  0  0  0  0  0  0  0  0  0  0
  152.4954  142.9139  157.6679 H   0  0  0  0  0  0  0  0  0  0  0  0
  150.1324  143.4321  158.8246 H   0  0  0  0  0  0  0  0  0  0  0  0
  150.7075  141.2893  158.0092 H   0  0  0  0  0  0  0  0  0  0  0  0
  149.1231  141.7821  157.4368 H   0  0  0  0  0  0  0  0  0  0  0  0
  149.9797  142.3876  155.2452 H   0  0  0  0  0  0  0  0  0  0  0  0
  151.6407  142.3103  155.7817 H   0  0  0  0  0  0  0  0  0  0  0  0
  148.7695  140.1397  154.7773 H   0  0  0  0  0  0  0  0  0  0  0  0
  150.0198  140.3655  153.5467 H   0  0  0  0  0  0  0  0  0  0  0  0
  149.2653  137.8729  154.9993 H   0  0  0  0  0  0  0  0  0  0  0  0
  150.1336  138.0218  153.4773 H   0  0  0  0  0  0  0  0  0  0  0  0
  151.3138  137.4018  155.9982 H   0  0  0  0  0  0  0  0  0  0  0  0
  152.2123  137.9819  154.5840 H   0  0  0  0  0  0  0  0  0  0  0  0
  153.1776  145.0787  158.9339 H   0  0  0  0  0  0  0  0  0  0  0  0
  151.0332  146.2860  158.9761 H   0  0  0  0  0  0  0  0  0  0  0  0
  151.5160  145.9004  160.6166 H   0  0  0  0  0  0  0  0  0  0  0  0
  150.2550  144.9559  159.8300 H   0  0  0  0  0  0  0  0  0  0  0  0
  151.4975  144.2007  161.8732 H   0  0  0  0  0  0  0  0  0  0  0  0
  152.6851  142.0682  163.0881 H   0  0  0  0  0  0  0  0  0  0  0  0
  154.2495  140.9905  161.0702 H   0  0  0  0  0  0  0  0  0  0  0  0
  149.9055  144.0078  157.3069 H   0  0  0  0  0  0  0  0  0  0  0  0
  1  2  1  0  0  0  0
  1 19  1  0  0  0  0
  1 20  1  0  0  0  0
  1 21  1  0  0  0  0
  2  3  1  0  0  0  0
  2 12  1  0  0  0  0
  2 22  1  0  0  0  0
  3  4  1  0  0  0  0
  3 23  1  0  0  0  0
  3 41  1  0  0  0  0
  4  5  1  0  0  0  0
  4 24  1  0  0  0  0
  4 25  1  0  0  0  0
  5  6  1  0  0  0  0
  5 26  1  0  0  0  0
  5 27  1  0  0  0  0
  6 10  1  0  0  0  0
  6  7  1  0  0  0  0
  7  8  1  0  0  0  0
  7 28  1  0  0  0  0
  7 29  1  0  0  0  0
  8  9  1  0  0  0  0
  8 30  1  0  0  0  0
  8 31  1  0  0  0  0
  9 10  1  0  0  0  0
  9 32  1  0  0  0  0
  9 33  1  0  0  0  0
 10 11  2  0  0  0  0
 12 13  1  0  0  0  0
 12 14  1  0  0  0  0
 12 34  1  0  0  0  0
 13 35  1  0  0  0  0
 13 36  1  0  0  0  0
 13 37  1  0  0  0  0
 14 18  1  0  0  0  0
 14 15  1  0  0  0  0
 15 16  2  0  0  0  0
 15 38  1  0  0  0  0
 16 17  1  0  0  0  0
 16 39  1  0  0  0  0
 17 18  2  0  0  0  0
 17 40  1  0  0  0  0
M  CHG  1   3   1
M  END
> <s_m_source_file>
AV-unprocessed.smi

> <i_m_source_file_index>
3222

> <i_lp_mmshare_version>
43012

> <i_f3d_flags>
0

> <s_epik_input>
bjFbY0hdW2NIXVtjSF1uMVtDQEBIXShbQ0gzXSlbQ0BIXShbQ0gzXSlbTkhdW0NIMl1bQ0gyXU4yW0NIMl1bQ0gyXVtDSDJdQzI9Tw==

> <s_epik_cmdline>
J2VwaWtfcHl0aG9uJywgJy1waCcsICc3LjAnLCAnLXRuJywgJzgnLCAnLW1hJywgJzIwMCcsICctbWV0YWxfYmluZGluZycsICctaW1hZScsICc8aW5maWxlLm1hZT4nLCAnLW9tYWUnLCAnPG91dGZpbGUubWFlPic=

> <r_lp_tautomer_probability>
1

> <r_epik_Ionization_Penalty>
0.0064019

> <r_epik_Ionization_Penalty_Charging>
0.00639164

> <r_epik_Ionization_Penalty_Neutral>
1.02567e-05

> <r_epik_State_Penalty>
0.00472531

> <r_epik_Charging_Adjusted_Penalty>
0.011117

> <i_epik_Tot_Q>
1

> <i_epik_Tot_abs_Q>
1

> <r_epik_Metal_State_Penalty>
-0

> <b_epik_Metal_Only>
0

> <s_lp_Force_Field>
OPLS_2005

> <r_lp_Energy>
25.0095

> <b_lp_Chiralities_Consistent>
1

> <s_lp_Variant>
AV-unprocessed.smi:3222-3

> <Gold.Version>
5.8.1

> <Gold.Id.Protein>
6NUR|6NUR_protein|mol2

> <Gold.PLP.Fitness>
54.7563

> <Gold.PLP.PLP>
-48.1611

> <Gold.PLP.part.hbond>
-2.0000

> <Gold.PLP.part.metal>
0.0000

> <Gold.PLP.part.buried>
-4.0248

> <Gold.PLP.part.nonpolar>
-42.0953

> <Gold.PLP.part.repulsive>
0.0266

> <Gold.PLP.ligand.clash>
0.0000

> <Gold.PLP.ligand.torsion>
1.2741

> <Gold.PLP.Chemscore.Hbond>
3.0000

> <Gold.PLP.Chemscore.CHOScore>
0.0000

> <Gold.PLP.Chemscore.Metal>
0.0000

> <Gold.Chemscore.Hbonds>
donor molecule, donor type, donor heavy atom, donor atom, acceptor molecule, acceptor atom, score
      L1  H     3    41       P1  8028  1.95
      P1  H  7997  8009       L1    11  1.00

> <Gold.PLP.Chemscore.Internal.Correction>
0.1435

> <Gold.Rescore>
     Score         DG    S(hbond)    S(metal)    S(lipo)     H(rot)  DE(clash)    DE(int)     intcor
     17.31     -20.21       1.68        0.00     121.53       1.99       1.65       1.26       ----

> <Gold.Chemscore.Fitness>
17.3125

> <Gold.Chemscore.DG>
-20.2148

> <Gold.Chemscore.ZeroCoef>
-5.4800

> <Gold.Chemscore.Hbond>
1.6815

> <Gold.Chemscore.Metal>
0.0000

> <Gold.Chemscore.Lipo>
121.5291

> <Gold.Chemscore.Internal_Hbond>
0.0000

> <Gold.Chemscore.DEClash>
1.6452

> <Gold.Chemscore.DEInternal>
1.2571

> <Gold.Chemscore.Rot>
1.9922

> <Gold.Chemscore.Internal.Correction>
   9.000000E+99

> <Gold.Chemscore.Hbonds>
donor molecule, donor type, donor heavy atom, donor atom, acceptor molecule, acceptor atom, score
      L1  H     3    41       P1  8028  0.63
      P1  H  7997  8009       L1    11  1.00

> <Gold.Chemscore.Hbond.Weighted>
-5.6161

> <Gold.Chemscore.Metal.Weighted>
-0.0000

> <Gold.Chemscore.Lipo.Weighted>
-14.2189

> <Gold.Chemscore.Internal_Hbond.Weighted>
0.0000

> <Gold.Chemscore.DEClash.Weighted>
1.6452

> <Gold.Chemscore.DEInternal.Weighted>
1.2571

> <Gold.Chemscore.Rot.Weighted>
5.1002

> <Gold.Chemscore.Internal.Correction.Weighted>
   9.000000E+99

> <Gold.Protein.RotatedTorsions>
[ 6907 6896 6895 6894 ] final  150.50 input  -60.11 | X-H torsion
[ 7974 7965 7964 7962 ] final  177.74 input  175.53 | X-H torsion
[ 8008 7997 7996 7995 ] final -171.26 input   59.86 | X-H torsion
[ 10167 10162 10161 10158 ] final   22.04 input  -65.29 | X-H torsion
[ 10718 10713 10712 10709 ] final    1.93 input   66.30 | X-H torsion
[ 10763 10752 10751 10750 ] final -174.55 input  -60.55 | X-H torsion
[ 11005 11000 10999 10996 ] final   -6.81 input  -57.11 | X-H torsion

> <Gold.Protein.ActiveResidues>
 VAL166  LYS551  ARG553  GLY616  TRP617  ASP618  TYR619  PRO620  LYS621  CYS622 
 ASP623  PHE694  ASN695  SER759  ASP760  ASP761  ALA762  ILE779  LEU786  VAL792 
 PHE793  MET794  SER795  GLU796  ALA797  LYS798  CYS799  TRP800  GLU811  SER814 

> <Gold.Protein.RotatedAtoms>
  152.1136  133.4314  159.4642 H   0  0  0  0  0  0  0  0  0  0  0  0  # atno 6907 bound_to 6896
  150.6868  134.2619  159.4562 H   0  0  0  0  0  0  0  0  0  0  0  0  # atno 6908 bound_to 6896
  152.0489  134.9665  160.0625 H   0  0  0  0  0  0  0  0  0  0  0  0  # atno 6909 bound_to 6896
  144.7165  140.0292  143.6439 H   0  0  0  0  0  0  0  0  0  0  0  0  # atno 7974 bound_to 7965
  155.9292  140.1088  157.1146 H   0  0  0  0  0  0  0  0  0  0  0  0  # atno 8008 bound_to 7997
  154.4068  140.1241  156.4846 H   0  0  0  0  0  0  0  0  0  0  0  0  # atno 8009 bound_to 7997
  155.7101  140.3471  155.4972 H   0  0  0  0  0  0  0  0  0  0  0  0  # atno 8010 bound_to 7997
  140.5379  143.9728  150.6502 H   0  0  0  0  0  0  0  0  0  0  0  0  # atno 10167 bound_to 10162
  156.8554  130.5568  149.5666 H   0  0  0  0  0  0  0  0  0  0  0  0  # atno 10718 bound_to 10713
  154.5949  135.2848  155.0596 H   0  0  0  0  0  0  0  0  0  0  0  0  # atno 10763 bound_to 10752
  154.1883  135.6445  153.5057 H   0  0  0  0  0  0  0  0  0  0  0  0  # atno 10764 bound_to 10752
  153.0135  135.5440  154.6648 H   0  0  0  0  0  0  0  0  0  0  0  0  # atno 10765 bound_to 10752
  140.7060  133.8949  155.8717 H   0  0  0  0  0  0  0  0  0  0  0  0  # atno 11005 bound_to 11000
  146.0117  139.3175  143.0866 LP  0  0  0  0  0  0  0  0  0  0  0  0  # atno 17320 bound_to 7965
  145.8674  140.9440  143.0668 LP  0  0  0  0  0  0  0  0  0  0  0  0  # atno 17321 bound_to 7965
  140.3120  143.3192  152.0869 LP  0  0  0  0  0  0  0  0  0  0  0  0  # atno 17342 bound_to 10162
  139.4978  144.6630  151.6422 LP  0  0  0  0  0  0  0  0  0  0  0  0  # atno 17343 bound_to 10162
  156.0805  130.5817  150.9554 LP  0  0  0  0  0  0  0  0  0  0  0  0  # atno 17370 bound_to 10713
  157.6280  131.0924  150.8497 LP  0  0  0  0  0  0  0  0  0  0  0  0  # atno 17371 bound_to 10713
  141.0124  134.1002  157.4207 LP  0  0  0  0  0  0  0  0  0  0  0  0  # atno 17394 bound_to 11000
  139.8884  135.0097  156.6618 LP  0  0  0  0  0  0  0  0  0  0  0  0  # atno 17395 bound_to 11000

$$$$
