AV-unprocessed.smi:101|AV-procd|sdf|918|dock3
  -GOLD-   2262017423D 1   1.00000     0.00000
 Structure written by MMmdl.
 44 46  0  0  0  0  0  0  0  0  1 V2000
  145.3398  141.5541  158.6139 C   0  0  0  0  0  0  0  0  0  0  0  0
  145.4693  142.1208  157.2100 C   0  0  0  0  0  0  0  0  0  0  0  0
  146.4047  141.6798  156.3307 C   0  0  0  0  0  0  0  0  0  0  0  0
  146.5456  142.1765  155.0424 N   0  0  0  0  0  0  0  0  0  0  0  0
  147.6190  141.6369  154.1210 C   0  0  1  0  0  0  0  0  0  0  0  0
  148.8056  141.5565  154.8453 O   0  0  0  0  0  0  0  0  0  0  0  0
  149.5400  140.4267  154.4030 C   0  0  1  0  0  0  0  0  0  0  0  0
  150.5234  139.9915  155.4951 C   0  0  0  0  0  0  0  0  0  0  0  0
  150.7585  141.0797  156.3731 O   0  0  0  0  0  0  0  0  0  0  0  0
  151.7867  141.0340  157.2427 C   0  0  0  0  0  0  0  0  0  0  0  0
  152.5512  140.0725  157.3446 O   0  0  0  0  0  0  0  0  0  0  0  0
  151.9030  142.2692  158.0701 C   0  0  0  0  0  0  0  0  0  0  0  0
  151.2413  143.4477  157.6528 C   0  0  0  0  0  0  0  0  0  0  0  0
  151.3317  144.6294  158.4137 C   0  0  0  0  0  0  0  0  0  0  0  0
  152.0844  144.6468  159.6021 C   0  0  0  0  0  0  0  0  0  0  0  0
  152.7476  143.4814  160.0282 C   0  0  0  0  0  0  0  0  0  0  0  0
  152.6588  142.2989  159.2681 C   0  0  0  0  0  0  0  0  0  0  0  0
  148.4529  139.3887  154.1124 C   0  0  2  0  0  0  0  0  0  0  0  0
  148.9052  138.4670  153.1402 O   0  0  0  0  0  0  0  0  0  0  0  0
  147.3013  140.2278  153.5675 C   0  0  1  0  0  0  0  0  0  0  0  0
  146.0559  139.6974  153.9857 O   0  0  0  0  0  0  0  0  0  0  0  0
  145.6700  143.1844  154.5887 C   0  0  0  0  0  0  0  0  0  0  0  0
  145.7162  143.6525  153.4520 O   0  0  0  0  0  0  0  0  0  0  0  0
  144.7116  143.6402  155.4924 N   0  0  0  0  0  0  0  0  0  0  0  0
  144.5413  143.1787  156.8002 C   0  0  0  0  0  0  0  0  0  0  0  0
  143.6567  143.6629  157.5043 O   0  0  0  0  0  0  0  0  0  0  0  0
  144.0836  144.3638  155.1739 H   0  0  0  0  0  0  0  0  0  0  0  0
  146.0777  140.7744  158.8049 H   0  0  0  0  0  0  0  0  0  0  0  0
  144.3499  141.1205  158.7605 H   0  0  0  0  0  0  0  0  0  0  0  0
  145.4837  142.3395  159.3569 H   0  0  0  0  0  0  0  0  0  0  0  0
  147.0724  140.8912  156.6477 H   0  0  0  0  0  0  0  0  0  0  0  0
  147.7724  142.3707  153.3282 H   0  0  0  0  0  0  0  0  0  0  0  0
  150.0661  140.6892  153.4826 H   0  0  0  0  0  0  0  0  0  0  0  0
  150.1324  139.1295  156.0378 H   0  0  0  0  0  0  0  0  0  0  0  0
  151.4718  139.6951  155.0453 H   0  0  0  0  0  0  0  0  0  0  0  0
  150.6573  143.4589  156.7437 H   0  0  0  0  0  0  0  0  0  0  0  0
  150.8226  145.5232  158.0845 H   0  0  0  0  0  0  0  0  0  0  0  0
  152.1534  145.5531  160.1856 H   0  0  0  0  0  0  0  0  0  0  0  0
  153.3259  143.4938  160.9403 H   0  0  0  0  0  0  0  0  0  0  0  0
  153.1801  141.4222  159.6239 H   0  0  0  0  0  0  0  0  0  0  0  0
  148.1630  138.8753  155.0311 H   0  0  0  0  0  0  0  0  0  0  0  0
  149.1427  138.9439  152.3596 H   0  0  0  0  0  0  0  0  0  0  0  0
  147.3276  140.2853  152.4781 H   0  0  0  0  0  0  0  0  0  0  0  0
  145.4077  139.9065  153.3303 H   0  0  0  0  0  0  0  0  0  0  0  0
  1  2  1  0  0  0  0
  1 28  1  0  0  0  0
  1 29  1  0  0  0  0
  1 30  1  0  0  0  0
  2 25  1  0  0  0  0
  2  3  2  0  0  0  0
  3  4  1  0  0  0  0
  3 31  1  0  0  0  0
  4  5  1  0  0  0  0
  4 22  1  0  0  0  0
  5 20  1  0  0  0  0
  5  6  1  0  0  0  0
  5 32  1  0  0  0  0
  6  7  1  0  0  0  0
  7  8  1  0  0  0  0
  7 18  1  0  0  0  0
  7 33  1  0  0  0  0
  8  9  1  0  0  0  0
  8 34  1  0  0  0  0
  8 35  1  0  0  0  0
  9 10  1  0  0  0  0
 10 11  2  0  0  0  0
 10 12  1  0  0  0  0
 12 17  1  0  0  0  0
 12 13  2  0  0  0  0
 13 14  1  0  0  0  0
 13 36  1  0  0  0  0
 14 15  2  0  0  0  0
 14 37  1  0  0  0  0
 15 16  1  0  0  0  0
 15 38  1  0  0  0  0
 16 17  2  0  0  0  0
 16 39  1  0  0  0  0
 17 40  1  0  0  0  0
 18 19  1  0  0  0  0
 18 20  1  0  0  0  0
 18 41  1  0  0  0  0
 19 42  1  0  0  0  0
 20 21  1  0  0  0  0
 20 43  1  0  0  0  0
 21 44  1  0  0  0  0
 22 23  2  0  0  0  0
 22 24  1  0  0  0  0
 24 27  1  0  0  0  0
 24 25  1  0  0  0  0
 25 26  2  0  0  0  0
M  END
> <s_m_source_file>
AV-unprocessed.smi

> <i_m_source_file_index>
101

> <i_lp_mmshare_version>
43012

> <i_f3d_flags>
0

> <s_epik_input>
Tz1jMVtuSF1jKD1PKW4oW2NIXWMxW0NIM10pW0NAQEhdMk9bQ0BIXShbQ0BASF0oW09IXSlbQ0BIXTJbT0hdKVtDSDJdT0MoPU8pYzNbY0hdW2NIXVtjSF1bY0hdW2NIXTM=

> <s_epik_cmdline>
J2VwaWtfcHl0aG9uJywgJy1waCcsICc3LjAnLCAnLXRuJywgJzgnLCAnLW1hJywgJzIwMCcsICctbWV0YWxfYmluZGluZycsICctaW1hZScsICc8aW5maWxlLm1hZT4nLCAnLW9tYWUnLCAnPG91dGZpbGUubWFlPic=

> <r_lp_tautomer_probability>
0.999537

> <r_epik_Ionization_Penalty>
0.00263537

> <r_epik_Ionization_Penalty_Charging>
0.00263428

> <r_epik_Ionization_Penalty_Neutral>
1.09111e-06

> <r_epik_State_Penalty>
0.00183335

> <r_epik_Charging_Adjusted_Penalty>
0.00446763

> <i_epik_Tot_Q>
0

> <i_epik_Tot_abs_Q>
0

> <r_epik_Metal_State_Penalty>
1.00528

> <b_epik_Metal_Only>
0

> <s_epik_Chemistry_Notes>
This compound has an ester and may undergo hydrolysis at high or low pH. This compound contains an acetal/aminal-like group ( X-CH(R)-Y where X, Y are N, S, or O) that may be acid/base labile, releasing an aldehyde.

> <s_lp_Force_Field>
OPLS_2005

> <r_lp_Energy>
35.8325

> <b_lp_Chiralities_Consistent>
1

> <s_lp_Variant>
AV-unprocessed.smi:101-6

> <Gold.Version>
5.8.1

> <Gold.Id.Protein>
6NUR|6NUR_protein|mol2

> <Gold.PLP.Fitness>
56.2557

> <Gold.PLP.PLP>
-49.1103

> <Gold.PLP.part.hbond>
-4.9119

> <Gold.PLP.part.metal>
0.0000

> <Gold.PLP.part.buried>
-5.6773

> <Gold.PLP.part.nonpolar>
-38.8973

> <Gold.PLP.part.repulsive>
0.4531

> <Gold.PLP.ligand.clash>
0.0000

> <Gold.PLP.ligand.torsion>
1.1230

> <Gold.PLP.Chemscore.Hbond>
3.0000

> <Gold.PLP.Chemscore.CHOScore>
0.0000

> <Gold.PLP.Chemscore.Metal>
0.0000

> <Gold.Chemscore.Hbonds>
donor molecule, donor type, donor heavy atom, donor atom, acceptor molecule, acceptor atom, score
      L1  H    19    42       P1  7957  1.00
      L1  H    21    44       P1 10175  1.00
      P1  H  7997  8009       L1    11  1.00

> <Gold.PLP.Chemscore.Internal.Correction>
0.3915

> <Gold.Rescore>
     Score         DG    S(hbond)    S(metal)    S(lipo)     H(rot)  DE(clash)    DE(int)     intcor
     17.48     -18.72       2.95        0.00     101.56       3.32       0.17       1.07       ----

> <Gold.Chemscore.Fitness>
17.4795

> <Gold.Chemscore.DG>
-18.7170

> <Gold.Chemscore.ZeroCoef>
-5.4800

> <Gold.Chemscore.Hbond>
2.9480

> <Gold.Chemscore.Metal>
0.0000

> <Gold.Chemscore.Lipo>
101.5606

> <Gold.Chemscore.Internal_Hbond>
0.0000

> <Gold.Chemscore.DEClash>
0.1663

> <Gold.Chemscore.DEInternal>
1.0712

> <Gold.Chemscore.Rot>
3.3172

> <Gold.Chemscore.Internal.Correction>
   9.000000E+99

> <Gold.Chemscore.Hbonds>
donor molecule, donor type, donor heavy atom, donor atom, acceptor molecule, acceptor atom, score
      L1  H    19    42       P1  7957  0.94
      L1  H    21    44       P1 10175  0.95
      P1  H  7997  8009       L1    11  0.97

> <Gold.Chemscore.Hbond.Weighted>
-9.8465

> <Gold.Chemscore.Metal.Weighted>
-0.0000

> <Gold.Chemscore.Lipo.Weighted>
-11.8826

> <Gold.Chemscore.Internal_Hbond.Weighted>
0.0000

> <Gold.Chemscore.DEClash.Weighted>
0.1663

> <Gold.Chemscore.DEInternal.Weighted>
1.0712

> <Gold.Chemscore.Rot.Weighted>
8.4920

> <Gold.Chemscore.Internal.Correction.Weighted>
   9.000000E+99

> <Gold.Protein.RotatedTorsions>
[ 6907 6896 6895 6894 ] final -173.76 input  -60.11 | X-H torsion
[ 7974 7965 7964 7962 ] final   55.63 input  175.53 | X-H torsion
[ 8008 7997 7996 7995 ] final  173.91 input   59.86 | X-H torsion
[ 10167 10162 10161 10158 ] final  -80.55 input  -65.29 | X-H torsion
[ 10718 10713 10712 10709 ] final  -57.28 input   66.30 | X-H torsion
[ 10763 10752 10751 10750 ] final  145.76 input  -60.55 | X-H torsion
[ 11005 11000 10999 10996 ] final   42.15 input  -57.11 | X-H torsion

> <Gold.Protein.ActiveResidues>
 VAL166  LYS551  ARG553  GLY616  TRP617  ASP618  TYR619  PRO620  LYS621  CYS622 
 ASP623  PHE694  ASN695  SER759  ASP760  ASP761  ALA762  ILE779  LEU786  VAL792 
 PHE793  MET794  SER795  GLU796  ALA797  LYS798  CYS799  TRP800  GLU811  SER814 

> <Gold.Protein.RotatedAtoms>
  151.5614  133.3402  159.2971 H   0  0  0  0  0  0  0  0  0  0  0  0  # atno 6907 bound_to 6896
  150.8420  134.7719  159.6951 H   0  0  0  0  0  0  0  0  0  0  0  0  # atno 6908 bound_to 6896
  152.4486  134.5449  159.9901 H   0  0  0  0  0  0  0  0  0  0  0  0  # atno 6909 bound_to 6896
  145.9483  139.3949  143.0321 H   0  0  0  0  0  0  0  0  0  0  0  0  # atno 7974 bound_to 7965
  156.1028  140.1448  156.9445 H   0  0  0  0  0  0  0  0  0  0  0  0  # atno 8008 bound_to 7997
  154.4713  140.0909  156.7197 H   0  0  0  0  0  0  0  0  0  0  0  0  # atno 8009 bound_to 7997
  155.4731  140.3442  155.4331 H   0  0  0  0  0  0  0  0  0  0  0  0  # atno 8010 bound_to 7997
  140.4492  143.2488  151.8513 H   0  0  0  0  0  0  0  0  0  0  0  0  # atno 10167 bound_to 10162
  156.1223  130.4165  150.0419 H   0  0  0  0  0  0  0  0  0  0  0  0  # atno 10718 bound_to 10713
  154.0106  135.2915  155.3392 H   0  0  0  0  0  0  0  0  0  0  0  0  # atno 10763 bound_to 10752
  154.7105  135.5151  153.8662 H   0  0  0  0  0  0  0  0  0  0  0  0  # atno 10764 bound_to 10752
  153.0724  135.6652  154.0338 H   0  0  0  0  0  0  0  0  0  0  0  0  # atno 10765 bound_to 10752
  140.1766  134.4156  155.8225 H   0  0  0  0  0  0  0  0  0  0  0  0  # atno 11005 bound_to 11000
  145.8206  140.9681  143.0901 LP  0  0  0  0  0  0  0  0  0  0  0  0  # atno 17320 bound_to 7965
  144.6791  140.0036  143.7484 LP  0  0  0  0  0  0  0  0  0  0  0  0  # atno 17321 bound_to 7965
  139.4795  144.5139  151.8894 LP  0  0  0  0  0  0  0  0  0  0  0  0  # atno 17342 bound_to 10162
  140.4227  144.2222  150.5887 LP  0  0  0  0  0  0  0  0  0  0  0  0  # atno 17343 bound_to 10162
  156.8354  130.9407  151.3635 LP  0  0  0  0  0  0  0  0  0  0  0  0  # atno 17370 bound_to 10713
  157.6406  130.8802  149.9441 LP  0  0  0  0  0  0  0  0  0  0  0  0  # atno 17371 bound_to 10713
  141.2221  133.6980  156.7857 LP  0  0  0  0  0  0  0  0  0  0  0  0  # atno 17394 bound_to 11000
  140.2316  134.8682  157.3482 LP  0  0  0  0  0  0  0  0  0  0  0  0  # atno 17395 bound_to 11000

$$$$
