AV-unprocessed.smi:103|AV-procd|sdf|980|dock1
  -GOLD-   2262017543D 1   1.00000     0.00000
 Structure written by MMmdl.
 53 55  0  0  0  0  0  0  0  0  1 V2000
  153.0580  141.0565  159.6755 C   0  0  0  0  0  0  0  0  0  0  0  0
  153.7890  139.7995  159.2225 C   0  0  0  0  0  0  0  0  0  0  0  0
  155.0033  139.7988  159.0209 O   0  0  0  0  0  0  0  0  0  0  0  0
  152.9664  138.7488  159.0851 O   0  0  0  0  0  0  0  0  0  0  0  0
  153.4122  137.5989  158.3853 C   0  0  0  0  0  0  0  0  0  0  0  0
  152.2120  136.8967  157.7358 C   0  0  1  0  0  0  0  0  0  0  0  0
  151.1471  136.7159  158.6692 O   0  0  0  0  0  0  0  0  0  0  0  0
  149.9172  136.7904  158.0111 C   0  0  2  0  0  0  0  0  0  0  0  0
  149.1518  135.5265  158.2613 N   0  0  0  0  0  0  0  0  0  0  0  0
  148.3325  135.1827  159.3207 C   0  0  0  0  0  0  0  0  0  0  0  0
  147.9091  136.2037  160.7305 S   0  0  0  0  0  0  0  0  0  0  0  0
  147.3558  134.9563  161.9627 C   0  0  0  0  0  0  0  0  0  0  0  0
  149.1580  136.8226  161.2022 O   0  0  0  0  0  0  0  0  0  0  0  0
  146.7663  137.0412  160.3353 O   0  0  0  0  0  0  0  0  0  0  0  0
  147.7484  134.0171  159.2546 N   0  0  0  0  0  0  0  0  0  0  0  0
  148.2544  133.4757  158.0828 C   0  0  0  0  0  0  0  0  0  0  0  0
  148.0737  132.2403  157.4112 C   0  0  0  0  0  0  0  0  0  0  0  0
  147.2719  131.2694  157.8694 N   0  0  0  0  0  0  0  0  0  0  0  0
  148.7430  132.0294  156.2541 N   0  0  0  0  0  0  0  0  0  0  0  0
  149.5503  132.9822  155.7775 C   0  0  0  0  0  0  0  0  0  0  0  0
  149.8158  134.1858  156.2917 N   0  0  0  0  0  0  0  0  0  0  0  0
  149.1404  134.4004  157.4592 C   0  0  0  0  0  0  0  0  0  0  0  0
  150.2059  136.9878  156.5211 C   0  0  1  0  0  0  0  0  0  0  0  0
  149.1977  137.7761  155.9030 O   0  0  0  0  0  0  0  0  0  0  0  0
  149.3809  138.2528  154.6615 C   0  0  0  0  0  0  0  0  0  0  0  0
  148.1744  139.0341  154.1592 C   0  0  0  0  0  0  0  0  0  0  0  0
  150.3894  138.1090  153.9709 O   0  0  0  0  0  0  0  0  0  0  0  0
  151.5705  137.6594  156.5724 C   0  0  1  0  0  0  0  0  0  0  0  0
  151.4674  139.0433  156.9079 O   0  0  0  0  0  0  0  0  0  0  0  0
  151.6981  139.9940  155.9847 C   0  0  0  0  0  0  0  0  0  0  0  0
  150.8798  141.2531  156.2348 C   0  0  0  0  0  0  0  0  0  0  0  0
  152.4633  139.9048  155.0248 O   0  0  0  0  0  0  0  0  0  0  0  0
  152.1370  141.1879  159.1071 H   0  0  0  0  0  0  0  0  0  0  0  0
  153.6839  141.9367  159.5261 H   0  0  0  0  0  0  0  0  0  0  0  0
  152.8065  140.9866  160.7337 H   0  0  0  0  0  0  0  0  0  0  0  0
  154.1543  137.8697  157.6329 H   0  0  0  0  0  0  0  0  0  0  0  0
  153.8930  136.9223  159.0936 H   0  0  0  0  0  0  0  0  0  0  0  0
  152.5210  135.9174  157.3684 H   0  0  0  0  0  0  0  0  0  0  0  0
  149.3321  137.6024  158.4341 H   0  0  0  0  0  0  0  0  0  0  0  0
  147.1086  135.4575  162.8983 H   0  0  0  0  0  0  0  0  0  0  0  0
  148.1562  134.2373  162.1362 H   0  0  0  0  0  0  0  0  0  0  0  0
  146.4752  134.4369  161.5901 H   0  0  0  0  0  0  0  0  0  0  0  0
  146.7630  131.4029  158.7315 H   0  0  0  0  0  0  0  0  0  0  0  0
  147.1811  130.4055  157.3545 H   0  0  0  0  0  0  0  0  0  0  0  0
  150.0536  132.7478  154.8511 H   0  0  0  0  0  0  0  0  0  0  0  0
  150.2955  136.0113  156.0446 H   0  0  0  0  0  0  0  0  0  0  0  0
  147.3274  138.3649  154.0084 H   0  0  0  0  0  0  0  0  0  0  0  0
  148.4023  139.5242  153.2124 H   0  0  0  0  0  0  0  0  0  0  0  0
  147.8904  139.7978  154.8834 H   0  0  0  0  0  0  0  0  0  0  0  0
  152.1345  137.5100  155.6507 H   0  0  0  0  0  0  0  0  0  0  0  0
  149.8155  141.0174  156.2408 H   0  0  0  0  0  0  0  0  0  0  0  0
  151.0658  141.9926  155.4555 H   0  0  0  0  0  0  0  0  0  0  0  0
  151.1438  141.6911  157.1975 H   0  0  0  0  0  0  0  0  0  0  0  0
  1  2  1  0  0  0  0
  1 33  1  0  0  0  0
  1 34  1  0  0  0  0
  1 35  1  0  0  0  0
  2  3  2  0  0  0  0
  2  4  1  0  0  0  0
  4  5  1  0  0  0  0
  5  6  1  0  0  0  0
  5 36  1  0  0  0  0
  5 37  1  0  0  0  0
  6 28  1  0  0  0  0
  6  7  1  0  0  0  0
  6 38  1  0  0  0  0
  7  8  1  0  0  0  0
  8  9  1  0  0  0  0
  8 23  1  0  0  0  0
  8 39  1  0  0  0  0
  9 22  1  0  0  0  0
  9 10  1  0  0  0  0
 10 11  1  0  0  0  0
 10 15  2  0  0  0  0
 11 12  1  0  0  0  0
 11 13  2  0  0  0  0
 11 14  2  0  0  0  0
 12 40  1  0  0  0  0
 12 41  1  0  0  0  0
 12 42  1  0  0  0  0
 15 16  1  0  0  0  0
 16 22  2  0  0  0  0
 16 17  1  0  0  0  0
 17 18  1  0  0  0  0
 17 19  2  0  0  0  0
 18 43  1  0  0  0  0
 18 44  1  0  0  0  0
 19 20  1  0  0  0  0
 20 21  2  0  0  0  0
 20 45  1  0  0  0  0
 21 22  1  0  0  0  0
 23 24  1  0  0  0  0
 23 28  1  0  0  0  0
 23 46  1  0  0  0  0
 24 25  1  0  0  0  0
 25 26  1  0  0  0  0
 25 27  2  0  0  0  0
 26 47  1  0  0  0  0
 26 48  1  0  0  0  0
 26 49  1  0  0  0  0
 28 29  1  0  0  0  0
 28 50  1  0  0  0  0
 29 30  1  0  0  0  0
 30 31  1  0  0  0  0
 30 32  2  0  0  0  0
 31 51  1  0  0  0  0
 31 52  1  0  0  0  0
 31 53  1  0  0  0  0
M  END
> <s_m_source_file>
AV-unprocessed.smi

> <i_m_source_file_index>
103

> <i_lp_mmshare_version>
43012

> <i_f3d_flags>
0

> <s_epik_input>
W0NIM11DKD1PKU9bQ0gyXVtDQEBIXTFPW0NASF0oW0NAQEhdKE9DKD1PKVtDSDNdKVtDQEhdMU9DKD1PKVtDSDNdKW4oYyhuMilTKD1PKSg9TylbQ0gzXSljKGMyMyluW2NIXW5jM1tOSDJd

> <s_epik_cmdline>
J2VwaWtfcHl0aG9uJywgJy1waCcsICc3LjAnLCAnLXRuJywgJzgnLCAnLW1hJywgJzIwMCcsICctbWV0YWxfYmluZGluZycsICctaW1hZScsICc8aW5maWxlLm1hZT4nLCAnLW9tYWUnLCAnPG91dGZpbGUubWFlPic=

> <r_lp_tautomer_probability>
1

> <r_epik_Ionization_Penalty>
1.51338e-05

> <r_epik_Ionization_Penalty_Charging>
0

> <r_epik_Ionization_Penalty_Neutral>
1.51338e-05

> <r_epik_State_Penalty>
-0

> <r_epik_Charging_Adjusted_Penalty>
0

> <i_epik_Tot_Q>
0

> <i_epik_Tot_abs_Q>
0

> <r_epik_Metal_State_Penalty>
-0

> <b_epik_Metal_Only>
0

> <s_epik_Chemistry_Notes>
This compound has an ester and may undergo hydrolysis at high or low pH. This compound contains an acetal/aminal-like group ( X-CH(R)-Y where X, Y are N, S, or O) that may be acid/base labile, releasing an aldehyde.

> <s_lp_Force_Field>
OPLS_2005

> <r_lp_Energy>
20.0914

> <b_lp_Chiralities_Consistent>
1

> <s_lp_Variant>
AV-unprocessed.smi:103-4

> <Gold.Version>
5.8.1

> <Gold.Id.Protein>
6NUR|6NUR_protein|mol2

> <Gold.PLP.Fitness>
44.7257

> <Gold.PLP.PLP>
-31.6374

> <Gold.PLP.part.hbond>
-5.7726

> <Gold.PLP.part.metal>
0.0000

> <Gold.PLP.part.buried>
-5.4686

> <Gold.PLP.part.nonpolar>
-21.9084

> <Gold.PLP.part.repulsive>
0.3131

> <Gold.PLP.ligand.clash>
0.0000

> <Gold.PLP.ligand.torsion>
3.3488

> <Gold.PLP.Chemscore.Hbond>
5.4018

> <Gold.PLP.Chemscore.CHOScore>
0.0000

> <Gold.PLP.Chemscore.Metal>
0.0000

> <Gold.Chemscore.Hbonds>
donor molecule, donor type, donor heavy atom, donor atom, acceptor molecule, acceptor atom, score
      P1  H  6896  6907       L1     7  0.85
      P1  H  6931  6943       L1    13  0.96
      P1  H  6934  6947       L1    14  0.81
      P1  H  7989  7998       L1    32  0.62
      P1  H  7997  8009       L1     3  1.00
      P1  H  7997  8010       L1    32  0.62

> <Gold.PLP.Chemscore.Internal.Correction>
3.5806

> <Gold.Rescore>
     Score         DG    S(hbond)    S(metal)    S(lipo)     H(rot)  DE(clash)    DE(int)     intcor
      7.38     -15.06       4.66        0.00      41.79       4.25       0.32       7.35       ----

> <Gold.Chemscore.Fitness>
7.3796

> <Gold.Chemscore.DG>
-15.0556

> <Gold.Chemscore.ZeroCoef>
-5.4800

> <Gold.Chemscore.Hbond>
4.6571

> <Gold.Chemscore.Metal>
0.0000

> <Gold.Chemscore.Lipo>
41.7897

> <Gold.Chemscore.Internal_Hbond>
0.0000

> <Gold.Chemscore.DEClash>
0.3222

> <Gold.Chemscore.DEInternal>
7.3538

> <Gold.Chemscore.Rot>
4.2456

> <Gold.Chemscore.Internal.Correction>
   9.000000E+99

> <Gold.Chemscore.Hbonds>
donor molecule, donor type, donor heavy atom, donor atom, acceptor molecule, acceptor atom, score
      P1  H  6896  6907       L1     7  0.46
      P1  H  6931  6943       L1    13  0.86
      P1  H  6934  6947       L1    14  0.53
      P1  H  7989  7998       L1    32  0.43
      P1  H  7997  8009       L1     3  0.82
      P1  H  7997  8010       L1    32  0.25

> <Gold.Chemscore.Hbond.Weighted>
-15.5548

> <Gold.Chemscore.Metal.Weighted>
-0.0000

> <Gold.Chemscore.Lipo.Weighted>
-4.8894

> <Gold.Chemscore.Internal_Hbond.Weighted>
0.0000

> <Gold.Chemscore.DEClash.Weighted>
0.3222

> <Gold.Chemscore.DEInternal.Weighted>
7.3538

> <Gold.Chemscore.Rot.Weighted>
10.8687

> <Gold.Chemscore.Internal.Correction.Weighted>
   9.000000E+99

> <Gold.Protein.RotatedTorsions>
[ 6907 6896 6895 6894 ] final  -31.39 input  -60.11 | X-H torsion
[ 7974 7965 7964 7962 ] final  142.29 input  175.53 | X-H torsion
[ 8008 7997 7996 7995 ] final  101.36 input   59.86 | X-H torsion
[ 10167 10162 10161 10158 ] final   36.62 input  -65.29 | X-H torsion
[ 10718 10713 10712 10709 ] final  -82.88 input   66.30 | X-H torsion
[ 10763 10752 10751 10750 ] final   10.16 input  -60.55 | X-H torsion
[ 11005 11000 10999 10996 ] final   26.78 input  -57.11 | X-H torsion

> <Gold.Protein.ActiveResidues>
 VAL166  LYS551  ARG553  GLY616  TRP617  ASP618  TYR619  PRO620  LYS621  CYS622 
 ASP623  PHE694  ASN695  SER759  ASP760  ASP761  ALA762  ILE779  LEU786  VAL792 
 PHE793  MET794  SER795  GLU796  ALA797  LYS798  CYS799  TRP800  GLU811  SER814 

> <Gold.Protein.RotatedAtoms>
  151.0927  134.9926  159.8410 H   0  0  0  0  0  0  0  0  0  0  0  0  # atno 6907 bound_to 6896
  152.5430  134.2045  159.8735 H   0  0  0  0  0  0  0  0  0  0  0  0  # atno 6908 bound_to 6896
  151.2083  133.4527  159.2631 H   0  0  0  0  0  0  0  0  0  0  0  0  # atno 6909 bound_to 6896
  144.9020  139.5409  143.5749 H   0  0  0  0  0  0  0  0  0  0  0  0  # atno 7974 bound_to 7965
  156.1292  140.3198  155.8323 H   0  0  0  0  0  0  0  0  0  0  0  0  # atno 8008 bound_to 7997
  155.4364  140.0522  157.3031 H   0  0  0  0  0  0  0  0  0  0  0  0  # atno 8009 bound_to 7997
  154.4886  140.2083  155.9612 H   0  0  0  0  0  0  0  0  0  0  0  0  # atno 8010 bound_to 7997
  140.4110  144.1592  150.6139 H   0  0  0  0  0  0  0  0  0  0  0  0  # atno 10167 bound_to 10162
  156.0026  130.4648  150.4172 H   0  0  0  0  0  0  0  0  0  0  0  0  # atno 10718 bound_to 10713
  153.2062  135.6863  153.8170 H   0  0  0  0  0  0  0  0  0  0  0  0  # atno 10763 bound_to 10752
  153.7419  135.3237  155.3306 H   0  0  0  0  0  0  0  0  0  0  0  0  # atno 10764 bound_to 10752
  154.8198  135.4660  154.0850 H   0  0  0  0  0  0  0  0  0  0  0  0  # atno 10765 bound_to 10752
  140.3334  134.2413  155.7699 H   0  0  0  0  0  0  0  0  0  0  0  0  # atno 11005 bound_to 11000
  146.3113  139.7758  142.9017 LP  0  0  0  0  0  0  0  0  0  0  0  0  # atno 17320 bound_to 7965
  145.3599  141.0324  143.3290 LP  0  0  0  0  0  0  0  0  0  0  0  0  # atno 17321 bound_to 7965
  140.4637  143.2439  151.9184 LP  0  0  0  0  0  0  0  0  0  0  0  0  # atno 17342 bound_to 10162
  139.4782  144.5441  151.8485 LP  0  0  0  0  0  0  0  0  0  0  0  0  # atno 17343 bound_to 10162
  157.2230  131.0487  151.2535 LP  0  0  0  0  0  0  0  0  0  0  0  0  # atno 17370 bound_to 10713
  157.3782  130.7217  149.6612 LP  0  0  0  0  0  0  0  0  0  0  0  0  # atno 17371 bound_to 10713
  141.2057  133.7852  157.0215 LP  0  0  0  0  0  0  0  0  0  0  0  0  # atno 17394 bound_to 11000
  140.0842  134.9631  157.1673 LP  0  0  0  0  0  0  0  0  0  0  0  0  # atno 17395 bound_to 11000

$$$$
