AV-unprocessed.smi:1872|AV-procd|sdf|7605|dock8
  -GOLD-   22720 9323D 1   1.00000     0.00000
 Structure written by MMmdl.
 40 42  0  0  0  0  0  0  0  0  2 V2000
  149.1555  131.7672  153.7963 C   0  0  0  0  0  0  0  0  0  0  0  0
  148.1082  132.6639  153.2264 C   0  0  0  0  0  0  0  0  0  0  0  0
  147.6502  132.6489  151.9432 N   0  3  0  0  0  0  0  0  0  0  0  0
  146.6744  133.6330  151.7787 C   0  0  0  0  0  0  0  0  0  0  0  0
  145.9272  133.9960  150.6623 C   0  0  0  0  0  0  0  0  0  0  0  0
  145.0063  135.0503  150.8328 C   0  0  0  0  0  0  0  0  0  0  0  0
  144.8542  135.6981  152.0760 C   0  0  0  0  0  0  0  0  0  0  0  0
  145.6173  135.3210  153.2005 C   0  0  0  0  0  0  0  0  0  0  0  0
  146.5284  134.2795  153.0235 C   0  0  0  0  0  0  0  0  0  0  0  0
  147.4341  133.6486  153.8857 N   0  0  0  0  0  0  0  0  0  0  0  0
  147.5413  134.0888  155.2858 C   0  0  0  0  0  0  0  0  0  0  0  0
  147.6485  135.6201  155.4280 C   0  0  2  0  0  0  0  0  0  0  0  0
  148.7742  136.0983  154.7172 O   0  0  0  0  0  0  0  0  0  0  0  0
  147.6727  136.0350  156.8903 C   0  0  0  0  0  0  0  0  0  0  0  0
  148.7734  135.6918  157.7026 C   0  0  0  0  0  0  0  0  0  0  0  0
  148.8072  136.0832  159.0546 C   0  0  0  0  0  0  0  0  0  0  0  0
  147.7429  136.8162  159.6168 C   0  0  0  0  0  0  0  0  0  0  0  0
  147.8417  137.1820  160.9401 O   0  0  0  0  0  0  0  0  0  0  0  0
  147.1998  136.4440  161.8845 C   0  0  0  0  0  0  0  0  0  0  0  0
  147.6492  135.1664  161.8504 F   0  0  0  0  0  0  0  0  0  0  0  0
  147.4541  136.9343  163.1225 F   0  0  0  0  0  0  0  0  0  0  0  0
  146.6453  137.1721  158.7968 C   0  0  0  0  0  0  0  0  0  0  0  0
  146.6110  136.7819  157.4443 C   0  0  0  0  0  0  0  0  0  0  0  0
  149.5217  131.0749  153.0381 H   0  0  0  0  0  0  0  0  0  0  0  0
  148.7469  131.1895  154.6255 H   0  0  0  0  0  0  0  0  0  0  0  0
  149.9960  132.3568  154.1628 H   0  0  0  0  0  0  0  0  0  0  0  0
  146.0410  133.4999  149.7094 H   0  0  0  0  0  0  0  0  0  0  0  0
  144.4035  135.3673  149.9940 H   0  0  0  0  0  0  0  0  0  0  0  0
  144.1367  136.5003  152.1700 H   0  0  0  0  0  0  0  0  0  0  0  0
  145.4869  135.8211  154.1485 H   0  0  0  0  0  0  0  0  0  0  0  0
  146.6491  133.7326  155.8023 H   0  0  0  0  0  0  0  0  0  0  0  0
  148.3836  133.5849  155.7601 H   0  0  0  0  0  0  0  0  0  0  0  0
  146.7741  136.0756  154.9614 H   0  0  0  0  0  0  0  0  0  0  0  0
  148.5655  136.1018  153.7953 H   0  0  0  0  0  0  0  0  0  0  0  0
  149.5991  135.1292  157.2918 H   0  0  0  0  0  0  0  0  0  0  0  0
  149.6567  135.8167  159.6666 H   0  0  0  0  0  0  0  0  0  0  0  0
  146.1227  136.4226  161.7167 H   0  0  0  0  0  0  0  0  0  0  0  0
  145.8243  137.7520  159.1913 H   0  0  0  0  0  0  0  0  0  0  0  0
  145.7672  137.0641  156.8317 H   0  0  0  0  0  0  0  0  0  0  0  0
  147.9828  132.0102  151.2321 H   0  0  0  0  0  0  0  0  0  0  0  0
  1  2  1  0  0  0  0
  1 24  1  0  0  0  0
  1 25  1  0  0  0  0
  1 26  1  0  0  0  0
  2 10  1  0  0  0  0
  2  3  2  0  0  0  0
  3  4  1  0  0  0  0
  3 40  1  0  0  0  0
  4  9  2  0  0  0  0
  4  5  1  0  0  0  0
  5  6  2  0  0  0  0
  5 27  1  0  0  0  0
  6  7  1  0  0  0  0
  6 28  1  0  0  0  0
  7  8  2  0  0  0  0
  7 29  1  0  0  0  0
  8  9  1  0  0  0  0
  8 30  1  0  0  0  0
  9 10  1  0  0  0  0
 10 11  1  0  0  0  0
 11 12  1  0  0  0  0
 11 31  1  0  0  0  0
 11 32  1  0  0  0  0
 12 13  1  0  0  0  0
 12 14  1  0  0  0  0
 12 33  1  0  0  0  0
 13 34  1  0  0  0  0
 14 23  1  0  0  0  0
 14 15  2  0  0  0  0
 15 16  1  0  0  0  0
 15 35  1  0  0  0  0
 16 17  2  0  0  0  0
 16 36  1  0  0  0  0
 17 18  1  0  0  0  0
 17 22  1  0  0  0  0
 18 19  1  0  0  0  0
 19 20  1  0  0  0  0
 19 21  1  0  0  0  0
 19 37  1  0  0  0  0
 22 23  2  0  0  0  0
 22 38  1  0  0  0  0
 23 39  1  0  0  0  0
M  CHG  1   3   1
M  END
> <s_m_source_file>
AV-unprocessed.smi

> <i_m_source_file_index>
1872

> <i_lp_mmshare_version>
43012

> <i_f3d_flags>
0

> <s_epik_input>
W2NIXTFbY0hdW2NIXVtjSF1jKGMxMiluKGMobjIpW0NIM10pW0NIMl1bQ0BIXShbT0hdKWMzW2NIXVtjSF1jKE9bQ0hdKEYpRilbY0hdW2NIXTM=

> <s_epik_cmdline>
J2VwaWtfcHl0aG9uJywgJy1waCcsICc3LjAnLCAnLXRuJywgJzgnLCAnLW1hJywgJzIwMCcsICctbWV0YWxfYmluZGluZycsICctaW1hZScsICc8aW5maWxlLm1hZT4nLCAnLW9tYWUnLCAnPG91dGZpbGUubWFlPic=

> <r_lp_tautomer_probability>
1

> <r_epik_Ionization_Penalty>
0.963868

> <r_epik_Ionization_Penalty_Charging>
0.963868

> <r_epik_Ionization_Penalty_Neutral>
2.50501e-07

> <r_epik_State_Penalty>
1.00924

> <r_epik_Charging_Adjusted_Penalty>
1.9731

> <i_epik_Tot_Q>
1

> <i_epik_Tot_abs_Q>
1

> <r_epik_Metal_State_Penalty>
4.98304

> <b_epik_Metal_Only>
0

> <s_lp_Force_Field>
OPLS_2005

> <r_lp_Energy>
14.3509

> <b_lp_Chiralities_Consistent>
1

> <s_lp_Variant>
AV-unprocessed.smi:1872-3

> <Gold.Version>
5.8.1

> <Gold.Id.Protein>
6NUR|6NUR_protein|mol2

> <Gold.PLP.Fitness>
46.5586

> <Gold.PLP.PLP>
-36.2976

> <Gold.PLP.part.hbond>
-4.0000

> <Gold.PLP.part.metal>
0.0000

> <Gold.PLP.part.buried>
-3.3915

> <Gold.PLP.part.nonpolar>
-28.5526

> <Gold.PLP.part.repulsive>
0.0262

> <Gold.PLP.ligand.clash>
0.0000

> <Gold.PLP.ligand.torsion>
0.5025

> <Gold.PLP.Chemscore.Hbond>
3.7440

> <Gold.PLP.Chemscore.CHOScore>
0.0000

> <Gold.PLP.Chemscore.Metal>
0.0000

> <Gold.Chemscore.Hbonds>
donor molecule, donor type, donor heavy atom, donor atom, acceptor molecule, acceptor atom, score
      L1  H     3    40       P1 10747  1.00
      L1  H    13    34       P1  7948  1.00
      P1  H  6931  6943       L1    18  0.90
      P1  H  6934  6947       L1    18  0.82

> <Gold.PLP.Chemscore.Internal.Correction>
0.0341

> <Gold.Rescore>
     Score         DG    S(hbond)    S(metal)    S(lipo)     H(rot)  DE(clash)    DE(int)     intcor
     15.59     -15.97       2.96        0.00      55.92       2.32       0.01       0.37       ----

> <Gold.Chemscore.Fitness>
15.5902

> <Gold.Chemscore.DG>
-15.9685

> <Gold.Chemscore.ZeroCoef>
-5.4800

> <Gold.Chemscore.Hbond>
2.9591

> <Gold.Chemscore.Metal>
0.0000

> <Gold.Chemscore.Lipo>
55.9249

> <Gold.Chemscore.Internal_Hbond>
0.0000

> <Gold.Chemscore.DEClash>
0.0084

> <Gold.Chemscore.DEInternal>
0.3700

> <Gold.Chemscore.Rot>
2.3195

> <Gold.Chemscore.Internal.Correction>
   9.000000E+99

> <Gold.Chemscore.Hbonds>
donor molecule, donor type, donor heavy atom, donor atom, acceptor molecule, acceptor atom, score
      L1  H     3    40       P1 10747  1.00
      L1  H    13    34       P1  7948  0.96
      P1  H  6931  6943       L1    18  0.44
      P1  H  6934  6947       L1    18  0.25

> <Gold.Chemscore.Hbond.Weighted>
-9.8833

> <Gold.Chemscore.Metal.Weighted>
-0.0000

> <Gold.Chemscore.Lipo.Weighted>
-6.5432

> <Gold.Chemscore.Internal_Hbond.Weighted>
0.0000

> <Gold.Chemscore.DEClash.Weighted>
0.0084

> <Gold.Chemscore.DEInternal.Weighted>
0.3700

> <Gold.Chemscore.Rot.Weighted>
5.9379

> <Gold.Chemscore.Internal.Correction.Weighted>
   9.000000E+99

> <Gold.Protein.RotatedTorsions>
[ 6907 6896 6895 6894 ] final   32.63 input  -60.11 | X-H torsion
[ 7974 7965 7964 7962 ] final -136.84 input  175.53 | X-H torsion
[ 8008 7997 7996 7995 ] final   53.71 input   59.86 | X-H torsion
[ 10167 10162 10161 10158 ] final  -26.53 input  -65.29 | X-H torsion
[ 10718 10713 10712 10709 ] final -175.64 input   66.30 | X-H torsion
[ 10763 10752 10751 10750 ] final   -2.02 input  -60.55 | X-H torsion
[ 11005 11000 10999 10996 ] final  -95.93 input  -57.11 | X-H torsion

> <Gold.Protein.ActiveResidues>
 VAL166  LYS551  ARG553  GLY616  TRP617  ASP618  TYR619  PRO620  LYS621  CYS622 
 ASP623  PHE694  ASN695  SER759  ASP760  ASP761  ALA762  ILE779  LEU786  VAL792 
 PHE793  MET794  SER795  GLU796  ALA797  LYS798  CYS799  TRP800  GLU811  SER814 

> <Gold.Protein.RotatedAtoms>
  152.0771  134.9495  160.0573 H   0  0  0  0  0  0  0  0  0  0  0  0  # atno 6907 bound_to 6896
  152.0798  133.4142  159.4504 H   0  0  0  0  0  0  0  0  0  0  0  0  # atno 6908 bound_to 6896
  150.6836  134.2915  159.4712 H   0  0  0  0  0  0  0  0  0  0  0  0  # atno 6909 bound_to 6896
  144.8892  140.6619  143.5156 H   0  0  0  0  0  0  0  0  0  0  0  0  # atno 7974 bound_to 7965
  155.4728  140.3466  155.4328 H   0  0  0  0  0  0  0  0  0  0  0  0  # atno 8008 bound_to 7997
  156.1089  140.1455  156.9394 H   0  0  0  0  0  0  0  0  0  0  0  0  # atno 8009 bound_to 7997
  154.4743  140.0890  156.7202 H   0  0  0  0  0  0  0  0  0  0  0  0  # atno 8010 bound_to 7997
  140.7282  143.4171  151.1011 H   0  0  0  0  0  0  0  0  0  0  0  0  # atno 10167 bound_to 10162
  156.8029  130.9558  151.3118 H   0  0  0  0  0  0  0  0  0  0  0  0  # atno 10718 bound_to 10713
  153.3525  135.6986  153.6777 H   0  0  0  0  0  0  0  0  0  0  0  0  # atno 10763 bound_to 10752
  153.5498  135.3556  155.2755 H   0  0  0  0  0  0  0  0  0  0  0  0  # atno 10764 bound_to 10752
  154.8655  135.4224  154.2763 H   0  0  0  0  0  0  0  0  0  0  0  0  # atno 10765 bound_to 10752
  141.1427  133.8061  157.0502 H   0  0  0  0  0  0  0  0  0  0  0  0  # atno 11005 bound_to 11000
  145.3813  139.1636  143.4279 LP  0  0  0  0  0  0  0  0  0  0  0  0  # atno 17320 bound_to 7965
  146.3043  140.3894  142.8692 LP  0  0  0  0  0  0  0  0  0  0  0  0  # atno 17321 bound_to 7965
  139.7811  143.8353  152.3138 LP  0  0  0  0  0  0  0  0  0  0  0  0  # atno 17342 bound_to 10162
  139.8305  144.7256  150.9457 LP  0  0  0  0  0  0  0  0  0  0  0  0  # atno 17343 bound_to 10162
  157.6545  130.8912  149.9700 LP  0  0  0  0  0  0  0  0  0  0  0  0  # atno 17370 bound_to 10713
  156.1090  130.3651  150.0082 LP  0  0  0  0  0  0  0  0  0  0  0  0  # atno 17371 bound_to 10713
  140.0637  134.9741  157.1349 LP  0  0  0  0  0  0  0  0  0  0  0  0  # atno 17394 bound_to 11000
  140.3811  134.2286  155.7171 LP  0  0  0  0  0  0  0  0  0  0  0  0  # atno 17395 bound_to 11000

$$$$
