AV-unprocessed.smi:2137|AV-procd|sdf|8709|dock4
  -GOLD-   2272011473D 1   1.00000     0.00000
 Structure written by MMmdl.
 50 51  0  0  0  0  0  0  0  0  2 V2000
  154.1215  141.0273  160.2238 C   0  0  0  0  0  0  0  0  0  0  0  0
  152.9392  141.9442  159.8804 C   0  0  1  0  0  0  0  0  0  0  0  0
  153.4186  143.3314  159.4211 C   0  0  0  0  0  0  0  0  0  0  0  0
  152.2187  144.2157  159.0599 C   0  0  0  0  0  0  0  0  0  0  0  0
  151.3260  143.5307  158.0129 C   0  0  0  0  0  0  0  0  0  0  0  0
  150.8747  142.1958  158.4846 N   0  3  1  0  0  0  0  0  0  0  0  0
  149.9033  141.5690  157.5526 C   0  0  0  0  0  0  0  0  0  0  0  0
  150.3946  141.5850  156.0946 C   0  0  0  0  0  0  0  0  0  0  0  0
  149.2571  141.3419  155.0942 C   0  0  0  0  0  0  0  0  0  0  0  0
  148.0158  141.9301  155.5809 N   0  0  0  0  0  0  0  0  0  0  0  0
  146.8185  141.3275  155.5532 C   0  0  0  0  0  0  0  0  0  0  0  0
  146.6371  140.2057  155.0787 O   0  0  0  0  0  0  0  0  0  0  0  0
  145.6446  142.1278  156.1321 C   0  0  0  0  0  0  0  0  0  0  0  0
  145.2416  143.2434  155.2665 N   0  0  0  0  0  0  0  0  0  0  0  0
  145.7951  143.3691  154.0053 C   0  0  0  0  0  0  0  0  0  0  0  0
  145.4766  144.3636  153.1482 C   0  0  0  0  0  0  0  0  0  0  0  0
  144.5025  145.3843  153.5146 C   0  0  0  0  0  0  0  0  0  0  0  0
  144.2005  146.3217  152.7748 O   0  0  0  0  0  0  0  0  0  0  0  0
  143.9375  145.2218  154.8020 N   0  0  0  0  0  0  0  0  0  0  0  0
  142.9717  146.2032  155.2517 C   0  0  0  0  0  0  0  0  0  0  0  0
  144.2881  144.1895  155.7013 C   0  0  0  0  0  0  0  0  0  0  0  0
  143.7938  144.1075  156.8286 O   0  0  0  0  0  0  0  0  0  0  0  0
  152.0284  141.3130  158.8081 C   0  0  0  0  0  0  0  0  0  0  0  0
  154.7575  140.8565  159.3543 H   0  0  0  0  0  0  0  0  0  0  0  0
  153.7762  140.0560  160.5795 H   0  0  0  0  0  0  0  0  0  0  0  0
  154.7406  141.4630  161.0086 H   0  0  0  0  0  0  0  0  0  0  0  0
  152.3498  142.0735  160.7896 H   0  0  0  0  0  0  0  0  0  0  0  0
  154.0080  143.8079  160.2055 H   0  0  0  0  0  0  0  0  0  0  0  0
  154.0744  143.2323  158.5548 H   0  0  0  0  0  0  0  0  0  0  0  0
  151.6361  144.4286  159.9574 H   0  0  0  0  0  0  0  0  0  0  0  0
  152.5663  145.1775  158.6817 H   0  0  0  0  0  0  0  0  0  0  0  0
  150.4612  144.1652  157.8144 H   0  0  0  0  0  0  0  0  0  0  0  0
  151.8643  143.4229  157.0698 H   0  0  0  0  0  0  0  0  0  0  0  0
  149.7486  140.5281  157.8404 H   0  0  0  0  0  0  0  0  0  0  0  0
  148.9327  142.0594  157.6426 H   0  0  0  0  0  0  0  0  0  0  0  0
  150.8642  142.5407  155.8620 H   0  0  0  0  0  0  0  0  0  0  0  0
  151.1632  140.8220  155.9630 H   0  0  0  0  0  0  0  0  0  0  0  0
  149.4991  141.7828  154.1264 H   0  0  0  0  0  0  0  0  0  0  0  0
  149.1357  140.2685  154.9369 H   0  0  0  0  0  0  0  0  0  0  0  0
  148.0707  142.8562  155.9798 H   0  0  0  0  0  0  0  0  0  0  0  0
  144.7931  141.4695  156.3145 H   0  0  0  0  0  0  0  0  0  0  0  0
  145.9410  142.5032  157.1124 H   0  0  0  0  0  0  0  0  0  0  0  0
  146.5207  142.6354  153.6856 H   0  0  0  0  0  0  0  0  0  0  0  0
  145.9502  144.4054  152.1783 H   0  0  0  0  0  0  0  0  0  0  0  0
  142.2294  145.7134  155.8839 H   0  0  0  0  0  0  0  0  0  0  0  0
  142.4507  146.6316  154.3945 H   0  0  0  0  0  0  0  0  0  0  0  0
  143.5264  146.9644  155.8020 H   0  0  0  0  0  0  0  0  0  0  0  0
  152.5983  141.1128  157.8991 H   0  0  0  0  0  0  0  0  0  0  0  0
  151.6719  140.3500  159.1718 H   0  0  0  0  0  0  0  0  0  0  0  0
  150.3770  142.3593  159.3482 H   0  0  0  0  0  0  0  0  0  0  0  0
  1  2  1  0  0  0  0
  1 24  1  0  0  0  0
  1 25  1  0  0  0  0
  1 26  1  0  0  0  0
  2 23  1  0  0  0  0
  2  3  1  0  0  0  0
  2 27  1  0  0  0  0
  3  4  1  0  0  0  0
  3 28  1  0  0  0  0
  3 29  1  0  0  0  0
  4  5  1  0  0  0  0
  4 30  1  0  0  0  0
  4 31  1  0  0  0  0
  5  6  1  0  0  0  0
  5 32  1  0  0  0  0
  5 33  1  0  0  0  0
  6  7  1  0  0  0  0
  6 23  1  0  0  0  0
  6 50  1  0  0  0  0
  7  8  1  0  0  0  0
  7 34  1  0  0  0  0
  7 35  1  0  0  0  0
  8  9  1  0  0  0  0
  8 36  1  0  0  0  0
  8 37  1  0  0  0  0
  9 10  1  0  0  0  0
  9 38  1  0  0  0  0
  9 39  1  0  0  0  0
 10 11  1  0  0  0  0
 10 40  1  0  0  0  0
 11 12  2  0  0  0  0
 11 13  1  0  0  0  0
 13 14  1  0  0  0  0
 13 41  1  0  0  0  0
 13 42  1  0  0  0  0
 14 21  1  0  0  0  0
 14 15  1  0  0  0  0
 15 16  2  0  0  0  0
 15 43  1  0  0  0  0
 16 17  1  0  0  0  0
 16 44  1  0  0  0  0
 17 18  2  0  0  0  0
 17 19  1  0  0  0  0
 19 20  1  0  0  0  0
 19 21  1  0  0  0  0
 20 45  1  0  0  0  0
 20 46  1  0  0  0  0
 20 47  1  0  0  0  0
 21 22  2  0  0  0  0
 23 48  1  0  0  0  0
 23 49  1  0  0  0  0
M  CHG  1   6   1
M  END
> <s_m_source_file>
AV-unprocessed.smi

> <i_m_source_file_index>
2137

> <i_lp_mmshare_version>
43012

> <i_f3d_flags>
0

> <s_epik_input>
W0NIM11bQ0BASF0xW0NIMl1bQ0gyXVtDSDJdTihbQ0gyXTEpW0NIMl1bQ0gyXVtDSDJdW05IXUMoPU8pW0NIMl1uMltjSF1bY0hdYyg9TyluKFtDSDNdKWMyPU8=

> <s_epik_cmdline>
J2VwaWtfcHl0aG9uJywgJy1waCcsICc3LjAnLCAnLXRuJywgJzgnLCAnLW1hJywgJzIwMCcsICctbWV0YWxfYmluZGluZycsICctaW1hZScsICc8aW5maWxlLm1hZT4nLCAnLW9tYWUnLCAnPG91dGZpbGUubWFlPic=

> <r_lp_tautomer_probability>
1

> <r_epik_Ionization_Penalty>
0.000384839

> <r_epik_Ionization_Penalty_Charging>
0.000384812

> <r_epik_Ionization_Penalty_Neutral>
2.6907e-08

> <r_epik_State_Penalty>
0.000235226

> <r_epik_Charging_Adjusted_Penalty>
0.000620038

> <i_epik_Tot_Q>
1

> <i_epik_Tot_abs_Q>
1

> <r_epik_Metal_State_Penalty>
-0

> <b_epik_Metal_Only>
0

> <s_lp_Force_Field>
OPLS_2005

> <r_lp_Energy>
25.3587

> <b_lp_Chiralities_Consistent>
1

> <s_lp_Variant>
AV-unprocessed.smi:2137-4

> <Gold.Version>
5.8.1

> <Gold.Id.Protein>
6NUR|6NUR_protein|mol2

> <Gold.PLP.Fitness>
53.7753

> <Gold.PLP.PLP>
-51.8843

> <Gold.PLP.part.hbond>
-2.8332

> <Gold.PLP.part.metal>
0.0000

> <Gold.PLP.part.buried>
-6.0878

> <Gold.PLP.part.nonpolar>
-43.1767

> <Gold.PLP.part.repulsive>
0.4010

> <Gold.PLP.ligand.clash>
0.0000

> <Gold.PLP.ligand.torsion>
0.6140

> <Gold.PLP.Chemscore.Hbond>
0.9920

> <Gold.PLP.Chemscore.CHOScore>
0.0000

> <Gold.PLP.Chemscore.Metal>
0.0000

> <Gold.Chemscore.Hbonds>
donor molecule, donor type, donor heavy atom, donor atom, acceptor molecule, acceptor atom, score
      L1  H    10    40       P1  8028  0.83

> <Gold.PLP.Chemscore.Internal.Correction>
0.1430

> <Gold.Rescore>
     Score         DG    S(hbond)    S(metal)    S(lipo)     H(rot)  DE(clash)    DE(int)     intcor
     13.32     -16.04       0.86        0.00     115.34       2.27       2.04       0.68       ----

> <Gold.Chemscore.Fitness>
13.3219

> <Gold.Chemscore.DG>
-16.0392

> <Gold.Chemscore.ZeroCoef>
-5.4800

> <Gold.Chemscore.Hbond>
0.8647

> <Gold.Chemscore.Metal>
0.0000

> <Gold.Chemscore.Lipo>
115.3368

> <Gold.Chemscore.Internal_Hbond>
0.0000

> <Gold.Chemscore.DEClash>
2.0396

> <Gold.Chemscore.DEInternal>
0.6777

> <Gold.Chemscore.Rot>
2.2748

> <Gold.Chemscore.Internal.Correction>
   9.000000E+99

> <Gold.Chemscore.Hbonds>
donor molecule, donor type, donor heavy atom, donor atom, acceptor molecule, acceptor atom, score
      L1  H    10    40       P1  8028  0.58

> <Gold.Chemscore.Hbond.Weighted>
-2.8881

> <Gold.Chemscore.Metal.Weighted>
-0.0000

> <Gold.Chemscore.Lipo.Weighted>
-13.4944

> <Gold.Chemscore.Internal_Hbond.Weighted>
0.0000

> <Gold.Chemscore.DEClash.Weighted>
2.0396

> <Gold.Chemscore.DEInternal.Weighted>
0.6777

> <Gold.Chemscore.Rot.Weighted>
5.8234

> <Gold.Chemscore.Internal.Correction.Weighted>
   9.000000E+99

> <Gold.Protein.RotatedTorsions>
[ 6907 6896 6895 6894 ] final  -12.92 input  -60.11 | X-H torsion
[ 7974 7965 7964 7962 ] final -109.40 input  175.53 | X-H torsion
[ 8008 7997 7996 7995 ] final  160.21 input   59.86 | X-H torsion
[ 10167 10162 10161 10158 ] final   82.48 input  -65.29 | X-H torsion
[ 10718 10713 10712 10709 ] final  -84.16 input   66.30 | X-H torsion
[ 10763 10752 10751 10750 ] final   92.72 input  -60.55 | X-H torsion
[ 11005 11000 10999 10996 ] final  159.81 input  -57.11 | X-H torsion

> <Gold.Protein.ActiveResidues>
 VAL166  LYS551  ARG553  GLY616  TRP617  ASP618  TYR619  PRO620  LYS621  CYS622 
 ASP623  PHE694  ASN695  SER759  ASP760  ASP761  ALA762  ILE779  LEU786  VAL792 
 PHE793  MET794  SER795  GLU796  ALA797  LYS798  CYS799  TRP800  GLU811  SER814 

> <Gold.Protein.RotatedAtoms>
  151.3630  135.0908  159.9440 H   0  0  0  0  0  0  0  0  0  0  0  0  # atno 6907 bound_to 6896
  152.5157  133.9240  159.7558 H   0  0  0  0  0  0  0  0  0  0  0  0  # atno 6908 bound_to 6896
  150.9638  133.6362  159.2779 H   0  0  0  0  0  0  0  0  0  0  0  0  # atno 6909 bound_to 6896
  145.1810  140.8971  143.3480 H   0  0  0  0  0  0  0  0  0  0  0  0  # atno 7974 bound_to 7965
  156.2188  140.1810  156.7526 H   0  0  0  0  0  0  0  0  0  0  0  0  # atno 8008 bound_to 7997
  154.5832  140.0662  156.9163 H   0  0  0  0  0  0  0  0  0  0  0  0  # atno 8009 bound_to 7997
  155.2465  140.3326  155.4289 H   0  0  0  0  0  0  0  0  0  0  0  0  # atno 8010 bound_to 7997
  139.9284  144.6168  150.8370 H   0  0  0  0  0  0  0  0  0  0  0  0  # atno 10167 bound_to 10162
  156.0009  130.4689  150.4368 H   0  0  0  0  0  0  0  0  0  0  0  0  # atno 10718 bound_to 10713
  153.2223  135.4351  155.0503 H   0  0  0  0  0  0  0  0  0  0  0  0  # atno 10763 bound_to 10752
  154.8256  135.3359  154.6909 H   0  0  0  0  0  0  0  0  0  0  0  0  # atno 10764 bound_to 10752
  153.7340  135.7009  153.5038 H   0  0  0  0  0  0  0  0  0  0  0  0  # atno 10765 bound_to 10752
  140.1998  134.8346  157.3006 H   0  0  0  0  0  0  0  0  0  0  0  0  # atno 11005 bound_to 11000
  145.0136  139.3487  143.6107 LP  0  0  0  0  0  0  0  0  0  0  0  0  # atno 17320 bound_to 7965
  146.3453  139.9409  142.8741 LP  0  0  0  0  0  0  0  0  0  0  0  0  # atno 17321 bound_to 7965
  140.7644  143.3248  151.2541 LP  0  0  0  0  0  0  0  0  0  0  0  0  # atno 17342 bound_to 10162
  139.6803  143.9866  152.2804 LP  0  0  0  0  0  0  0  0  0  0  0  0  # atno 17343 bound_to 10162
  157.2412  131.0526  151.2435 LP  0  0  0  0  0  0  0  0  0  0  0  0  # atno 17370 bound_to 10713
  157.3618  130.7135  149.6507 LP  0  0  0  0  0  0  0  0  0  0  0  0  # atno 17371 bound_to 10713
  140.2066  134.4189  155.7634 LP  0  0  0  0  0  0  0  0  0  0  0  0  # atno 17394 bound_to 11000
  141.2227  133.7098  156.8271 LP  0  0  0  0  0  0  0  0  0  0  0  0  # atno 17395 bound_to 11000

$$$$
