#       Name:                AV-unprocessed.smi:1580
#       Creating user name   scv26
#       Creation time:       Fri Mar 27 06:58:14 2020


#       File generated by GOLD software.
#

@<TRIPOS>MOLECULE
AV-unprocessed.smi:1580
    42    43     1
SMALL
NO_CHARGES


@<TRIPOS>ATOM
      1 ****        -6.4855   0.9468   2.6635 C.3            1 S1                 0.0000
      2 ****        -6.1373   0.8687   0.8595 S.o2           1 S1                 0.0000
      3 ****        -6.7588  -0.3564   0.3326 O.2            1 S1                 0.0000
      4 ****        -6.4802   2.1705   0.2660 O.2            1 S1                 0.0000
      5 ****        -4.3603   0.6766   0.7799 C.ar           1 S1                 0.0000
      6 ****        -3.7923  -0.5797   0.4894 C.ar           1 S1                 0.0000
      7 ****        -2.3888  -0.6898   0.4876 C.ar           1 S1                 0.0000
      8 ****        -1.6100   0.4575   0.7809 C.ar           1 S1                 0.0000
      9 ****        -0.1884   0.4827   0.8263 N.am           1 S1                 0.0000
     10 ****         0.6930  -0.4405   0.4038 C.2            1 S1                 0.0000
     11 ****         0.4087  -1.5048  -0.1443 O.2            1 S1                 0.0000
     12 ****         1.9525  -0.0513   0.6452 N.am           1 S1                 0.0000
     13 ****         3.1441  -0.8241   0.3131 C.3            1 S1                 0.0000
     14 ****         3.5068  -0.7052  -1.1767 C.3            1 S1                 0.0000
     15 ****         4.7038  -1.5625  -1.5842 C.3            1 S1                 0.0000
     16 ****         5.2120  -0.8198  -2.7982 C.3            1 S1                 0.0000
     17 ****         5.0056   0.6327  -2.3797 C.3            1 S1                 0.0000
     18 ****         3.8853   0.6320  -1.4979 O.3            1 S1                 0.0000
     19 ****        -2.2929   1.6568   1.0788 C.ar           1 S1                 0.0000
     20 ****        -3.6373   1.7742   1.0864 N.ar           1 S1                 0.0000
     21 ****        -7.5568   1.0672   2.8216 H              1 S1                 0.0000
     22 ****        -5.9564   1.7940   3.0997 H              1 S1                 0.0000
     23 ****        -6.1494   0.0254   3.1382 H              1 S1                 0.0000
     24 ****        -4.4094  -1.4399   0.2768 H              1 S1                 0.0000
     25 ****        -1.9499  -1.6514   0.2759 H              1 S1                 0.0000
     26 ****         0.2124   1.3270   1.2081 H              1 S1                 0.0000
     27 ****         2.1003   0.8423   1.0907 H              1 S1                 0.0000
     28 ****         3.9694  -0.4654   0.9289 H              1 S1                 0.0000
     29 ****         2.9894  -1.8704   0.5819 H              1 S1                 0.0000
     30 ****         2.6550  -0.9730  -1.8042 H              1 S1                 0.0000
     31 ****         5.4646  -1.5614  -0.8022 H              1 S1                 0.0000
     32 ****         4.4330  -2.5971  -1.7969 H              1 S1                 0.0000
     33 ****         6.2493  -1.0513  -3.0420 H              1 S1                 0.0000
     34 ****         4.5941  -1.0536  -3.6661 H              1 S1                 0.0000
     35 ****         5.8751   0.9977  -1.8317 H              1 S1                 0.0000
     36 ****         4.8425   1.2918  -3.2328 H              1 S1                 0.0000
     37 ****        -1.7425   2.5539   1.3223 H              1 S1                 0.0000
     38 ****        -0.5487  -1.7425  -0.3087 LP             1 S1                 0.0000
     39 ****         1.1350  -2.1321  -0.4254 LP             1 S1                 0.0000
     40 ****         4.1270   1.1170  -0.6575 LP             1 S1                 0.0000
     41 ****         3.1172   1.0947  -1.9405 LP             1 S1                 0.0000
     42 ****        -4.0811   2.6418   1.3107 LP             1 S1                 0.0000
@<TRIPOS>BOND
    1    1    2 1     
    2    1   21 1     
    3    1   22 1     
    4    1   23 1     
    5    2    3 2     
    6    2    4 2     
    7    2    5 1     
    8    5   20 ar    
    9    5    6 ar    
   10    6    7 ar    
   11    6   24 1     
   12    7    8 ar    
   13    7   25 1     
   14    8    9 1     
   15    8   19 ar    
   16    9   10 am    
   17    9   26 1     
   18   10   11 2     
   19   10   12 am    
   20   12   13 1     
   21   12   27 1     
   22   13   14 1     
   23   13   28 1     
   24   13   29 1     
   25   14   18 1     
   26   14   15 1     
   27   14   30 1     
   28   15   16 1     
   29   15   31 1     
   30   15   32 1     
   31   16   17 1     
   32   16   33 1     
   33   16   34 1     
   34   17   18 1     
   35   17   35 1     
   36   17   36 1     
   37   19   20 ar    
   38   19   37 1     
   39   11   38 1     
   40   11   39 1     
   41   18   40 1     
   42   18   41 1     
   43   20   42 1     
@<TRIPOS>SUBSTRUCTURE
      1 S1             1
@<TRIPOS>SET
LONE_PAIRS      STATIC     ATOMS    <user>   **** ""
7 3 4 38 39 40 41 42
DONOR_HYDROGENS      STATIC     ATOMS    <user>   **** ""
2 26 27
ATOM$BLUE        STATIC     ATOMS    COLORGROUP SYSTEM
7 3 4 38 39 40 41 42
ATOM$RED        STATIC     ATOMS    COLORGROUP SYSTEM
2 26 27
