AV-unprocessed.smi:937|AV-procd|sdf|4215|dock3
  -GOLD-   22720 2123D 1   1.00000     0.00000
 Structure written by MMmdl.
 46 47  0  0  0  0  0  0  0  0  2 V2000
  153.7058  133.6044  165.4029 C   0  0  0  0  0  0  0  0  0  0  0  0
  154.0824  134.5383  164.2724 C   0  0  0  0  0  0  0  0  0  0  0  0
  153.8601  135.9308  164.3374 C   0  0  0  0  0  0  0  0  0  0  0  0
  154.2373  136.7399  163.2454 C   0  0  0  0  0  0  0  0  0  0  0  0
  154.8293  136.1411  162.1117 C   0  0  0  0  0  0  0  0  0  0  0  0
  155.2442  136.9845  160.9222 C   0  0  0  0  0  0  0  0  0  0  0  0
  156.2501  138.0802  161.3107 C   0  0  0  0  0  0  0  0  0  0  0  0
  155.6089  139.3865  161.3888 N   0  0  0  0  0  0  0  0  0  0  0  0
  154.9528  139.9839  160.3798 C   0  0  0  0  0  0  0  0  0  0  0  0
  154.8413  139.4887  159.2598 O   0  0  0  0  0  0  0  0  0  0  0  0
  154.4100  141.1758  160.6865 N   0  0  0  0  0  0  0  0  0  0  0  0
  153.6396  142.0741  159.8239 C   0  0  2  0  0  0  0  0  0  0  0  0
  152.8313  143.0829  160.6652 C   0  0  0  0  0  0  0  0  0  0  0  0
  151.9621  143.9802  159.7721 C   0  0  0  0  0  0  0  0  0  0  0  0
  151.0331  143.1444  158.8781 C   0  0  0  0  0  0  0  0  0  0  0  0
  151.8238  142.1314  158.0233 C   0  0  2  0  0  0  0  0  0  0  0  0
  150.8987  141.2958  157.1145 C   0  0  0  0  0  0  0  0  0  0  0  0
  150.2867  142.0709  156.2186 F   0  0  0  0  0  0  0  0  0  0  0  0
  151.6078  140.3692  156.4699 F   0  0  0  0  0  0  0  0  0  0  0  0
  149.9758  140.6753  157.8497 F   0  0  0  0  0  0  0  0  0  0  0  0
  152.7000  141.2413  158.9313 C   0  0  0  0  0  0  0  0  0  0  0  0
  155.0255  134.7438  162.1021 C   0  0  0  0  0  0  0  0  0  0  0  0
  154.6503  134.0034  163.1681 N   0  3  0  0  0  0  0  0  0  0  0  0
  153.3060  134.1580  166.2532 H   0  0  0  0  0  0  0  0  0  0  0  0
  154.5785  133.0450  165.7415 H   0  0  0  0  0  0  0  0  0  0  0  0
  152.9475  132.8943  165.0719 H   0  0  0  0  0  0  0  0  0  0  0  0
  153.4069  136.3767  165.2110 H   0  0  0  0  0  0  0  0  0  0  0  0
  154.0724  137.8072  163.2798 H   0  0  0  0  0  0  0  0  0  0  0  0
  155.6697  136.3313  160.1591 H   0  0  0  0  0  0  0  0  0  0  0  0
  154.3546  137.4339  160.4787 H   0  0  0  0  0  0  0  0  0  0  0  0
  156.6865  137.8584  162.2850 H   0  0  0  0  0  0  0  0  0  0  0  0
  157.0769  138.1132  160.5990 H   0  0  0  0  0  0  0  0  0  0  0  0
  155.6538  139.8672  162.2757 H   0  0  0  0  0  0  0  0  0  0  0  0
  154.5508  141.4980  161.6333 H   0  0  0  0  0  0  0  0  0  0  0  0
  154.3216  142.6188  159.1686 H   0  0  0  0  0  0  0  0  0  0  0  0
  152.1934  142.5482  161.3705 H   0  0  0  0  0  0  0  0  0  0  0  0
  153.4979  143.7044  161.2639 H   0  0  0  0  0  0  0  0  0  0  0  0
  151.3717  144.6571  160.3901 H   0  0  0  0  0  0  0  0  0  0  0  0
  152.6017  144.6081  159.1506 H   0  0  0  0  0  0  0  0  0  0  0  0
  150.3101  142.6168  159.5015 H   0  0  0  0  0  0  0  0  0  0  0  0
  150.4570  143.8101  158.2349 H   0  0  0  0  0  0  0  0  0  0  0  0
  152.4920  142.6979  157.3726 H   0  0  0  0  0  0  0  0  0  0  0  0
  153.2914  140.5588  158.3197 H   0  0  0  0  0  0  0  0  0  0  0  0
  152.0600  140.6161  159.5561 H   0  0  0  0  0  0  0  0  0  0  0  0
  155.4672  134.1990  161.2803 H   0  0  0  0  0  0  0  0  0  0  0  0
  154.8032  132.9952  163.1383 H   0  0  0  0  0  0  0  0  0  0  0  0
  1  2  1  0  0  0  0
  1 24  1  0  0  0  0
  1 25  1  0  0  0  0
  1 26  1  0  0  0  0
  2 23  1  0  0  0  0
  2  3  2  0  0  0  0
  3  4  1  0  0  0  0
  3 27  1  0  0  0  0
  4  5  2  0  0  0  0
  4 28  1  0  0  0  0
  5  6  1  0  0  0  0
  5 22  1  0  0  0  0
  6  7  1  0  0  0  0
  6 29  1  0  0  0  0
  6 30  1  0  0  0  0
  7  8  1  0  0  0  0
  7 31  1  0  0  0  0
  7 32  1  0  0  0  0
  8  9  1  0  0  0  0
  8 33  1  0  0  0  0
  9 10  2  0  0  0  0
  9 11  1  0  0  0  0
 11 12  1  0  0  0  0
 11 34  1  0  0  0  0
 12 21  1  0  0  0  0
 12 13  1  0  0  0  0
 12 35  1  0  0  0  0
 13 14  1  0  0  0  0
 13 36  1  0  0  0  0
 13 37  1  0  0  0  0
 14 15  1  0  0  0  0
 14 38  1  0  0  0  0
 14 39  1  0  0  0  0
 15 16  1  0  0  0  0
 15 40  1  0  0  0  0
 15 41  1  0  0  0  0
 16 17  1  0  0  0  0
 16 21  1  0  0  0  0
 16 42  1  0  0  0  0
 17 18  1  0  0  0  0
 17 19  1  0  0  0  0
 17 20  1  0  0  0  0
 21 43  1  0  0  0  0
 21 44  1  0  0  0  0
 22 23  2  0  0  0  0
 22 45  1  0  0  0  0
 23 46  1  0  0  0  0
M  CHG  1  23   1
M  END
> <s_m_source_file>
AV-unprocessed.smi

> <i_m_source_file_index>
937

> <i_lp_mmshare_version>
43012

> <i_f3d_flags>
0

> <s_epik_input>
W0NIM11jMVtjSF1bY0hdYyhbY0hdbjEpW0NIMl1bQ0gyXVtOSF1DKD1PKVtOSF1bQ0BASF0yW0NIMl1bQ0gyXVtDSDJdW0NAQEhdKEMoRikoRilGKVtDSDJdMg==

> <s_epik_cmdline>
J2VwaWtfcHl0aG9uJywgJy1waCcsICc3LjAnLCAnLXRuJywgJzgnLCAnLW1hJywgJzIwMCcsICctbWV0YWxfYmluZGluZycsICctaW1hZScsICc8aW5maWxlLm1hZT4nLCAnLW9tYWUnLCAnPG91dGZpbGUubWFlPic=

> <r_epik_Ionization_Penalty>
1.4226

> <r_epik_Ionization_Penalty_Charging>
1.42255

> <r_epik_Ionization_Penalty_Neutral>
5.16456e-05

> <r_epik_State_Penalty>
1.50646

> <r_epik_Charging_Adjusted_Penalty>
2.92901

> <i_epik_Tot_Q>
1

> <i_epik_Tot_abs_Q>
1

> <r_epik_Metal_State_Penalty>
1.55846

> <b_epik_Metal_Only>
0

> <s_lp_Force_Field>
OPLS_2005

> <r_lp_Energy>
23.9189

> <b_lp_Chiralities_Consistent>
1

> <s_lp_Variant>
AV-unprocessed.smi:937-7

> <Gold.Version>
5.8.1

> <Gold.Id.Protein>
6NUR|6NUR_protein|mol2

> <Gold.PLP.Fitness>
46.7890

> <Gold.PLP.PLP>
-45.0357

> <Gold.PLP.part.hbond>
-1.1151

> <Gold.PLP.part.metal>
0.0000

> <Gold.PLP.part.buried>
-4.3403

> <Gold.PLP.part.nonpolar>
-38.3454

> <Gold.PLP.part.repulsive>
0.0536

> <Gold.PLP.ligand.clash>
0.0000

> <Gold.PLP.ligand.torsion>
0.6518

> <Gold.PLP.Chemscore.Hbond>
1.0000

> <Gold.PLP.Chemscore.CHOScore>
0.0000

> <Gold.PLP.Chemscore.Metal>
0.0000

> <Gold.Chemscore.Hbonds>
donor molecule, donor type, donor heavy atom, donor atom, acceptor molecule, acceptor atom, score
      P1  H  7997  8008       L1    10  1.00

> <Gold.PLP.Chemscore.Internal.Correction>
0.0569

> <Gold.Rescore>
     Score         DG    S(hbond)    S(metal)    S(lipo)     H(rot)  DE(clash)    DE(int)     intcor
     15.94     -18.86       0.93        0.00     123.96       1.66       0.33       2.59       ----

> <Gold.Chemscore.Fitness>
15.9401

> <Gold.Chemscore.DG>
-18.8588

> <Gold.Chemscore.ZeroCoef>
-5.4800

> <Gold.Chemscore.Hbond>
0.9345

> <Gold.Chemscore.Metal>
0.0000

> <Gold.Chemscore.Lipo>
123.9587

> <Gold.Chemscore.Internal_Hbond>
0.0000

> <Gold.Chemscore.DEClash>
0.3269

> <Gold.Chemscore.DEInternal>
2.5918

> <Gold.Chemscore.Rot>
1.6585

> <Gold.Chemscore.Internal.Correction>
   9.000000E+99

> <Gold.Chemscore.Hbonds>
donor molecule, donor type, donor heavy atom, donor atom, acceptor molecule, acceptor atom, score
      P1  H  7997  8008       L1    10  0.95

> <Gold.Chemscore.Hbond.Weighted>
-3.1213

> <Gold.Chemscore.Metal.Weighted>
-0.0000

> <Gold.Chemscore.Lipo.Weighted>
-14.5032

> <Gold.Chemscore.Internal_Hbond.Weighted>
0.0000

> <Gold.Chemscore.DEClash.Weighted>
0.3269

> <Gold.Chemscore.DEInternal.Weighted>
2.5918

> <Gold.Chemscore.Rot.Weighted>
4.2457

> <Gold.Chemscore.Internal.Correction.Weighted>
   9.000000E+99

> <Gold.Protein.RotatedTorsions>
[ 6907 6896 6895 6894 ] final -138.24 input  -60.11 | X-H torsion
[ 7974 7965 7964 7962 ] final  -63.01 input  175.53 | X-H torsion
[ 8008 7997 7996 7995 ] final -123.34 input   59.86 | X-H torsion
[ 10167 10162 10161 10158 ] final  -31.24 input  -65.29 | X-H torsion
[ 10718 10713 10712 10709 ] final   44.81 input   66.30 | X-H torsion
[ 10763 10752 10751 10750 ] final -170.33 input  -60.55 | X-H torsion
[ 11005 11000 10999 10996 ] final -170.09 input  -57.11 | X-H torsion

> <Gold.Protein.ActiveResidues>
 VAL166  LYS551  ARG553  GLY616  TRP617  ASP618  TYR619  PRO620  LYS621  CYS622 
 ASP623  PHE694  ASN695  SER759  ASP760  ASP761  ALA762  ILE779  LEU786  VAL792 
 PHE793  MET794  SER795  GLU796  ALA797  LYS798  CYS799  TRP800  GLU811  SER814 

> <Gold.Protein.RotatedAtoms>
  151.0326  133.5777  159.2658 H   0  0  0  0  0  0  0  0  0  0  0  0  # atno 6907 bound_to 6896
  151.2853  135.0725  159.9194 H   0  0  0  0  0  0  0  0  0  0  0  0  # atno 6908 bound_to 6896
  152.5348  134.0033  159.7959 H   0  0  0  0  0  0  0  0  0  0  0  0  # atno 6909 bound_to 6896
  145.7843  140.8745  143.0314 H   0  0  0  0  0  0  0  0  0  0  0  0  # atno 7974 bound_to 7965
  155.1790  140.0410  157.2878 H   0  0  0  0  0  0  0  0  0  0  0  0  # atno 8008 bound_to 7997
  154.6217  140.2502  155.7514 H   0  0  0  0  0  0  0  0  0  0  0  0  # atno 8009 bound_to 7997
  156.2437  140.2893  156.0527 H   0  0  0  0  0  0  0  0  0  0  0  0  # atno 8010 bound_to 7997
  140.7239  143.3786  151.1643 H   0  0  0  0  0  0  0  0  0  0  0  0  # atno 10167 bound_to 10162
  157.4309  130.8024  149.7602 H   0  0  0  0  0  0  0  0  0  0  0  0  # atno 10718 bound_to 10713
  154.6427  135.2901  155.0084 H   0  0  0  0  0  0  0  0  0  0  0  0  # atno 10763 bound_to 10752
  154.1204  135.6549  153.4906 H   0  0  0  0  0  0  0  0  0  0  0  0  # atno 10764 bound_to 10752
  153.0335  135.5286  154.7301 H   0  0  0  0  0  0  0  0  0  0  0  0  # atno 10765 bound_to 10752
  140.5234  134.5686  157.5054 H   0  0  0  0  0  0  0  0  0  0  0  0  # atno 11005 bound_to 11000
  144.6791  140.0033  143.7484 LP  0  0  0  0  0  0  0  0  0  0  0  0  # atno 17320 bound_to 7965
  146.0042  139.3116  143.0909 LP  0  0  0  0  0  0  0  0  0  0  0  0  # atno 17321 bound_to 7965
  139.7371  143.8982  152.3038 LP  0  0  0  0  0  0  0  0  0  0  0  0  # atno 17342 bound_to 10162
  139.8791  144.7027  150.8899 LP  0  0  0  0  0  0  0  0  0  0  0  0  # atno 17343 bound_to 10162
  155.9913  130.3939  150.2992 LP  0  0  0  0  0  0  0  0  0  0  0  0  # atno 17370 bound_to 10713
  157.1148  131.0231  151.3033 LP  0  0  0  0  0  0  0  0  0  0  0  0  # atno 17371 bound_to 10713
  139.9593  134.7480  156.0272 LP  0  0  0  0  0  0  0  0  0  0  0  0  # atno 17394 bound_to 11000
  141.1321  133.6584  156.3493 LP  0  0  0  0  0  0  0  0  0  0  0  0  # atno 17395 bound_to 11000

$$$$
