AV-unprocessed.smi:113|AV-procd|sdf|1096|dock10
  -GOLD-   2262018203D 1   1.00000     0.00000
 Structure written by MMmdl.
 52 55  0  0  0  0  0  0  0  0  1 V2000
  151.1721  138.0063  158.6318 C   0  0  0  0  0  0  0  0  0  0  0  0
  151.2328  139.4957  158.3640 C   0  0  0  0  0  0  0  0  0  0  0  0
  150.6226  140.0454  157.2227 C   0  0  0  0  0  0  0  0  0  0  0  0
  150.7026  141.4402  157.0065 C   0  0  0  0  0  0  0  0  0  0  0  0
  150.0540  142.0899  155.7793 C   0  0  0  0  0  0  0  0  0  0  0  0
  148.7273  141.6165  155.4101 N   0  0  0  0  0  0  0  0  0  0  0  0
  148.5894  140.9339  154.1766 C   0  0  0  0  0  0  0  0  0  0  0  0
  149.5561  140.7343  153.4378 O   0  0  0  0  0  0  0  0  0  0  0  0
  147.2317  140.4813  153.8643 C   0  0  0  0  0  0  0  0  0  0  0  0
  146.9974  139.7799  152.5356 C   0  0  0  0  0  0  0  0  0  0  0  0
  146.2310  140.6952  154.7516 C   0  0  0  0  0  0  0  0  0  0  0  0
  146.4038  141.3266  155.9716 N   0  0  0  0  0  0  0  0  0  0  0  0
  145.2445  141.5159  156.9232 C   0  0  1  0  0  0  0  0  0  0  0  0
  145.5547  140.8957  158.2866 C   0  0  0  0  0  0  0  0  0  0  0  0
  144.9280  141.9036  159.2269 C   0  0  1  0  0  0  0  0  0  0  0  0
  145.5447  141.8565  160.4972 O   0  0  0  0  0  0  0  0  0  0  0  0
  145.1869  143.2220  158.4916 C   0  0  2  0  0  0  0  0  0  0  0  0
  144.2235  144.3634  158.8522 C   0  0  0  0  0  0  0  0  0  0  0  0
  144.3440  144.6998  160.2178 O   0  0  0  0  0  0  0  0  0  0  0  0
  145.0261  142.8837  157.1153 O   0  0  0  0  0  0  0  0  0  0  0  0
  147.6733  141.8258  156.3281 C   0  0  0  0  0  0  0  0  0  0  0  0
  147.8495  142.4111  157.3993 O   0  0  0  0  0  0  0  0  0  0  0  0
  151.4032  142.2228  157.9637 C   0  0  0  0  0  0  0  0  0  0  0  0
  151.5270  143.6265  157.8238 C   0  0  0  0  0  0  0  0  0  0  0  0
  152.2268  144.3826  158.7810 C   0  0  0  0  0  0  0  0  0  0  0  0
  152.8104  143.7442  159.8876 C   0  0  0  0  0  0  0  0  0  0  0  0
  152.6911  142.3505  160.0344 C   0  0  0  0  0  0  0  0  0  0  0  0
  151.9924  141.5714  159.0873 C   0  0  0  0  0  0  0  0  0  0  0  0
  151.9012  140.2356  159.2700 N   0  0  0  0  0  0  0  0  0  0  0  0
  150.3489  137.5438  158.0861 H   0  0  0  0  0  0  0  0  0  0  0  0
  151.0251  137.8081  159.6942 H   0  0  0  0  0  0  0  0  0  0  0  0
  152.1013  137.5302  158.3180 H   0  0  0  0  0  0  0  0  0  0  0  0
  150.1059  139.3943  156.5336 H   0  0  0  0  0  0  0  0  0  0  0  0
  149.9890  143.1704  155.9163 H   0  0  0  0  0  0  0  0  0  0  0  0
  150.6953  141.9681  154.9052 H   0  0  0  0  0  0  0  0  0  0  0  0
  145.9473  139.5256  152.3898 H   0  0  0  0  0  0  0  0  0  0  0  0
  147.5751  138.8562  152.4862 H   0  0  0  0  0  0  0  0  0  0  0  0
  147.3025  140.4197  151.7066 H   0  0  0  0  0  0  0  0  0  0  0  0
  145.2424  140.3537  154.4846 H   0  0  0  0  0  0  0  0  0  0  0  0
  144.3529  141.1040  156.4487 H   0  0  0  0  0  0  0  0  0  0  0  0
  145.1388  139.8913  158.3697 H   0  0  0  0  0  0  0  0  0  0  0  0
  146.6359  140.8483  158.4308 H   0  0  0  0  0  0  0  0  0  0  0  0
  143.8575  141.7137  159.3189 H   0  0  0  0  0  0  0  0  0  0  0  0
  145.4965  142.7159  160.8878 H   0  0  0  0  0  0  0  0  0  0  0  0
  146.2215  143.5383  158.6356 H   0  0  0  0  0  0  0  0  0  0  0  0
  144.4594  145.2503  158.2637 H   0  0  0  0  0  0  0  0  0  0  0  0
  143.1913  144.0931  158.6279 H   0  0  0  0  0  0  0  0  0  0  0  0
  144.0853  143.9523  160.7354 H   0  0  0  0  0  0  0  0  0  0  0  0
  151.0907  144.1482  156.9858 H   0  0  0  0  0  0  0  0  0  0  0  0
  152.3152  145.4528  158.6651 H   0  0  0  0  0  0  0  0  0  0  0  0
  153.3491  144.3222  160.6240 H   0  0  0  0  0  0  0  0  0  0  0  0
  153.1438  141.8710  160.8901 H   0  0  0  0  0  0  0  0  0  0  0  0
  1  2  1  0  0  0  0
  1 30  1  0  0  0  0
  1 31  1  0  0  0  0
  1 32  1  0  0  0  0
  2 29  1  0  0  0  0
  2  3  2  0  0  0  0
  3  4  1  0  0  0  0
  3 33  1  0  0  0  0
  4  5  1  0  0  0  0
  4 23  2  0  0  0  0
  5  6  1  0  0  0  0
  5 34  1  0  0  0  0
  5 35  1  0  0  0  0
  6 21  1  0  0  0  0
  6  7  1  0  0  0  0
  7  8  2  0  0  0  0
  7  9  1  0  0  0  0
  9 10  1  0  0  0  0
  9 11  2  0  0  0  0
 10 36  1  0  0  0  0
 10 37  1  0  0  0  0
 10 38  1  0  0  0  0
 11 12  1  0  0  0  0
 11 39  1  0  0  0  0
 12 13  1  0  0  0  0
 12 21  1  0  0  0  0
 13 20  1  0  0  0  0
 13 14  1  0  0  0  0
 13 40  1  0  0  0  0
 14 15  1  0  0  0  0
 14 41  1  0  0  0  0
 14 42  1  0  0  0  0
 15 16  1  0  0  0  0
 15 17  1  0  0  0  0
 15 43  1  0  0  0  0
 16 44  1  0  0  0  0
 17 18  1  0  0  0  0
 17 20  1  0  0  0  0
 17 45  1  0  0  0  0
 18 19  1  0  0  0  0
 18 46  1  0  0  0  0
 18 47  1  0  0  0  0
 19 48  1  0  0  0  0
 21 22  2  0  0  0  0
 23 28  1  0  0  0  0
 23 24  1  0  0  0  0
 24 25  2  0  0  0  0
 24 49  1  0  0  0  0
 25 26  1  0  0  0  0
 25 50  1  0  0  0  0
 26 27  2  0  0  0  0
 26 51  1  0  0  0  0
 27 28  1  0  0  0  0
 27 52  1  0  0  0  0
 28 29  2  0  0  0  0
M  END
> <s_m_source_file>
AV-unprocessed.smi

> <i_m_source_file_index>
113

> <i_lp_mmshare_version>
43012

> <i_f3d_flags>
0

> <s_epik_input>
W2NIXTFbY0hdW2NIXVtjSF1jKGMxMiluYyhbQ0gzXSlbY0hdYzJbQ0gyXW4zYyg9TyljKFtDSDNdKVtjSF1uKGMzPU8pW0NAQEhdNFtDSDJdW0NAQEhdKFtPSF0pW0NASF0oTzQpW0NIMl1bT0hd

> <s_epik_cmdline>
J2VwaWtfcHl0aG9uJywgJy1waCcsICc3LjAnLCAnLXRuJywgJzgnLCAnLW1hJywgJzIwMCcsICctbWV0YWxfYmluZGluZycsICctaW1hZScsICc8aW5maWxlLm1hZT4nLCAnLW9tYWUnLCAnPG91dGZpbGUubWFlPic=

> <r_lp_tautomer_probability>
1

> <r_epik_Ionization_Penalty>
0.214728

> <r_epik_Ionization_Penalty_Charging>
3.04883e-08

> <r_epik_Ionization_Penalty_Neutral>
0.214728

> <r_epik_State_Penalty>
0.204913

> <r_epik_Charging_Adjusted_Penalty>
0.204913

> <i_epik_Tot_Q>
0

> <i_epik_Tot_abs_Q>
0

> <r_epik_Metal_State_Penalty>
0.000244761

> <b_epik_Metal_Only>
0

> <s_epik_Chemistry_Notes>
This compound contains an acetal/aminal-like group ( X-CH(R)-Y where X, Y are N, S, or O) that may be acid/base labile, releasing an aldehyde.

> <s_lp_Force_Field>
OPLS_2005

> <r_lp_Energy>
37.2315

> <b_lp_Chiralities_Consistent>
1

> <s_lp_Variant>
AV-unprocessed.smi:113-6

> <Gold.Version>
5.8.1

> <Gold.Id.Protein>
6NUR|6NUR_protein|mol2

> <Gold.PLP.Fitness>
47.9907

> <Gold.PLP.PLP>
-38.5024

> <Gold.PLP.part.hbond>
-3.0000

> <Gold.PLP.part.metal>
0.0000

> <Gold.PLP.part.buried>
-1.5324

> <Gold.PLP.part.nonpolar>
-39.8519

> <Gold.PLP.part.repulsive>
5.8905

> <Gold.PLP.ligand.clash>
0.0000

> <Gold.PLP.ligand.torsion>
0.2776

> <Gold.PLP.Chemscore.Hbond>
2.3432

> <Gold.PLP.Chemscore.CHOScore>
1.0000

> <Gold.PLP.Chemscore.Metal>
0.0000

> <Gold.Chemscore.Hbonds>
donor molecule, donor type, donor heavy atom, donor atom, acceptor molecule, acceptor atom, score
      P1  H  6934  6946       L1    16  1.00
      P1  H  7989  7998       L1     8  0.32
      P1  H  8011  8017       L1     8  1.00
      L1  C    11    39       P1 10175  0.98

> <Gold.PLP.Chemscore.Internal.Correction>
0.0138

> <Gold.Rescore>
     Score         DG    S(hbond)    S(metal)    S(lipo)     H(rot)  DE(clash)    DE(int)     intcor
     10.61     -18.02       1.84        0.00     119.26       2.95       4.35       3.07       ----

> <Gold.Chemscore.Fitness>
10.6122

> <Gold.Chemscore.DG>
-18.0246

> <Gold.Chemscore.ZeroCoef>
-5.4800

> <Gold.Chemscore.Hbond>
1.8369

> <Gold.Chemscore.Metal>
0.0000

> <Gold.Chemscore.Lipo>
119.2579

> <Gold.Chemscore.Internal_Hbond>
0.0000

> <Gold.Chemscore.DEClash>
4.3472

> <Gold.Chemscore.DEInternal>
3.0652

> <Gold.Chemscore.Rot>
2.9469

> <Gold.Chemscore.Internal.Correction>
   9.000000E+99

> <Gold.Chemscore.Hbonds>
donor molecule, donor type, donor heavy atom, donor atom, acceptor molecule, acceptor atom, score
      P1  H  6934  6946       L1    16  0.95
      P1  H  7989  7998       L1     8  0.31
      P1  H  8011  8017       L1     8  0.57

> <Gold.Chemscore.Hbond.Weighted>
-6.1353

> <Gold.Chemscore.Metal.Weighted>
-0.0000

> <Gold.Chemscore.Lipo.Weighted>
-13.9532

> <Gold.Chemscore.Internal_Hbond.Weighted>
0.0000

> <Gold.Chemscore.DEClash.Weighted>
4.3472

> <Gold.Chemscore.DEInternal.Weighted>
3.0652

> <Gold.Chemscore.Rot.Weighted>
7.5439

> <Gold.Chemscore.Internal.Correction.Weighted>
   9.000000E+99

> <Gold.Protein.RotatedTorsions>
[ 6907 6896 6895 6894 ] final  174.93 input  -60.11 | X-H torsion
[ 7974 7965 7964 7962 ] final -178.97 input  175.53 | X-H torsion
[ 8008 7997 7996 7995 ] final   67.29 input   59.86 | X-H torsion
[ 10167 10162 10161 10158 ] final -174.30 input  -65.29 | X-H torsion
[ 10718 10713 10712 10709 ] final  148.96 input   66.30 | X-H torsion
[ 10763 10752 10751 10750 ] final  113.15 input  -60.55 | X-H torsion
[ 11005 11000 10999 10996 ] final   45.11 input  -57.11 | X-H torsion

> <Gold.Protein.ActiveResidues>
 VAL166  LYS551  ARG553  GLY616  TRP617  ASP618  TYR619  PRO620  LYS621  CYS622 
 ASP623  PHE694  ASN695  SER759  ASP760  ASP761  ALA762  ILE779  LEU786  VAL792 
 PHE793  MET794  SER795  GLU796  ALA797  LYS798  CYS799  TRP800  GLU811  SER814 

> <Gold.Protein.RotatedAtoms>
  151.7445  133.3324  159.3374 H   0  0  0  0  0  0  0  0  0  0  0  0  # atno 6907 bound_to 6896
  150.7560  134.6248  159.6165 H   0  0  0  0  0  0  0  0  0  0  0  0  # atno 6908 bound_to 6896
  152.3509  134.7009  160.0288 H   0  0  0  0  0  0  0  0  0  0  0  0  # atno 6909 bound_to 6896
  144.7134  140.0789  143.6426 H   0  0  0  0  0  0  0  0  0  0  0  0  # atno 7974 bound_to 7965
  155.6906  140.3496  155.4892 H   0  0  0  0  0  0  0  0  0  0  0  0  # atno 8008 bound_to 7997
  155.9527  140.1122  157.0985 H   0  0  0  0  0  0  0  0  0  0  0  0  # atno 8009 bound_to 7997
  154.4125  140.1191  156.5060 H   0  0  0  0  0  0  0  0  0  0  0  0  # atno 8010 bound_to 7997
  139.5641  144.1798  152.1285 H   0  0  0  0  0  0  0  0  0  0  0  0  # atno 10167 bound_to 10162
  157.3020  131.0872  151.1382 H   0  0  0  0  0  0  0  0  0  0  0  0  # atno 10718 bound_to 10713
  153.4883  135.3664  155.2478 H   0  0  0  0  0  0  0  0  0  0  0  0  # atno 10763 bound_to 10752
  154.8753  135.3971  154.3619 H   0  0  0  0  0  0  0  0  0  0  0  0  # atno 10764 bound_to 10752
  153.4234  135.7081  153.6344 H   0  0  0  0  0  0  0  0  0  0  0  0  # atno 10765 bound_to 10752
  140.1490  134.4486  155.8395 H   0  0  0  0  0  0  0  0  0  0  0  0  # atno 11005 bound_to 11000
  145.9719  139.2876  143.1093 LP  0  0  0  0  0  0  0  0  0  0  0  0  # atno 17320 bound_to 7965
  145.9107  140.9182  143.0455 LP  0  0  0  0  0  0  0  0  0  0  0  0  # atno 17321 bound_to 7965
  140.1317  144.5282  150.6798 LP  0  0  0  0  0  0  0  0  0  0  0  0  # atno 17342 bound_to 10162
  140.6923  143.2383  151.5096 LP  0  0  0  0  0  0  0  0  0  0  0  0  # atno 17343 bound_to 10162
  157.2738  130.6717  149.6032 LP  0  0  0  0  0  0  0  0  0  0  0  0  # atno 17370 bound_to 10713
  155.9672  130.4471  150.5566 LP  0  0  0  0  0  0  0  0  0  0  0  0  # atno 17371 bound_to 10713
  141.2196  133.6864  156.7387 LP  0  0  0  0  0  0  0  0  0  0  0  0  # atno 17394 bound_to 11000
  140.2628  134.8453  157.3775 LP  0  0  0  0  0  0  0  0  0  0  0  0  # atno 17395 bound_to 11000

$$$$
