#       Name:                AV-unprocessed.smi:2867
#       Creating user name   scv26
#       Creation time:       Fri Mar 27 15:48:32 2020


#       File generated by GOLD software.
#

@<TRIPOS>MOLECULE
AV-unprocessed.smi:2867
    44    46     1
SMALL
NO_CHARGES


@<TRIPOS>ATOM
      1 ****        -4.3386   1.6318  -1.5600 C.3            1 S1                 0.0000
      2 ****        -3.7800   0.9192  -0.4703 O.3            1 S1                 0.0000
      3 ****        -2.3788   0.7529  -0.5953 C.3            1 S1                 0.0000
      4 ****        -1.8614  -0.0328   0.6150 C.3            1 S1                 0.0000
      5 ****        -0.4234  -0.2347   0.5393 N.pl3          1 S1                 0.0000
      6 ****         0.2425  -1.2194  -0.1161 C.2            1 S1                 0.0000
      7 ****        -0.4081  -2.2820  -0.8693 C.ar           1 S1                 0.0000
      8 ****        -1.1167  -3.3011  -0.1986 C.ar           1 S1                 0.0000
      9 ****        -1.7459  -4.3246  -0.9339 C.ar           1 S1                 0.0000
     10 ****        -1.6647  -4.3342  -2.3400 C.ar           1 S1                 0.0000
     11 ****        -0.9523  -3.3214  -3.0114 C.ar           1 S1                 0.0000
     12 ****        -0.8730  -3.3316  -4.3631 F              1 S1                 0.0000
     13 ****        -0.3230  -2.2975  -2.2772 C.ar           1 S1                 0.0000
     14 ****         1.5732  -1.1446  -0.0438 N.2            1 S1                 0.0000
     15 ****         1.7850  -0.0168   0.7240 C.ar           1 S1                 0.0000
     16 ****         2.9867   0.5923   1.1494 C.ar           1 S1                 0.0000
     17 ****         2.9438   1.7653   1.9324 C.ar           1 S1                 0.0000
     18 ****         4.4745   2.5250   2.4588 S.o2           1 S1                 0.0000
     19 ****         4.8665   3.5053   1.1017 N.3            1 S1                 0.0000
     20 ****         4.2071   3.4199   3.5954 O.2            1 S1                 0.0000
     21 ****         5.4998   1.4744   2.5530 O.2            1 S1                 0.0000
     22 ****         1.7127   2.3465   2.3026 C.ar           1 S1                 0.0000
     23 ****         0.5069   1.7503   1.8866 C.ar           1 S1                 0.0000
     24 ****         0.5511   0.5793   1.1057 C.ar           1 S1                 0.0000
     25 ****        -5.4156   1.7264  -1.4224 H              1 S1                 0.0000
     26 ****        -4.1643   1.1117  -2.5031 H              1 S1                 0.0000
     27 ****        -3.9183   2.6360  -1.6310 H              1 S1                 0.0000
     28 ****        -2.1483   0.2177  -1.5181 H              1 S1                 0.0000
     29 ****        -1.8893   1.7271  -0.6470 H              1 S1                 0.0000
     30 ****        -2.0937   0.4998   1.5375 H              1 S1                 0.0000
     31 ****        -2.3609  -0.9987   0.6854 H              1 S1                 0.0000
     32 ****        -1.1810  -3.2983   0.8798 H              1 S1                 0.0000
     33 ****        -2.2907  -5.1025  -0.4195 H              1 S1                 0.0000
     34 ****        -2.1474  -5.1191  -2.9032 H              1 S1                 0.0000
     35 ****         0.2211  -1.5215  -2.7961 H              1 S1                 0.0000
     36 ****         3.9347   0.1576   0.8691 H              1 S1                 0.0000
     37 ****         5.1150   2.9354   0.2936 H              1 S1                 0.0000
     38 ****         5.6076   4.1683   1.3277 H              1 S1                 0.0000
     39 ****         1.6883   3.2467   2.8992 H              1 S1                 0.0000
     40 ****        -0.4400   2.1901   2.1625 H              1 S1                 0.0000
     41 ****        -4.2077   0.0165  -0.4238 LP             1 S1                 0.0000
     42 ****        -3.9698   1.4218   0.3732 LP             1 S1                 0.0000
     43 ****         2.2524  -1.7572  -0.4479 LP             1 S1                 0.0000
     44 ****         4.0507   4.0316   0.8618 LP             1 S1                 0.0000
@<TRIPOS>BOND
    1    1    2 1     
    2    1   25 1     
    3    1   26 1     
    4    1   27 1     
    5    2    3 1     
    6    3    4 1     
    7    3   28 1     
    8    3   29 1     
    9    4    5 1     
   10    4   30 1     
   11    4   31 1     
   12    5   24 1     
   13    5    6 1     
   14    6    7 1     
   15    6   14 2     
   16    7   13 ar    
   17    7    8 ar    
   18    8    9 ar    
   19    8   32 1     
   20    9   10 ar    
   21    9   33 1     
   22   10   11 ar    
   23   10   34 1     
   24   11   12 1     
   25   11   13 ar    
   26   13   35 1     
   27   14   15 1     
   28   15   24 ar    
   29   15   16 ar    
   30   16   17 ar    
   31   16   36 1     
   32   17   18 1     
   33   17   22 ar    
   34   18   19 1     
   35   18   20 2     
   36   18   21 2     
   37   19   37 1     
   38   19   38 1     
   39   22   23 ar    
   40   22   39 1     
   41   23   24 ar    
   42   23   40 1     
   43    2   41 1     
   44    2   42 1     
   45   14   43 1     
   46   19   44 1     
@<TRIPOS>SUBSTRUCTURE
      1 S1             1
@<TRIPOS>SET
LONE_PAIRS      STATIC     ATOMS    <user>   **** ""
6 41 42 43 44 20 21
DONOR_HYDROGENS      STATIC     ATOMS    <user>   **** ""
2 37 38
ATOM$BLUE        STATIC     ATOMS    COLORGROUP SYSTEM
6 41 42 43 44 20 21
ATOM$RED        STATIC     ATOMS    COLORGROUP SYSTEM
2 37 38
