AV-unprocessed.smi:912|AV-procd|sdf|4140|dock1
  -GOLD-   22720 2 43D 1   1.00000     0.00000
 Structure written by MMmdl.
 26 26  0  0  0  0  0  0  0  0  1 V2000
  146.8641  138.9883  152.6144 C   0  0  0  0  0  0  0  0  0  0  0  0
  148.2204  138.9592  153.1580 N   0  0  0  0  0  0  0  0  0  0  0  0
  148.5253  139.8314  154.3082 C   0  0  1  0  0  0  0  0  0  0  0  0
  148.2966  141.2776  153.7956 C   0  0  0  0  0  0  0  0  0  0  0  0
  147.6219  139.5223  155.5342 C   0  0  0  0  0  0  0  0  0  0  0  0
  147.7062  138.2986  156.0684 N   0  0  0  0  0  0  0  0  0  0  0  0
  146.8545  140.3681  155.9920 O   0  0  0  0  0  0  0  0  0  0  0  0
  149.9921  139.6767  154.7617 C   0  0  0  0  0  0  0  0  0  0  0  0
  150.8580  138.6990  154.2099 C   0  0  0  0  0  0  0  0  0  0  0  0
  152.1840  138.6142  154.6789 C   0  0  0  0  0  0  0  0  0  0  0  0
  152.6861  139.4171  155.6393 N   0  0  0  0  0  0  0  0  0  0  0  0
  151.8648  140.3449  156.1716 C   0  0  0  0  0  0  0  0  0  0  0  0
  150.5243  140.5128  155.7733 C   0  0  0  0  0  0  0  0  0  0  0  0
  146.8374  138.3979  151.6989 H   0  0  0  0  0  0  0  0  0  0  0  0
  146.5458  139.9994  152.3619 H   0  0  0  0  0  0  0  0  0  0  0  0
  146.1357  138.5501  153.2966 H   0  0  0  0  0  0  0  0  0  0  0  0
  148.8313  139.2438  152.4059 H   0  0  0  0  0  0  0  0  0  0  0  0
  148.4774  142.0252  154.5682 H   0  0  0  0  0  0  0  0  0  0  0  0
  147.2774  141.4391  153.4440 H   0  0  0  0  0  0  0  0  0  0  0  0
  148.9654  141.5092  152.9658 H   0  0  0  0  0  0  0  0  0  0  0  0
  147.1362  138.0613  156.8674 H   0  0  0  0  0  0  0  0  0  0  0  0
  148.3398  137.6197  155.6724 H   0  0  0  0  0  0  0  0  0  0  0  0
  150.5331  138.0130  153.4423 H   0  0  0  0  0  0  0  0  0  0  0  0
  152.8598  137.8771  154.2712 H   0  0  0  0  0  0  0  0  0  0  0  0
  152.2876  140.9724  156.9422 H   0  0  0  0  0  0  0  0  0  0  0  0
  149.9187  141.2698  156.2492 H   0  0  0  0  0  0  0  0  0  0  0  0
  1  2  1  0  0  0  0
  1 14  1  0  0  0  0
  1 15  1  0  0  0  0
  1 16  1  0  0  0  0
  2  3  1  0  0  0  0
  2 17  1  0  0  0  0
  3  4  1  0  0  0  0
  3  5  1  0  0  0  0
  3  8  1  0  0  0  0
  4 18  1  0  0  0  0
  4 19  1  0  0  0  0
  4 20  1  0  0  0  0
  5  6  1  0  0  0  0
  5  7  2  0  0  0  0
  6 21  1  0  0  0  0
  6 22  1  0  0  0  0
  8 13  1  0  0  0  0
  8  9  2  0  0  0  0
  9 10  1  0  0  0  0
  9 23  1  0  0  0  0
 10 11  2  0  0  0  0
 10 24  1  0  0  0  0
 11 12  1  0  0  0  0
 12 13  2  0  0  0  0
 12 25  1  0  0  0  0
 13 26  1  0  0  0  0
M  END
> <s_m_source_file>
AV-unprocessed.smi

> <i_m_source_file_index>
912

> <i_lp_mmshare_version>
43012

> <i_f3d_flags>
0

> <s_epik_input>
W0NIM11bTkhdW0NAQF0oW0NIM10pKEMoPU8pW05IMl0pYzFbY0hdW2NIXW5bY0hdW2NIXTE=

> <s_epik_cmdline>
J2VwaWtfcHl0aG9uJywgJy1waCcsICc3LjAnLCAnLXRuJywgJzgnLCAnLW1hJywgJzIwMCcsICctbWV0YWxfYmluZGluZycsICctaW1hZScsICc8aW5maWxlLm1hZT4nLCAnLW9tYWUnLCAnPG91dGZpbGUubWFlPic=

> <r_epik_Ionization_Penalty>
0.458428

> <r_epik_Ionization_Penalty_Charging>
0

> <r_epik_Ionization_Penalty_Neutral>
0.458428

> <r_epik_State_Penalty>
0.443707

> <r_epik_Charging_Adjusted_Penalty>
0.443707

> <i_epik_Tot_Q>
0

> <i_epik_Tot_abs_Q>
0

> <r_epik_Metal_State_Penalty>
0.312856

> <b_epik_Metal_Only>
0

> <s_lp_Force_Field>
OPLS_2005

> <r_lp_Energy>
10.7043

> <b_lp_Chiralities_Consistent>
1

> <s_lp_Variant>
AV-unprocessed.smi:912-1

> <Gold.Version>
5.8.1

> <Gold.Id.Protein>
6NUR|6NUR_protein|mol2

> <Gold.PLP.Fitness>
31.1814

> <Gold.PLP.PLP>
-25.2587

> <Gold.PLP.part.hbond>
-2.8063

> <Gold.PLP.part.metal>
0.0000

> <Gold.PLP.part.buried>
-2.3980

> <Gold.PLP.part.nonpolar>
-19.7742

> <Gold.PLP.part.repulsive>
0.0188

> <Gold.PLP.ligand.clash>
0.0000

> <Gold.PLP.ligand.torsion>
0.0560

> <Gold.PLP.Chemscore.Hbond>
2.0000

> <Gold.PLP.Chemscore.CHOScore>
0.0000

> <Gold.PLP.Chemscore.Metal>
0.0000

> <Gold.Chemscore.Hbonds>
donor molecule, donor type, donor heavy atom, donor atom, acceptor molecule, acceptor atom, score
      L1  H     2    17       P1  7957  1.00
      P1  H  7997  8008       L1    11  0.95

> <Gold.PLP.Chemscore.Internal.Correction>
0.0346

> <Gold.Rescore>
     Score         DG    S(hbond)    S(metal)    S(lipo)     H(rot)  DE(clash)    DE(int)     intcor
     14.13     -14.25       1.96        0.00      57.82       1.77       0.08       0.04       ----

> <Gold.Chemscore.Fitness>
14.1304

> <Gold.Chemscore.DG>
-14.2471

> <Gold.Chemscore.ZeroCoef>
-5.4800

> <Gold.Chemscore.Hbond>
1.9570

> <Gold.Chemscore.Metal>
0.0000

> <Gold.Chemscore.Lipo>
57.8215

> <Gold.Chemscore.Internal_Hbond>
0.0000

> <Gold.Chemscore.DEClash>
0.0788

> <Gold.Chemscore.DEInternal>
0.0379

> <Gold.Chemscore.Rot>
1.7712

> <Gold.Chemscore.Internal.Correction>
   9.000000E+99

> <Gold.Chemscore.Hbonds>
donor molecule, donor type, donor heavy atom, donor atom, acceptor molecule, acceptor atom, score
      L1  H     2    17       P1  7957  1.00
      P1  H  7997  8008       L1    11  0.22

> <Gold.Chemscore.Hbond.Weighted>
-6.5363

> <Gold.Chemscore.Metal.Weighted>
-0.0000

> <Gold.Chemscore.Lipo.Weighted>
-6.7651

> <Gold.Chemscore.Internal_Hbond.Weighted>
0.0000

> <Gold.Chemscore.DEClash.Weighted>
0.0788

> <Gold.Chemscore.DEInternal.Weighted>
0.0379

> <Gold.Chemscore.Rot.Weighted>
4.5343

> <Gold.Chemscore.Internal.Correction.Weighted>
   9.000000E+99

> <Gold.Protein.RotatedTorsions>
[ 6907 6896 6895 6894 ] final  171.90 input  -60.11 | X-H torsion
[ 7974 7965 7964 7962 ] final   46.52 input  175.53 | X-H torsion
[ 8008 7997 7996 7995 ] final  -34.10 input   59.86 | X-H torsion
[ 10167 10162 10161 10158 ] final  -71.36 input  -65.29 | X-H torsion
[ 10718 10713 10712 10709 ] final  112.05 input   66.30 | X-H torsion
[ 10763 10752 10751 10750 ] final -156.11 input  -60.55 | X-H torsion
[ 11005 11000 10999 10996 ] final -125.55 input  -57.11 | X-H torsion

> <Gold.Protein.ActiveResidues>
 VAL166  LYS551  ARG553  GLY616  TRP617  ASP618  TYR619  PRO620  LYS621  CYS622 
 ASP623  PHE694  ASN695  SER759  ASP760  ASP761  ALA762  ILE779  LEU786  VAL792 
 PHE793  MET794  SER795  GLU796  ALA797  LYS798  CYS799  TRP800  GLU811  SER814 

> <Gold.Protein.RotatedAtoms>
  151.7929  133.3361  159.3504 H   0  0  0  0  0  0  0  0  0  0  0  0  # atno 6907 bound_to 6896
  150.7385  134.5825  159.5955 H   0  0  0  0  0  0  0  0  0  0  0  0  # atno 6908 bound_to 6896
  152.3197  134.7397  160.0368 H   0  0  0  0  0  0  0  0  0  0  0  0  # atno 6909 bound_to 6896
  146.0382  139.4846  142.9795 H   0  0  0  0  0  0  0  0  0  0  0  0  # atno 7974 bound_to 7965
  154.4130  140.1693  156.1994 H   0  0  0  0  0  0  0  0  0  0  0  0  # atno 8008 bound_to 7997
  155.9536  140.3399  155.6406 H   0  0  0  0  0  0  0  0  0  0  0  0  # atno 8009 bound_to 7997
  155.6838  140.0725  157.2465 H   0  0  0  0  0  0  0  0  0  0  0  0  # atno 8010 bound_to 7997
  140.5279  143.2324  151.7315 H   0  0  0  0  0  0  0  0  0  0  0  0  # atno 10167 bound_to 10162
  157.6413  131.0961  150.6838 H   0  0  0  0  0  0  0  0  0  0  0  0  # atno 10718 bound_to 10713
  154.7737  135.3153  154.8136 H   0  0  0  0  0  0  0  0  0  0  0  0  # atno 10763 bound_to 10752
  153.8865  135.6830  153.4767 H   0  0  0  0  0  0  0  0  0  0  0  0  # atno 10764 bound_to 10752
  153.1356  135.4761  154.9353 H   0  0  0  0  0  0  0  0  0  0  0  0  # atno 10765 bound_to 10752
  140.9752  134.0749  157.3826 H   0  0  0  0  0  0  0  0  0  0  0  0  # atno 11005 bound_to 11000
  145.6929  141.0159  143.1545 LP  0  0  0  0  0  0  0  0  0  0  0  0  # atno 17320 bound_to 7965
  144.7061  139.8554  143.7429 LP  0  0  0  0  0  0  0  0  0  0  0  0  # atno 17321 bound_to 7965
  139.4944  144.4158  152.0031 LP  0  0  0  0  0  0  0  0  0  0  0  0  # atno 17342 bound_to 10162
  140.3259  144.3373  150.5998 LP  0  0  0  0  0  0  0  0  0  0  0  0  # atno 17343 bound_to 10162
  156.7161  130.4666  149.5534 LP  0  0  0  0  0  0  0  0  0  0  0  0  # atno 17370 bound_to 10713
  156.1697  130.6428  151.0822 LP  0  0  0  0  0  0  0  0  0  0  0  0  # atno 17371 bound_to 10713
  139.8928  135.0126  156.6864 LP  0  0  0  0  0  0  0  0  0  0  0  0  # atno 17394 bound_to 11000
  140.7269  133.9092  155.8184 LP  0  0  0  0  0  0  0  0  0  0  0  0  # atno 17395 bound_to 11000

$$$$
