AV-unprocessed.smi:37|AV-procd|sdf|310|dock1
  -GOLD-   2262016123D 1   1.00000     0.00000
 Structure written by MMmdl.
 44 45  0  0  0  0  0  0  0  0  1 V2000
  151.8826  144.5323  158.8058 C   0  0  0  0  0  0  0  0  0  0  0  0
  152.0158  144.2788  160.3137 C   0  0  0  0  0  0  0  0  0  0  0  0
  152.5538  142.8828  160.6189 C   0  0  0  0  0  0  0  0  0  0  0  0
  152.8131  142.5323  161.7703 O   0  0  0  0  0  0  0  0  0  0  0  0
  152.6892  142.1278  159.5174 O   0  0  0  0  0  0  0  0  0  0  0  0
  153.2604  140.8346  159.6206 C   0  0  0  0  0  0  0  0  0  0  0  0
  152.4397  139.8534  158.7742 C   0  0  1  0  0  0  0  0  0  0  0  0
  152.7483  139.9784  157.3907 O   0  0  0  0  0  0  0  0  0  0  0  0
  152.4808  138.7740  156.7325 C   0  0  2  0  0  0  0  0  0  0  0  0
  151.3563  138.9698  155.7405 N   0  0  0  0  0  0  0  0  0  0  0  0
  150.7216  140.1947  155.5704 C   0  0  0  0  0  0  0  0  0  0  0  0
  149.7105  140.3817  154.6893 C   0  0  0  0  0  0  0  0  0  0  0  0
  149.1411  141.5942  154.5816 F   0  0  0  0  0  0  0  0  0  0  0  0
  149.2310  139.2801  153.8595 C   0  0  0  0  0  0  0  0  0  0  0  0
  148.3229  139.3526  153.0337 O   0  0  0  0  0  0  0  0  0  0  0  0
  149.8966  138.0683  154.0673 N   0  0  0  0  0  0  0  0  0  0  0  0
  150.9382  137.8612  154.9728 C   0  0  0  0  0  0  0  0  0  0  0  0
  151.4484  136.7472  155.0850 O   0  0  0  0  0  0  0  0  0  0  0  0
  152.1600  137.7150  157.8109 C   0  0  2  0  0  0  0  0  0  0  0  0
  150.2013  137.4086  158.0761 Br  0  0  0  0  0  0  0  0  0  0  0  0
  152.7051  138.3750  159.0658 C   0  0  1  0  0  0  0  0  0  0  0  0
  154.1053  138.1478  159.1919 O   0  0  0  0  0  0  0  0  0  0  0  0
  154.5756  136.9115  159.4366 C   0  0  0  0  0  0  0  0  0  0  0  0
  153.8937  135.9044  159.6257 O   0  0  0  0  0  0  0  0  0  0  0  0
  156.1014  136.8543  159.4455 C   0  0  0  0  0  0  0  0  0  0  0  0
  156.7350  138.2205  159.1488 C   0  0  0  0  0  0  0  0  0  0  0  0
  149.5955  137.2763  153.5183 H   0  0  0  0  0  0  0  0  0  0  0  0
  151.5083  145.5385  158.6179 H   0  0  0  0  0  0  0  0  0  0  0  0
  151.1889  143.8309  158.3405 H   0  0  0  0  0  0  0  0  0  0  0  0
  152.8458  144.4390  158.3026 H   0  0  0  0  0  0  0  0  0  0  0  0
  152.6820  145.0195  160.7567 H   0  0  0  0  0  0  0  0  0  0  0  0
  151.0463  144.3952  160.7987 H   0  0  0  0  0  0  0  0  0  0  0  0
  154.3022  140.8459  159.2974 H   0  0  0  0  0  0  0  0  0  0  0  0
  153.2421  140.5246  160.6664 H   0  0  0  0  0  0  0  0  0  0  0  0
  151.3751  140.0492  158.9129 H   0  0  0  0  0  0  0  0  0  0  0  0
  153.3671  138.5315  156.1425 H   0  0  0  0  0  0  0  0  0  0  0  0
  151.0255  141.0463  156.1610 H   0  0  0  0  0  0  0  0  0  0  0  0
  152.6221  136.7563  157.5725 H   0  0  0  0  0  0  0  0  0  0  0  0
  152.1840  138.0495  159.9674 H   0  0  0  0  0  0  0  0  0  0  0  0
  156.4349  136.4964  160.4200 H   0  0  0  0  0  0  0  0  0  0  0  0
  156.4308  136.1211  158.7090 H   0  0  0  0  0  0  0  0  0  0  0  0
  157.8220  138.1582  159.2003 H   0  0  0  0  0  0  0  0  0  0  0  0
  156.4130  138.9721  159.8705 H   0  0  0  0  0  0  0  0  0  0  0  0
  156.4729  138.5767  158.1519 H   0  0  0  0  0  0  0  0  0  0  0  0
  1  2  1  0  0  0  0
  1 28  1  0  0  0  0
  1 29  1  0  0  0  0
  1 30  1  0  0  0  0
  2  3  1  0  0  0  0
  2 31  1  0  0  0  0
  2 32  1  0  0  0  0
  3  4  2  0  0  0  0
  3  5  1  0  0  0  0
  5  6  1  0  0  0  0
  6  7  1  0  0  0  0
  6 33  1  0  0  0  0
  6 34  1  0  0  0  0
  7 21  1  0  0  0  0
  7  8  1  0  0  0  0
  7 35  1  0  0  0  0
  8  9  1  0  0  0  0
  9 10  1  0  0  0  0
  9 19  1  0  0  0  0
  9 36  1  0  0  0  0
 10 17  1  0  0  0  0
 10 11  1  0  0  0  0
 11 12  2  0  0  0  0
 11 37  1  0  0  0  0
 12 13  1  0  0  0  0
 12 14  1  0  0  0  0
 14 15  2  0  0  0  0
 14 16  1  0  0  0  0
 16 27  1  0  0  0  0
 16 17  1  0  0  0  0
 17 18  2  0  0  0  0
 19 20  1  0  0  0  0
 19 21  1  0  0  0  0
 19 38  1  0  0  0  0
 21 22  1  0  0  0  0
 21 39  1  0  0  0  0
 22 23  1  0  0  0  0
 23 24  2  0  0  0  0
 23 25  1  0  0  0  0
 25 26  1  0  0  0  0
 25 40  1  0  0  0  0
 25 41  1  0  0  0  0
 26 42  1  0  0  0  0
 26 43  1  0  0  0  0
 26 44  1  0  0  0  0
M  END
> <s_m_source_file>
AV-unprocessed.smi

> <i_m_source_file_index>
37

> <i_lp_mmshare_version>
43012

> <i_f3d_flags>
0

> <s_epik_input>
W0NIM11bQ0gyXUMoPU8pT1tDSDJdW0NAQEhdMU9bQ0BASF0objJbY0hdYyhGKWMoPU8pW25IXWMyPU8pW0NAQEhdKEJyKVtDQEhdMU9DKD1PKVtDSDJdW0NIM10=

> <s_epik_cmdline>
J2VwaWtfcHl0aG9uJywgJy1waCcsICc3LjAnLCAnLXRuJywgJzgnLCAnLW1hJywgJzIwMCcsICctbWV0YWxfYmluZGluZycsICctaW1hZScsICc8aW5maWxlLm1hZT4nLCAnLW9tYWUnLCAnPG91dGZpbGUubWFlPic=

> <r_lp_tautomer_probability>
0.999537

> <r_epik_Ionization_Penalty>
0.104106

> <r_epik_Ionization_Penalty_Charging>
0.104106

> <r_epik_Ionization_Penalty_Neutral>
3.94675e-16

> <r_epik_State_Penalty>
0.0940182

> <r_epik_Charging_Adjusted_Penalty>
0.198124

> <i_epik_Tot_Q>
0

> <i_epik_Tot_abs_Q>
0

> <r_epik_Metal_State_Penalty>
3.05314

> <b_epik_Metal_Only>
0

> <s_epik_Chemistry_Notes>
This compound has an ester and may undergo hydrolysis at high or low pH. This compound contains an acetal/aminal-like group ( X-CH(R)-Y where X, Y are N, S, or O) that may be acid/base labile, releasing an aldehyde.

> <s_lp_Force_Field>
OPLS_2005

> <r_lp_Energy>
24.0333

> <b_lp_Chiralities_Consistent>
1

> <s_lp_Variant>
AV-unprocessed.smi:37-8

> <Gold.Version>
5.8.1

> <Gold.Id.Protein>
6NUR|6NUR_protein|mol2

> <Gold.PLP.Fitness>
51.4656

> <Gold.PLP.PLP>
-40.2930

> <Gold.PLP.part.hbond>
-4.0000

> <Gold.PLP.part.metal>
0.0000

> <Gold.PLP.part.buried>
-7.0485

> <Gold.PLP.part.nonpolar>
-32.6720

> <Gold.PLP.part.repulsive>
3.2931

> <Gold.PLP.ligand.clash>
0.0000

> <Gold.PLP.ligand.torsion>
0.5178

> <Gold.PLP.Chemscore.Hbond>
3.9760

> <Gold.PLP.Chemscore.CHOScore>
0.0000

> <Gold.PLP.Chemscore.Metal>
0.0000

> <Gold.Chemscore.Hbonds>
donor molecule, donor type, donor heavy atom, donor atom, acceptor molecule, acceptor atom, score
      L1  H    16    27       P1  7948  1.00
      P1  H  6896  6907       L1    24  1.00
      P1  H  7997  8010       L1     8  0.60
      P1  H 10752 10763       L1    18  1.00

> <Gold.PLP.Chemscore.Internal.Correction>
0.2802

> <Gold.Rescore>
     Score         DG    S(hbond)    S(metal)    S(lipo)     H(rot)  DE(clash)    DE(int)     intcor
     16.61     -17.35       3.77        0.00      66.75       3.33       0.05       0.69       ----

> <Gold.Chemscore.Fitness>
16.6108

> <Gold.Chemscore.DG>
-17.3512

> <Gold.Chemscore.ZeroCoef>
-5.4800

> <Gold.Chemscore.Hbond>
3.7685

> <Gold.Chemscore.Metal>
0.0000

> <Gold.Chemscore.Lipo>
66.7516

> <Gold.Chemscore.Internal_Hbond>
0.0000

> <Gold.Chemscore.DEClash>
0.0530

> <Gold.Chemscore.DEInternal>
0.6874

> <Gold.Chemscore.Rot>
3.3303

> <Gold.Chemscore.Internal.Correction>
   9.000000E+99

> <Gold.Chemscore.Hbonds>
donor molecule, donor type, donor heavy atom, donor atom, acceptor molecule, acceptor atom, score
      L1  H    16    27       P1  7948  0.79
      P1  H  6896  6907       L1    24  0.99
      P1  H  7997  8010       L1     8  0.04
      P1  H 10752 10763       L1    18  0.98

> <Gold.Chemscore.Hbond.Weighted>
-12.5868

> <Gold.Chemscore.Metal.Weighted>
-0.0000

> <Gold.Chemscore.Lipo.Weighted>
-7.8099

> <Gold.Chemscore.Internal_Hbond.Weighted>
0.0000

> <Gold.Chemscore.DEClash.Weighted>
0.0530

> <Gold.Chemscore.DEInternal.Weighted>
0.6874

> <Gold.Chemscore.Rot.Weighted>
8.5256

> <Gold.Chemscore.Internal.Correction.Weighted>
   9.000000E+99

> <Gold.Protein.RotatedTorsions>
[ 6907 6896 6895 6894 ] final   63.68 input  -60.11 | X-H torsion
[ 7974 7965 7964 7962 ] final   -0.95 input  175.53 | X-H torsion
[ 8008 7997 7996 7995 ] final   62.93 input   59.86 | X-H torsion
[ 10167 10162 10161 10158 ] final  -72.04 input  -65.29 | X-H torsion
[ 10718 10713 10712 10709 ] final   73.60 input   66.30 | X-H torsion
[ 10763 10752 10751 10750 ] final   49.87 input  -60.55 | X-H torsion
[ 11005 11000 10999 10996 ] final  -86.22 input  -57.11 | X-H torsion

> <Gold.Protein.ActiveResidues>
 VAL166  LYS551  ARG553  GLY616  TRP617  ASP618  TYR619  PRO620  LYS621  CYS622 
 ASP623  PHE694  ASN695  SER759  ASP760  ASP761  ALA762  ILE779  LEU786  VAL792 
 PHE793  MET794  SER795  GLU796  ALA797  LYS798  CYS799  TRP800  GLU811  SER814 

> <Gold.Protein.RotatedAtoms>
  152.4272  134.5846  159.9957 H   0  0  0  0  0  0  0  0  0  0  0  0  # atno 6907 bound_to 6896
  151.5979  133.3354  159.3049 H   0  0  0  0  0  0  0  0  0  0  0  0  # atno 6908 bound_to 6896
  150.8162  134.7382  159.6797 H   0  0  0  0  0  0  0  0  0  0  0  0  # atno 6909 bound_to 6896
  146.2422  140.1347  142.8337 H   0  0  0  0  0  0  0  0  0  0  0  0  # atno 7974 bound_to 7965
  155.6222  140.3496  155.4655 H   0  0  0  0  0  0  0  0  0  0  0  0  # atno 8008 bound_to 7997
  156.0070  140.1225  157.0515 H   0  0  0  0  0  0  0  0  0  0  0  0  # atno 8009 bound_to 7997
  154.4268  140.1089  156.5762 H   0  0  0  0  0  0  0  0  0  0  0  0  # atno 8010 bound_to 7997
  140.5224  143.2330  151.7406 H   0  0  0  0  0  0  0  0  0  0  0  0  # atno 10167 bound_to 10162
  157.6555  130.9636  150.1092 H   0  0  0  0  0  0  0  0  0  0  0  0  # atno 10718 bound_to 10713
  152.9785  135.5897  154.4160 H   0  0  0  0  0  0  0  0  0  0  0  0  # atno 10763 bound_to 10752
  154.3790  135.2767  155.2224 H   0  0  0  0  0  0  0  0  0  0  0  0  # atno 10764 bound_to 10752
  154.4146  135.6073  153.6028 H   0  0  0  0  0  0  0  0  0  0  0  0  # atno 10765 bound_to 10752
  141.1632  133.7442  156.9129 H   0  0  0  0  0  0  0  0  0  0  0  0  # atno 11005 bound_to 11000
  145.0297  140.8860  143.5117 LP  0  0  0  0  0  0  0  0  0  0  0  0  # atno 17320 bound_to 7965
  145.1409  139.2573  143.5491 LP  0  0  0  0  0  0  0  0  0  0  0  0  # atno 17321 bound_to 7965
  139.4927  144.4235  151.9952 LP  0  0  0  0  0  0  0  0  0  0  0  0  # atno 17342 bound_to 10162
  140.3332  144.3291  150.5983 LP  0  0  0  0  0  0  0  0  0  0  0  0  # atno 17343 bound_to 10162
  156.1994  130.3659  149.8808 LP  0  0  0  0  0  0  0  0  0  0  0  0  # atno 17370 bound_to 10713
  156.6716  130.8822  151.3563 LP  0  0  0  0  0  0  0  0  0  0  0  0  # atno 17371 bound_to 10713
  140.1504  134.9234  157.2585 LP  0  0  0  0  0  0  0  0  0  0  0  0  # atno 17394 bound_to 11000
  140.2729  134.3439  155.7367 LP  0  0  0  0  0  0  0  0  0  0  0  0  # atno 17395 bound_to 11000

$$$$
