AV-unprocessed.smi:1840|AV-procd|sdf|7490|dock5
  -GOLD-   22720 9193D 1   1.00000     0.00000
 Structure written by MMmdl.
 43 44  0  0  0  0  0  0  0  0  1 V2000
  146.5246  140.0291  153.3432 C   0  0  0  0  0  0  0  0  0  0  0  0
  147.7283  139.2205  153.8458 C   0  0  2  0  0  0  0  0  0  0  0  0
  149.0617  139.8747  153.4244 C   0  0  0  0  0  0  0  0  0  0  0  0
  150.1957  139.3772  154.1832 N   0  0  0  0  0  0  0  0  0  0  0  0
  150.5269  138.0699  154.4728 C   0  0  0  0  0  0  0  0  0  0  0  0
  151.6624  138.0972  155.2303 C   0  0  0  0  0  0  0  0  0  0  0  0
  151.9560  139.4846  155.3485 C   0  0  0  0  0  0  0  0  0  0  0  0
  151.0787  140.2480  154.7175 N   0  0  0  0  0  0  0  0  0  0  0  0
  147.6353  137.8570  153.3256 N   0  0  0  0  0  0  0  0  0  0  0  0
  146.6671  136.9758  153.6150 C   0  0  0  0  0  0  0  0  0  0  0  0
  145.6905  137.2257  154.3216 O   0  0  0  0  0  0  0  0  0  0  0  0
  146.9102  135.7802  153.0622 N   0  0  0  0  0  0  0  0  0  0  0  0
  146.0936  134.5782  153.2355 C   0  0  1  0  0  0  0  0  0  0  0  0
  144.6390  134.8474  152.7992 C   0  0  0  0  0  0  0  0  0  0  0  0
  144.5133  135.0204  151.2757 C   0  0  0  0  0  0  0  0  0  0  0  0
  145.1025  133.8138  150.5297 C   0  0  0  0  0  0  0  0  0  0  0  0
  146.5614  133.5587  150.9412 C   0  0  0  0  0  0  0  0  0  0  0  0
  146.6983  133.3770  152.4673 C   0  0  1  0  0  0  0  0  0  0  0  0
  148.1525  133.0812  152.8750 C   0  0  0  0  0  0  0  0  0  0  0  0
  146.5437  141.0451  153.7387 H   0  0  0  0  0  0  0  0  0  0  0  0
  145.5857  139.5721  153.6575 H   0  0  0  0  0  0  0  0  0  0  0  0
  146.5161  140.0960  152.2547 H   0  0  0  0  0  0  0  0  0  0  0  0
  147.6738  139.2070  154.9361 H   0  0  0  0  0  0  0  0  0  0  0  0
  149.2520  139.7084  152.3631 H   0  0  0  0  0  0  0  0  0  0  0  0
  149.0100  140.9555  153.5641 H   0  0  0  0  0  0  0  0  0  0  0  0
  149.9282  137.2396  154.1281 H   0  0  0  0  0  0  0  0  0  0  0  0
  152.1999  137.2551  155.6401 H   0  0  0  0  0  0  0  0  0  0  0  0
  152.7752  139.9566  155.8708 H   0  0  0  0  0  0  0  0  0  0  0  0
  148.3901  137.5489  152.7304 H   0  0  0  0  0  0  0  0  0  0  0  0
  147.7400  135.6813  152.4963 H   0  0  0  0  0  0  0  0  0  0  0  0
  146.0804  134.3121  154.2942 H   0  0  0  0  0  0  0  0  0  0  0  0
  144.0120  134.0124  153.1144 H   0  0  0  0  0  0  0  0  0  0  0  0
  144.2472  135.7282  153.3097 H   0  0  0  0  0  0  0  0  0  0  0  0
  143.4656  135.1497  151.0029 H   0  0  0  0  0  0  0  0  0  0  0  0
  145.0260  135.9308  150.9632 H   0  0  0  0  0  0  0  0  0  0  0  0
  144.5036  132.9270  150.7402 H   0  0  0  0  0  0  0  0  0  0  0  0
  145.0432  133.9779  149.4533 H   0  0  0  0  0  0  0  0  0  0  0  0
  146.9330  132.6717  150.4271 H   0  0  0  0  0  0  0  0  0  0  0  0
  147.1849  134.3890  150.6069 H   0  0  0  0  0  0  0  0  0  0  0  0
  146.1125  132.4976  152.7396 H   0  0  0  0  0  0  0  0  0  0  0  0
  148.8266  133.8886  152.5882 H   0  0  0  0  0  0  0  0  0  0  0  0
  148.5127  132.1688  152.3993 H   0  0  0  0  0  0  0  0  0  0  0  0
  148.2372  132.9453  153.9535 H   0  0  0  0  0  0  0  0  0  0  0  0
  1  2  1  0  0  0  0
  1 20  1  0  0  0  0
  1 21  1  0  0  0  0
  1 22  1  0  0  0  0
  2  3  1  0  0  0  0
  2  9  1  0  0  0  0
  2 23  1  0  0  0  0
  3  4  1  0  0  0  0
  3 24  1  0  0  0  0
  3 25  1  0  0  0  0
  4  8  1  0  0  0  0
  4  5  1  0  0  0  0
  5  6  2  0  0  0  0
  5 26  1  0  0  0  0
  6  7  1  0  0  0  0
  6 27  1  0  0  0  0
  7  8  2  0  0  0  0
  7 28  1  0  0  0  0
  9 10  1  0  0  0  0
  9 29  1  0  0  0  0
 10 11  2  0  0  0  0
 10 12  1  0  0  0  0
 12 13  1  0  0  0  0
 12 30  1  0  0  0  0
 13 18  1  0  0  0  0
 13 14  1  0  0  0  0
 13 31  1  0  0  0  0
 14 15  1  0  0  0  0
 14 32  1  0  0  0  0
 14 33  1  0  0  0  0
 15 16  1  0  0  0  0
 15 34  1  0  0  0  0
 15 35  1  0  0  0  0
 16 17  1  0  0  0  0
 16 36  1  0  0  0  0
 16 37  1  0  0  0  0
 17 18  1  0  0  0  0
 17 38  1  0  0  0  0
 17 39  1  0  0  0  0
 18 19  1  0  0  0  0
 18 40  1  0  0  0  0
 19 41  1  0  0  0  0
 19 42  1  0  0  0  0
 19 43  1  0  0  0  0
M  END
> <s_m_source_file>
AV-unprocessed.smi

> <i_m_source_file_index>
1840

> <i_lp_mmshare_version>
43012

> <i_f3d_flags>
0

> <s_epik_input>
bjFbY0hdW2NIXVtjSF1uMVtDSDJdW0NAQEhdKFtDSDNdKVtOSF1DKD1PKVtOSF1bQ0BASF0yW0NIMl1bQ0gyXVtDSDJdW0NIMl1bQ0BIXTJbQ0gzXQ==

> <s_epik_cmdline>
J2VwaWtfcHl0aG9uJywgJy1waCcsICc3LjAnLCAnLXRuJywgJzgnLCAnLW1hJywgJzIwMCcsICctbWV0YWxfYmluZGluZycsICctaW1hZScsICc8aW5maWxlLm1hZT4nLCAnLW9tYWUnLCAnPG91dGZpbGUubWFlPic=

> <r_lp_tautomer_probability>
1

> <r_epik_Ionization_Penalty>
7.38659e-05

> <r_epik_Ionization_Penalty_Charging>
0

> <r_epik_Ionization_Penalty_Neutral>
7.38659e-05

> <r_epik_State_Penalty>
-0

> <r_epik_Charging_Adjusted_Penalty>
0

> <i_epik_Tot_Q>
0

> <i_epik_Tot_abs_Q>
0

> <r_epik_Metal_State_Penalty>
-0

> <b_epik_Metal_Only>
0

> <s_lp_Force_Field>
OPLS_2005

> <r_lp_Energy>
7.22709

> <b_lp_Chiralities_Consistent>
1

> <s_lp_Variant>
AV-unprocessed.smi:1840-3

> <Gold.Version>
5.8.1

> <Gold.Id.Protein>
6NUR|6NUR_protein|mol2

> <Gold.PLP.Fitness>
40.8589

> <Gold.PLP.PLP>
-29.5595

> <Gold.PLP.part.hbond>
-2.9785

> <Gold.PLP.part.metal>
0.0000

> <Gold.PLP.part.buried>
1.7551

> <Gold.PLP.part.nonpolar>
-28.9502

> <Gold.PLP.part.repulsive>
0.1686

> <Gold.PLP.ligand.clash>
0.0000

> <Gold.PLP.ligand.torsion>
0.2989

> <Gold.PLP.Chemscore.Hbond>
2.9600

> <Gold.PLP.Chemscore.CHOScore>
1.0000

> <Gold.PLP.Chemscore.Metal>
0.0000

> <Gold.Chemscore.Hbonds>
donor molecule, donor type, donor heavy atom, donor atom, acceptor molecule, acceptor atom, score
      L1  H     9    29       P1  7948  0.88
      L1  H    12    30       P1  7948  0.83
      P1  H  7989  7998       L1     8  0.86
      L1  C     5    26       P1  7948  0.75

> <Gold.PLP.Chemscore.Internal.Correction>
0.0172

> <Gold.Rescore>
     Score         DG    S(hbond)    S(metal)    S(lipo)     H(rot)  DE(clash)    DE(int)     intcor
     15.70     -18.20       2.30        0.00      77.09       1.56       2.11       0.39       ----

> <Gold.Chemscore.Fitness>
15.7047

> <Gold.Chemscore.DG>
-18.2039

> <Gold.Chemscore.ZeroCoef>
-5.4800

> <Gold.Chemscore.Hbond>
2.3029

> <Gold.Chemscore.Metal>
0.0000

> <Gold.Chemscore.Lipo>
77.0926

> <Gold.Chemscore.Internal_Hbond>
0.0000

> <Gold.Chemscore.DEClash>
2.1073

> <Gold.Chemscore.DEInternal>
0.3920

> <Gold.Chemscore.Rot>
1.5576

> <Gold.Chemscore.Internal.Correction>
   9.000000E+99

> <Gold.Chemscore.Hbonds>
donor molecule, donor type, donor heavy atom, donor atom, acceptor molecule, acceptor atom, score
      L1  H     9    29       P1  7948  0.86
      L1  H    12    30       P1  7948  0.78
      P1  H  7989  7998       L1     8  0.21

> <Gold.Chemscore.Hbond.Weighted>
-7.6916

> <Gold.Chemscore.Metal.Weighted>
-0.0000

> <Gold.Chemscore.Lipo.Weighted>
-9.0198

> <Gold.Chemscore.Internal_Hbond.Weighted>
0.0000

> <Gold.Chemscore.DEClash.Weighted>
2.1073

> <Gold.Chemscore.DEInternal.Weighted>
0.3920

> <Gold.Chemscore.Rot.Weighted>
3.9875

> <Gold.Chemscore.Internal.Correction.Weighted>
   9.000000E+99

> <Gold.Protein.RotatedTorsions>
[ 6907 6896 6895 6894 ] final   40.81 input  -60.11 | X-H torsion
[ 7974 7965 7964 7962 ] final   40.61 input  175.53 | X-H torsion
[ 8008 7997 7996 7995 ] final  109.97 input   59.86 | X-H torsion
[ 10167 10162 10161 10158 ] final -117.13 input  -65.29 | X-H torsion
[ 10718 10713 10712 10709 ] final  100.73 input   66.30 | X-H torsion
[ 10763 10752 10751 10750 ] final  -17.51 input  -60.55 | X-H torsion
[ 11005 11000 10999 10996 ] final -177.84 input  -57.11 | X-H torsion

> <Gold.Protein.ActiveResidues>
 VAL166  LYS551  ARG553  GLY616  TRP617  ASP618  TYR619  PRO620  LYS621  CYS622 
 ASP623  PHE694  ASN695  SER759  ASP760  ASP761  ALA762  ILE779  LEU786  VAL792 
 PHE793  MET794  SER795  GLU796  ALA797  LYS798  CYS799  TRP800  GLU811  SER814 

> <Gold.Protein.RotatedAtoms>
  152.1873  134.8703  160.0520 H   0  0  0  0  0  0  0  0  0  0  0  0  # atno 6907 bound_to 6896
  151.9605  133.3688  159.4041 H   0  0  0  0  0  0  0  0  0  0  0  0  # atno 6908 bound_to 6896
  150.6928  134.4169  159.5231 H   0  0  0  0  0  0  0  0  0  0  0  0  # atno 6909 bound_to 6896
  146.0891  139.5513  142.9487 H   0  0  0  0  0  0  0  0  0  0  0  0  # atno 7974 bound_to 7965
  156.2019  140.3047  155.9544 H   0  0  0  0  0  0  0  0  0  0  0  0  # atno 8008 bound_to 7997
  155.2934  140.0443  157.3041 H   0  0  0  0  0  0  0  0  0  0  0  0  # atno 8009 bound_to 7997
  154.5581  140.2312  155.8386 H   0  0  0  0  0  0  0  0  0  0  0  0  # atno 8010 bound_to 7997
  140.0717  143.4871  152.1976 H   0  0  0  0  0  0  0  0  0  0  0  0  # atno 10167 bound_to 10162
  157.6847  131.0706  150.5145 H   0  0  0  0  0  0  0  0  0  0  0  0  # atno 10718 bound_to 10713
  153.5750  135.7006  153.5488 H   0  0  0  0  0  0  0  0  0  0  0  0  # atno 10763 bound_to 10752
  153.3310  135.4047  155.1495 H   0  0  0  0  0  0  0  0  0  0  0  0  # atno 10764 bound_to 10752
  154.8627  135.3719  154.5275 H   0  0  0  0  0  0  0  0  0  0  0  0  # atno 10765 bound_to 10752
  140.4364  134.6472  157.4736 H   0  0  0  0  0  0  0  0  0  0  0  0  # atno 11005 bound_to 11000
  145.6074  141.0345  143.1985 LP  0  0  0  0  0  0  0  0  0  0  0  0  # atno 17320 bound_to 7965
  144.7347  139.7621  143.7334 LP  0  0  0  0  0  0  0  0  0  0  0  0  # atno 17321 bound_to 7965
  139.5832  144.7519  151.3587 LP  0  0  0  0  0  0  0  0  0  0  0  0  # atno 17342 bound_to 10162
  140.7122  143.7361  150.7588 LP  0  0  0  0  0  0  0  0  0  0  0  0  # atno 17343 bound_to 10162
  156.5461  130.4220  149.6130 LP  0  0  0  0  0  0  0  0  0  0  0  0  # atno 17370 bound_to 10713
  156.2943  130.7141  151.1998 LP  0  0  0  0  0  0  0  0  0  0  0  0  # atno 17371 bound_to 10713
  140.0099  134.6706  155.9396 LP  0  0  0  0  0  0  0  0  0  0  0  0  # atno 17394 bound_to 11000
  141.1724  133.6538  156.4701 LP  0  0  0  0  0  0  0  0  0  0  0  0  # atno 17395 bound_to 11000

$$$$
