#       Name:                AV-unprocessed.smi:713
#       Creating user name   scv26
#       Creation time:       Fri Mar 27 00:46:47 2020


#       File generated by GOLD software.
#

@<TRIPOS>MOLECULE
AV-unprocessed.smi:713
    44    45     1
SMALL
NO_CHARGES


@<TRIPOS>ATOM
      1 ****        -3.0018  -2.7523   1.6273 C.3            1 S1                 0.0000
      2 ****        -2.6955  -1.3669   1.0225 C.3            1 S1                 0.0000
      3 ****        -1.2004  -1.0047   1.0695 C.2            1 S1                 0.0000
      4 ****        -0.3609  -1.8303   1.4313 O.2            1 S1                 0.0000
      5 ****        -0.8810   0.2476   0.7030 N.am           1 S1                 0.0000
      6 ****         0.4698   0.7977   0.6616 C.3            1 S1                 0.0000
      7 ****         0.3908   2.3358   0.6581 C.3            1 S1                 0.0000
      8 ****         1.7775   2.9817   0.5117 C.3            1 S1                 0.0000
      9 ****         2.4969   2.4757  -0.7494 C.3            1 S1                 0.0000
     10 ****         2.6086   0.9388  -0.7934 C.3            1 S1                 0.0000
     11 ****         3.9104   0.3202   0.3853 S.o2           1 S1                 0.0000
     12 ****         4.0000  -1.4742  -0.0150 C.3            1 S1                 0.0000
     13 ****         5.1907   0.9370   0.0066 O.2            1 S1                 0.0000
     14 ****         3.4378   0.4446   1.7718 O.2            1 S1                 0.0000
     15 ****         1.2252   0.2827  -0.5852 C.3            1 S1                 0.0000
     16 ****        -3.2158  -1.2420  -0.3352 N.pl3          1 S1                 0.0000
     17 ****        -3.9958  -0.2289  -0.8555 C.2            1 S1                 0.0000
     18 ****        -4.2148  -0.5142  -2.1727 C.2            1 S1                 0.0000
     19 ****        -3.5128  -1.7344  -2.3755 C.2            1 S1                 0.0000
     20 ****        -2.9106  -2.1635  -1.2786 N.2            1 S1                 0.0000
     21 ****        -2.6788  -2.8090   2.6673 H              1 S1                 0.0000
     22 ****        -2.5041  -3.5551   1.0817 H              1 S1                 0.0000
     23 ****        -4.0728  -2.9556   1.6084 H              1 S1                 0.0000
     24 ****        -3.2145  -0.6272   1.6340 H              1 S1                 0.0000
     25 ****        -1.6303   0.8626   0.4210 H              1 S1                 0.0000
     26 ****         0.9852   0.4826   1.5678 H              1 S1                 0.0000
     27 ****        -0.2451   2.6700  -0.1632 H              1 S1                 0.0000
     28 ****        -0.0819   2.6873   1.5760 H              1 S1                 0.0000
     29 ****         1.6729   4.0658   0.4630 H              1 S1                 0.0000
     30 ****         2.3775   2.7773   1.3977 H              1 S1                 0.0000
     31 ****         1.9466   2.8158  -1.6275 H              1 S1                 0.0000
     32 ****         3.4862   2.9282  -0.8219 H              1 S1                 0.0000
     33 ****         2.9677   0.6594  -1.7842 H              1 S1                 0.0000
     34 ****         4.8363  -1.9194   0.5235 H              1 S1                 0.0000
     35 ****         4.1510  -1.6045  -1.0862 H              1 S1                 0.0000
     36 ****         3.0804  -1.9718   0.2907 H              1 S1                 0.0000
     37 ****         1.3211  -0.8013  -0.5528 H              1 S1                 0.0000
     38 ****         0.6170   0.4919  -1.4666 H              1 S1                 0.0000
     39 ****        -4.3264   0.6031  -0.2513 H              1 S1                 0.0000
     40 ****        -4.7869   0.0627  -2.8841 H              1 S1                 0.0000
     41 ****        -3.4201  -2.3149  -3.2815 H              1 S1                 0.0000
     42 ****        -0.6474  -2.7500   1.6995 LP             1 S1                 0.0000
     43 ****         0.6071  -1.5807   1.4568 LP             1 S1                 0.0000
     44 ****        -2.3531  -2.9866  -1.1703 LP             1 S1                 0.0000
@<TRIPOS>BOND
    1    1    2 1     
    2    1   21 1     
    3    1   22 1     
    4    1   23 1     
    5    2    3 1     
    6    2   16 1     
    7    2   24 1     
    8    3    4 2     
    9    3    5 am    
   10    5    6 1     
   11    5   25 1     
   12    6   15 1     
   13    6    7 1     
   14    6   26 1     
   15    7    8 1     
   16    7   27 1     
   17    7   28 1     
   18    8    9 1     
   19    8   29 1     
   20    8   30 1     
   21    9   10 1     
   22    9   31 1     
   23    9   32 1     
   24   10   11 1     
   25   10   15 1     
   26   10   33 1     
   27   11   12 1     
   28   11   13 2     
   29   11   14 2     
   30   12   34 1     
   31   12   35 1     
   32   12   36 1     
   33   15   37 1     
   34   15   38 1     
   35   16   20 1     
   36   16   17 1     
   37   17   18 2     
   38   17   39 1     
   39   18   19 1     
   40   18   40 1     
   41   19   20 2     
   42   19   41 1     
   43    4   42 1     
   44    4   43 1     
   45   20   44 1     
@<TRIPOS>SUBSTRUCTURE
      1 S1             1
@<TRIPOS>SET
LONE_PAIRS      STATIC     ATOMS    <user>   **** ""
5 42 43 13 14 44
DONOR_HYDROGENS      STATIC     ATOMS    <user>   **** ""
1 25
ATOM$BLUE        STATIC     ATOMS    COLORGROUP SYSTEM
5 42 43 13 14 44
ATOM$RED        STATIC     ATOMS    COLORGROUP SYSTEM
1 25
