AV-unprocessed.smi:3009|AV-procd|sdf|11451|dock3
  -GOLD-   2272016383D 1   1.00000     0.00000
 Structure written by MMmdl.
 44 45  0  0  0  0  0  0  0  0  2 V2000
  145.0939  132.1007  149.2432 C   0  0  0  0  0  0  0  0  0  0  0  0
  145.2315  131.7857  150.7421 C   0  0  0  0  0  0  0  0  0  0  0  0
  144.1028  132.4602  151.5362 C   0  0  0  0  0  0  0  0  0  0  0  0
  146.6094  132.2086  151.2957 C   0  0  0  0  0  0  0  0  0  0  0  0
  146.7582  131.9534  152.7548 N   0  3  1  0  0  0  0  0  0  0  0  0
  146.9619  130.5226  153.0877 C   0  0  0  0  0  0  0  0  0  0  0  0
  148.4122  130.0892  152.8089 C   0  0  0  0  0  0  0  0  0  0  0  0
  149.3024  130.9212  153.5423 O   0  0  0  0  0  0  0  0  0  0  0  0
  149.2110  132.2901  153.1588 C   0  0  2  0  0  0  0  0  0  0  0  0
  150.2607  133.0865  153.9543 C   0  0  0  0  0  0  0  0  0  0  0  0
  150.1304  134.5231  153.7346 N   0  0  0  0  0  0  0  0  0  0  0  0
  150.8183  135.4634  154.3972 C   0  0  0  0  0  0  0  0  0  0  0  0
  151.6523  135.2071  155.2663 O   0  0  0  0  0  0  0  0  0  0  0  0
  150.4710  136.6977  153.9985 N   0  0  0  0  0  0  0  0  0  0  0  0
  150.9789  137.9309  154.4795 C   0  0  0  0  0  0  0  0  0  0  0  0
  150.3834  139.1994  154.2418 C   0  0  0  0  0  0  0  0  0  0  0  0
  151.0777  140.1739  154.8116 N   0  0  0  0  0  0  0  0  0  0  0  0
  152.1131  139.5402  155.4070 N   0  0  0  0  0  0  0  0  0  0  0  0
  152.0949  138.1743  155.2302 C   0  0  0  0  0  0  0  0  0  0  0  0
  147.7772  132.7917  153.4382 C   0  0  0  0  0  0  0  0  0  0  0  0
  152.8176  140.0482  155.9228 H   0  0  0  0  0  0  0  0  0  0  0  0
  145.2045  133.1683  149.0504 H   0  0  0  0  0  0  0  0  0  0  0  0
  144.1167  131.7957  148.8676 H   0  0  0  0  0  0  0  0  0  0  0  0
  145.8450  131.5755  148.6527 H   0  0  0  0  0  0  0  0  0  0  0  0
  145.1047  130.7114  150.8715 H   0  0  0  0  0  0  0  0  0  0  0  0
  144.1517  133.5463  151.4526 H   0  0  0  0  0  0  0  0  0  0  0  0
  144.1589  132.2053  152.5949 H   0  0  0  0  0  0  0  0  0  0  0  0
  143.1239  132.1432  151.1750 H   0  0  0  0  0  0  0  0  0  0  0  0
  147.3749  131.6511  150.7536 H   0  0  0  0  0  0  0  0  0  0  0  0
  146.7988  133.2595  151.0779 H   0  0  0  0  0  0  0  0  0  0  0  0
  146.7417  130.3819  154.1467 H   0  0  0  0  0  0  0  0  0  0  0  0
  146.2560  129.8941  152.5437 H   0  0  0  0  0  0  0  0  0  0  0  0
  148.5598  129.0555  153.1220 H   0  0  0  0  0  0  0  0  0  0  0  0
  148.6428  130.1333  151.7435 H   0  0  0  0  0  0  0  0  0  0  0  0
  149.4318  132.3821  152.0948 H   0  0  0  0  0  0  0  0  0  0  0  0
  150.1707  132.8730  155.0208 H   0  0  0  0  0  0  0  0  0  0  0  0
  151.2658  132.7808  153.6621 H   0  0  0  0  0  0  0  0  0  0  0  0
  149.4647  134.8200  153.0359 H   0  0  0  0  0  0  0  0  0  0  0  0
  149.7613  136.7639  153.2837 H   0  0  0  0  0  0  0  0  0  0  0  0
  149.4882  139.4403  153.6876 H   0  0  0  0  0  0  0  0  0  0  0  0
  152.8558  137.5281  155.6416 H   0  0  0  0  0  0  0  0  0  0  0  0
  147.6762  133.8394  153.1580 H   0  0  0  0  0  0  0  0  0  0  0  0
  147.5829  132.7476  154.5106 H   0  0  0  0  0  0  0  0  0  0  0  0
  145.8644  132.2030  153.1541 H   0  0  0  0  0  0  0  0  0  0  0  0
  1  2  1  0  0  0  0
  1 22  1  0  0  0  0
  1 23  1  0  0  0  0
  1 24  1  0  0  0  0
  2  3  1  0  0  0  0
  2  4  1  0  0  0  0
  2 25  1  0  0  0  0
  3 26  1  0  0  0  0
  3 27  1  0  0  0  0
  3 28  1  0  0  0  0
  4  5  1  0  0  0  0
  4 29  1  0  0  0  0
  4 30  1  0  0  0  0
  5 20  1  0  0  0  0
  5  6  1  0  0  0  0
  5 44  1  0  0  0  0
  6  7  1  0  0  0  0
  6 31  1  0  0  0  0
  6 32  1  0  0  0  0
  7  8  1  0  0  0  0
  7 33  1  0  0  0  0
  7 34  1  0  0  0  0
  8  9  1  0  0  0  0
  9 10  1  0  0  0  0
  9 20  1  0  0  0  0
  9 35  1  0  0  0  0
 10 11  1  0  0  0  0
 10 36  1  0  0  0  0
 10 37  1  0  0  0  0
 11 12  1  0  0  0  0
 11 38  1  0  0  0  0
 12 13  2  0  0  0  0
 12 14  1  0  0  0  0
 14 15  1  0  0  0  0
 14 39  1  0  0  0  0
 15 19  2  0  0  0  0
 15 16  1  0  0  0  0
 16 17  2  0  0  0  0
 16 40  1  0  0  0  0
 17 18  1  0  0  0  0
 18 21  1  0  0  0  0
 18 19  1  0  0  0  0
 19 41  1  0  0  0  0
 20 42  1  0  0  0  0
 20 43  1  0  0  0  0
M  CHG  1   5   1
M  END
> <s_m_source_file>
AV-unprocessed.smi

> <i_m_source_file_index>
3009

> <i_lp_mmshare_version>
43012

> <i_f3d_flags>
0

> <s_epik_input>
W0NIM11bQ0hdKFtDSDNdKVtDSDJdTjFbQ0gyXVtDSDJdT1tDQEhdKFtDSDJdMSlbQ0gyXVtOSF1DKD1PKVtOSF1jMltjSF1uW25IXVtjSF0y

> <s_epik_cmdline>
J2VwaWtfcHl0aG9uJywgJy1waCcsICc3LjAnLCAnLXRuJywgJzgnLCAnLW1hJywgJzIwMCcsICctbWV0YWxfYmluZGluZycsICctaW1hZScsICc8aW5maWxlLm1hZT4nLCAnLW9tYWUnLCAnPG91dGZpbGUubWFlPic=

> <r_lp_tautomer_probability>
0.5

> <r_epik_Ionization_Penalty>
0.0974064

> <r_epik_Ionization_Penalty_Charging>
0.0973651

> <r_epik_Ionization_Penalty_Neutral>
4.13573e-05

> <r_epik_State_Penalty>
0.0874853

> <r_epik_Charging_Adjusted_Penalty>
0.18485

> <i_epik_Tot_Q>
1

> <i_epik_Tot_abs_Q>
1

> <r_epik_Metal_State_Penalty>
0.0874855

> <b_epik_Metal_Only>
0

> <s_lp_Force_Field>
OPLS_2005

> <r_lp_Energy>
21.5437

> <b_lp_Chiralities_Consistent>
1

> <s_lp_Variant>
AV-unprocessed.smi:3009-3

> <Gold.Version>
5.8.1

> <Gold.Id.Protein>
6NUR|6NUR_protein|mol2

> <Gold.PLP.Fitness>
48.4772

> <Gold.PLP.PLP>
-35.3922

> <Gold.PLP.part.hbond>
-5.3802

> <Gold.PLP.part.metal>
0.0000

> <Gold.PLP.part.buried>
-2.4179

> <Gold.PLP.part.nonpolar>
-26.7761

> <Gold.PLP.part.repulsive>
0.4832

> <Gold.PLP.ligand.clash>
0.0000

> <Gold.PLP.ligand.torsion>
0.2796

> <Gold.PLP.Chemscore.Hbond>
3.5140

> <Gold.PLP.Chemscore.CHOScore>
0.9799

> <Gold.PLP.Chemscore.Metal>
0.0000

> <Gold.Chemscore.Hbonds>
donor molecule, donor type, donor heavy atom, donor atom, acceptor molecule, acceptor atom, score
      L1  H    11    38       P1  7948  0.13
      L1  H    14    39       P1  7948  1.00
      P1  H  7989  7998       L1    17  0.95
      P1  H 10752 10764       L1    13  0.72
      L1  C    16    40       P1  7957  0.67

> <Gold.PLP.Chemscore.Internal.Correction>
0.1625

> <Gold.Rescore>
     Score         DG    S(hbond)    S(metal)    S(lipo)     H(rot)  DE(clash)    DE(int)     intcor
     14.94     -16.06       1.71        0.00      80.86       1.80       0.06       1.06       ----

> <Gold.Chemscore.Fitness>
14.9408

> <Gold.Chemscore.DG>
-16.0616

> <Gold.Chemscore.ZeroCoef>
-5.4800

> <Gold.Chemscore.Hbond>
1.7124

> <Gold.Chemscore.Metal>
0.0000

> <Gold.Chemscore.Lipo>
80.8588

> <Gold.Chemscore.Internal_Hbond>
0.0000

> <Gold.Chemscore.DEClash>
0.0633

> <Gold.Chemscore.DEInternal>
1.0574

> <Gold.Chemscore.Rot>
1.7963

> <Gold.Chemscore.Internal.Correction>
   9.000000E+99

> <Gold.Chemscore.Hbonds>
donor molecule, donor type, donor heavy atom, donor atom, acceptor molecule, acceptor atom, score
      L1  H    14    39       P1  7948  0.33
      P1  H  7989  7998       L1    17  0.13
      P1  H 10752 10764       L1    13  0.66

> <Gold.Chemscore.Hbond.Weighted>
-5.7196

> <Gold.Chemscore.Metal.Weighted>
-0.0000

> <Gold.Chemscore.Lipo.Weighted>
-9.4605

> <Gold.Chemscore.Internal_Hbond.Weighted>
0.0000

> <Gold.Chemscore.DEClash.Weighted>
0.0633

> <Gold.Chemscore.DEInternal.Weighted>
1.0574

> <Gold.Chemscore.Rot.Weighted>
4.5985

> <Gold.Chemscore.Internal.Correction.Weighted>
   9.000000E+99

> <Gold.Protein.RotatedTorsions>
[ 6907 6896 6895 6894 ] final  -93.77 input  -60.11 | X-H torsion
[ 7974 7965 7964 7962 ] final   62.84 input  175.53 | X-H torsion
[ 8008 7997 7996 7995 ] final   84.77 input   59.86 | X-H torsion
[ 10167 10162 10161 10158 ] final -138.27 input  -65.29 | X-H torsion
[ 10718 10713 10712 10709 ] final   28.27 input   66.30 | X-H torsion
[ 10763 10752 10751 10750 ] final  -36.35 input  -60.55 | X-H torsion
[ 11005 11000 10999 10996 ] final   87.28 input  -57.11 | X-H torsion

> <Gold.Protein.ActiveResidues>
 VAL166  LYS551  ARG553  GLY616  TRP617  ASP618  TYR619  PRO620  LYS621  CYS622 
 ASP623  PHE694  ASN695  SER759  ASP760  ASP761  ALA762  ILE779  LEU786  VAL792 
 PHE793  MET794  SER795  GLU796  ALA797  LYS798  CYS799  TRP800  GLU811  SER814 

> <Gold.Protein.RotatedAtoms>
  150.6929  134.1916  159.4287 H   0  0  0  0  0  0  0  0  0  0  0  0  # atno 6907 bound_to 6896
  151.9886  134.9988  160.0570 H   0  0  0  0  0  0  0  0  0  0  0  0  # atno 6908 bound_to 6896
  152.1688  133.4595  159.4935 H   0  0  0  0  0  0  0  0  0  0  0  0  # atno 6909 bound_to 6896
  145.8688  139.3364  143.0775 H   0  0  0  0  0  0  0  0  0  0  0  0  # atno 7974 bound_to 7965
  155.9414  140.3408  155.6330 H   0  0  0  0  0  0  0  0  0  0  0  0  # atno 8008 bound_to 7997
  155.7035  140.0763  157.2419 H   0  0  0  0  0  0  0  0  0  0  0  0  # atno 8009 bound_to 7997
  154.4103  140.1635  156.2204 H   0  0  0  0  0  0  0  0  0  0  0  0  # atno 8010 bound_to 7997
  139.8495  143.7217  152.2659 H   0  0  0  0  0  0  0  0  0  0  0  0  # atno 10167 bound_to 10162
  157.2313  130.7025  149.6315 H   0  0  0  0  0  0  0  0  0  0  0  0  # atno 10718 bound_to 10713
  153.8783  135.6824  153.4769 H   0  0  0  0  0  0  0  0  0  0  0  0  # atno 10763 bound_to 10752
  153.1248  135.4724  154.9252 H   0  0  0  0  0  0  0  0  0  0  0  0  # atno 10764 bound_to 10752
  154.7681  135.3230  154.8196 H   0  0  0  0  0  0  0  0  0  0  0  0  # atno 10765 bound_to 10752
  139.8923  134.8412  156.2839 H   0  0  0  0  0  0  0  0  0  0  0  0  # atno 11005 bound_to 11000
  145.9162  140.9147  143.0429 LP  0  0  0  0  0  0  0  0  0  0  0  0  # atno 17320 bound_to 7965
  144.6726  140.1226  143.7449 LP  0  0  0  0  0  0  0  0  0  0  0  0  # atno 17321 bound_to 7965
  139.7480  144.7542  151.0550 LP  0  0  0  0  0  0  0  0  0  0  0  0  # atno 17342 bound_to 10162
  140.7789  143.4894  150.9913 LP  0  0  0  0  0  0  0  0  0  0  0  0  # atno 17343 bound_to 10162
  155.9675  130.4488  150.5633 LP  0  0  0  0  0  0  0  0  0  0  0  0  # atno 17370 bound_to 10713
  157.3475  131.0727  151.1739 LP  0  0  0  0  0  0  0  0  0  0  0  0  # atno 17371 bound_to 10713
  141.0021  133.7145  156.0976 LP  0  0  0  0  0  0  0  0  0  0  0  0  # atno 17394 bound_to 11000
  140.7484  134.4073  157.5545 LP  0  0  0  0  0  0  0  0  0  0  0  0  # atno 17395 bound_to 11000

$$$$
