#       Name:                AV-unprocessed.smi:2950
#       Creating user name   scv26
#       Creation time:       Fri Mar 27 16:18:13 2020


#       File generated by GOLD software.
#

@<TRIPOS>MOLECULE
AV-unprocessed.smi:2950
    34    35     1
SMALL
NO_CHARGES


@<TRIPOS>ATOM
      1 ****        -3.4703   0.2734  -1.3739 C.3            1 S1                 0.0000
      2 ****        -2.0561   0.3165  -1.4424 O.3            1 S1                 0.0000
      3 ****        -1.4727  -0.9765  -1.4639 C.3            1 S1                 0.0000
      4 ****         0.0569  -0.8507  -1.5114 C.3            1 S1                 0.0000
      5 ****         0.5833  -0.0536  -0.3945 N.pl3          1 S1                 0.0000
      6 ****         0.9311   1.2644  -0.3341 C.2            1 S1                 0.0000
      7 ****         0.8666   2.2632  -1.4416 C.3            1 S1                 0.0000
      8 ****         2.0399   2.2706  -2.2238 O.3            1 S1                 0.0000
      9 ****         1.3600   1.5102   0.9360 N.pl3          1 S1                 1.0000
     10 ****         1.2815   0.3424   1.6958 C.ar           1 S1                 0.0000
     11 ****         1.6019   0.0974   3.0275 C.ar           1 S1                 0.0000
     12 ****         1.3972  -1.2174   3.4958 C.ar           1 S1                 0.0000
     13 ****         0.8932  -2.2279   2.6510 C.ar           1 S1                 0.0000
     14 ****         0.5746  -1.9680   1.3017 C.ar           1 S1                 0.0000
     15 ****         0.7806  -0.6660   0.8473 C.ar           1 S1                 0.0000
     16 ****        -3.8688   1.2879  -1.3686 H              1 S1                 0.0000
     17 ****        -3.8057  -0.2239  -0.4629 H              1 S1                 0.0000
     18 ****        -3.8911  -0.2491  -2.2339 H              1 S1                 0.0000
     19 ****        -1.7743  -1.5351  -0.5767 H              1 S1                 0.0000
     20 ****        -1.8253  -1.5327  -2.3337 H              1 S1                 0.0000
     21 ****         0.5320  -1.8321  -1.5007 H              1 S1                 0.0000
     22 ****         0.3658  -0.3696  -2.4397 H              1 S1                 0.0000
     23 ****         0.0101   2.0492  -2.0809 H              1 S1                 0.0000
     24 ****         0.7118   3.2579  -1.0230 H              1 S1                 0.0000
     25 ****         1.9392   2.9116  -2.9110 H              1 S1                 0.0000
     26 ****         1.9877   0.8703   3.6759 H              1 S1                 0.0000
     27 ****         1.6305  -1.4553   4.5236 H              1 S1                 0.0000
     28 ****         0.7476  -3.2232   3.0454 H              1 S1                 0.0000
     29 ****         0.1887  -2.7479   0.6621 H              1 S1                 0.0000
     30 ****         1.6832   2.4141   1.2560 H              1 S1                 0.0000
     31 ****        -1.7114   0.8104  -0.6442 LP             1 S1                 0.0000
     32 ****        -1.7901   0.8020  -2.2752 LP             1 S1                 0.0000
     33 ****         2.1833   1.3659  -2.6251 LP             1 S1                 0.0000
     34 ****         2.8247   2.5098  -1.6521 LP             1 S1                 0.0000
@<TRIPOS>BOND
    1    1    2 1     
    2    1   16 1     
    3    1   17 1     
    4    1   18 1     
    5    2    3 1     
    6    3    4 1     
    7    3   19 1     
    8    3   20 1     
    9    4    5 1     
   10    4   21 1     
   11    4   22 1     
   12    5   15 1     
   13    5    6 1     
   14    6    7 1     
   15    6    9 2     
   16    7    8 1     
   17    7   23 1     
   18    7   24 1     
   19    8   25 1     
   20    9   10 1     
   21    9   30 1     
   22   10   15 ar    
   23   10   11 ar    
   24   11   12 ar    
   25   11   26 1     
   26   12   13 ar    
   27   12   27 1     
   28   13   14 ar    
   29   13   28 1     
   30   14   15 ar    
   31   14   29 1     
   32    2   31 1     
   33    2   32 1     
   34    8   33 1     
   35    8   34 1     
@<TRIPOS>SUBSTRUCTURE
      1 S1             1
@<TRIPOS>SET
LONE_PAIRS      STATIC     ATOMS    <user>   **** ""
4 31 32 33 34
DONOR_HYDROGENS      STATIC     ATOMS    <user>   **** ""
2 25 30
ATOM$BLUE        STATIC     ATOMS    COLORGROUP SYSTEM
4 31 32 33 34
ATOM$RED        STATIC     ATOMS    COLORGROUP SYSTEM
2 25 30
