AV-unprocessed.smi:3248|AV-procd|sdf|12413|dock9
  -GOLD-   2272018293D 1   1.00000     0.00000
 Structure written by MMmdl.
 38 39  0  0  0  0  0  0  0  0  1 V2000
  150.9588  140.0100  156.0568 C   0  0  0  0  0  0  0  0  0  0  0  0
  150.1536  141.2640  156.4354 C   0  0  2  0  0  0  0  0  0  0  0  0
  149.4338  141.9101  155.2296 C   0  0  0  0  0  0  0  0  0  0  0  0
  148.4092  141.0585  154.6525 N   0  0  0  0  0  0  0  0  0  0  0  0
  148.4692  139.7071  154.3835 C   0  0  0  0  0  0  0  0  0  0  0  0
  147.2732  139.3493  153.8304 C   0  0  0  0  0  0  0  0  0  0  0  0
  146.5386  140.5678  153.7967 C   0  0  0  0  0  0  0  0  0  0  0  0
  147.2230  141.5897  154.2845 N   0  0  0  0  0  0  0  0  0  0  0  0
  151.0462  142.2313  157.0674 N   0  0  0  0  0  0  0  0  0  0  0  0
  151.6432  142.0820  158.2627 C   0  0  0  0  0  0  0  0  0  0  0  0
  151.5233  141.0585  158.9358 O   0  0  0  0  0  0  0  0  0  0  0  0
  152.4703  143.1085  158.5816 N   0  0  0  0  0  0  0  0  0  0  0  0
  152.1620  144.4877  158.1737 C   0  0  0  0  0  0  0  0  0  0  0  0
  151.4328  145.1865  159.3379 C   0  0  0  0  0  0  0  0  0  0  0  0
  152.2472  145.1579  160.5079 O   0  0  0  0  0  0  0  0  0  0  0  0
  152.6167  143.8400  160.9091 C   0  0  0  0  0  0  0  0  0  0  0  0
  153.3675  143.1477  159.7538 C   0  0  1  0  0  0  0  0  0  0  0  0
  153.9825  141.7950  160.1704 C   0  0  0  0  0  0  0  0  0  0  0  0
  150.3141  139.2249  155.6611 H   0  0  0  0  0  0  0  0  0  0  0  0
  151.4719  139.5974  156.9260 H   0  0  0  0  0  0  0  0  0  0  0  0
  151.7119  140.2354  155.3011 H   0  0  0  0  0  0  0  0  0  0  0  0
  149.4041  140.9598  157.1686 H   0  0  0  0  0  0  0  0  0  0  0  0
  148.9649  142.8508  155.5216 H   0  0  0  0  0  0  0  0  0  0  0  0
  150.1560  142.1531  154.4488 H   0  0  0  0  0  0  0  0  0  0  0  0
  149.3475  139.1190  154.6060 H   0  0  0  0  0  0  0  0  0  0  0  0
  146.9695  138.3675  153.4989 H   0  0  0  0  0  0  0  0  0  0  0  0
  145.5365  140.7393  153.4324 H   0  0  0  0  0  0  0  0  0  0  0  0
  151.2314  143.0804  156.5536 H   0  0  0  0  0  0  0  0  0  0  0  0
  153.0849  145.0177  157.9337 H   0  0  0  0  0  0  0  0  0  0  0  0
  151.5473  144.5462  157.2749 H   0  0  0  0  0  0  0  0  0  0  0  0
  151.2208  146.2247  159.0819 H   0  0  0  0  0  0  0  0  0  0  0  0
  150.4744  144.7058  159.5415 H   0  0  0  0  0  0  0  0  0  0  0  0
  153.2551  143.9127  161.7897 H   0  0  0  0  0  0  0  0  0  0  0  0
  151.7310  143.2732  161.2010 H   0  0  0  0  0  0  0  0  0  0  0  0
  154.2165  143.7783  159.4841 H   0  0  0  0  0  0  0  0  0  0  0  0
  154.7805  141.9487  160.8972 H   0  0  0  0  0  0  0  0  0  0  0  0
  154.4173  141.2765  159.3153 H   0  0  0  0  0  0  0  0  0  0  0  0
  153.2559  141.1327  160.6402 H   0  0  0  0  0  0  0  0  0  0  0  0
  1  2  1  0  0  0  0
  1 19  1  0  0  0  0
  1 20  1  0  0  0  0
  1 21  1  0  0  0  0
  2  3  1  0  0  0  0
  2  9  1  0  0  0  0
  2 22  1  0  0  0  0
  3  4  1  0  0  0  0
  3 23  1  0  0  0  0
  3 24  1  0  0  0  0
  4  8  1  0  0  0  0
  4  5  1  0  0  0  0
  5  6  2  0  0  0  0
  5 25  1  0  0  0  0
  6  7  1  0  0  0  0
  6 26  1  0  0  0  0
  7  8  2  0  0  0  0
  7 27  1  0  0  0  0
  9 10  1  0  0  0  0
  9 28  1  0  0  0  0
 10 11  2  0  0  0  0
 10 12  1  0  0  0  0
 12 17  1  0  0  0  0
 12 13  1  0  0  0  0
 13 14  1  0  0  0  0
 13 29  1  0  0  0  0
 13 30  1  0  0  0  0
 14 15  1  0  0  0  0
 14 31  1  0  0  0  0
 14 32  1  0  0  0  0
 15 16  1  0  0  0  0
 16 17  1  0  0  0  0
 16 33  1  0  0  0  0
 16 34  1  0  0  0  0
 17 18  1  0  0  0  0
 17 35  1  0  0  0  0
 18 36  1  0  0  0  0
 18 37  1  0  0  0  0
 18 38  1  0  0  0  0
M  END
> <s_m_source_file>
AV-unprocessed.smi

> <i_m_source_file_index>
3248

> <i_lp_mmshare_version>
43012

> <i_f3d_flags>
0

> <s_epik_input>
bjFbY0hdW2NIXVtjSF1uMVtDSDJdW0NAQEhdKFtDSDNdKVtOSF1DKD1PKU4yW0NIMl1bQ0gyXU9bQ0gyXVtDQEhdMltDSDNd

> <s_epik_cmdline>
J2VwaWtfcHl0aG9uJywgJy1waCcsICc3LjAnLCAnLXRuJywgJzgnLCAnLW1hJywgJzIwMCcsICctbWV0YWxfYmluZGluZycsICctaW1hZScsICc8aW5maWxlLm1hZT4nLCAnLW9tYWUnLCAnPG91dGZpbGUubWFlPic=

> <r_lp_tautomer_probability>
1

> <r_epik_Ionization_Penalty>
4.45233e-05

> <r_epik_Ionization_Penalty_Charging>
0

> <r_epik_Ionization_Penalty_Neutral>
4.45233e-05

> <r_epik_State_Penalty>
-0

> <r_epik_Charging_Adjusted_Penalty>
0

> <i_epik_Tot_Q>
0

> <i_epik_Tot_abs_Q>
0

> <r_epik_Metal_State_Penalty>
-0

> <b_epik_Metal_Only>
0

> <s_lp_Force_Field>
OPLS_2005

> <r_lp_Energy>
31.5175

> <b_lp_Chiralities_Consistent>
1

> <s_lp_Variant>
AV-unprocessed.smi:3248-1

> <Gold.Version>
5.8.1

> <Gold.Id.Protein>
6NUR|6NUR_protein|mol2

> <Gold.PLP.Fitness>
45.1644

> <Gold.PLP.PLP>
-42.8343

> <Gold.PLP.part.hbond>
0.0000

> <Gold.PLP.part.metal>
0.0000

> <Gold.PLP.part.buried>
-2.6216

> <Gold.PLP.part.nonpolar>
-39.2702

> <Gold.PLP.part.repulsive>
0.4022

> <Gold.PLP.ligand.clash>
0.0167

> <Gold.PLP.ligand.torsion>
0.5497

> <Gold.PLP.Chemscore.Hbond>
0.0000

> <Gold.PLP.Chemscore.CHOScore>
1.0000

> <Gold.PLP.Chemscore.Metal>
0.0000

> <Gold.Chemscore.Hbonds>
donor molecule, donor type, donor heavy atom, donor atom, acceptor molecule, acceptor atom, score
      L1  C     7    27       P1 10175  1.00

> <Gold.PLP.Chemscore.Internal.Correction>
0.4461

> <Gold.Rescore>
     Score         DG    S(hbond)    S(metal)    S(lipo)     H(rot)  DE(clash)    DE(int)     intcor
     11.74     -13.55       0.00        0.00     100.00       1.42       0.02       1.79       ----

> <Gold.Chemscore.Fitness>
11.7398

> <Gold.Chemscore.DG>
-13.5475

> <Gold.Chemscore.ZeroCoef>
-5.4800

> <Gold.Chemscore.Hbond>
0.0000

> <Gold.Chemscore.Metal>
0.0000

> <Gold.Chemscore.Lipo>
100.0038

> <Gold.Chemscore.Internal_Hbond>
0.0000

> <Gold.Chemscore.DEClash>
0.0174

> <Gold.Chemscore.DEInternal>
1.7903

> <Gold.Chemscore.Rot>
1.4191

> <Gold.Chemscore.Internal.Correction>
   9.000000E+99

> <Gold.Chemscore.Hbond.Weighted>
-0.0000

> <Gold.Chemscore.Metal.Weighted>
-0.0000

> <Gold.Chemscore.Lipo.Weighted>
-11.7004

> <Gold.Chemscore.Internal_Hbond.Weighted>
0.0000

> <Gold.Chemscore.DEClash.Weighted>
0.0174

> <Gold.Chemscore.DEInternal.Weighted>
1.7903

> <Gold.Chemscore.Rot.Weighted>
3.6330

> <Gold.Chemscore.Internal.Correction.Weighted>
   9.000000E+99

> <Gold.Protein.RotatedTorsions>
[ 6907 6896 6895 6894 ] final   79.90 input  -60.11 | X-H torsion
[ 7974 7965 7964 7962 ] final  -38.08 input  175.53 | X-H torsion
[ 8008 7997 7996 7995 ] final  109.26 input   59.86 | X-H torsion
[ 10167 10162 10161 10158 ] final   89.70 input  -65.29 | X-H torsion
[ 10718 10713 10712 10709 ] final  -36.81 input   66.30 | X-H torsion
[ 10763 10752 10751 10750 ] final  -27.23 input  -60.55 | X-H torsion
[ 11005 11000 10999 10996 ] final  -79.65 input  -57.11 | X-H torsion

> <Gold.Protein.ActiveResidues>
 VAL166  LYS551  ARG553  GLY616  TRP617  ASP618  TYR619  PRO620  LYS621  CYS622 
 ASP623  PHE694  ASN695  SER759  ASP760  ASP761  ALA762  ILE779  LEU786  VAL792 
 PHE793  MET794  SER795  GLU796  ALA797  LYS798  CYS799  TRP800  GLU811  SER814 

> <Gold.Protein.RotatedAtoms>
  152.5215  134.3440  159.9226 H   0  0  0  0  0  0  0  0  0  0  0  0  # atno 6907 bound_to 6896
  151.3390  133.3964  159.2677 H   0  0  0  0  0  0  0  0  0  0  0  0  # atno 6908 bound_to 6896
  150.9819  134.9190  159.7907 H   0  0  0  0  0  0  0  0  0  0  0  0  # atno 6909 bound_to 6896
  146.0518  140.6470  142.9038 H   0  0  0  0  0  0  0  0  0  0  0  0  # atno 7974 bound_to 7965
  156.1966  140.3061  155.9439 H   0  0  0  0  0  0  0  0  0  0  0  0  # atno 8008 bound_to 7997
  155.3052  140.0448  157.3049 H   0  0  0  0  0  0  0  0  0  0  0  0  # atno 8009 bound_to 7997
  154.5517  140.2293  155.8483 H   0  0  0  0  0  0  0  0  0  0  0  0  # atno 8010 bound_to 7997
  139.8547  144.6575  150.9129 H   0  0  0  0  0  0  0  0  0  0  0  0  # atno 10167 bound_to 10162
  156.3225  130.4267  149.7947 H   0  0  0  0  0  0  0  0  0  0  0  0  # atno 10718 bound_to 10713
  153.7288  135.6940  153.4994 H   0  0  0  0  0  0  0  0  0  0  0  0  # atno 10763 bound_to 10752
  153.2150  135.4389  155.0423 H   0  0  0  0  0  0  0  0  0  0  0  0  # atno 10764 bound_to 10752
  154.8260  135.3446  154.6819 H   0  0  0  0  0  0  0  0  0  0  0  0  # atno 10765 bound_to 10752
  141.1667  133.7115  156.8154 H   0  0  0  0  0  0  0  0  0  0  0  0  # atno 11005 bound_to 11000
  144.7127  140.4097  143.7068 LP  0  0  0  0  0  0  0  0  0  0  0  0  # atno 17320 bound_to 7965
  145.6711  139.1599  143.2754 LP  0  0  0  0  0  0  0  0  0  0  0  0  # atno 17321 bound_to 7965
  140.7783  143.3797  151.1500 LP  0  0  0  0  0  0  0  0  0  0  0  0  # atno 17342 bound_to 10162
  139.7432  143.8893  152.3056 LP  0  0  0  0  0  0  0  0  0  0  0  0  # atno 17343 bound_to 10162
  156.5249  130.8232  151.3217 LP  0  0  0  0  0  0  0  0  0  0  0  0  # atno 17370 bound_to 10713
  157.7415  130.9870  150.2447 LP  0  0  0  0  0  0  0  0  0  0  0  0  # atno 17371 bound_to 10713
  140.2157  134.8794  157.3323 LP  0  0  0  0  0  0  0  0  0  0  0  0  # atno 17394 bound_to 11000
  140.2040  134.4220  155.7647 LP  0  0  0  0  0  0  0  0  0  0  0  0  # atno 17395 bound_to 11000

$$$$
