AV-unprocessed.smi:711|AV-procd|sdf|3464|dock10
  -GOLD-   22720 0453D 1   1.00000     0.00000
 Structure written by MMmdl.
 29 30  0  0  0  0  0  0  0  0  1 V2000
  146.9041  141.0326  152.6028 O   0  0  0  0  0  0  0  0  0  0  0  0
  147.6129  141.0755  153.6063 C   0  0  0  0  0  0  0  0  0  0  0  0
  148.8841  140.4944  153.5854 N   0  0  0  0  0  0  0  0  0  0  0  0
  149.7855  140.4712  154.6501 C   0  0  0  0  0  0  0  0  0  0  0  0
  150.8735  139.9118  154.5141 O   0  0  0  0  0  0  0  0  0  0  0  0
  149.3705  141.0984  155.8498 N   0  0  0  0  0  0  0  0  0  0  0  0
  150.2531  141.0759  156.9943 C   0  0  0  0  0  0  0  0  0  0  0  0
  150.5171  142.4733  157.5985 C   0  0  2  0  0  0  0  0  0  0  0  0
  151.0424  143.3032  156.5819 O   0  0  0  0  0  0  0  0  0  0  0  0
  151.4054  142.4354  158.8375 C   0  0  0  0  0  0  0  0  0  0  0  0
  152.0148  141.2254  159.2388 C   0  0  0  0  0  0  0  0  0  0  0  0
  152.8170  141.1812  160.3952 C   0  0  0  0  0  0  0  0  0  0  0  0
  153.0152  142.3463  161.1596 C   0  0  0  0  0  0  0  0  0  0  0  0
  153.7856  142.3040  162.2723 F   0  0  0  0  0  0  0  0  0  0  0  0
  152.4094  143.5549  160.7678 C   0  0  0  0  0  0  0  0  0  0  0  0
  151.6055  143.6015  159.6122 C   0  0  0  0  0  0  0  0  0  0  0  0
  151.0177  144.7701  159.2592 F   0  0  0  0  0  0  0  0  0  0  0  0
  148.1155  141.6829  155.9154 C   0  0  0  0  0  0  0  0  0  0  0  0
  147.2453  141.6980  154.8772 C   0  0  0  0  0  0  0  0  0  0  0  0
  145.6963  142.4441  155.0417 Cl  0  0  0  0  0  0  0  0  0  0  0  0
  149.1732  140.0489  152.7267 H   0  0  0  0  0  0  0  0  0  0  0  0
  149.8666  140.3688  157.7308 H   0  0  0  0  0  0  0  0  0  0  0  0
  151.1819  140.6365  156.6253 H   0  0  0  0  0  0  0  0  0  0  0  0
  149.5595  142.9163  157.8737 H   0  0  0  0  0  0  0  0  0  0  0  0
  150.3408  143.8328  156.2350 H   0  0  0  0  0  0  0  0  0  0  0  0
  151.8616  140.3231  158.6652 H   0  0  0  0  0  0  0  0  0  0  0  0
  153.2776  140.2518  160.6970 H   0  0  0  0  0  0  0  0  0  0  0  0
  152.5581  144.4478  161.3568 H   0  0  0  0  0  0  0  0  0  0  0  0
  147.8130  142.1465  156.8439 H   0  0  0  0  0  0  0  0  0  0  0  0
  1  2  2  0  0  0  0
  2 19  1  0  0  0  0
  2  3  1  0  0  0  0
  3 21  1  0  0  0  0
  3  4  1  0  0  0  0
  4  5  2  0  0  0  0
  4  6  1  0  0  0  0
  6  7  1  0  0  0  0
  6 18  1  0  0  0  0
  7  8  1  0  0  0  0
  7 22  1  0  0  0  0
  7 23  1  0  0  0  0
  8  9  1  0  0  0  0
  8 10  1  0  0  0  0
  8 24  1  0  0  0  0
  9 25  1  0  0  0  0
 10 16  1  0  0  0  0
 10 11  2  0  0  0  0
 11 12  1  0  0  0  0
 11 26  1  0  0  0  0
 12 13  2  0  0  0  0
 12 27  1  0  0  0  0
 13 14  1  0  0  0  0
 13 15  1  0  0  0  0
 15 16  2  0  0  0  0
 15 28  1  0  0  0  0
 16 17  1  0  0  0  0
 18 19  2  0  0  0  0
 18 29  1  0  0  0  0
 19 20  1  0  0  0  0
M  END
> <s_m_source_file>
AV-unprocessed.smi

> <i_m_source_file_index>
711

> <i_lp_mmshare_version>
43012

> <i_f3d_flags>
0

> <s_epik_input>
Tz1jMVtuSF1jKD1PKW4oW2NIXWMxQ2wpW0NIMl1bQ0BIXShbT0hdKWMyW2NIXVtjSF1jKEYpW2NIXWMyRg==

> <s_epik_cmdline>
J2VwaWtfcHl0aG9uJywgJy1waCcsICc3LjAnLCAnLXRuJywgJzgnLCAnLW1hJywgJzIwMCcsICctbWV0YWxfYmluZGluZycsICctaW1hZScsICc8aW5maWxlLm1hZT4nLCAnLW9tYWUnLCAnPG91dGZpbGUubWFlPic=

> <r_lp_tautomer_probability>
0.999537

> <r_epik_Ionization_Penalty>
0.0292058

> <r_epik_Ionization_Penalty_Charging>
0.0292057

> <r_epik_Ionization_Penalty_Neutral>
9.07348e-08

> <r_epik_State_Penalty>
0.0240115

> <r_epik_Charging_Adjusted_Penalty>
0.0532172

> <i_epik_Tot_Q>
0

> <i_epik_Tot_abs_Q>
0

> <r_epik_Metal_State_Penalty>
2.21956

> <b_epik_Metal_Only>
0

> <s_lp_Force_Field>
OPLS_2005

> <r_lp_Energy>
11.2971

> <b_lp_Chiralities_Consistent>
1

> <s_lp_Variant>
AV-unprocessed.smi:711-1

> <Gold.Version>
5.8.1

> <Gold.Id.Protein>
6NUR|6NUR_protein|mol2

> <Gold.PLP.Fitness>
50.6376

> <Gold.PLP.PLP>
-41.8538

> <Gold.PLP.part.hbond>
-3.0000

> <Gold.PLP.part.metal>
0.0000

> <Gold.PLP.part.buried>
-2.4845

> <Gold.PLP.part.nonpolar>
-36.3698

> <Gold.PLP.part.repulsive>
0.4835

> <Gold.PLP.ligand.clash>
0.0000

> <Gold.PLP.ligand.torsion>
0.1199

> <Gold.PLP.Chemscore.Hbond>
3.0000

> <Gold.PLP.Chemscore.CHOScore>
0.0000

> <Gold.PLP.Chemscore.Metal>
0.0000

> <Gold.Chemscore.Hbonds>
donor molecule, donor type, donor heavy atom, donor atom, acceptor molecule, acceptor atom, score
      L1  H     3    21       P1  7957  1.00
      L1  H     9    25       P1  8028  1.00
      P1  H  7989  7998       L1     5  1.00

> <Gold.PLP.Chemscore.Internal.Correction>
0.0236

> <Gold.Rescore>
     Score         DG    S(hbond)    S(metal)    S(lipo)     H(rot)  DE(clash)    DE(int)     intcor
     17.63     -18.25       2.79        0.00      81.23       2.37       0.36       0.27       ----

> <Gold.Chemscore.Fitness>
17.6254

> <Gold.Chemscore.DG>
-18.2482

> <Gold.Chemscore.ZeroCoef>
-5.4800

> <Gold.Chemscore.Hbond>
2.7900

> <Gold.Chemscore.Metal>
0.0000

> <Gold.Chemscore.Lipo>
81.2343

> <Gold.Chemscore.Internal_Hbond>
0.0000

> <Gold.Chemscore.DEClash>
0.3565

> <Gold.Chemscore.DEInternal>
0.2663

> <Gold.Chemscore.Rot>
2.3652

> <Gold.Chemscore.Internal.Correction>
   9.000000E+99

> <Gold.Chemscore.Hbonds>
donor molecule, donor type, donor heavy atom, donor atom, acceptor molecule, acceptor atom, score
      L1  H     3    21       P1  7957  0.97
      L1  H     9    25       P1  8028  1.00
      P1  H  7989  7998       L1     5  0.39

> <Gold.Chemscore.Hbond.Weighted>
-9.3186

> <Gold.Chemscore.Metal.Weighted>
-0.0000

> <Gold.Chemscore.Lipo.Weighted>
-9.5044

> <Gold.Chemscore.Internal_Hbond.Weighted>
0.0000

> <Gold.Chemscore.DEClash.Weighted>
0.3565

> <Gold.Chemscore.DEInternal.Weighted>
0.2663

> <Gold.Chemscore.Rot.Weighted>
6.0548

> <Gold.Chemscore.Internal.Correction.Weighted>
   9.000000E+99

> <Gold.Protein.RotatedTorsions>
[ 6907 6896 6895 6894 ] final   66.78 input  -60.11 | X-H torsion
[ 7974 7965 7964 7962 ] final  178.77 input  175.53 | X-H torsion
[ 8008 7997 7996 7995 ] final  -65.45 input   59.86 | X-H torsion
[ 10167 10162 10161 10158 ] final  -88.79 input  -65.29 | X-H torsion
[ 10718 10713 10712 10709 ] final -126.22 input   66.30 | X-H torsion
[ 10763 10752 10751 10750 ] final  151.19 input  -60.55 | X-H torsion
[ 11005 11000 10999 10996 ] final -116.39 input  -57.11 | X-H torsion

> <Gold.Protein.ActiveResidues>
 VAL166  LYS551  ARG553  GLY616  TRP617  ASP618  TYR619  PRO620  LYS621  CYS622 
 ASP623  PHE694  ASN695  SER759  ASP760  ASP761  ALA762  ILE779  LEU786  VAL792 
 PHE793  MET794  SER795  GLU796  ALA797  LYS798  CYS799  TRP800  GLU811  SER814 

> <Gold.Protein.RotatedAtoms>
  152.4505  134.5403  159.9836 H   0  0  0  0  0  0  0  0  0  0  0  0  # atno 6907 bound_to 6896
  151.5477  133.3416  159.2955 H   0  0  0  0  0  0  0  0  0  0  0  0  # atno 6908 bound_to 6896
  150.8433  134.7765  159.7013 H   0  0  0  0  0  0  0  0  0  0  0  0  # atno 6909 bound_to 6896
  144.7152  140.0447  143.6436 H   0  0  0  0  0  0  0  0  0  0  0  0  # atno 7974 bound_to 7965
  154.4673  140.0933  156.7053 H   0  0  0  0  0  0  0  0  0  0  0  0  # atno 8008 bound_to 7997
  155.4823  140.3468  155.4323 H   0  0  0  0  0  0  0  0  0  0  0  0  # atno 8009 bound_to 7997
  156.0978  140.1414  156.9496 H   0  0  0  0  0  0  0  0  0  0  0  0  # atno 8010 bound_to 7997
  140.3712  143.2794  151.9498 H   0  0  0  0  0  0  0  0  0  0  0  0  # atno 10167 bound_to 10162
  156.1746  130.6691  151.0225 H   0  0  0  0  0  0  0  0  0  0  0  0  # atno 10718 bound_to 10713
  154.0997  135.2846  155.3254 H   0  0  0  0  0  0  0  0  0  0  0  0  # atno 10763 bound_to 10752
  154.6564  135.5350  153.7967 H   0  0  0  0  0  0  0  0  0  0  0  0  # atno 10764 bound_to 10752
  153.0383  135.6523  154.1161 H   0  0  0  0  0  0  0  0  0  0  0  0  # atno 10765 bound_to 10752
  141.0425  133.9813  157.2971 H   0  0  0  0  0  0  0  0  0  0  0  0  # atno 11005 bound_to 11000
  145.9994  139.3079  143.0937 LP  0  0  0  0  0  0  0  0  0  0  0  0  # atno 17320 bound_to 7965
  145.8811  140.9362  143.0601 LP  0  0  0  0  0  0  0  0  0  0  0  0  # atno 17321 bound_to 7965
  139.4803  144.5905  151.7779 LP  0  0  0  0  0  0  0  0  0  0  0  0  # atno 17342 bound_to 10162
  140.5032  144.1138  150.5976 LP  0  0  0  0  0  0  0  0  0  0  0  0  # atno 17343 bound_to 10162
  157.6826  131.0834  150.7328 LP  0  0  0  0  0  0  0  0  0  0  0  0  # atno 17370 bound_to 10713
  156.7386  130.4732  149.5483 LP  0  0  0  0  0  0  0  0  0  0  0  0  # atno 17371 bound_to 10713
  139.9286  135.0201  156.8323 LP  0  0  0  0  0  0  0  0  0  0  0  0  # atno 17394 bound_to 11000
  140.6208  133.9996  155.7617 LP  0  0  0  0  0  0  0  0  0  0  0  0  # atno 17395 bound_to 11000

$$$$
