#       Name:                AV-unprocessed.smi:1205
#       Creating user name   scv26
#       Creation time:       Fri Mar 27 04:06:50 2020


#       File generated by GOLD software.
#

@<TRIPOS>MOLECULE
AV-unprocessed.smi:1205
    52    53     1
SMALL
NO_CHARGES


@<TRIPOS>ATOM
      1 ****        -6.1563   4.2914  -0.3679 C.3            1 S1                 0.0000
      2 ****        -5.4898   2.9757  -0.6422 C.2            1 S1                 0.0000
      3 ****        -4.1026   2.6594  -0.5578 C.2            1 S1                 0.0000
      4 ****        -4.0730   1.3379  -0.9108 C.2            1 S1                 0.0000
      5 ****        -3.0057   0.4998  -0.9970 N.am           1 S1                 0.0000
      6 ****        -1.7013   0.7825  -0.8367 C.2            1 S1                 0.0000
      7 ****        -1.2370   1.8932  -0.5784 O.2            1 S1                 0.0000
      8 ****        -0.9447  -0.3144  -0.9907 N.am           1 S1                 0.0000
      9 ****         0.5132  -0.3554  -0.9045 C.3            1 S1                 0.0000
     10 ****         1.0188  -0.8392   0.4751 C.3            1 S1                 0.0000
     11 ****         0.5137   0.0193   1.6562 C.3            1 S1                 0.0000
     12 ****         2.5045  -0.9834   0.4629 N.4            1 S1                 1.0000
     13 ****         3.2685   0.2912   0.5541 C.3            1 S1                 0.0000
     14 ****         4.7597   0.0520   0.2729 C.3            1 S1                 0.0000
     15 ****         5.3349  -1.0034   1.2289 C.3            1 S1                 0.0000
     16 ****         4.5068  -2.3021   1.1954 C.3            1 S1                 0.0000
     17 ****         4.7425  -3.1250  -0.0834 C.3            1 S1                 0.0000
     18 ****         3.0110  -1.9993   1.4254 C.3            1 S1                 0.0000
     19 ****        -5.3577   0.9200  -1.1786 N.pl3          1 S1                 0.0000
     20 ****        -5.8374  -0.3867  -1.5842 C.3            1 S1                 0.0000
     21 ****        -6.2307   1.9365  -1.0103 N.2            1 S1                 0.0000
     22 ****        -5.4221   5.0688  -0.1555 H              1 S1                 0.0000
     23 ****        -6.8231   4.2213   0.4918 H              1 S1                 0.0000
     24 ****        -6.7472   4.6191  -1.2238 H              1 S1                 0.0000
     25 ****        -3.2856   3.3083  -0.2806 H              1 S1                 0.0000
     26 ****        -3.2301  -0.4584  -1.2215 H              1 S1                 0.0000
     27 ****        -1.4116  -1.1851  -1.1997 H              1 S1                 0.0000
     28 ****         0.8651  -1.0374  -1.6793 H              1 S1                 0.0000
     29 ****         0.9285   0.6208  -1.1568 H              1 S1                 0.0000
     30 ****         0.6033  -1.8391   0.6088 H              1 S1                 0.0000
     31 ****        -0.5701  -0.0409   1.7523 H              1 S1                 0.0000
     32 ****         0.7691   1.0715   1.5294 H              1 S1                 0.0000
     33 ****         0.9299  -0.3153   2.6060 H              1 S1                 0.0000
     34 ****         2.8865   1.0206  -0.1589 H              1 S1                 0.0000
     35 ****         3.1514   0.7274   1.5470 H              1 S1                 0.0000
     36 ****         4.8943  -0.2660  -0.7613 H              1 S1                 0.0000
     37 ****         5.3118   0.9863   0.3788 H              1 S1                 0.0000
     38 ****         6.3785  -1.2066   0.9866 H              1 S1                 0.0000
     39 ****         5.3308  -0.6023   2.2435 H              1 S1                 0.0000
     40 ****         4.8456  -2.9232   2.0256 H              1 S1                 0.0000
     41 ****         4.4042  -2.5986  -0.9759 H              1 S1                 0.0000
     42 ****         4.2088  -4.0749  -0.0402 H              1 S1                 0.0000
     43 ****         5.8010  -3.3517  -0.2137 H              1 S1                 0.0000
     44 ****         2.8626  -1.6385   2.4440 H              1 S1                 0.0000
     45 ****         2.4380  -2.9233   1.3363 H              1 S1                 0.0000
     46 ****        -5.2075  -0.7800  -2.3827 H              1 S1                 0.0000
     47 ****        -6.8640  -0.3217  -1.9475 H              1 S1                 0.0000
     48 ****        -5.8036  -1.0680  -0.7338 H              1 S1                 0.0000
     49 ****         2.7181  -1.3647  -0.4477 H              1 S1                 0.0000
     50 ****        -1.8477   2.6778  -0.4708 LP             1 S1                 0.0000
     51 ****        -0.2492   2.0108  -0.4762 LP             1 S1                 0.0000
     52 ****        -7.2225   1.9121  -1.1359 LP             1 S1                 0.0000
@<TRIPOS>BOND
    1    1    2 1     
    2    1   22 1     
    3    1   23 1     
    4    1   24 1     
    5    2   21 2     
    6    2    3 1     
    7    3    4 2     
    8    3   25 1     
    9    4    5 1     
   10    4   19 1     
   11    5    6 am    
   12    5   26 1     
   13    6    7 2     
   14    6    8 am    
   15    8    9 1     
   16    8   27 1     
   17    9   10 1     
   18    9   28 1     
   19    9   29 1     
   20   10   11 1     
   21   10   12 1     
   22   10   30 1     
   23   11   31 1     
   24   11   32 1     
   25   11   33 1     
   26   12   18 1     
   27   12   13 1     
   28   12   49 1     
   29   13   14 1     
   30   13   34 1     
   31   13   35 1     
   32   14   15 1     
   33   14   36 1     
   34   14   37 1     
   35   15   16 1     
   36   15   38 1     
   37   15   39 1     
   38   16   17 1     
   39   16   18 1     
   40   16   40 1     
   41   17   41 1     
   42   17   42 1     
   43   17   43 1     
   44   18   44 1     
   45   18   45 1     
   46   19   20 1     
   47   19   21 1     
   48   20   46 1     
   49   20   47 1     
   50   20   48 1     
   51    7   50 1     
   52    7   51 1     
   53   21   52 1     
@<TRIPOS>SUBSTRUCTURE
      1 S1             1
@<TRIPOS>SET
LONE_PAIRS      STATIC     ATOMS    <user>   **** ""
3 50 51 52
DONOR_HYDROGENS      STATIC     ATOMS    <user>   **** ""
3 26 27 49
ATOM$BLUE        STATIC     ATOMS    COLORGROUP SYSTEM
3 50 51 52
ATOM$RED        STATIC     ATOMS    COLORGROUP SYSTEM
3 26 27 49
