AV-unprocessed.smi:2059|AV-procd|sdf|8348|dock9
  -GOLD-   2272011 13D 1   1.00000     0.00000
 Structure written by MMmdl.
 30 31  0  0  0  0  0  0  0  0  1 V2000
  143.7568  132.9303  148.3687 C   0  0  0  0  0  0  0  0  0  0  0  0
  144.5721  132.3930  149.4946 C   0  0  0  0  0  0  0  0  0  0  0  0
  145.8558  132.6195  149.9043 C   0  0  0  0  0  0  0  0  0  0  0  0
  145.9862  131.7797  151.0426 C   0  0  0  0  0  0  0  0  0  0  0  0
  147.2131  131.7331  151.7641 N   0  0  0  0  0  0  0  0  0  0  0  0
  147.5287  132.1661  153.0028 C   0  0  0  0  0  0  0  0  0  0  0  0
  146.6886  132.7080  153.7192 O   0  0  0  0  0  0  0  0  0  0  0  0
  148.7979  131.9686  153.3956 N   0  0  0  0  0  0  0  0  0  0  0  0
  149.3509  132.3549  154.6890 C   0  0  2  0  0  0  0  0  0  0  0  0
  150.2859  133.5767  154.5794 C   0  0  0  0  0  0  0  0  0  0  0  0
  151.1086  133.6858  155.8693 C   0  0  0  0  0  0  0  0  0  0  0  0
  151.3048  131.9748  156.4973 S   0  0  0  0  0  0  0  0  0  0  0  0
  152.6715  131.5026  156.2283 O   0  0  0  0  0  0  0  0  0  0  0  0
  150.7289  131.8959  157.8484 O   0  0  0  0  0  0  0  0  0  0  0  0
  150.1555  131.1998  155.2996 C   0  0  0  0  0  0  0  0  0  0  0  0
  144.8783  131.0992  151.3001 N   0  0  0  0  0  0  0  0  0  0  0  0
  143.9676  131.4883  150.3110 O   0  0  0  0  0  0  0  0  0  0  0  0
  144.1860  133.8557  147.9848 H   0  0  0  0  0  0  0  0  0  0  0  0
  142.7376  133.1412  148.6930 H   0  0  0  0  0  0  0  0  0  0  0  0
  143.7103  132.2128  147.5496 H   0  0  0  0  0  0  0  0  0  0  0  0
  146.5829  133.2823  149.4585 H   0  0  0  0  0  0  0  0  0  0  0  0
  147.9740  131.2934  151.2667 H   0  0  0  0  0  0  0  0  0  0  0  0
  149.4258  131.5154  152.7465 H   0  0  0  0  0  0  0  0  0  0  0  0
  148.5386  132.5993  155.3761 H   0  0  0  0  0  0  0  0  0  0  0  0
  150.9697  133.4299  153.7422 H   0  0  0  0  0  0  0  0  0  0  0  0
  149.7344  134.4960  154.3809 H   0  0  0  0  0  0  0  0  0  0  0  0
  152.0847  134.1448  155.7127 H   0  0  0  0  0  0  0  0  0  0  0  0
  150.5699  134.2603  156.6230 H   0  0  0  0  0  0  0  0  0  0  0  0
  149.5310  130.4599  155.8009 H   0  0  0  0  0  0  0  0  0  0  0  0
  150.7575  130.6935  154.5437 H   0  0  0  0  0  0  0  0  0  0  0  0
  1  2  1  0  0  0  0
  1 18  1  0  0  0  0
  1 19  1  0  0  0  0
  1 20  1  0  0  0  0
  2 17  1  0  0  0  0
  2  3  2  0  0  0  0
  3  4  1  0  0  0  0
  3 21  1  0  0  0  0
  4  5  1  0  0  0  0
  4 16  2  0  0  0  0
  5  6  1  0  0  0  0
  5 22  1  0  0  0  0
  6  7  2  0  0  0  0
  6  8  1  0  0  0  0
  8  9  1  0  0  0  0
  8 23  1  0  0  0  0
  9 15  1  0  0  0  0
  9 10  1  0  0  0  0
  9 24  1  0  0  0  0
 10 11  1  0  0  0  0
 10 25  1  0  0  0  0
 10 26  1  0  0  0  0
 11 12  1  0  0  0  0
 11 27  1  0  0  0  0
 11 28  1  0  0  0  0
 12 13  2  0  0  0  0
 12 14  2  0  0  0  0
 12 15  1  0  0  0  0
 15 29  1  0  0  0  0
 15 30  1  0  0  0  0
 16 17  1  0  0  0  0
M  END
> <s_m_source_file>
AV-unprocessed.smi

> <i_m_source_file_index>
2059

> <i_lp_mmshare_version>
43012

> <i_f3d_flags>
0

> <s_epik_input>
W0NIM11jMVtjSF1jKG5vMSlbTkhdQyg9TylbTkhdW0NAQEhdKFtDSDJdMilbQ0gyXVtDSDJdUzIoPU8pPU8=

> <s_epik_cmdline>
J2VwaWtfcHl0aG9uJywgJy1waCcsICc3LjAnLCAnLXRuJywgJzgnLCAnLW1hJywgJzIwMCcsICctbWV0YWxfYmluZGluZycsICctaW1hZScsICc8aW5maWxlLm1hZT4nLCAnLW9tYWUnLCAnPG91dGZpbGUubWFlPic=

> <r_lp_tautomer_probability>
1

> <r_epik_Ionization_Penalty>
3.88767e-05

> <r_epik_Ionization_Penalty_Charging>
0

> <r_epik_Ionization_Penalty_Neutral>
3.88767e-05

> <r_epik_State_Penalty>
-0

> <r_epik_Charging_Adjusted_Penalty>
0

> <i_epik_Tot_Q>
0

> <i_epik_Tot_abs_Q>
0

> <r_epik_Metal_State_Penalty>
0.0251347

> <b_epik_Metal_Only>
0

> <s_lp_Force_Field>
OPLS_2005

> <r_lp_Energy>
4.38419

> <b_lp_Chiralities_Consistent>
1

> <s_lp_Variant>
AV-unprocessed.smi:2059-1

> <Gold.Version>
5.8.1

> <Gold.Id.Protein>
6NUR|6NUR_protein|mol2

> <Gold.PLP.Fitness>
35.1113

> <Gold.PLP.PLP>
-28.8063

> <Gold.PLP.part.hbond>
-3.0000

> <Gold.PLP.part.metal>
0.0000

> <Gold.PLP.part.buried>
-3.3003

> <Gold.PLP.part.nonpolar>
-22.2938

> <Gold.PLP.part.repulsive>
0.4175

> <Gold.PLP.ligand.clash>
0.0000

> <Gold.PLP.ligand.torsion>
0.8008

> <Gold.PLP.Chemscore.Hbond>
2.6354

> <Gold.PLP.Chemscore.CHOScore>
0.0000

> <Gold.PLP.Chemscore.Metal>
0.0000

> <Gold.Chemscore.Hbonds>
donor molecule, donor type, donor heavy atom, donor atom, acceptor molecule, acceptor atom, score
      L1  H     5    22       P1 10747  0.86
      P1  H  6896  6908       L1    14  0.84
      P1  H 10785 10796       L1    17  0.37

> <Gold.PLP.Chemscore.Internal.Correction>
0.0002

> <Gold.Rescore>
     Score         DG    S(hbond)    S(metal)    S(lipo)     H(rot)  DE(clash)    DE(int)     intcor
     15.83     -16.62       2.00        0.00      60.14       1.00       0.01       0.78       ----

> <Gold.Chemscore.Fitness>
15.8331

> <Gold.Chemscore.DG>
-16.6234

> <Gold.Chemscore.ZeroCoef>
-5.4800

> <Gold.Chemscore.Hbond>
1.9962

> <Gold.Chemscore.Metal>
0.0000

> <Gold.Chemscore.Lipo>
60.1374

> <Gold.Chemscore.Internal_Hbond>
0.0000

> <Gold.Chemscore.DEClash>
0.0067

> <Gold.Chemscore.DEInternal>
0.7836

> <Gold.Chemscore.Rot>
1.0000

> <Gold.Chemscore.Internal.Correction>
   9.000000E+99

> <Gold.Chemscore.Hbonds>
donor molecule, donor type, donor heavy atom, donor atom, acceptor molecule, acceptor atom, score
      L1  H     5    22       P1 10747  0.84
      P1  H  6896  6908       L1    14  0.79
      P1  H 10785 10796       L1    17  0.07

> <Gold.Chemscore.Hbond.Weighted>
-6.6673

> <Gold.Chemscore.Metal.Weighted>
-0.0000

> <Gold.Chemscore.Lipo.Weighted>
-7.0361

> <Gold.Chemscore.Internal_Hbond.Weighted>
0.0000

> <Gold.Chemscore.DEClash.Weighted>
0.0067

> <Gold.Chemscore.DEInternal.Weighted>
0.7836

> <Gold.Chemscore.Rot.Weighted>
2.5600

> <Gold.Chemscore.Internal.Correction.Weighted>
   9.000000E+99

> <Gold.Protein.RotatedTorsions>
[ 6907 6896 6895 6894 ] final   76.60 input  -60.11 | X-H torsion
[ 7974 7965 7964 7962 ] final -147.62 input  175.53 | X-H torsion
[ 8008 7997 7996 7995 ] final   53.80 input   59.86 | X-H torsion
[ 10167 10162 10161 10158 ] final  120.04 input  -65.29 | X-H torsion
[ 10718 10713 10712 10709 ] final   54.25 input   66.30 | X-H torsion
[ 10763 10752 10751 10750 ] final  -24.13 input  -60.55 | X-H torsion
[ 11005 11000 10999 10996 ] final   73.13 input  -57.11 | X-H torsion

> <Gold.Protein.ActiveResidues>
 VAL166  LYS551  ARG553  GLY616  TRP617  ASP618  TYR619  PRO620  LYS621  CYS622 
 ASP623  PHE694  ASN695  SER759  ASP760  ASP761  ALA762  ILE779  LEU786  VAL792 
 PHE793  MET794  SER795  GLU796  ALA797  LYS798  CYS799  TRP800  GLU811  SER814 

> <Gold.Protein.RotatedAtoms>
  152.5080  134.3943  159.9394 H   0  0  0  0  0  0  0  0  0  0  0  0  # atno 6907 bound_to 6896
  151.3905  133.3784  159.2728 H   0  0  0  0  0  0  0  0  0  0  0  0  # atno 6908 bound_to 6896
  150.9436  134.8864  159.7687 H   0  0  0  0  0  0  0  0  0  0  0  0  # atno 6909 bound_to 6896
  144.8082  140.5304  143.5660 H   0  0  0  0  0  0  0  0  0  0  0  0  # atno 7974 bound_to 7965
  155.4742  140.3466  155.4330 H   0  0  0  0  0  0  0  0  0  0  0  0  # atno 8008 bound_to 7997
  156.1081  140.1453  156.9405 H   0  0  0  0  0  0  0  0  0  0  0  0  # atno 8009 bound_to 7997
  154.4738  140.0892  156.7189 H   0  0  0  0  0  0  0  0  0  0  0  0  # atno 8010 bound_to 7997
  139.6007  144.7056  151.3068 H   0  0  0  0  0  0  0  0  0  0  0  0  # atno 10167 bound_to 10162
  157.5240  130.8584  149.8596 H   0  0  0  0  0  0  0  0  0  0  0  0  # atno 10718 bound_to 10713
  153.6788  135.6968  153.5124 H   0  0  0  0  0  0  0  0  0  0  0  0  # atno 10763 bound_to 10752
  153.2501  135.4278  155.0787 H   0  0  0  0  0  0  0  0  0  0  0  0  # atno 10764 bound_to 10752
  154.8406  135.3529  154.6332 H   0  0  0  0  0  0  0  0  0  0  0  0  # atno 10765 bound_to 10752
  139.9455  134.7320  156.0989 H   0  0  0  0  0  0  0  0  0  0  0  0  # atno 11005 bound_to 11000
  145.5387  139.1475  143.3459 LP  0  0  0  0  0  0  0  0  0  0  0  0  # atno 17320 bound_to 7965
  146.2377  140.5527  142.8948 LP  0  0  0  0  0  0  0  0  0  0  0  0  # atno 17321 bound_to 7965
  140.7248  143.7036  150.7825 LP  0  0  0  0  0  0  0  0  0  0  0  0  # atno 17342 bound_to 10162
  140.0611  143.5153  152.2627 LP  0  0  0  0  0  0  0  0  0  0  0  0  # atno 17343 bound_to 10162
  156.0373  130.3748  150.1526 LP  0  0  0  0  0  0  0  0  0  0  0  0  # atno 17370 bound_to 10713
  156.9713  130.9835  151.3458 LP  0  0  0  0  0  0  0  0  0  0  0  0  # atno 17371 bound_to 10713
  141.1104  133.6645  156.2966 LP  0  0  0  0  0  0  0  0  0  0  0  0  # atno 17394 bound_to 11000
  140.5844  134.5713  157.5486 LP  0  0  0  0  0  0  0  0  0  0  0  0  # atno 17395 bound_to 11000

$$$$
