AV-unprocessed.smi:3105|AV-procd|sdf|11819|dock1
  -GOLD-   2272017193D 1   1.00000     0.00000
 Structure written by MMmdl.
 34 34  0  0  0  0  0  0  0  0  2 V2000
  149.3294  140.1022  157.6681 C   0  0  0  0  0  0  0  0  0  0  0  0
  149.8473  141.5485  157.5437 C   0  0  2  0  0  0  0  0  0  0  0  0
  149.6065  142.0534  156.1713 N   0  3  0  0  0  0  0  0  0  0  0  0
  148.3922  141.5332  155.5044 C   0  0  0  0  0  0  0  0  0  0  0  0
  148.6441  141.2185  154.0165 C   0  0  0  0  0  0  0  0  0  0  0  0
  149.3615  139.8862  153.7582 C   0  0  0  0  0  0  0  0  0  0  0  0
  148.6806  138.9657  153.0721 N   0  0  0  0  0  0  0  0  0  0  0  0
  150.5049  139.6835  154.1639 O   0  0  0  0  0  0  0  0  0  0  0  0
  151.3573  141.6678  157.8902 C   0  0  2  0  0  0  0  0  0  0  0  0
  151.8713  140.5220  158.7818 C   0  0  0  0  0  0  0  0  0  0  0  0
  151.6708  142.9472  158.5187 N   0  0  0  0  0  0  0  0  0  0  0  0
  151.5686  144.2111  157.9745 C   0  0  0  0  0  0  0  0  0  0  0  0
  151.9895  145.0999  158.9217 C   0  0  0  0  0  0  0  0  0  0  0  0
  152.3473  144.2755  160.0242 C   0  0  0  0  0  0  0  0  0  0  0  0
  152.1585  142.9892  159.7797 N   0  0  0  0  0  0  0  0  0  0  0  0
  149.4188  139.7291  158.6877 H   0  0  0  0  0  0  0  0  0  0  0  0
  149.8821  139.4258  157.0155 H   0  0  0  0  0  0  0  0  0  0  0  0
  148.2750  140.0252  157.4046 H   0  0  0  0  0  0  0  0  0  0  0  0
  149.2866  142.1747  158.2396 H   0  0  0  0  0  0  0  0  0  0  0  0
  149.5037  143.0565  156.2327 H   0  0  0  0  0  0  0  0  0  0  0  0
  148.0307  140.6409  156.0156 H   0  0  0  0  0  0  0  0  0  0  0  0
  147.6024  142.2810  155.5838 H   0  0  0  0  0  0  0  0  0  0  0  0
  147.6869  141.1907  153.4940 H   0  0  0  0  0  0  0  0  0  0  0  0
  149.2208  142.0244  153.5602 H   0  0  0  0  0  0  0  0  0  0  0  0
  149.1018  138.0712  152.8659 H   0  0  0  0  0  0  0  0  0  0  0  0
  147.7433  139.1692  152.7543 H   0  0  0  0  0  0  0  0  0  0  0  0
  151.9200  141.6320  156.9558 H   0  0  0  0  0  0  0  0  0  0  0  0
  151.8226  139.5594  158.2738 H   0  0  0  0  0  0  0  0  0  0  0  0
  151.2946  140.4448  159.7042 H   0  0  0  0  0  0  0  0  0  0  0  0
  152.9146  140.6807  159.0569 H   0  0  0  0  0  0  0  0  0  0  0  0
  151.2084  144.3726  156.9691 H   0  0  0  0  0  0  0  0  0  0  0  0
  152.0408  146.1752  158.8376 H   0  0  0  0  0  0  0  0  0  0  0  0
  152.7374  144.5713  160.9871 H   0  0  0  0  0  0  0  0  0  0  0  0
  150.4142  141.8479  155.6003 H   0  0  0  0  0  0  0  0  0  0  0  0
  1  2  1  0  0  0  0
  1 16  1  0  0  0  0
  1 17  1  0  0  0  0
  1 18  1  0  0  0  0
  2  3  1  0  0  0  0
  2  9  1  0  0  0  0
  2 19  1  0  0  0  0
  3  4  1  0  0  0  0
  3 20  1  0  0  0  0
  3 34  1  0  0  0  0
  4  5  1  0  0  0  0
  4 21  1  0  0  0  0
  4 22  1  0  0  0  0
  5  6  1  0  0  0  0
  5 23  1  0  0  0  0
  5 24  1  0  0  0  0
  6  7  1  0  0  0  0
  6  8  2  0  0  0  0
  7 25  1  0  0  0  0
  7 26  1  0  0  0  0
  9 10  1  0  0  0  0
  9 11  1  0  0  0  0
  9 27  1  0  0  0  0
 10 28  1  0  0  0  0
 10 29  1  0  0  0  0
 10 30  1  0  0  0  0
 11 15  1  0  0  0  0
 11 12  1  0  0  0  0
 12 13  2  0  0  0  0
 12 31  1  0  0  0  0
 13 14  1  0  0  0  0
 13 32  1  0  0  0  0
 14 15  2  0  0  0  0
 14 33  1  0  0  0  0
M  CHG  1   3   1
M  END
> <s_m_source_file>
AV-unprocessed.smi

> <i_m_source_file_index>
3105

> <i_lp_mmshare_version>
43012

> <i_f3d_flags>
0

> <s_epik_input>
W05IMl1DKD1PKVtDSDJdW0NIMl1bTkhdW0NAQEhdKFtDSDNdKVtDQEhdKFtDSDNdKW4xW2NIXVtjSF1bY0hdbjE=

> <s_epik_cmdline>
J2VwaWtfcHl0aG9uJywgJy1waCcsICc3LjAnLCAnLXRuJywgJzgnLCAnLW1hJywgJzIwMCcsICctbWV0YWxfYmluZGluZycsICctaW1hZScsICc8aW5maWxlLm1hZT4nLCAnLW9tYWUnLCAnPG91dGZpbGUubWFlPic=

> <r_lp_tautomer_probability>
1

> <r_epik_Ionization_Penalty>
0.00475669

> <r_epik_Ionization_Penalty_Charging>
0.00474654

> <r_epik_Ionization_Penalty_Neutral>
1.01546e-05

> <r_epik_State_Penalty>
-0

> <r_epik_Charging_Adjusted_Penalty>
0.00474654

> <i_epik_Tot_Q>
1

> <i_epik_Tot_abs_Q>
1

> <r_epik_Metal_State_Penalty>
-0

> <b_epik_Metal_Only>
0

> <s_lp_Force_Field>
OPLS_2005

> <r_lp_Energy>
5.41696

> <b_lp_Chiralities_Consistent>
1

> <s_lp_Variant>
AV-unprocessed.smi:3105-1

> <Gold.Version>
5.8.1

> <Gold.Id.Protein>
6NUR|6NUR_protein|mol2

> <Gold.PLP.Fitness>
44.7310

> <Gold.PLP.PLP>
-32.7398

> <Gold.PLP.part.hbond>
-4.0000

> <Gold.PLP.part.metal>
0.0000

> <Gold.PLP.part.buried>
-2.4762

> <Gold.PLP.part.nonpolar>
-26.1429

> <Gold.PLP.part.repulsive>
0.5259

> <Gold.PLP.ligand.clash>
0.0000

> <Gold.PLP.ligand.torsion>
1.6710

> <Gold.PLP.Chemscore.Hbond>
3.9920

> <Gold.PLP.Chemscore.CHOScore>
1.0000

> <Gold.PLP.Chemscore.Metal>
0.0000

> <Gold.Chemscore.Hbonds>
donor molecule, donor type, donor heavy atom, donor atom, acceptor molecule, acceptor atom, score
      L1  H     3    20       P1  8028  2.00
      L1  H     7    25       P1  7948  0.87
      P1  H  7989  7998       L1     8  1.00
      L1  C    12    31       P1  8028  0.69

> <Gold.PLP.Chemscore.Internal.Correction>
0.3573

> <Gold.Rescore>
     Score         DG    S(hbond)    S(metal)    S(lipo)     H(rot)  DE(clash)    DE(int)     intcor
     13.01     -16.25       2.80        0.00      74.50       2.85       1.52       1.72       ----

> <Gold.Chemscore.Fitness>
13.0125

> <Gold.Chemscore.DG>
-16.2549

> <Gold.Chemscore.ZeroCoef>
-5.4800

> <Gold.Chemscore.Hbond>
2.7986

> <Gold.Chemscore.Metal>
0.0000

> <Gold.Chemscore.Lipo>
74.5014

> <Gold.Chemscore.Internal_Hbond>
0.0000

> <Gold.Chemscore.DEClash>
1.5226

> <Gold.Chemscore.DEInternal>
1.7197

> <Gold.Chemscore.Rot>
2.8473

> <Gold.Chemscore.Internal.Correction>
   9.000000E+99

> <Gold.Chemscore.Hbonds>
donor molecule, donor type, donor heavy atom, donor atom, acceptor molecule, acceptor atom, score
      L1  H     3    20       P1  8028  0.98
      L1  H     7    25       P1  7948  0.79
      P1  H  7989  7998       L1     8  0.74

> <Gold.Chemscore.Hbond.Weighted>
-9.3474

> <Gold.Chemscore.Metal.Weighted>
-0.0000

> <Gold.Chemscore.Lipo.Weighted>
-8.7167

> <Gold.Chemscore.Internal_Hbond.Weighted>
0.0000

> <Gold.Chemscore.DEClash.Weighted>
1.5226

> <Gold.Chemscore.DEInternal.Weighted>
1.7197

> <Gold.Chemscore.Rot.Weighted>
7.2892

> <Gold.Chemscore.Internal.Correction.Weighted>
   9.000000E+99

> <Gold.Protein.RotatedTorsions>
[ 6907 6896 6895 6894 ] final -116.50 input  -60.11 | X-H torsion
[ 7974 7965 7964 7962 ] final   55.43 input  175.53 | X-H torsion
[ 8008 7997 7996 7995 ] final  -81.85 input   59.86 | X-H torsion
[ 10167 10162 10161 10158 ] final -121.15 input  -65.29 | X-H torsion
[ 10718 10713 10712 10709 ] final   14.24 input   66.30 | X-H torsion
[ 10763 10752 10751 10750 ] final  -71.31 input  -60.55 | X-H torsion
[ 11005 11000 10999 10996 ] final  -82.52 input  -57.11 | X-H torsion

> <Gold.Protein.ActiveResidues>
 VAL166  LYS551  ARG553  GLY616  TRP617  ASP618  TYR619  PRO620  LYS621  CYS622 
 ASP623  PHE694  ASN695  SER759  ASP760  ASP761  ALA762  ILE779  LEU786  VAL792 
 PHE793  MET794  SER795  GLU796  ALA797  LYS798  CYS799  TRP800  GLU811  SER814 

> <Gold.Protein.RotatedAtoms>
  150.8061  133.8508  159.3204 H   0  0  0  0  0  0  0  0  0  0  0  0  # atno 6907 bound_to 6896
  151.6306  135.1021  160.0130 H   0  0  0  0  0  0  0  0  0  0  0  0  # atno 6908 bound_to 6896
  152.4152  133.6986  159.6467 H   0  0  0  0  0  0  0  0  0  0  0  0  # atno 6909 bound_to 6896
  145.9504  139.3967  143.0309 H   0  0  0  0  0  0  0  0  0  0  0  0  # atno 7974 bound_to 7965
  154.6025  140.0642  156.9387 H   0  0  0  0  0  0  0  0  0  0  0  0  # atno 8008 bound_to 7997
  155.2108  140.3322  155.4311 H   0  0  0  0  0  0  0  0  0  0  0  0  # atno 8009 bound_to 7997
  156.2327  140.1848  156.7184 H   0  0  0  0  0  0  0  0  0  0  0  0  # atno 8010 bound_to 7997
  140.0281  143.5276  152.2189 H   0  0  0  0  0  0  0  0  0  0  0  0  # atno 10167 bound_to 10162
  157.0362  130.6213  149.5743 H   0  0  0  0  0  0  0  0  0  0  0  0  # atno 10718 bound_to 10713
  154.4300  135.5966  153.6062 H   0  0  0  0  0  0  0  0  0  0  0  0  # atno 10763 bound_to 10752
  152.9798  135.5973  154.3851 H   0  0  0  0  0  0  0  0  0  0  0  0  # atno 10764 bound_to 10752
  154.3688  135.2841  155.2257 H   0  0  0  0  0  0  0  0  0  0  0  0  # atno 10765 bound_to 10752
  141.1662  133.7249  156.8584 H   0  0  0  0  0  0  0  0  0  0  0  0  # atno 11005 bound_to 11000
  145.8179  140.9694  143.0914 LP  0  0  0  0  0  0  0  0  0  0  0  0  # atno 17320 bound_to 7965
  144.6795  140.0003  143.7484 LP  0  0  0  0  0  0  0  0  0  0  0  0  # atno 17321 bound_to 7965
  139.6094  144.7605  151.2986 LP  0  0  0  0  0  0  0  0  0  0  0  0  # atno 17342 bound_to 10162
  140.7314  143.6853  150.7967 LP  0  0  0  0  0  0  0  0  0  0  0  0  # atno 17343 bound_to 10162
  156.0053  130.5138  150.7807 LP  0  0  0  0  0  0  0  0  0  0  0  0  # atno 17370 bound_to 10713
  157.5139  131.0927  151.0163 LP  0  0  0  0  0  0  0  0  0  0  0  0  # atno 17371 bound_to 10713
  140.1866  134.8996  157.3011 LP  0  0  0  0  0  0  0  0  0  0  0  0  # atno 17394 bound_to 11000
  140.2336  134.3879  155.7511 LP  0  0  0  0  0  0  0  0  0  0  0  0  # atno 17395 bound_to 11000

$$$$
