AV-unprocessed.smi:703|AV-procd|sdf|3427|dock2
  -GOLD-   22720 0413D 1   1.00000     0.00000
 Structure written by MMmdl.
 38 39  0  0  0  0  0  0  0  0  2 V2000
  146.1519  132.2925  151.8160 C   0  0  0  0  0  0  0  0  0  0  0  0
  146.9226  133.6155  151.7126 C   0  0  0  0  0  0  0  0  0  0  0  0
  147.6319  133.9502  152.9697 N   0  3  2  0  0  0  0  0  0  0  0  0
  148.6612  132.9793  153.3907 C   0  0  0  0  0  0  0  0  0  0  0  0
  148.9154  133.2855  154.8685 C   0  0  1  0  0  0  0  0  0  0  0  0
  149.9860  134.3868  155.0188 C   0  0  0  0  0  0  0  0  0  0  0  0
  147.5068  133.6626  155.3739 C   0  0  1  0  0  0  0  0  0  0  0  0
  147.5411  134.6614  156.4495 N   0  0  0  0  0  0  0  0  0  0  0  0
  148.1651  134.2003  157.9915 S   0  0  0  0  0  0  0  0  0  0  0  0
  148.5930  132.7966  157.8926 O   0  0  0  0  0  0  0  0  0  0  0  0
  149.1241  135.2324  158.4139 O   0  0  0  0  0  0  0  0  0  0  0  0
  146.6767  134.3033  159.0723 C   0  0  0  0  0  0  0  0  0  0  0  0
  146.9488  135.2391  160.2152 C   0  0  0  0  0  0  0  0  0  0  0  0
  146.9883  134.9466  161.6066 C   0  0  0  0  0  0  0  0  0  0  0  0
  147.2729  136.1532  162.1780 C   0  0  0  0  0  0  0  0  0  0  0  0
  147.3959  137.1122  161.2259 O   0  0  0  0  0  0  0  0  0  0  0  0
  147.1858  136.5192  159.9758 N   0  0  0  0  0  0  0  0  0  0  0  0
  146.7424  134.1604  154.1320 C   0  0  0  0  0  0  0  0  0  0  0  0
  145.6930  132.0389  150.8603 H   0  0  0  0  0  0  0  0  0  0  0  0
  145.3538  132.3475  152.5563 H   0  0  0  0  0  0  0  0  0  0  0  0
  146.8131  131.4711  152.0932 H   0  0  0  0  0  0  0  0  0  0  0  0
  147.6581  133.5282  150.9118 H   0  0  0  0  0  0  0  0  0  0  0  0
  146.2498  134.4277  151.4342 H   0  0  0  0  0  0  0  0  0  0  0  0
  148.2677  131.9662  153.2901 H   0  0  0  0  0  0  0  0  0  0  0  0
  149.5631  133.0480  152.7815 H   0  0  0  0  0  0  0  0  0  0  0  0
  149.2750  132.3919  155.3809 H   0  0  0  0  0  0  0  0  0  0  0  0
  149.6710  135.3224  154.5549 H   0  0  0  0  0  0  0  0  0  0  0  0
  150.9230  134.0849  154.5505 H   0  0  0  0  0  0  0  0  0  0  0  0
  150.2057  134.5891  156.0674 H   0  0  0  0  0  0  0  0  0  0  0  0
  147.0225  132.7585  155.7460 H   0  0  0  0  0  0  0  0  0  0  0  0
  146.6413  135.1317  156.5458 H   0  0  0  0  0  0  0  0  0  0  0  0
  145.8344  134.6423  158.4680 H   0  0  0  0  0  0  0  0  0  0  0  0
  146.4443  133.3029  159.4367 H   0  0  0  0  0  0  0  0  0  0  0  0
  146.8358  134.0011  162.1059 H   0  0  0  0  0  0  0  0  0  0  0  0
  147.4122  136.4767  163.1991 H   0  0  0  0  0  0  0  0  0  0  0  0
  146.4833  135.2182  154.1877 H   0  0  0  0  0  0  0  0  0  0  0  0
  145.8126  133.5997  154.0229 H   0  0  0  0  0  0  0  0  0  0  0  0
  148.1104  134.8276  152.8241 H   0  0  0  0  0  0  0  0  0  0  0  0
  1  2  1  0  0  0  0
  1 19  1  0  0  0  0
  1 20  1  0  0  0  0
  1 21  1  0  0  0  0
  2  3  1  0  0  0  0
  2 22  1  0  0  0  0
  2 23  1  0  0  0  0
  3 18  1  0  0  0  0
  3  4  1  0  0  0  0
  3 38  1  0  0  0  0
  4  5  1  0  0  0  0
  4 24  1  0  0  0  0
  4 25  1  0  0  0  0
  5  6  1  0  0  0  0
  5  7  1  0  0  0  0
  5 26  1  0  0  0  0
  6 27  1  0  0  0  0
  6 28  1  0  0  0  0
  6 29  1  0  0  0  0
  7  8  1  0  0  0  0
  7 18  1  0  0  0  0
  7 30  1  0  0  0  0
  8  9  1  0  0  0  0
  8 31  1  0  0  0  0
  9 10  2  0  0  0  0
  9 11  2  0  0  0  0
  9 12  1  0  0  0  0
 12 13  1  0  0  0  0
 12 32  1  0  0  0  0
 12 33  1  0  0  0  0
 13 17  2  0  0  0  0
 13 14  1  0  0  0  0
 14 15  2  0  0  0  0
 14 34  1  0  0  0  0
 15 16  1  0  0  0  0
 15 35  1  0  0  0  0
 16 17  1  0  0  0  0
 18 36  1  0  0  0  0
 18 37  1  0  0  0  0
M  CHG  1   3   1
M  END
> <s_m_source_file>
AV-unprocessed.smi

> <i_m_source_file_index>
703

> <i_lp_mmshare_version>
43012

> <i_f3d_flags>
0

> <s_epik_input>
W0NIM11bQ0gyXU4xW0NIMl1bQ0BASF0oW0NIM10pW0NASF0oW0NIMl0xKVtOSF1TKD1PKSg9TylbQ0gyXWMyW2NIXVtjSF1vbjI=

> <s_epik_cmdline>
J2VwaWtfcHl0aG9uJywgJy1waCcsICc3LjAnLCAnLXRuJywgJzgnLCAnLW1hJywgJzIwMCcsICctbWV0YWxfYmluZGluZycsICctaW1hZScsICc8aW5maWxlLm1hZT4nLCAnLW9tYWUnLCAnPG91dGZpbGUubWFlPic=

> <r_epik_Ionization_Penalty>
0.00324529

> <r_epik_Ionization_Penalty_Charging>
0.0019384

> <r_epik_Ionization_Penalty_Neutral>
0.00130689

> <r_epik_State_Penalty>
0.00218682

> <r_epik_Charging_Adjusted_Penalty>
0.00412522

> <i_epik_Tot_Q>
1

> <i_epik_Tot_abs_Q>
1

> <r_epik_Metal_State_Penalty>
0.310831

> <b_epik_Metal_Only>
0

> <s_lp_Force_Field>
OPLS_2005

> <r_lp_Energy>
22.9594

> <b_lp_Chiralities_Consistent>
1

> <s_lp_Variant>
AV-unprocessed.smi:703-2

> <Gold.Version>
5.8.1

> <Gold.Id.Protein>
6NUR|6NUR_protein|mol2

> <Gold.PLP.Fitness>
41.3859

> <Gold.PLP.PLP>
-27.0147

> <Gold.PLP.part.hbond>
-4.0000

> <Gold.PLP.part.metal>
0.0000

> <Gold.PLP.part.buried>
-3.9608

> <Gold.PLP.part.nonpolar>
-19.3738

> <Gold.PLP.part.repulsive>
0.0000

> <Gold.PLP.ligand.clash>
0.0000

> <Gold.PLP.ligand.torsion>
0.1891

> <Gold.PLP.Chemscore.Hbond>
4.8640

> <Gold.PLP.Chemscore.CHOScore>
0.0000

> <Gold.PLP.Chemscore.Metal>
0.0000

> <Gold.Chemscore.Hbonds>
donor molecule, donor type, donor heavy atom, donor atom, acceptor molecule, acceptor atom, score
      L1  H     3    38       P1  7948  2.00
      P1  H  6896  6909       L1    11  0.93
      P1  H  6931  6943       L1    16  0.74
      P1  H  6934  6947       L1    16  1.00

> <Gold.PLP.Chemscore.Internal.Correction>
0.1574

> <Gold.Rescore>
     Score         DG    S(hbond)    S(metal)    S(lipo)     H(rot)  DE(clash)    DE(int)     intcor
     15.31     -16.91       2.93        0.00      56.52       1.94       0.00       1.60       ----

> <Gold.Chemscore.Fitness>
15.3079

> <Gold.Chemscore.DG>
-16.9059

> <Gold.Chemscore.ZeroCoef>
-5.4800

> <Gold.Chemscore.Hbond>
2.9279

> <Gold.Chemscore.Metal>
0.0000

> <Gold.Chemscore.Lipo>
56.5247

> <Gold.Chemscore.Internal_Hbond>
0.0000

> <Gold.Chemscore.DEClash>
0.0009

> <Gold.Chemscore.DEInternal>
1.5971

> <Gold.Chemscore.Rot>
1.9400

> <Gold.Chemscore.Internal.Correction>
   9.000000E+99

> <Gold.Chemscore.Hbonds>
donor molecule, donor type, donor heavy atom, donor atom, acceptor molecule, acceptor atom, score
      L1  H     3    38       P1  7948  0.77
      P1  H  6896  6909       L1    11  0.48
      P1  H  6931  6943       L1    16  0.29
      P1  H  6934  6947       L1    16  0.52

> <Gold.Chemscore.Hbond.Weighted>
-9.7790

> <Gold.Chemscore.Metal.Weighted>
-0.0000

> <Gold.Chemscore.Lipo.Weighted>
-6.6134

> <Gold.Chemscore.Internal_Hbond.Weighted>
0.0000

> <Gold.Chemscore.DEClash.Weighted>
0.0009

> <Gold.Chemscore.DEInternal.Weighted>
1.5971

> <Gold.Chemscore.Rot.Weighted>
4.9665

> <Gold.Chemscore.Internal.Correction.Weighted>
   9.000000E+99

> <Gold.Protein.RotatedTorsions>
[ 6907 6896 6895 6894 ] final   27.58 input  -60.11 | X-H torsion
[ 7974 7965 7964 7962 ] final   60.60 input  175.53 | X-H torsion
[ 8008 7997 7996 7995 ] final -146.42 input   59.86 | X-H torsion
[ 10167 10162 10161 10158 ] final   25.40 input  -65.29 | X-H torsion
[ 10718 10713 10712 10709 ] final   92.61 input   66.30 | X-H torsion
[ 10763 10752 10751 10750 ] final -163.98 input  -60.55 | X-H torsion
[ 11005 11000 10999 10996 ] final -106.27 input  -57.11 | X-H torsion

> <Gold.Protein.ActiveResidues>
 VAL166  LYS551  ARG553  GLY616  TRP617  ASP618  TYR619  PRO620  LYS621  CYS622 
 ASP623  PHE694  ASN695  SER759  ASP760  ASP761  ALA762  ILE779  LEU786  VAL792 
 PHE793  MET794  SER795  GLU796  ALA797  LYS798  CYS799  TRP800  GLU811  SER814 

> <Gold.Protein.RotatedAtoms>
  152.0044  134.9911  160.0565 H   0  0  0  0  0  0  0  0  0  0  0  0  # atno 6907 bound_to 6896
  152.1489  133.4505  159.4812 H   0  0  0  0  0  0  0  0  0  0  0  0  # atno 6908 bound_to 6896
  150.6873  134.2132  159.4410 H   0  0  0  0  0  0  0  0  0  0  0  0  # atno 6909 bound_to 6896
  145.8942  139.3533  143.0631 H   0  0  0  0  0  0  0  0  0  0  0  0  # atno 7974 bound_to 7965
  155.5590  140.0623  157.2833 H   0  0  0  0  0  0  0  0  0  0  0  0  # atno 8008 bound_to 7997
  154.4396  140.1889  156.0809 H   0  0  0  0  0  0  0  0  0  0  0  0  # atno 8009 bound_to 7997
  156.0460  140.3290  155.7301 H   0  0  0  0  0  0  0  0  0  0  0  0  # atno 8010 bound_to 7997
  140.5109  144.0161  150.6372 H   0  0  0  0  0  0  0  0  0  0  0  0  # atno 10167 bound_to 10162
  157.6958  131.0449  150.3907 H   0  0  0  0  0  0  0  0  0  0  0  0  # atno 10718 bound_to 10713
  154.7072  135.2999  154.9253 H   0  0  0  0  0  0  0  0  0  0  0  0  # atno 10763 bound_to 10752
  154.0166  135.6688  153.4773 H   0  0  0  0  0  0  0  0  0  0  0  0  # atno 10764 bound_to 10752
  153.0726  135.5052  154.8249 H   0  0  0  0  0  0  0  0  0  0  0  0  # atno 10765 bound_to 10752
  141.1013  133.8879  157.1835 H   0  0  0  0  0  0  0  0  0  0  0  0  # atno 11005 bound_to 11000
  145.8871  140.9327  143.0571 LP  0  0  0  0  0  0  0  0  0  0  0  0  # atno 17320 bound_to 7965
  144.6732  140.0857  143.7467 LP  0  0  0  0  0  0  0  0  0  0  0  0  # atno 17321 bound_to 7965
  140.3484  143.2978  152.0514 LP  0  0  0  0  0  0  0  0  0  0  0  0  # atno 17342 bound_to 10162
  139.4896  144.6392  151.6912 LP  0  0  0  0  0  0  0  0  0  0  0  0  # atno 17343 bound_to 10162
  156.4311  130.3972  149.6759 LP  0  0  0  0  0  0  0  0  0  0  0  0  # atno 17370 bound_to 10713
  156.3976  130.7659  151.2664 LP  0  0  0  0  0  0  0  0  0  0  0  0  # atno 17371 bound_to 10713
  139.9865  135.0080  156.9875 LP  0  0  0  0  0  0  0  0  0  0  0  0  # atno 17394 bound_to 11000
  140.5015  134.1092  155.7251 LP  0  0  0  0  0  0  0  0  0  0  0  0  # atno 17395 bound_to 11000

$$$$
