#       Name:                AV-unprocessed.smi:1703
#       Creating user name   scv26
#       Creation time:       Fri Mar 27 08:08:26 2020


#       File generated by GOLD software.
#

@<TRIPOS>MOLECULE
AV-unprocessed.smi:1703
    56    58     1
SMALL
NO_CHARGES


@<TRIPOS>ATOM
      1 ****        -1.9260   3.9126  -2.0585 C.3            1 S1                 0.0000
      2 ****        -2.2058   3.0201  -0.8445 C.3            1 S1                 0.0000
      3 ****        -1.6165   1.6068  -1.0145 C.3            1 S1                 0.0000
      4 ****        -1.9736   0.7522   0.1450 N.4            1 S1                 1.0000
      5 ****        -1.4028  -0.6181   0.0791 C.3            1 S1                 0.0000
      6 ****         0.1079  -0.6625   0.3877 C.3            1 S1                 0.0000
      7 ****         0.3215  -0.2719   1.7307 O.3            1 S1                 0.0000
      8 ****         0.6841  -2.0778   0.1799 C.3            1 S1                 0.0000
      9 ****         2.1315  -2.1535   0.4383 N.pl3          1 S1                 0.0000
     10 ****         2.8227  -2.6008   1.5284 C.2            1 S1                 0.0000
     11 ****         2.2570  -3.1463   2.7981 C.3            1 S1                 0.0000
     12 ****         1.9248  -2.1298   3.7168 O.3            1 S1                 0.0000
     13 ****         4.1492  -2.4474   1.2551 N.pl3          1 S1                 1.0000
     14 ****         4.3109  -1.9045  -0.0195 C.ar           1 S1                 0.0000
     15 ****         5.4599  -1.5716  -0.7301 C.ar           1 S1                 0.0000
     16 ****         5.2724  -1.0341  -2.0207 C.ar           1 S1                 0.0000
     17 ****         3.9821  -0.8451  -2.5572 C.ar           1 S1                 0.0000
     18 ****         2.8245  -1.1846  -1.8263 C.ar           1 S1                 0.0000
     19 ****         3.0190  -1.7157  -0.5514 C.ar           1 S1                 0.0000
     20 ****        -3.4428   0.7400   0.3395 C.3            1 S1                 0.0000
     21 ****        -3.9837   2.1761   0.4733 C.3            1 S1                 0.0000
     22 ****        -5.5106   2.2091   0.5988 C.3            1 S1                 0.0000
     23 ****        -3.6164   2.9195  -0.6834 O.3            1 S1                 0.0000
     24 ****        -0.8544   4.0369  -2.2164 H              1 S1                 0.0000
     25 ****        -2.3582   4.9041  -1.9210 H              1 S1                 0.0000
     26 ****        -2.3516   3.4877  -2.9681 H              1 S1                 0.0000
     27 ****        -1.7764   3.4942   0.0400 H              1 S1                 0.0000
     28 ****        -1.9934   1.1510  -1.9319 H              1 S1                 0.0000
     29 ****        -0.5346   1.6805  -1.1165 H              1 S1                 0.0000
     30 ****        -1.9196  -1.2632   0.7915 H              1 S1                 0.0000
     31 ****        -1.6015  -1.0379  -0.9083 H              1 S1                 0.0000
     32 ****         0.6491   0.0296  -0.2557 H              1 S1                 0.0000
     33 ****         0.1084   0.6443   1.8218 H              1 S1                 0.0000
     34 ****         0.1851  -2.7914   0.8357 H              1 S1                 0.0000
     35 ****         0.5018  -2.4256  -0.8379 H              1 S1                 0.0000
     36 ****         1.3724  -3.7458   2.5846 H              1 S1                 0.0000
     37 ****         2.9865  -3.8118   3.2602 H              1 S1                 0.0000
     38 ****         1.2541  -1.5858   3.3316 H              1 S1                 0.0000
     39 ****         6.4494  -1.7157  -0.3214 H              1 S1                 0.0000
     40 ****         6.1356  -0.7621  -2.6109 H              1 S1                 0.0000
     41 ****         3.8784  -0.4313  -3.5499 H              1 S1                 0.0000
     42 ****         1.8411  -1.0354  -2.2470 H              1 S1                 0.0000
     43 ****        -3.9170   0.2335  -0.5030 H              1 S1                 0.0000
     44 ****        -3.6900   0.1714   1.2369 H              1 S1                 0.0000
     45 ****        -3.5531   2.6506   1.3570 H              1 S1                 0.0000
     46 ****        -5.8446   1.6570   1.4779 H              1 S1                 0.0000
     47 ****        -5.9895   1.7675  -0.2758 H              1 S1                 0.0000
     48 ****        -5.8715   3.2334   0.6941 H              1 S1                 0.0000
     49 ****        -1.5859   1.1887   0.9690 H              1 S1                 0.0000
     50 ****         4.8890  -2.6964   1.8992 H              1 S1                 0.0000
     51 ****         1.2801  -0.4191   1.9743 LP             1 S1                 0.0000
     52 ****        -0.2629  -0.8139   2.3345 LP             1 S1                 0.0000
     53 ****         2.7342  -1.5774   3.9163 LP             1 S1                 0.0000
     54 ****         1.5832  -2.5383   4.5633 LP             1 S1                 0.0000
     55 ****        -3.9993   2.4679  -1.4893 LP             1 S1                 0.0000
     56 ****        -3.9964   3.8412  -0.6058 LP             1 S1                 0.0000
@<TRIPOS>BOND
    1    1    2 1     
    2    1   24 1     
    3    1   25 1     
    4    1   26 1     
    5    2   23 1     
    6    2    3 1     
    7    2   27 1     
    8    3    4 1     
    9    3   28 1     
   10    3   29 1     
   11    4    5 1     
   12    4   20 1     
   13    4   49 1     
   14    5    6 1     
   15    5   30 1     
   16    5   31 1     
   17    6    7 1     
   18    6    8 1     
   19    6   32 1     
   20    7   33 1     
   21    8    9 1     
   22    8   34 1     
   23    8   35 1     
   24    9   19 1     
   25    9   10 1     
   26   10   11 1     
   27   10   13 2     
   28   11   12 1     
   29   11   36 1     
   30   11   37 1     
   31   12   38 1     
   32   13   14 1     
   33   13   50 1     
   34   14   19 ar    
   35   14   15 ar    
   36   15   16 ar    
   37   15   39 1     
   38   16   17 ar    
   39   16   40 1     
   40   17   18 ar    
   41   17   41 1     
   42   18   19 ar    
   43   18   42 1     
   44   20   21 1     
   45   20   43 1     
   46   20   44 1     
   47   21   22 1     
   48   21   23 1     
   49   21   45 1     
   50   22   46 1     
   51   22   47 1     
   52   22   48 1     
   53    7   51 1     
   54    7   52 1     
   55   12   53 1     
   56   12   54 1     
   57   23   55 1     
   58   23   56 1     
@<TRIPOS>SUBSTRUCTURE
      1 S1             1
@<TRIPOS>SET
LONE_PAIRS      STATIC     ATOMS    <user>   **** ""
6 51 52 53 54 55 56
DONOR_HYDROGENS      STATIC     ATOMS    <user>   **** ""
4 49 33 38 50
ATOM$BLUE        STATIC     ATOMS    COLORGROUP SYSTEM
6 51 52 53 54 55 56
ATOM$RED        STATIC     ATOMS    COLORGROUP SYSTEM
4 49 33 38 50
