AV-unprocessed.smi:383|AV-procd|sdf|2464|dock6
  -GOLD-   2262022403D 1   1.00000     0.00000
 Structure written by MMmdl.
 40 41  0  0  0  0  0  0  0  0  1 V2000
  152.8983  143.1482  160.6017 C   0  0  0  0  0  0  0  0  0  0  0  0
  152.6207  143.2490  159.0928 C   0  0  0  0  0  0  0  0  0  0  0  0
  152.4987  144.7145  158.6441 C   0  0  0  0  0  0  0  0  0  0  0  0
  151.3570  142.4647  158.7174 C   0  0  0  0  0  0  0  0  0  0  0  0
  150.2636  142.7958  159.1771 O   0  0  0  0  0  0  0  0  0  0  0  0
  151.5214  141.4296  157.8789 N   0  0  0  0  0  0  0  0  0  0  0  0
  150.4477  140.5818  157.3756 C   0  0  0  0  0  0  0  0  0  0  0  0
  150.9041  139.6792  156.2338 C   0  0  0  0  0  0  0  0  0  0  0  0
  152.1441  139.0148  156.3447 C   0  0  0  0  0  0  0  0  0  0  0  0
  152.5904  138.2046  155.2855 C   0  0  0  0  0  0  0  0  0  0  0  0
  151.7746  138.0916  154.1456 C   0  0  0  0  0  0  0  0  0  0  0  0
  150.5885  138.7218  154.0214 N   0  0  0  0  0  0  0  0  0  0  0  0
  150.1538  139.5046  155.0394 C   0  0  0  0  0  0  0  0  0  0  0  0
  148.9119  140.1414  154.8742 N   0  0  0  0  0  0  0  0  0  0  0  0
  147.8368  139.2352  154.4948 C   0  0  0  0  0  0  0  0  0  0  0  0
  146.4850  139.9632  154.5923 C   0  0  0  0  0  0  0  0  0  0  0  0
  146.5163  141.1444  153.7955 O   0  0  0  0  0  0  0  0  0  0  0  0
  147.5270  142.0545  154.2227 C   0  0  0  0  0  0  0  0  0  0  0  0
  148.9058  141.3828  154.1089 C   0  0  0  0  0  0  0  0  0  0  0  0
  152.9865  142.1088  160.9204 H   0  0  0  0  0  0  0  0  0  0  0  0
  152.1041  143.6110  161.1891 H   0  0  0  0  0  0  0  0  0  0  0  0
  153.8321  143.6485  160.8595 H   0  0  0  0  0  0  0  0  0  0  0  0
  153.4685  142.8067  158.5669 H   0  0  0  0  0  0  0  0  0  0  0  0
  152.2952  144.7858  157.5746 H   0  0  0  0  0  0  0  0  0  0  0  0
  153.4232  145.2592  158.8372 H   0  0  0  0  0  0  0  0  0  0  0  0
  151.6950  145.2309  159.1712 H   0  0  0  0  0  0  0  0  0  0  0  0
  152.4554  141.2247  157.5549 H   0  0  0  0  0  0  0  0  0  0  0  0
  150.1098  139.9486  158.1962 H   0  0  0  0  0  0  0  0  0  0  0  0
  149.5870  141.1937  157.1065 H   0  0  0  0  0  0  0  0  0  0  0  0
  152.7505  139.1288  157.2314 H   0  0  0  0  0  0  0  0  0  0  0  0
  153.5355  137.6855  155.3439 H   0  0  0  0  0  0  0  0  0  0  0  0
  152.0826  137.4805  153.3102 H   0  0  0  0  0  0  0  0  0  0  0  0
  148.0034  138.8883  153.4741 H   0  0  0  0  0  0  0  0  0  0  0  0
  147.8342  138.3533  155.1363 H   0  0  0  0  0  0  0  0  0  0  0  0
  145.6824  139.3163  154.2382 H   0  0  0  0  0  0  0  0  0  0  0  0
  146.2561  140.2180  155.6286 H   0  0  0  0  0  0  0  0  0  0  0  0
  147.4903  142.9465  153.5974 H   0  0  0  0  0  0  0  0  0  0  0  0
  147.3345  142.3744  155.2481 H   0  0  0  0  0  0  0  0  0  0  0  0
  149.6824  142.0520  154.4817 H   0  0  0  0  0  0  0  0  0  0  0  0
  149.1282  141.1742  153.0613 H   0  0  0  0  0  0  0  0  0  0  0  0
  1  2  1  0  0  0  0
  1 20  1  0  0  0  0
  1 21  1  0  0  0  0
  1 22  1  0  0  0  0
  2  3  1  0  0  0  0
  2  4  1  0  0  0  0
  2 23  1  0  0  0  0
  3 24  1  0  0  0  0
  3 25  1  0  0  0  0
  3 26  1  0  0  0  0
  4  5  2  0  0  0  0
  4  6  1  0  0  0  0
  6  7  1  0  0  0  0
  6 27  1  0  0  0  0
  7  8  1  0  0  0  0
  7 28  1  0  0  0  0
  7 29  1  0  0  0  0
  8 13  1  0  0  0  0
  8  9  2  0  0  0  0
  9 10  1  0  0  0  0
  9 30  1  0  0  0  0
 10 11  2  0  0  0  0
 10 31  1  0  0  0  0
 11 12  1  0  0  0  0
 11 32  1  0  0  0  0
 12 13  2  0  0  0  0
 13 14  1  0  0  0  0
 14 19  1  0  0  0  0
 14 15  1  0  0  0  0
 15 16  1  0  0  0  0
 15 33  1  0  0  0  0
 15 34  1  0  0  0  0
 16 17  1  0  0  0  0
 16 35  1  0  0  0  0
 16 36  1  0  0  0  0
 17 18  1  0  0  0  0
 18 19  1  0  0  0  0
 18 37  1  0  0  0  0
 18 38  1  0  0  0  0
 19 39  1  0  0  0  0
 19 40  1  0  0  0  0
M  END
> <s_m_source_file>
AV-unprocessed.smi

> <i_m_source_file_index>
383

> <i_lp_mmshare_version>
43012

> <i_f3d_flags>
0

> <s_epik_input>
W0NIM11bQ0hdKFtDSDNdKUMoPU8pW05IXVtDSDJdYzFbY0hdW2NIXVtjSF1uYzFOMltDSDJdW0NIMl1PW0NIMl1bQ0gyXTI=

> <s_epik_cmdline>
J2VwaWtfcHl0aG9uJywgJy1waCcsICc3LjAnLCAnLXRuJywgJzgnLCAnLW1hJywgJzIwMCcsICctbWV0YWxfYmluZGluZycsICctaW1hZScsICc8aW5maWxlLm1hZT4nLCAnLW9tYWUnLCAnPG91dGZpbGUubWFlPic=

> <r_lp_tautomer_probability>
1

> <r_epik_Ionization_Penalty>
0.00505534

> <r_epik_Ionization_Penalty_Charging>
0

> <r_epik_Ionization_Penalty_Neutral>
0.00505534

> <r_epik_State_Penalty>
0.00367784

> <r_epik_Charging_Adjusted_Penalty>
0.00367784

> <i_epik_Tot_Q>
0

> <i_epik_Tot_abs_Q>
0

> <r_epik_Metal_State_Penalty>
-0

> <b_epik_Metal_Only>
0

> <s_lp_Force_Field>
OPLS_2005

> <r_lp_Energy>
19.0793

> <b_lp_Chiralities_Consistent>
1

> <s_lp_Variant>
AV-unprocessed.smi:383-1

> <Gold.Version>
5.8.1

> <Gold.Id.Protein>
6NUR|6NUR_protein|mol2

> <Gold.PLP.Fitness>
38.0559

> <Gold.PLP.PLP>
-36.1018

> <Gold.PLP.part.hbond>
-0.8048

> <Gold.PLP.part.metal>
0.0000

> <Gold.PLP.part.buried>
-4.1655

> <Gold.PLP.part.nonpolar>
-31.9621

> <Gold.PLP.part.repulsive>
0.6338

> <Gold.PLP.ligand.clash>
0.0000

> <Gold.PLP.ligand.torsion>
0.6368

> <Gold.PLP.Chemscore.Hbond>
0.0000

> <Gold.PLP.Chemscore.CHOScore>
1.0000

> <Gold.PLP.Chemscore.Metal>
0.0000

> <Gold.Chemscore.Hbonds>
donor molecule, donor type, donor heavy atom, donor atom, acceptor molecule, acceptor atom, score
      L1  C    11    32       P1  7949  1.00

> <Gold.PLP.Chemscore.Internal.Correction>
0.2277

> <Gold.Rescore>
     Score         DG    S(hbond)    S(metal)    S(lipo)     H(rot)  DE(clash)    DE(int)     intcor
     11.80     -12.48       0.00        0.00      93.89       1.56       0.08       0.59       ----

> <Gold.Chemscore.Fitness>
11.8041

> <Gold.Chemscore.DG>
-12.4756

> <Gold.Chemscore.ZeroCoef>
-5.4800

> <Gold.Chemscore.Hbond>
0.0000

> <Gold.Chemscore.Metal>
0.0000

> <Gold.Chemscore.Lipo>
93.8895

> <Gold.Chemscore.Internal_Hbond>
0.0000

> <Gold.Chemscore.DEClash>
0.0820

> <Gold.Chemscore.DEInternal>
0.5895

> <Gold.Chemscore.Rot>
1.5584

> <Gold.Chemscore.Internal.Correction>
   9.000000E+99

> <Gold.Chemscore.Hbond.Weighted>
-0.0000

> <Gold.Chemscore.Metal.Weighted>
-0.0000

> <Gold.Chemscore.Lipo.Weighted>
-10.9851

> <Gold.Chemscore.Internal_Hbond.Weighted>
0.0000

> <Gold.Chemscore.DEClash.Weighted>
0.0820

> <Gold.Chemscore.DEInternal.Weighted>
0.5895

> <Gold.Chemscore.Rot.Weighted>
3.9895

> <Gold.Chemscore.Internal.Correction.Weighted>
   9.000000E+99

> <Gold.Protein.RotatedTorsions>
[ 6907 6896 6895 6894 ] final  -37.01 input  -60.11 | X-H torsion
[ 7974 7965 7964 7962 ] final   64.45 input  175.53 | X-H torsion
[ 8008 7997 7996 7995 ] final  -26.95 input   59.86 | X-H torsion
[ 10167 10162 10161 10158 ] final -146.45 input  -65.29 | X-H torsion
[ 10718 10713 10712 10709 ] final -112.36 input   66.30 | X-H torsion
[ 10763 10752 10751 10750 ] final  179.53 input  -60.55 | X-H torsion
[ 11005 11000 10999 10996 ] final  -98.88 input  -57.11 | X-H torsion

> <Gold.Protein.ActiveResidues>
 VAL166  LYS551  ARG553  GLY616  TRP617  ASP618  TYR619  PRO620  LYS621  CYS622 
 ASP623  PHE694  ASN695  SER759  ASP760  ASP761  ALA762  ILE779  LEU786  VAL792 
 PHE793  MET794  SER795  GLU796  ALA797  LYS798  CYS799  TRP800  GLU811  SER814 

> <Gold.Protein.RotatedAtoms>
  151.0200  134.9461  159.8053 H   0  0  0  0  0  0  0  0  0  0  0  0  # atno 6907 bound_to 6896
  152.5323  134.2916  159.9055 H   0  0  0  0  0  0  0  0  0  0  0  0  # atno 6908 bound_to 6896
  151.2924  133.4117  159.2668 H   0  0  0  0  0  0  0  0  0  0  0  0  # atno 6909 bound_to 6896
  145.8501  139.3248  143.0880 H   0  0  0  0  0  0  0  0  0  0  0  0  # atno 7974 bound_to 7965
  154.4400  140.1885  156.0855 H   0  0  0  0  0  0  0  0  0  0  0  0  # atno 8008 bound_to 7997
  156.0406  140.3320  155.7213 H   0  0  0  0  0  0  0  0  0  0  0  0  # atno 8009 bound_to 7997
  155.5705  140.0612  157.2798 H   0  0  0  0  0  0  0  0  0  0  0  0  # atno 8010 bound_to 7997
  139.7712  143.8235  152.2624 H   0  0  0  0  0  0  0  0  0  0  0  0  # atno 10167 bound_to 10162
  156.0701  130.5916  150.8498 H   0  0  0  0  0  0  0  0  0  0  0  0  # atno 10718 bound_to 10713
  154.5218  135.2794  155.1256 H   0  0  0  0  0  0  0  0  0  0  0  0  # atno 10763 bound_to 10752
  154.2810  135.6285  153.5351 H   0  0  0  0  0  0  0  0  0  0  0  0  # atno 10764 bound_to 10752
  152.9938  135.5651  154.5709 H   0  0  0  0  0  0  0  0  0  0  0  0  # atno 10765 bound_to 10752
  141.1329  133.8279  157.0898 H   0  0  0  0  0  0  0  0  0  0  0  0  # atno 11005 bound_to 11000
  145.9368  140.9009  143.0328 LP  0  0  0  0  0  0  0  0  0  0  0  0  # atno 17320 bound_to 7965
  144.6729  140.1493  143.7431 LP  0  0  0  0  0  0  0  0  0  0  0  0  # atno 17321 bound_to 7965
  139.8270  144.7270  150.9499 LP  0  0  0  0  0  0  0  0  0  0  0  0  # atno 17342 bound_to 10162
  140.7814  143.4105  151.1000 LP  0  0  0  0  0  0  0  0  0  0  0  0  # atno 17343 bound_to 10162
  157.5767  131.0946  150.9335 LP  0  0  0  0  0  0  0  0  0  0  0  0  # atno 17370 bound_to 10713
  156.9540  130.5430  149.5283 LP  0  0  0  0  0  0  0  0  0  0  0  0  # atno 17371 bound_to 10713
  140.0399  134.9859  157.0942 LP  0  0  0  0  0  0  0  0  0  0  0  0  # atno 17394 bound_to 11000
  140.4152  134.1939  155.7163 LP  0  0  0  0  0  0  0  0  0  0  0  0  # atno 17395 bound_to 11000

$$$$
