AV-unprocessed.smi:2061|AV-procd|sdf|8362|dock1
  -GOLD-   2272011 33D 1   1.00000     0.00000
 Structure written by MMmdl.
 45 46  0  0  0  0  0  0  0  0  1 V2000
  149.9671  131.6171  154.5543 C   0  0  0  0  0  0  0  0  0  0  0  0
  150.3540  132.8011  155.3733 C   0  0  0  0  0  0  0  0  0  0  0  0
  150.0142  134.1235  155.3151 C   0  0  0  0  0  0  0  0  0  0  0  0
  150.7506  134.6907  156.3892 C   0  0  0  0  0  0  0  0  0  0  0  0
  150.6751  136.0787  156.6721 N   0  0  0  0  0  0  0  0  0  0  0  0
  151.3322  137.0763  156.0565 C   0  0  0  0  0  0  0  0  0  0  0  0
  152.1284  136.9334  155.1281 O   0  0  0  0  0  0  0  0  0  0  0  0
  151.0141  138.2667  156.5849 N   0  0  0  0  0  0  0  0  0  0  0  0
  151.5525  139.5583  156.1617 C   0  0  0  0  0  0  0  0  0  0  0  0
  150.7694  140.7556  156.7630 C   0  0  2  0  0  0  0  0  0  0  0  0
  149.9643  141.4323  155.6305 C   0  0  0  0  0  0  0  0  0  0  0  0
  151.6083  141.6983  157.5358 N   0  0  0  0  0  0  0  0  0  0  0  0
  152.2916  141.0526  158.6586 C   0  0  0  0  0  0  0  0  0  0  0  0
  153.1890  142.0263  159.4435 C   0  0  2  0  0  0  0  0  0  0  0  0
  153.8342  141.3596  160.6630 C   0  0  0  0  0  0  0  0  0  0  0  0
  152.4092  143.1256  159.9036 O   0  0  0  0  0  0  0  0  0  0  0  0
  151.6900  143.8187  158.8854 C   0  0  1  0  0  0  0  0  0  0  0  0
  152.6165  144.6933  158.0231 C   0  0  0  0  0  0  0  0  0  0  0  0
  150.8403  142.8310  158.0612 C   0  0  0  0  0  0  0  0  0  0  0  0
  151.4721  133.7949  157.0452 N   0  0  0  0  0  0  0  0  0  0  0  0
  151.2222  132.5796  156.3971 O   0  0  0  0  0  0  0  0  0  0  0  0
  149.0114  131.7835  154.0569 H   0  0  0  0  0  0  0  0  0  0  0  0
  149.8722  130.7270  155.1765 H   0  0  0  0  0  0  0  0  0  0  0  0
  150.7172  131.4172  153.7891 H   0  0  0  0  0  0  0  0  0  0  0  0
  149.3486  134.6047  154.6141 H   0  0  0  0  0  0  0  0  0  0  0  0
  150.0503  136.3401  157.4201 H   0  0  0  0  0  0  0  0  0  0  0  0
  150.3583  138.2843  157.3521 H   0  0  0  0  0  0  0  0  0  0  0  0
  152.6112  139.6363  156.4145 H   0  0  0  0  0  0  0  0  0  0  0  0
  151.5345  139.5919  155.0730 H   0  0  0  0  0  0  0  0  0  0  0  0
  150.0340  140.3259  157.4451 H   0  0  0  0  0  0  0  0  0  0  0  0
  149.4623  140.6934  155.0055 H   0  0  0  0  0  0  0  0  0  0  0  0
  150.6076  142.0284  154.9824 H   0  0  0  0  0  0  0  0  0  0  0  0
  149.1807  142.0830  156.0170 H   0  0  0  0  0  0  0  0  0  0  0  0
  151.5564  140.6073  159.3308 H   0  0  0  0  0  0  0  0  0  0  0  0
  152.9257  140.2418  158.3045 H   0  0  0  0  0  0  0  0  0  0  0  0
  153.9847  142.3916  158.7939 H   0  0  0  0  0  0  0  0  0  0  0  0
  154.4597  140.5178  160.3654 H   0  0  0  0  0  0  0  0  0  0  0  0
  153.0789  140.9877  161.3558 H   0  0  0  0  0  0  0  0  0  0  0  0
  154.4637  142.0659  161.2048 H   0  0  0  0  0  0  0  0  0  0  0  0
  151.0079  144.4946  159.4018 H   0  0  0  0  0  0  0  0  0  0  0  0
  152.0372  145.3047  157.3309 H   0  0  0  0  0  0  0  0  0  0  0  0
  153.3080  144.0969  157.4284 H   0  0  0  0  0  0  0  0  0  0  0  0
  153.2048  145.3673  158.6457 H   0  0  0  0  0  0  0  0  0  0  0  0
  150.3735  143.3903  157.2521 H   0  0  0  0  0  0  0  0  0  0  0  0
  150.0292  142.4562  158.6875 H   0  0  0  0  0  0  0  0  0  0  0  0
  1  2  1  0  0  0  0
  1 22  1  0  0  0  0
  1 23  1  0  0  0  0
  1 24  1  0  0  0  0
  2 21  1  0  0  0  0
  2  3  2  0  0  0  0
  3  4  1  0  0  0  0
  3 25  1  0  0  0  0
  4  5  1  0  0  0  0
  4 20  2  0  0  0  0
  5  6  1  0  0  0  0
  5 26  1  0  0  0  0
  6  7  2  0  0  0  0
  6  8  1  0  0  0  0
  8  9  1  0  0  0  0
  8 27  1  0  0  0  0
  9 10  1  0  0  0  0
  9 28  1  0  0  0  0
  9 29  1  0  0  0  0
 10 11  1  0  0  0  0
 10 12  1  0  0  0  0
 10 30  1  0  0  0  0
 11 31  1  0  0  0  0
 11 32  1  0  0  0  0
 11 33  1  0  0  0  0
 12 19  1  0  0  0  0
 12 13  1  0  0  0  0
 13 14  1  0  0  0  0
 13 34  1  0  0  0  0
 13 35  1  0  0  0  0
 14 15  1  0  0  0  0
 14 16  1  0  0  0  0
 14 36  1  0  0  0  0
 15 37  1  0  0  0  0
 15 38  1  0  0  0  0
 15 39  1  0  0  0  0
 16 17  1  0  0  0  0
 17 18  1  0  0  0  0
 17 19  1  0  0  0  0
 17 40  1  0  0  0  0
 18 41  1  0  0  0  0
 18 42  1  0  0  0  0
 18 43  1  0  0  0  0
 19 44  1  0  0  0  0
 19 45  1  0  0  0  0
 20 21  1  0  0  0  0
M  END
> <s_m_source_file>
AV-unprocessed.smi

> <i_m_source_file_index>
2061

> <i_lp_mmshare_version>
43012

> <i_f3d_flags>
0

> <s_epik_input>
W0NIM11jMVtjSF1jKG5vMSlbTkhdQyg9TylbTkhdW0NIMl1bQ0BIXShbQ0gzXSlOMltDSDJdW0NAQEhdKFtDSDNdKU9bQ0BASF0oW0NIM10pW0NIMl0y

> <s_epik_cmdline>
J2VwaWtfcHl0aG9uJywgJy1waCcsICc3LjAnLCAnLXRuJywgJzgnLCAnLW1hJywgJzIwMCcsICctbWV0YWxfYmluZGluZycsICctaW1hZScsICc8aW5maWxlLm1hZT4nLCAnLW9tYWUnLCAnPG91dGZpbGUubWFlPic=

> <r_epik_Ionization_Penalty>
0.214073

> <r_epik_Ionization_Penalty_Charging>
0

> <r_epik_Ionization_Penalty_Neutral>
0.214073

> <r_epik_State_Penalty>
0.204211

> <r_epik_Charging_Adjusted_Penalty>
0.204211

> <i_epik_Tot_Q>
0

> <i_epik_Tot_abs_Q>
0

> <r_epik_Metal_State_Penalty>
0.217067

> <b_epik_Metal_Only>
0

> <s_lp_Force_Field>
OPLS_2005

> <r_lp_Energy>
31.3151

> <b_lp_Chiralities_Consistent>
1

> <s_lp_Variant>
AV-unprocessed.smi:2061-3

> <Gold.Version>
5.8.1

> <Gold.Id.Protein>
6NUR|6NUR_protein|mol2

> <Gold.PLP.Fitness>
40.4957

> <Gold.PLP.PLP>
-39.2501

> <Gold.PLP.part.hbond>
-2.0000

> <Gold.PLP.part.metal>
0.0000

> <Gold.PLP.part.buried>
-6.0270

> <Gold.PLP.part.nonpolar>
-32.3270

> <Gold.PLP.part.repulsive>
0.2170

> <Gold.PLP.ligand.clash>
0.0000

> <Gold.PLP.ligand.torsion>
1.5265

> <Gold.PLP.Chemscore.Hbond>
1.4206

> <Gold.PLP.Chemscore.CHOScore>
0.0000

> <Gold.PLP.Chemscore.Metal>
0.0000

> <Gold.Chemscore.Hbonds>
donor molecule, donor type, donor heavy atom, donor atom, acceptor molecule, acceptor atom, score
      P1  H  6896  6909       L1    20  0.28
      P1  H 10752 10765       L1     7  0.94

> <Gold.PLP.Chemscore.Internal.Correction>
0.0369

> <Gold.Rescore>
     Score         DG    S(hbond)    S(metal)    S(lipo)     H(rot)  DE(clash)    DE(int)     intcor
     15.72     -17.32       1.29        0.00      98.24       1.55       0.08       1.51       ----

> <Gold.Chemscore.Fitness>
15.7212

> <Gold.Chemscore.DG>
-17.3174

> <Gold.Chemscore.ZeroCoef>
-5.4800

> <Gold.Chemscore.Hbond>
1.2888

> <Gold.Chemscore.Metal>
0.0000

> <Gold.Chemscore.Lipo>
98.2406

> <Gold.Chemscore.Internal_Hbond>
0.0000

> <Gold.Chemscore.DEClash>
0.0816

> <Gold.Chemscore.DEInternal>
1.5146

> <Gold.Chemscore.Rot>
1.5474

> <Gold.Chemscore.Internal.Correction>
   9.000000E+99

> <Gold.Chemscore.Hbonds>
donor molecule, donor type, donor heavy atom, donor atom, acceptor molecule, acceptor atom, score
      P1  H  6896  6909       L1    20  0.17
      P1  H 10752 10765       L1     7  0.91

> <Gold.Chemscore.Hbond.Weighted>
-4.3045

> <Gold.Chemscore.Metal.Weighted>
-0.0000

> <Gold.Chemscore.Lipo.Weighted>
-11.4942

> <Gold.Chemscore.Internal_Hbond.Weighted>
0.0000

> <Gold.Chemscore.DEClash.Weighted>
0.0816

> <Gold.Chemscore.DEInternal.Weighted>
1.5146

> <Gold.Chemscore.Rot.Weighted>
3.9612

> <Gold.Chemscore.Internal.Correction.Weighted>
   9.000000E+99

> <Gold.Protein.RotatedTorsions>
[ 6907 6896 6895 6894 ] final  -34.96 input  -60.11 | X-H torsion
[ 7974 7965 7964 7962 ] final -179.89 input  175.53 | X-H torsion
[ 8008 7997 7996 7995 ] final   12.80 input   59.86 | X-H torsion
[ 10167 10162 10161 10158 ] final  175.37 input  -65.29 | X-H torsion
[ 10718 10713 10712 10709 ] final   80.43 input   66.30 | X-H torsion
[ 10763 10752 10751 10750 ] final -173.85 input  -60.55 | X-H torsion
[ 11005 11000 10999 10996 ] final  168.76 input  -57.11 | X-H torsion

> <Gold.Protein.ActiveResidues>
 VAL166  LYS551  ARG553  GLY616  TRP617  ASP618  TYR619  PRO620  LYS621  CYS622 
 ASP623  PHE694  ASN695  SER759  ASP760  ASP761  ALA762  ILE779  LEU786  VAL792 
 PHE793  MET794  SER795  GLU796  ALA797  LYS798  CYS799  TRP800  GLU811  SER814 

> <Gold.Protein.RotatedAtoms>
  151.0459  134.9639  159.8185 H   0  0  0  0  0  0  0  0  0  0  0  0  # atno 6907 bound_to 6896
  152.5372  134.2599  159.8941 H   0  0  0  0  0  0  0  0  0  0  0  0  # atno 6908 bound_to 6896
  151.2613  133.4258  159.2650 H   0  0  0  0  0  0  0  0  0  0  0  0  # atno 6909 bound_to 6896
  144.7140  140.0649  143.6431 H   0  0  0  0  0  0  0  0  0  0  0  0  # atno 7974 bound_to 7965
  154.8257  140.2891  155.5756 H   0  0  0  0  0  0  0  0  0  0  0  0  # atno 8008 bound_to 7997
  156.3001  140.2541  156.3103 H   0  0  0  0  0  0  0  0  0  0  0  0  # atno 8009 bound_to 7997
  154.9288  140.0384  157.2026 H   0  0  0  0  0  0  0  0  0  0  0  0  # atno 8010 bound_to 7997
  139.5175  144.3039  152.0354 H   0  0  0  0  0  0  0  0  0  0  0  0  # atno 10167 bound_to 10162
  157.6806  130.9959  150.2078 H   0  0  0  0  0  0  0  0  0  0  0  0  # atno 10718 bound_to 10713
  154.6030  135.2856  155.0514 H   0  0  0  0  0  0  0  0  0  0  0  0  # atno 10763 bound_to 10752
  154.1772  135.6462  153.5028 H   0  0  0  0  0  0  0  0  0  0  0  0  # atno 10764 bound_to 10752
  153.0164  135.5415  154.6756 H   0  0  0  0  0  0  0  0  0  0  0  0  # atno 10765 bound_to 10752
  140.2906  134.7676  157.3835 H   0  0  0  0  0  0  0  0  0  0  0  0  # atno 11005 bound_to 11000
  145.9832  139.2957  143.1029 LP  0  0  0  0  0  0  0  0  0  0  0  0  # atno 17320 bound_to 7965
  145.8987  140.9257  143.0514 LP  0  0  0  0  0  0  0  0  0  0  0  0  # atno 17321 bound_to 7965
  140.2485  144.4194  150.6231 LP  0  0  0  0  0  0  0  0  0  0  0  0  # atno 17342 bound_to 10162
  140.6241  143.2179  151.6633 LP  0  0  0  0  0  0  0  0  0  0  0  0  # atno 17343 bound_to 10162
  156.2756  130.3727  149.7987 LP  0  0  0  0  0  0  0  0  0  0  0  0  # atno 17370 bound_to 10713
  156.5691  130.8417  151.3351 LP  0  0  0  0  0  0  0  0  0  0  0  0  # atno 17371 bound_to 10713
  140.1199  134.5233  155.8193 LP  0  0  0  0  0  0  0  0  0  0  0  0  # atno 17394 bound_to 11000
  141.2147  133.6753  156.6846 LP  0  0  0  0  0  0  0  0  0  0  0  0  # atno 17395 bound_to 11000

$$$$
