#       Name:                AV-unprocessed.smi:1899
#       Creating user name   scv26
#       Creation time:       Fri Mar 27 09:44:30 2020


#       File generated by GOLD software.
#

@<TRIPOS>MOLECULE
AV-unprocessed.smi:1899
    36    37     1
SMALL
NO_CHARGES


@<TRIPOS>ATOM
      1 ****         0.5877   1.4292  -0.4049 O.2            1 S1                 0.0000
      2 ****         0.2140   0.3788  -0.9282 C.2            1 S1                 0.0000
      3 ****         1.0620  -0.5573  -1.3831 N.am           1 S1                 0.0000
      4 ****         2.5179  -0.4921  -1.2895 C.3            1 S1                 0.0000
      5 ****         3.0480  -1.1932  -0.0242 C.3            1 S1                 0.0000
      6 ****         2.6756  -0.4957   1.2112 N.pl3          1 S1                 0.0000
      7 ****         3.2281   0.6537   1.7148 C.2            1 S1                 0.0000
      8 ****         2.5502   0.9385   2.8721 C.2            1 S1                 0.0000
      9 ****         1.6164  -0.0504   3.0283 N.pl3          1 S1                 1.0000
     10 ****         1.6975  -0.9245   2.0201 C.2            1 S1                 0.0000
     11 ****        -1.2828   0.0690  -1.0522 C.3            1 S1                 0.0000
     12 ****        -1.9980   1.0990  -1.9569 C.3            1 S1                 0.0000
     13 ****        -3.5099   0.9795  -1.8777 C.2            1 S1                 0.0000
     14 ****        -4.1490   0.3082  -0.9044 C.2            1 S1                 0.0000
     15 ****        -3.4326  -0.4038   0.2293 C.3            1 S1                 0.0000
     16 ****        -1.9534   0.0115   0.3354 C.3            1 S1                 0.0000
     17 ****         0.6691  -1.3858  -1.8066 H              1 S1                 0.0000
     18 ****         2.9242  -0.9882  -2.1710 H              1 S1                 0.0000
     19 ****         2.8699   0.5400  -1.3350 H              1 S1                 0.0000
     20 ****         2.6882  -2.2220   0.0300 H              1 S1                 0.0000
     21 ****         4.1371  -1.2408  -0.0531 H              1 S1                 0.0000
     22 ****         4.0358   1.1741   1.2209 H              1 S1                 0.0000
     23 ****         2.6577   1.7501   3.5766 H              1 S1                 0.0000
     24 ****         1.0832  -1.7960   1.8797 H              1 S1                 0.0000
     25 ****        -1.3911  -0.9159  -1.5112 H              1 S1                 0.0000
     26 ****        -1.7285   2.1213  -1.6881 H              1 S1                 0.0000
     27 ****        -1.6926   0.9530  -2.9937 H              1 S1                 0.0000
     28 ****        -4.0789   1.4796  -2.6476 H              1 S1                 0.0000
     29 ****        -5.2276   0.2497  -0.9116 H              1 S1                 0.0000
     30 ****        -3.9457  -0.1939   1.1682 H              1 S1                 0.0000
     31 ****        -3.5118  -1.4774   0.0568 H              1 S1                 0.0000
     32 ****        -1.4253  -0.6800   0.9934 H              1 S1                 0.0000
     33 ****        -1.8932   0.9926   0.8099 H              1 S1                 0.0000
     34 ****         0.9563  -0.1115   3.7934 H              1 S1                 0.0000
     35 ****         1.5646   1.6169  -0.3026 LP             1 S1                 0.0000
     36 ****        -0.0857   2.0944  -0.0824 LP             1 S1                 0.0000
@<TRIPOS>BOND
    1    1    2 2     
    2    2    3 am    
    3    2   11 1     
    4    3    4 1     
    5    3   17 1     
    6    4    5 1     
    7    4   18 1     
    8    4   19 1     
    9    5    6 1     
   10    5   20 1     
   11    5   21 1     
   12    6   10 1     
   13    6    7 1     
   14    7    8 2     
   15    7   22 1     
   16    8    9 1     
   17    8   23 1     
   18    9   10 2     
   19    9   34 1     
   20   10   24 1     
   21   11   16 1     
   22   11   12 1     
   23   11   25 1     
   24   12   13 1     
   25   12   26 1     
   26   12   27 1     
   27   13   14 2     
   28   13   28 1     
   29   14   15 1     
   30   14   29 1     
   31   15   16 1     
   32   15   30 1     
   33   15   31 1     
   34   16   32 1     
   35   16   33 1     
   36    1   35 1     
   37    1   36 1     
@<TRIPOS>SUBSTRUCTURE
      1 S1             1
@<TRIPOS>SET
LONE_PAIRS      STATIC     ATOMS    <user>   **** ""
2 35 36
DONOR_HYDROGENS      STATIC     ATOMS    <user>   **** ""
2 17 34
ATOM$BLUE        STATIC     ATOMS    COLORGROUP SYSTEM
2 35 36
ATOM$RED        STATIC     ATOMS    COLORGROUP SYSTEM
2 17 34
