AV-unprocessed.smi:2173|AV-procd|sdf|8840|dock3
  -GOLD-   2272012 33D 1   1.00000     0.00000
 Structure written by MMmdl.
 36 37  0  0  0  0  0  0  0  0  2 V2000
  154.4173  140.2663  159.1818 O   0  0  0  0  0  0  0  0  0  0  0  0
  154.3421  140.9303  160.2161 C   0  0  0  0  0  0  0  0  0  0  0  0
  155.1861  140.7805  161.2499 N   0  0  0  0  0  0  0  0  0  0  0  0
  156.2831  139.8175  161.3163 C   0  0  0  0  0  0  0  0  0  0  0  0
  156.9990  139.6276  159.9629 C   0  0  0  0  0  0  0  0  0  0  0  0
  158.1820  140.5577  159.7533 C   0  0  0  0  0  0  0  0  0  0  0  0
  158.2585  141.4323  158.6479 C   0  0  0  0  0  0  0  0  0  0  0  0
  159.4033  142.2402  158.4864 C   0  0  0  0  0  0  0  0  0  0  0  0
  160.4465  142.1569  159.4318 C   0  0  0  0  0  0  0  0  0  0  0  0
  160.3180  141.2672  160.5176 C   0  0  0  0  0  0  0  0  0  0  0  0
  159.2052  140.5109  160.6382 N   0  3  0  0  0  0  0  0  0  0  0  0
  153.2273  141.9688  160.3874 C   0  0  2  0  0  0  0  0  0  0  0  0
  153.2884  143.0331  159.2676 C   0  0  0  0  0  0  0  0  0  0  0  0
  152.3647  144.2064  159.5434 C   0  0  0  0  0  0  0  0  0  0  0  0
  151.8308  144.4580  160.7510 C   0  0  0  0  0  0  0  0  0  0  0  0
  152.0957  143.6019  161.9770 C   0  0  0  0  0  0  0  0  0  0  0  0
  153.2839  142.6429  161.7729 C   0  0  0  0  0  0  0  0  0  0  0  0
  155.0547  141.3758  162.0552 H   0  0  0  0  0  0  0  0  0  0  0  0
  157.0027  140.1121  162.0821 H   0  0  0  0  0  0  0  0  0  0  0  0
  155.8709  138.8628  161.6435 H   0  0  0  0  0  0  0  0  0  0  0  0
  157.3463  138.5974  159.8778 H   0  0  0  0  0  0  0  0  0  0  0  0
  156.2868  139.7723  159.1492 H   0  0  0  0  0  0  0  0  0  0  0  0
  157.4565  141.4753  157.9253 H   0  0  0  0  0  0  0  0  0  0  0  0
  159.4823  142.9121  157.6444 H   0  0  0  0  0  0  0  0  0  0  0  0
  161.3330  142.7644  159.3233 H   0  0  0  0  0  0  0  0  0  0  0  0
  161.0673  141.1341  161.2843 H   0  0  0  0  0  0  0  0  0  0  0  0
  152.2678  141.4532  160.3131 H   0  0  0  0  0  0  0  0  0  0  0  0
  154.3000  143.4231  159.1452 H   0  0  0  0  0  0  0  0  0  0  0  0
  153.0041  142.5841  158.3152 H   0  0  0  0  0  0  0  0  0  0  0  0
  152.1504  144.8644  158.7139 H   0  0  0  0  0  0  0  0  0  0  0  0
  151.1681  145.3014  160.8798 H   0  0  0  0  0  0  0  0  0  0  0  0
  152.2830  144.2482  162.8349 H   0  0  0  0  0  0  0  0  0  0  0  0
  151.1896  143.0362  162.1960 H   0  0  0  0  0  0  0  0  0  0  0  0
  153.2944  141.8965  162.5683 H   0  0  0  0  0  0  0  0  0  0  0  0
  154.2144  143.2052  161.8674 H   0  0  0  0  0  0  0  0  0  0  0  0
  159.1376  139.8668  161.4264 H   0  0  0  0  0  0  0  0  0  0  0  0
  1  2  2  0  0  0  0
  2  3  1  0  0  0  0
  2 12  1  0  0  0  0
  3  4  1  0  0  0  0
  3 18  1  0  0  0  0
  4  5  1  0  0  0  0
  4 19  1  0  0  0  0
  4 20  1  0  0  0  0
  5  6  1  0  0  0  0
  5 21  1  0  0  0  0
  5 22  1  0  0  0  0
  6 11  1  0  0  0  0
  6  7  2  0  0  0  0
  7  8  1  0  0  0  0
  7 23  1  0  0  0  0
  8  9  2  0  0  0  0
  8 24  1  0  0  0  0
  9 10  1  0  0  0  0
  9 25  1  0  0  0  0
 10 11  2  0  0  0  0
 10 26  1  0  0  0  0
 11 36  1  0  0  0  0
 12 17  1  0  0  0  0
 12 13  1  0  0  0  0
 12 27  1  0  0  0  0
 13 14  1  0  0  0  0
 13 28  1  0  0  0  0
 13 29  1  0  0  0  0
 14 15  2  0  0  0  0
 14 30  1  0  0  0  0
 15 16  1  0  0  0  0
 15 31  1  0  0  0  0
 16 17  1  0  0  0  0
 16 32  1  0  0  0  0
 16 33  1  0  0  0  0
 17 34  1  0  0  0  0
 17 35  1  0  0  0  0
M  CHG  1  11   1
M  END
> <s_m_source_file>
AV-unprocessed.smi

> <i_m_source_file_index>
2173

> <i_lp_mmshare_version>
43012

> <i_f3d_flags>
0

> <s_epik_input>
W0NIMl0xW0NIMl1bQ0hdPVtDSF1bQ0gyXVtDQEhdMUMoPU8pW05IXVtDSDJdW0NIMl1jMltjSF1bY0hdW2NIXVtjSF1uMg==

> <s_epik_cmdline>
J2VwaWtfcHl0aG9uJywgJy1waCcsICc3LjAnLCAnLXRuJywgJzgnLCAnLW1hJywgJzIwMCcsICctbWV0YWxfYmluZGluZycsICctaW1hZScsICc8aW5maWxlLm1hZT4nLCAnLW9tYWUnLCAnPG91dGZpbGUubWFlPic=

> <r_epik_Ionization_Penalty>
1.84586

> <r_epik_Ionization_Penalty_Charging>
1.84586

> <r_epik_Ionization_Penalty_Neutral>
1.53635e-08

> <r_epik_State_Penalty>
1.96297

> <r_epik_Charging_Adjusted_Penalty>
3.80883

> <i_epik_Tot_Q>
1

> <i_epik_Tot_abs_Q>
1

> <r_epik_Metal_State_Penalty>
1.98887

> <b_epik_Metal_Only>
0

> <s_lp_Force_Field>
OPLS_2005

> <r_lp_Energy>
13.6363

> <b_lp_Chiralities_Consistent>
1

> <s_lp_Variant>
AV-unprocessed.smi:2173-3

> <Gold.Version>
5.8.1

> <Gold.Id.Protein>
6NUR|6NUR_protein|mol2

> <Gold.PLP.Fitness>
44.6572

> <Gold.PLP.PLP>
-43.9214

> <Gold.PLP.part.hbond>
-2.0000

> <Gold.PLP.part.metal>
0.0000

> <Gold.PLP.part.buried>
-3.3641

> <Gold.PLP.part.nonpolar>
-38.4141

> <Gold.PLP.part.repulsive>
0.0100

> <Gold.PLP.ligand.clash>
1.3352

> <Gold.PLP.ligand.torsion>
0.3717

> <Gold.PLP.Chemscore.Hbond>
0.9280

> <Gold.PLP.Chemscore.CHOScore>
0.0000

> <Gold.PLP.Chemscore.Metal>
0.0000

> <Gold.Chemscore.Hbonds>
donor molecule, donor type, donor heavy atom, donor atom, acceptor molecule, acceptor atom, score
      P1  H  7997  8008       L1     1  0.90

> <Gold.PLP.Chemscore.Internal.Correction>
0.0304

> <Gold.Rescore>
     Score         DG    S(hbond)    S(metal)    S(lipo)     H(rot)  DE(clash)    DE(int)     intcor
     18.48     -20.39       0.95        0.00     132.62       1.48       0.20       1.72       ----

> <Gold.Chemscore.Fitness>
18.4768

> <Gold.Chemscore.DG>
-20.3944

> <Gold.Chemscore.ZeroCoef>
-5.4800

> <Gold.Chemscore.Hbond>
0.9541

> <Gold.Chemscore.Metal>
0.0000

> <Gold.Chemscore.Lipo>
132.6213

> <Gold.Chemscore.Internal_Hbond>
0.0000

> <Gold.Chemscore.DEClash>
0.2009

> <Gold.Chemscore.DEInternal>
1.7167

> <Gold.Chemscore.Rot>
1.4801

> <Gold.Chemscore.Internal.Correction>
   9.000000E+99

> <Gold.Chemscore.Hbonds>
donor molecule, donor type, donor heavy atom, donor atom, acceptor molecule, acceptor atom, score
      P1  H  7997  8008       L1     1  0.86

> <Gold.Chemscore.Hbond.Weighted>
-3.1868

> <Gold.Chemscore.Metal.Weighted>
-0.0000

> <Gold.Chemscore.Lipo.Weighted>
-15.5167

> <Gold.Chemscore.Internal_Hbond.Weighted>
0.0000

> <Gold.Chemscore.DEClash.Weighted>
0.2009

> <Gold.Chemscore.DEInternal.Weighted>
1.7167

> <Gold.Chemscore.Rot.Weighted>
3.7892

> <Gold.Chemscore.Internal.Correction.Weighted>
   9.000000E+99

> <Gold.Protein.RotatedTorsions>
[ 6907 6896 6895 6894 ] final -174.15 input  -60.11 | X-H torsion
[ 7974 7965 7964 7962 ] final  168.73 input  175.53 | X-H torsion
[ 8008 7997 7996 7995 ] final -116.05 input   59.86 | X-H torsion
[ 10167 10162 10161 10158 ] final   23.45 input  -65.29 | X-H torsion
[ 10718 10713 10712 10709 ] final -135.58 input   66.30 | X-H torsion
[ 10763 10752 10751 10750 ] final  -99.56 input  -60.55 | X-H torsion
[ 11005 11000 10999 10996 ] final  174.05 input  -57.11 | X-H torsion

> <Gold.Protein.ActiveResidues>
 VAL166  LYS551  ARG553  GLY616  TRP617  ASP618  TYR619  PRO620  LYS621  CYS622 
 ASP623  PHE694  ASN695  SER759  ASP760  ASP761  ALA762  ILE779  LEU786  VAL792 
 PHE793  MET794  SER795  GLU796  ALA797  LYS798  CYS799  TRP800  GLU811  SER814 

> <Gold.Protein.RotatedAtoms>
  151.5676  133.3394  159.2983 H   0  0  0  0  0  0  0  0  0  0  0  0  # atno 6907 bound_to 6896
  150.8386  134.7672  159.6925 H   0  0  0  0  0  0  0  0  0  0  0  0  # atno 6908 bound_to 6896
  152.4458  134.5505  159.9917 H   0  0  0  0  0  0  0  0  0  0  0  0  # atno 6909 bound_to 6896
  144.7378  139.8951  143.6405 H   0  0  0  0  0  0  0  0  0  0  0  0  # atno 7974 bound_to 7965
  155.0616  140.0393  157.2579 H   0  0  0  0  0  0  0  0  0  0  0  0  # atno 8008 bound_to 7997
  154.7055  140.2682  155.6655 H   0  0  0  0  0  0  0  0  0  0  0  0  # atno 8009 bound_to 7997
  156.2773  140.2732  156.1679 H   0  0  0  0  0  0  0  0  0  0  0  0  # atno 8010 bound_to 7997
  140.5268  143.9910  150.6444 H   0  0  0  0  0  0  0  0  0  0  0  0  # atno 10167 bound_to 10162
  156.2677  130.7247  151.1203 H   0  0  0  0  0  0  0  0  0  0  0  0  # atno 10718 bound_to 10713
  154.7508  135.4967  153.9286 H   0  0  0  0  0  0  0  0  0  0  0  0  # atno 10763 bound_to 10752
  153.1141  135.6716  153.9456 H   0  0  0  0  0  0  0  0  0  0  0  0  # atno 10764 bound_to 10752
  153.9207  135.3088  155.3426 H   0  0  0  0  0  0  0  0  0  0  0  0  # atno 10765 bound_to 10752
  140.3471  134.7227  157.4242 H   0  0  0  0  0  0  0  0  0  0  0  0  # atno 11005 bound_to 11000
  146.1113  139.4119  143.0286 LP  0  0  0  0  0  0  0  0  0  0  0  0  # atno 17320 bound_to 7965
  145.7438  140.9998  143.1287 LP  0  0  0  0  0  0  0  0  0  0  0  0  # atno 17321 bound_to 7965
  140.3273  143.3099  152.0723 LP  0  0  0  0  0  0  0  0  0  0  0  0  # atno 17342 bound_to 10162
  139.4941  144.6533  151.6628 LP  0  0  0  0  0  0  0  0  0  0  0  0  # atno 17343 bound_to 10162
  157.7273  131.0640  150.5871 LP  0  0  0  0  0  0  0  0  0  0  0  0  # atno 17370 bound_to 10713
  156.5965  130.4343  149.5915 LP  0  0  0  0  0  0  0  0  0  0  0  0  # atno 17371 bound_to 10713
  140.0734  134.5831  155.8618 LP  0  0  0  0  0  0  0  0  0  0  0  0  # atno 17394 bound_to 11000
  141.2022  133.6624  156.5996 LP  0  0  0  0  0  0  0  0  0  0  0  0  # atno 17395 bound_to 11000

$$$$
