AV-unprocessed.smi:2774|AV-procd|sdf|10687|dock9
  -GOLD-   2272015133D 1   1.00000     0.00000
 Structure written by MMmdl.
 34 35  0  0  0  0  0  0  0  0  1 V2000
  147.2733  138.3719  151.1653 O   0  0  0  0  0  0  0  0  0  0  0  0
  146.5032  138.9227  152.2161 C   0  0  1  0  0  0  0  0  0  0  0  0
  145.6842  137.8042  152.8895 C   0  0  0  0  0  0  0  0  0  0  0  0
  144.8191  137.1046  151.9362 N   0  0  0  0  0  0  0  0  0  0  0  0
  145.2949  135.7961  151.4800 C   0  0  1  0  0  0  0  0  0  0  0  0
  145.9002  134.9680  152.6382 C   0  0  0  0  0  0  0  0  0  0  0  0
  146.4418  133.6039  152.1794 C   0  0  0  0  0  0  0  0  0  0  0  0
  145.3556  132.7140  151.5618 C   0  0  0  0  0  0  0  0  0  0  0  0
  144.6571  133.4803  150.0769 S   0  0  0  0  0  0  0  0  0  0  0  0
  144.1236  135.0468  150.8176 C   0  0  0  0  0  0  0  0  0  0  0  0
  147.3126  139.7611  153.1987 C   0  0  0  0  0  0  0  0  0  0  0  0
  147.0557  141.1377  153.3858 C   0  0  0  0  0  0  0  0  0  0  0  0
  147.8484  141.8532  154.3050 C   0  0  0  0  0  0  0  0  0  0  0  0
  148.8439  141.2899  155.0224 N   0  0  0  0  0  0  0  0  0  0  0  0
  149.0863  139.9746  154.8390 C   0  0  0  0  0  0  0  0  0  0  0  0
  148.3541  139.1694  153.9439 C   0  0  0  0  0  0  0  0  0  0  0  0
  148.0939  138.8383  151.1219 H   0  0  0  0  0  0  0  0  0  0  0  0
  145.7973  139.5972  151.7296 H   0  0  0  0  0  0  0  0  0  0  0  0
  146.3713  137.0874  153.3408 H   0  0  0  0  0  0  0  0  0  0  0  0
  145.1048  138.2332  153.7061 H   0  0  0  0  0  0  0  0  0  0  0  0
  143.8891  137.0125  152.3327 H   0  0  0  0  0  0  0  0  0  0  0  0
  146.0653  135.9494  150.7228 H   0  0  0  0  0  0  0  0  0  0  0  0
  146.7239  135.5076  153.1037 H   0  0  0  0  0  0  0  0  0  0  0  0
  145.1525  134.8203  153.4189 H   0  0  0  0  0  0  0  0  0  0  0  0
  147.2489  133.7513  151.4608 H   0  0  0  0  0  0  0  0  0  0  0  0
  146.8838  133.0887  153.0327 H   0  0  0  0  0  0  0  0  0  0  0  0
  145.7706  131.7428  151.2921 H   0  0  0  0  0  0  0  0  0  0  0  0
  144.5558  132.5332  152.2807 H   0  0  0  0  0  0  0  0  0  0  0  0
  143.3355  134.8437  151.5440 H   0  0  0  0  0  0  0  0  0  0  0  0
  143.6802  135.6573  150.0298 H   0  0  0  0  0  0  0  0  0  0  0  0
  146.2762  141.6418  152.8339 H   0  0  0  0  0  0  0  0  0  0  0  0
  147.6785  142.9073  154.4671 H   0  0  0  0  0  0  0  0  0  0  0  0
  149.8893  139.5497  155.4232 H   0  0  0  0  0  0  0  0  0  0  0  0
  148.5911  138.1214  153.8323 H   0  0  0  0  0  0  0  0  0  0  0  0
  1  2  1  0  0  0  0
  1 17  1  0  0  0  0
  2  3  1  0  0  0  0
  2 11  1  0  0  0  0
  2 18  1  0  0  0  0
  3  4  1  0  0  0  0
  3 19  1  0  0  0  0
  3 20  1  0  0  0  0
  4  5  1  0  0  0  0
  4 21  1  0  0  0  0
  5 10  1  0  0  0  0
  5  6  1  0  0  0  0
  5 22  1  0  0  0  0
  6  7  1  0  0  0  0
  6 23  1  0  0  0  0
  6 24  1  0  0  0  0
  7  8  1  0  0  0  0
  7 25  1  0  0  0  0
  7 26  1  0  0  0  0
  8  9  1  0  0  0  0
  8 27  1  0  0  0  0
  8 28  1  0  0  0  0
  9 10  1  0  0  0  0
 10 29  1  0  0  0  0
 10 30  1  0  0  0  0
 11 16  1  0  0  0  0
 11 12  2  0  0  0  0
 12 13  1  0  0  0  0
 12 31  1  0  0  0  0
 13 14  2  0  0  0  0
 13 32  1  0  0  0  0
 14 15  1  0  0  0  0
 15 16  2  0  0  0  0
 15 33  1  0  0  0  0
 16 34  1  0  0  0  0
M  END
> <s_m_source_file>
AV-unprocessed.smi

> <i_m_source_file_index>
2774

> <i_lp_mmshare_version>
43012

> <i_f3d_flags>
0

> <s_epik_input>
W2NIXTFbY0hdbltjSF1bY0hdYzFbQ0BIXShbT0hdKVtDSDJdW05IXVtDQEBIXTJbQ0gyXVtDSDJdW0NIMl1TW0NIMl0y

> <s_epik_cmdline>
J2VwaWtfcHl0aG9uJywgJy1waCcsICc3LjAnLCAnLXRuJywgJzgnLCAnLW1hJywgJzIwMCcsICctbWV0YWxfYmluZGluZycsICctaW1hZScsICc8aW5maWxlLm1hZT4nLCAnLW9tYWUnLCAnPG91dGZpbGUubWFlPic=

> <r_epik_Ionization_Penalty>
2.08116

> <r_epik_Ionization_Penalty_Charging>
0

> <r_epik_Ionization_Penalty_Neutral>
2.08116

> <r_epik_State_Penalty>
2.1944

> <r_epik_Charging_Adjusted_Penalty>
2.1944

> <i_epik_Tot_Q>
0

> <i_epik_Tot_abs_Q>
0

> <r_epik_Metal_State_Penalty>
2.1769

> <b_epik_Metal_Only>
0

> <s_lp_Force_Field>
OPLS_2005

> <r_lp_Energy>
17.4731

> <b_lp_Chiralities_Consistent>
1

> <s_lp_Variant>
AV-unprocessed.smi:2774-8

> <Gold.Version>
5.8.1

> <Gold.Id.Protein>
6NUR|6NUR_protein|mol2

> <Gold.PLP.Fitness>
38.2847

> <Gold.PLP.PLP>
-33.3096

> <Gold.PLP.part.hbond>
-4.0000

> <Gold.PLP.part.metal>
0.0000

> <Gold.PLP.part.buried>
-1.5964

> <Gold.PLP.part.nonpolar>
-27.7061

> <Gold.PLP.part.repulsive>
0.1247

> <Gold.PLP.ligand.clash>
0.0000

> <Gold.PLP.ligand.torsion>
0.4690

> <Gold.PLP.Chemscore.Hbond>
0.9500

> <Gold.PLP.Chemscore.CHOScore>
1.0000

> <Gold.PLP.Chemscore.Metal>
0.0000

> <Gold.Chemscore.Hbonds>
donor molecule, donor type, donor heavy atom, donor atom, acceptor molecule, acceptor atom, score
      L1  H     1    17       P1  7957  0.95
      L1  C    13    32       P1  8028  1.00

> <Gold.PLP.Chemscore.Internal.Correction>
0.0630

> <Gold.Rescore>
     Score         DG    S(hbond)    S(metal)    S(lipo)     H(rot)  DE(clash)    DE(int)     intcor
     11.50     -12.08       0.82        0.00      74.34       1.89       0.02       0.56       ----

> <Gold.Chemscore.Fitness>
11.5000

> <Gold.Chemscore.DG>
-12.0750

> <Gold.Chemscore.ZeroCoef>
-5.4800

> <Gold.Chemscore.Hbond>
0.8211

> <Gold.Chemscore.Metal>
0.0000

> <Gold.Chemscore.Lipo>
74.3420

> <Gold.Chemscore.Internal_Hbond>
0.0000

> <Gold.Chemscore.DEClash>
0.0191

> <Gold.Chemscore.DEInternal>
0.5560

> <Gold.Chemscore.Rot>
1.8928

> <Gold.Chemscore.Internal.Correction>
   9.000000E+99

> <Gold.Chemscore.Hbonds>
donor molecule, donor type, donor heavy atom, donor atom, acceptor molecule, acceptor atom, score
      L1  H     1    17       P1  7957  0.22

> <Gold.Chemscore.Hbond.Weighted>
-2.7426

> <Gold.Chemscore.Metal.Weighted>
-0.0000

> <Gold.Chemscore.Lipo.Weighted>
-8.6980

> <Gold.Chemscore.Internal_Hbond.Weighted>
0.0000

> <Gold.Chemscore.DEClash.Weighted>
0.0191

> <Gold.Chemscore.DEInternal.Weighted>
0.5560

> <Gold.Chemscore.Rot.Weighted>
4.8455

> <Gold.Chemscore.Internal.Correction.Weighted>
   9.000000E+99

> <Gold.Protein.RotatedTorsions>
[ 6907 6896 6895 6894 ] final  -84.12 input  -60.11 | X-H torsion
[ 7974 7965 7964 7962 ] final  165.00 input  175.53 | X-H torsion
[ 8008 7997 7996 7995 ] final   28.52 input   59.86 | X-H torsion
[ 10167 10162 10161 10158 ] final   82.26 input  -65.29 | X-H torsion
[ 10718 10713 10712 10709 ] final -168.68 input   66.30 | X-H torsion
[ 10763 10752 10751 10750 ] final  -16.22 input  -60.55 | X-H torsion
[ 11005 11000 10999 10996 ] final  -62.39 input  -57.11 | X-H torsion

> <Gold.Protein.ActiveResidues>
 VAL166  LYS551  ARG553  GLY616  TRP617  ASP618  TYR619  PRO620  LYS621  CYS622 
 ASP623  PHE694  ASN695  SER759  ASP760  ASP761  ALA762  ILE779  LEU786  VAL792 
 PHE793  MET794  SER795  GLU796  ALA797  LYS798  CYS799  TRP800  GLU811  SER814 

> <Gold.Protein.RotatedAtoms>
  150.6879  134.3407  159.4866 H   0  0  0  0  0  0  0  0  0  0  0  0  # atno 6907 bound_to 6896
  152.1260  134.9167  160.0570 H   0  0  0  0  0  0  0  0  0  0  0  0  # atno 6908 bound_to 6896
  152.0355  133.3920  159.4352 H   0  0  0  0  0  0  0  0  0  0  0  0  # atno 6909 bound_to 6896
  144.7521  139.8406  143.6362 H   0  0  0  0  0  0  0  0  0  0  0  0  # atno 7974 bound_to 7965
  155.0600  140.3189  155.4663 H   0  0  0  0  0  0  0  0  0  0  0  0  # atno 8008 bound_to 7997
  156.2815  140.2130  156.5672 H   0  0  0  0  0  0  0  0  0  0  0  0  # atno 8009 bound_to 7997
  154.7140  140.0495  157.0564 H   0  0  0  0  0  0  0  0  0  0  0  0  # atno 8010 bound_to 7997
  139.9307  144.6154  150.8348 H   0  0  0  0  0  0  0  0  0  0  0  0  # atno 10167 bound_to 10162
  156.7004  130.9194  151.3079 H   0  0  0  0  0  0  0  0  0  0  0  0  # atno 10718 bound_to 10713
  153.5553  135.7011  153.5572 H   0  0  0  0  0  0  0  0  0  0  0  0  # atno 10763 bound_to 10752
  153.3478  135.4003  155.1622 H   0  0  0  0  0  0  0  0  0  0  0  0  # atno 10764 bound_to 10752
  154.8655  135.3758  154.5067 H   0  0  0  0  0  0  0  0  0  0  0  0  # atno 10765 bound_to 10752
  141.1358  133.6639  156.5521 H   0  0  0  0  0  0  0  0  0  0  0  0  # atno 11005 bound_to 11000
  146.1485  139.4561  143.0064 LP  0  0  0  0  0  0  0  0  0  0  0  0  # atno 17320 bound_to 7965
  145.6907  141.0165  143.1557 LP  0  0  0  0  0  0  0  0  0  0  0  0  # atno 17321 bound_to 7965
  140.7638  143.3232  151.2574 LP  0  0  0  0  0  0  0  0  0  0  0  0  # atno 17342 bound_to 10162
  139.6785  143.9896  152.2795 LP  0  0  0  0  0  0  0  0  0  0  0  0  # atno 17343 bound_to 10162
  157.6975  130.9297  150.0687 LP  0  0  0  0  0  0  0  0  0  0  0  0  # atno 17370 bound_to 10713
  156.1733  130.3647  149.9135 LP  0  0  0  0  0  0  0  0  0  0  0  0  # atno 17371 bound_to 10713
  140.4056  134.7318  157.4805 LP  0  0  0  0  0  0  0  0  0  0  0  0  # atno 17394 bound_to 11000
  140.0464  134.6193  155.8915 LP  0  0  0  0  0  0  0  0  0  0  0  0  # atno 17395 bound_to 11000

$$$$
