AV-unprocessed.smi:2732|AV-procd|sdf|10533|dock4
  -GOLD-   2272014573D 1   1.00000     0.00000
 Structure written by MMmdl.
 34 35  0  0  0  0  0  0  0  0  1 V2000
  148.0591  145.2331  161.5916 C   0  0  0  0  0  0  0  0  0  0  0  0
  148.3436  144.7209  160.1718 C   0  0  1  0  0  0  0  0  0  0  0  0
  149.6130  144.0734  160.1959 O   0  0  0  0  0  0  0  0  0  0  0  0
  150.7226  144.9196  160.4699 C   0  0  0  0  0  0  0  0  0  0  0  0
  151.7122  144.8064  159.3311 C   0  0  0  0  0  0  0  0  0  0  0  0
  151.2850  144.2316  157.9996 C   0  0  0  0  0  0  0  0  0  0  0  0
  152.2211  143.4532  158.8885 C   0  0  0  0  0  0  0  0  0  0  0  0
  147.2548  143.7421  159.7019 C   0  0  0  0  0  0  0  0  0  0  0  0
  146.8158  142.9030  160.4873 O   0  0  0  0  0  0  0  0  0  0  0  0
  146.8729  143.8726  158.4173 N   0  0  0  0  0  0  0  0  0  0  0  0
  145.9157  143.1301  157.6704 C   0  0  0  0  0  0  0  0  0  0  0  0
  144.6631  142.6871  158.1623 C   0  0  0  0  0  0  0  0  0  0  0  0
  143.8131  141.9609  157.3057 C   0  0  0  0  0  0  0  0  0  0  0  0
  144.2409  141.7042  155.9884 C   0  0  0  0  0  0  0  0  0  0  0  0
  143.4261  140.9882  155.1152 N   0  0  0  0  0  0  0  0  0  0  0  0
  145.4285  142.1235  155.5057 N   0  0  0  0  0  0  0  0  0  0  0  0
  146.2385  142.8190  156.3322 C   0  0  0  0  0  0  0  0  0  0  0  0
  147.0891  145.7286  161.6470 H   0  0  0  0  0  0  0  0  0  0  0  0
  148.8152  145.9556  161.8994 H   0  0  0  0  0  0  0  0  0  0  0  0
  148.0644  144.4219  162.3208 H   0  0  0  0  0  0  0  0  0  0  0  0
  148.3892  145.5806  159.5001 H   0  0  0  0  0  0  0  0  0  0  0  0
  150.4181  145.9610  160.5816 H   0  0  0  0  0  0  0  0  0  0  0  0
  151.2118  144.6126  161.3951 H   0  0  0  0  0  0  0  0  0  0  0  0
  152.4255  145.6273  159.2851 H   0  0  0  0  0  0  0  0  0  0  0  0
  150.2635  143.8677  157.9068 H   0  0  0  0  0  0  0  0  0  0  0  0
  151.7033  144.6808  157.1011 H   0  0  0  0  0  0  0  0  0  0  0  0
  153.2641  143.3847  158.5854 H   0  0  0  0  0  0  0  0  0  0  0  0
  151.8230  142.5735  159.3905 H   0  0  0  0  0  0  0  0  0  0  0  0
  147.3490  144.5957  157.8974 H   0  0  0  0  0  0  0  0  0  0  0  0
  144.3274  142.8848  159.1671 H   0  0  0  0  0  0  0  0  0  0  0  0
  142.8534  141.6110  157.6572 H   0  0  0  0  0  0  0  0  0  0  0  0
  142.5220  140.6405  155.4001 H   0  0  0  0  0  0  0  0  0  0  0  0
  143.7117  140.8008  154.1647 H   0  0  0  0  0  0  0  0  0  0  0  0
  147.1796  143.1373  155.9079 H   0  0  0  0  0  0  0  0  0  0  0  0
  1  2  1  0  0  0  0
  1 18  1  0  0  0  0
  1 19  1  0  0  0  0
  1 20  1  0  0  0  0
  2  3  1  0  0  0  0
  2  8  1  0  0  0  0
  2 21  1  0  0  0  0
  3  4  1  0  0  0  0
  4  5  1  0  0  0  0
  4 22  1  0  0  0  0
  4 23  1  0  0  0  0
  5  7  1  0  0  0  0
  5  6  1  0  0  0  0
  5 24  1  0  0  0  0
  6  7  1  0  0  0  0
  6 25  1  0  0  0  0
  6 26  1  0  0  0  0
  7 27  1  0  0  0  0
  7 28  1  0  0  0  0
  8  9  2  0  0  0  0
  8 10  1  0  0  0  0
 10 11  1  0  0  0  0
 10 29  1  0  0  0  0
 11 17  1  0  0  0  0
 11 12  2  0  0  0  0
 12 13  1  0  0  0  0
 12 30  1  0  0  0  0
 13 14  2  0  0  0  0
 13 31  1  0  0  0  0
 14 15  1  0  0  0  0
 14 16  1  0  0  0  0
 15 32  1  0  0  0  0
 15 33  1  0  0  0  0
 16 17  2  0  0  0  0
 17 34  1  0  0  0  0
M  END
> <s_m_source_file>
AV-unprocessed.smi

> <i_m_source_file_index>
2732

> <i_lp_mmshare_version>
43012

> <i_f3d_flags>
0

> <s_epik_input>
W0NIMl0xW0NIMl1bQ0hdMVtDSDJdT1tDQEBIXShbQ0gzXSlDKD1PKVtOSF1jMltjSF1bY0hdYyhbTkgyXSluW2NIXTI=

> <s_epik_cmdline>
J2VwaWtfcHl0aG9uJywgJy1waCcsICc3LjAnLCAnLXRuJywgJzgnLCAnLW1hJywgJzIwMCcsICctbWV0YWxfYmluZGluZycsICctaW1hZScsICc8aW5maWxlLm1hZT4nLCAnLW9tYWUnLCAnPG91dGZpbGUubWFlPic=

> <r_lp_tautomer_probability>
1

> <r_epik_Ionization_Penalty>
0.0764773

> <r_epik_Ionization_Penalty_Charging>
0

> <r_epik_Ionization_Penalty_Neutral>
0.0764773

> <r_epik_State_Penalty>
0.0673619

> <r_epik_Charging_Adjusted_Penalty>
0.0673619

> <i_epik_Tot_Q>
0

> <i_epik_Tot_abs_Q>
0

> <r_epik_Metal_State_Penalty>
0.0594329

> <b_epik_Metal_Only>
0

> <s_lp_Force_Field>
OPLS_2005

> <r_lp_Energy>
18.9716

> <b_lp_Chiralities_Consistent>
1

> <s_lp_Variant>
AV-unprocessed.smi:2732-2

> <Gold.Version>
5.8.1

> <Gold.Id.Protein>
6NUR|6NUR_protein|mol2

> <Gold.PLP.Fitness>
40.3747

> <Gold.PLP.PLP>
-29.1514

> <Gold.PLP.part.hbond>
-5.0000

> <Gold.PLP.part.metal>
0.0000

> <Gold.PLP.part.buried>
-3.0809

> <Gold.PLP.part.nonpolar>
-21.8708

> <Gold.PLP.part.repulsive>
0.3478

> <Gold.PLP.ligand.clash>
0.0000

> <Gold.PLP.ligand.torsion>
1.5267

> <Gold.PLP.Chemscore.Hbond>
3.8320

> <Gold.PLP.Chemscore.CHOScore>
0.7357

> <Gold.PLP.Chemscore.Metal>
0.0000

> <Gold.Chemscore.Hbonds>
donor molecule, donor type, donor heavy atom, donor atom, acceptor molecule, acceptor atom, score
      L1  H    10    29       P1  8029  1.00
      L1  H    15    33       P1 10175  1.00
      P1  H  6933  6944       L1     9  0.93
      P1  H  6934  6946       L1     9  0.87
      L1  C    17    34       P1  8028  0.49

> <Gold.PLP.Chemscore.Internal.Correction>
0.5735

> <Gold.Rescore>
     Score         DG    S(hbond)    S(metal)    S(lipo)     H(rot)  DE(clash)    DE(int)     intcor
     18.21     -19.62       3.32        0.00      63.76       1.72       0.22       1.19       ----

> <Gold.Chemscore.Fitness>
18.2073

> <Gold.Chemscore.DG>
-19.6230

> <Gold.Chemscore.ZeroCoef>
-5.4800

> <Gold.Chemscore.Hbond>
3.3221

> <Gold.Chemscore.Metal>
0.0000

> <Gold.Chemscore.Lipo>
63.7585

> <Gold.Chemscore.Internal_Hbond>
0.0000

> <Gold.Chemscore.DEClash>
0.2218

> <Gold.Chemscore.DEInternal>
1.1939

> <Gold.Chemscore.Rot>
1.7237

> <Gold.Chemscore.Internal.Correction>
   9.000000E+99

> <Gold.Chemscore.Hbonds>
donor molecule, donor type, donor heavy atom, donor atom, acceptor molecule, acceptor atom, score
      L1  H    10    29       P1  8029  0.38
      L1  H    15    33       P1 10175  0.94
      P1  H  6933  6944       L1     9  0.30
      P1  H  6934  6946       L1     9  0.81

> <Gold.Chemscore.Hbond.Weighted>
-11.0959

> <Gold.Chemscore.Metal.Weighted>
-0.0000

> <Gold.Chemscore.Lipo.Weighted>
-7.4597

> <Gold.Chemscore.Internal_Hbond.Weighted>
0.0000

> <Gold.Chemscore.DEClash.Weighted>
0.2218

> <Gold.Chemscore.DEInternal.Weighted>
1.1939

> <Gold.Chemscore.Rot.Weighted>
4.4127

> <Gold.Chemscore.Internal.Correction.Weighted>
   9.000000E+99

> <Gold.Protein.RotatedTorsions>
[ 6907 6896 6895 6894 ] final   35.43 input  -60.11 | X-H torsion
[ 7974 7965 7964 7962 ] final  -38.67 input  175.53 | X-H torsion
[ 8008 7997 7996 7995 ] final  151.58 input   59.86 | X-H torsion
[ 10167 10162 10161 10158 ] final  -20.39 input  -65.29 | X-H torsion
[ 10718 10713 10712 10709 ] final   74.68 input   66.30 | X-H torsion
[ 10763 10752 10751 10750 ] final   48.91 input  -60.55 | X-H torsion
[ 11005 11000 10999 10996 ] final  155.56 input  -57.11 | X-H torsion

> <Gold.Protein.ActiveResidues>
 VAL166  LYS551  ARG553  GLY616  TRP617  ASP618  TYR619  PRO620  LYS621  CYS622 
 ASP623  PHE694  ASN695  SER759  ASP760  ASP761  ALA762  ILE779  LEU786  VAL792 
 PHE793  MET794  SER795  GLU796  ALA797  LYS798  CYS799  TRP800  GLU811  SER814 

> <Gold.Protein.RotatedAtoms>
  152.1160  134.9240  160.0564 H   0  0  0  0  0  0  0  0  0  0  0  0  # atno 6907 bound_to 6896
  152.0399  133.3968  159.4341 H   0  0  0  0  0  0  0  0  0  0  0  0  # atno 6908 bound_to 6896
  150.6846  134.3347  159.4886 H   0  0  0  0  0  0  0  0  0  0  0  0  # atno 6909 bound_to 6896
  146.0465  140.6539  142.9062 H   0  0  0  0  0  0  0  0  0  0  0  0  # atno 7974 bound_to 7965
  156.2667  140.2044  156.6199 H   0  0  0  0  0  0  0  0  0  0  0  0  # atno 8008 bound_to 7997
  154.6765  140.0544  157.0245 H   0  0  0  0  0  0  0  0  0  0  0  0  # atno 8009 bound_to 7997
  155.1061  140.3211  155.4537 H   0  0  0  0  0  0  0  0  0  0  0  0  # atno 8010 bound_to 7997
  140.7276  143.4727  151.0225 H   0  0  0  0  0  0  0  0  0  0  0  0  # atno 10167 bound_to 10162
  157.6602  130.9690  150.1246 H   0  0  0  0  0  0  0  0  0  0  0  0  # atno 10718 bound_to 10713
  152.9789  135.5929  154.4003 H   0  0  0  0  0  0  0  0  0  0  0  0  # atno 10763 bound_to 10752
  154.3649  135.2767  155.2301 H   0  0  0  0  0  0  0  0  0  0  0  0  # atno 10764 bound_to 10752
  154.4282  135.6043  153.6107 H   0  0  0  0  0  0  0  0  0  0  0  0  # atno 10765 bound_to 10752
  140.1593  134.8621  157.2553 H   0  0  0  0  0  0  0  0  0  0  0  0  # atno 11005 bound_to 11000
  144.7100  140.4004  143.7087 LP  0  0  0  0  0  0  0  0  0  0  0  0  # atno 17320 bound_to 7965
  145.6796  139.1616  143.2708 LP  0  0  0  0  0  0  0  0  0  0  0  0  # atno 17321 bound_to 7965
  139.8420  143.7551  152.3180 LP  0  0  0  0  0  0  0  0  0  0  0  0  # atno 17342 bound_to 10162
  139.7703  144.7478  151.0234 LP  0  0  0  0  0  0  0  0  0  0  0  0  # atno 17343 bound_to 10162
  156.2108  130.3666  149.8672 LP  0  0  0  0  0  0  0  0  0  0  0  0  # atno 17370 bound_to 10713
  156.6552  130.8759  151.3538 LP  0  0  0  0  0  0  0  0  0  0  0  0  # atno 17371 bound_to 10713
  140.2510  134.3683  155.7442 LP  0  0  0  0  0  0  0  0  0  0  0  0  # atno 17394 bound_to 11000
  141.2208  133.7316  156.8935 LP  0  0  0  0  0  0  0  0  0  0  0  0  # atno 17395 bound_to 11000

$$$$
