AV-unprocessed.smi:2575|AV-procd|sdf|10116|dock10
  -GOLD-   2272014133D 1   1.00000     0.00000
 Structure written by MMmdl.
 31 32  0  0  0  0  0  0  0  0  1 V2000
  146.4738  142.6393  154.1915 C   0  0  0  0  0  0  0  0  0  0  0  0
  147.4278  141.5619  153.6712 C   0  0  0  0  0  0  0  0  0  0  0  0
  148.0506  140.9269  154.7750 O   0  0  0  0  0  0  0  0  0  0  0  0
  149.4663  140.9770  154.7089 C   0  0  0  0  0  0  0  0  0  0  0  0
  150.0390  141.0480  156.1322 C   0  0  2  0  0  0  0  0  0  0  0  0
  149.4641  142.1614  156.7889 O   0  0  0  0  0  0  0  0  0  0  0  0
  151.5762  141.1661  156.1454 C   0  0  0  0  0  0  0  0  0  0  0  0
  152.1343  141.0201  157.4785 N   0  0  0  0  0  0  0  0  0  0  0  0
  152.7098  139.8375  157.8362 N   0  0  0  0  0  0  0  0  0  0  0  0
  153.1286  139.9325  159.0628 N   0  0  0  0  0  0  0  0  0  0  0  0
  152.8203  141.2015  159.5236 C   0  0  0  0  0  0  0  0  0  0  0  0
  153.0395  141.8303  160.7696 C   0  0  0  0  0  0  0  0  0  0  0  0
  152.6159  143.1607  160.9824 C   0  0  0  0  0  0  0  0  0  0  0  0
  152.9024  143.8956  162.5196 Cl  0  0  0  0  0  0  0  0  0  0  0  0
  151.9662  143.8777  159.9486 C   0  0  0  0  0  0  0  0  0  0  0  0
  151.4390  145.5048  160.1928 Cl  0  0  0  0  0  0  0  0  0  0  0  0
  151.7413  143.2629  158.7008 C   0  0  0  0  0  0  0  0  0  0  0  0
  152.1711  141.9388  158.5096 C   0  0  0  0  0  0  0  0  0  0  0  0
  145.9740  143.1481  153.3671 H   0  0  0  0  0  0  0  0  0  0  0  0
  147.0102  143.3901  154.7720 H   0  0  0  0  0  0  0  0  0  0  0  0
  145.7057  142.2053  154.8320 H   0  0  0  0  0  0  0  0  0  0  0  0
  146.8754  140.8305  153.0795 H   0  0  0  0  0  0  0  0  0  0  0  0
  148.1794  142.0129  153.0213 H   0  0  0  0  0  0  0  0  0  0  0  0
  149.8564  140.1040  154.1827 H   0  0  0  0  0  0  0  0  0  0  0  0
  149.7658  141.8609  154.1429 H   0  0  0  0  0  0  0  0  0  0  0  0
  149.7370  140.1542  156.6797 H   0  0  0  0  0  0  0  0  0  0  0  0
  149.4541  142.8920  156.1895 H   0  0  0  0  0  0  0  0  0  0  0  0
  152.0202  140.4052  155.5014 H   0  0  0  0  0  0  0  0  0  0  0  0
  151.8881  142.1308  155.7430 H   0  0  0  0  0  0  0  0  0  0  0  0
  153.5332  141.2882  161.5624 H   0  0  0  0  0  0  0  0  0  0  0  0
  151.2451  143.7982  157.9047 H   0  0  0  0  0  0  0  0  0  0  0  0
  1  2  1  0  0  0  0
  1 19  1  0  0  0  0
  1 20  1  0  0  0  0
  1 21  1  0  0  0  0
  2  3  1  0  0  0  0
  2 22  1  0  0  0  0
  2 23  1  0  0  0  0
  3  4  1  0  0  0  0
  4  5  1  0  0  0  0
  4 24  1  0  0  0  0
  4 25  1  0  0  0  0
  5  6  1  0  0  0  0
  5  7  1  0  0  0  0
  5 26  1  0  0  0  0
  6 27  1  0  0  0  0
  7  8  1  0  0  0  0
  7 28  1  0  0  0  0
  7 29  1  0  0  0  0
  8 18  1  0  0  0  0
  8  9  1  0  0  0  0
  9 10  2  0  0  0  0
 10 11  1  0  0  0  0
 11 18  2  0  0  0  0
 11 12  1  0  0  0  0
 12 13  2  0  0  0  0
 12 30  1  0  0  0  0
 13 14  1  0  0  0  0
 13 15  1  0  0  0  0
 15 16  1  0  0  0  0
 15 17  2  0  0  0  0
 17 18  1  0  0  0  0
 17 31  1  0  0  0  0
M  END
> <s_m_source_file>
AV-unprocessed.smi

> <i_m_source_file_index>
2575

> <i_lp_mmshare_version>
43012

> <i_f3d_flags>
0

> <s_epik_input>
W0NIM11bQ0gyXU9bQ0gyXVtDQEhdKFtPSF0pW0NIMl1uKG5uMSljKGMxMilbY0hdYyhDbCljKENsKVtjSF0y

> <s_epik_cmdline>
J2VwaWtfcHl0aG9uJywgJy1waCcsICc3LjAnLCAnLXRuJywgJzgnLCAnLW1hJywgJzIwMCcsICctbWV0YWxfYmluZGluZycsICctaW1hZScsICc8aW5maWxlLm1hZT4nLCAnLW9tYWUnLCAnPG91dGZpbGUubWFlPic=

> <r_lp_tautomer_probability>
1

> <r_epik_Ionization_Penalty>
2.39516e-06

> <r_epik_Ionization_Penalty_Charging>
0

> <r_epik_Ionization_Penalty_Neutral>
2.39516e-06

> <r_epik_State_Penalty>
-0

> <r_epik_Charging_Adjusted_Penalty>
0

> <i_epik_Tot_Q>
0

> <i_epik_Tot_abs_Q>
0

> <r_epik_Metal_State_Penalty>
-0

> <b_epik_Metal_Only>
0

> <s_lp_Force_Field>
OPLS_2005

> <r_lp_Energy>
6.35742

> <b_lp_Chiralities_Consistent>
1

> <s_lp_Variant>
AV-unprocessed.smi:2575-1

> <Gold.Version>
5.8.1

> <Gold.Id.Protein>
6NUR|6NUR_protein|mol2

> <Gold.PLP.Fitness>
45.0039

> <Gold.PLP.PLP>
-40.9962

> <Gold.PLP.part.hbond>
-2.0000

> <Gold.PLP.part.metal>
0.0000

> <Gold.PLP.part.buried>
-6.1308

> <Gold.PLP.part.nonpolar>
-32.2337

> <Gold.PLP.part.repulsive>
0.1036

> <Gold.PLP.ligand.clash>
0.0000

> <Gold.PLP.ligand.torsion>
0.8632

> <Gold.PLP.Chemscore.Hbond>
1.9025

> <Gold.PLP.Chemscore.CHOScore>
0.0000

> <Gold.PLP.Chemscore.Metal>
0.0000

> <Gold.Chemscore.Hbonds>
donor molecule, donor type, donor heavy atom, donor atom, acceptor molecule, acceptor atom, score
      L1  H     6    27       P1  8028  1.00
      P1  H  7997  8008       L1     9  0.86

> <Gold.PLP.Chemscore.Internal.Correction>
0.0267

> <Gold.Rescore>
     Score         DG    S(hbond)    S(metal)    S(lipo)     H(rot)  DE(clash)    DE(int)     intcor
     16.03     -16.98       0.97        0.00     118.64       2.19       0.15       0.81       ----

> <Gold.Chemscore.Fitness>
16.0256

> <Gold.Chemscore.DG>
-16.9845

> <Gold.Chemscore.ZeroCoef>
-5.4800

> <Gold.Chemscore.Hbond>
0.9671

> <Gold.Chemscore.Metal>
0.0000

> <Gold.Chemscore.Lipo>
118.6405

> <Gold.Chemscore.Internal_Hbond>
0.0000

> <Gold.Chemscore.DEClash>
0.1537

> <Gold.Chemscore.DEInternal>
0.8052

> <Gold.Chemscore.Rot>
2.1901

> <Gold.Chemscore.Internal.Correction>
   9.000000E+99

> <Gold.Chemscore.Hbonds>
donor molecule, donor type, donor heavy atom, donor atom, acceptor molecule, acceptor atom, score
      L1  H     6    27       P1  8028  0.94
      P1  H  7997  8008       L1     9  0.04

> <Gold.Chemscore.Hbond.Weighted>
-3.2302

> <Gold.Chemscore.Metal.Weighted>
-0.0000

> <Gold.Chemscore.Lipo.Weighted>
-13.8809

> <Gold.Chemscore.Internal_Hbond.Weighted>
0.0000

> <Gold.Chemscore.DEClash.Weighted>
0.1537

> <Gold.Chemscore.DEInternal.Weighted>
0.8052

> <Gold.Chemscore.Rot.Weighted>
5.6066

> <Gold.Chemscore.Internal.Correction.Weighted>
   9.000000E+99

> <Gold.Protein.RotatedTorsions>
[ 6907 6896 6895 6894 ] final -103.84 input  -60.11 | X-H torsion
[ 7974 7965 7964 7962 ] final   51.94 input  175.53 | X-H torsion
[ 8008 7997 7996 7995 ] final  -76.29 input   59.86 | X-H torsion
[ 10167 10162 10161 10158 ] final  -26.74 input  -65.29 | X-H torsion
[ 10718 10713 10712 10709 ] final   41.10 input   66.30 | X-H torsion
[ 10763 10752 10751 10750 ] final  -45.76 input  -60.55 | X-H torsion
[ 11005 11000 10999 10996 ] final  -97.83 input  -57.11 | X-H torsion

> <Gold.Protein.ActiveResidues>
 VAL166  LYS551  ARG553  GLY616  TRP617  ASP618  TYR619  PRO620  LYS621  CYS622 
 ASP623  PHE694  ASN695  SER759  ASP760  ASP761  ALA762  ILE779  LEU786  VAL792 
 PHE793  MET794  SER795  GLU796  ALA797  LYS798  CYS799  TRP800  GLU811  SER814 

> <Gold.Protein.RotatedAtoms>
  150.7259  134.0369  159.3752 H   0  0  0  0  0  0  0  0  0  0  0  0  # atno 6907 bound_to 6896
  151.8341  135.0610  160.0449 H   0  0  0  0  0  0  0  0  0  0  0  0  # atno 6908 bound_to 6896
  152.2912  133.5527  159.5595 H   0  0  0  0  0  0  0  0  0  0  0  0  # atno 6909 bound_to 6896
  145.9863  139.4293  143.0101 H   0  0  0  0  0  0  0  0  0  0  0  0  # atno 7974 bound_to 7965
  154.5492  140.0729  156.8639 H   0  0  0  0  0  0  0  0  0  0  0  0  # atno 8008 bound_to 7997
  155.3027  140.3385  155.4229 H   0  0  0  0  0  0  0  0  0  0  0  0  # atno 8009 bound_to 7997
  156.1945  140.1698  156.8011 H   0  0  0  0  0  0  0  0  0  0  0  0  # atno 8010 bound_to 7997
  140.7281  143.4152  151.1040 H   0  0  0  0  0  0  0  0  0  0  0  0  # atno 10167 bound_to 10162
  157.3897  130.7799  149.7259 H   0  0  0  0  0  0  0  0  0  0  0  0  # atno 10718 bound_to 10713
  154.0339  135.6653  153.4783 H   0  0  0  0  0  0  0  0  0  0  0  0  # atno 10763 bound_to 10752
  153.0529  135.5073  154.7907 H   0  0  0  0  0  0  0  0  0  0  0  0  # atno 10764 bound_to 10752
  154.6861  135.3053  154.9511 H   0  0  0  0  0  0  0  0  0  0  0  0  # atno 10765 bound_to 10752
  141.1366  133.8200  157.0758 H   0  0  0  0  0  0  0  0  0  0  0  0  # atno 11005 bound_to 11000
  145.7695  140.9902  143.1157 LP  0  0  0  0  0  0  0  0  0  0  0  0  # atno 17320 bound_to 7965
  144.6876  139.9430  143.7475 LP  0  0  0  0  0  0  0  0  0  0  0  0  # atno 17321 bound_to 7965
  139.7791  143.8382  152.3134 LP  0  0  0  0  0  0  0  0  0  0  0  0  # atno 17342 bound_to 10162
  139.8327  144.7246  150.9430 LP  0  0  0  0  0  0  0  0  0  0  0  0  # atno 17343 bound_to 10162
  155.9795  130.4039  150.3582 LP  0  0  0  0  0  0  0  0  0  0  0  0  # atno 17370 bound_to 10713
  157.1697  131.0365  151.2801 LP  0  0  0  0  0  0  0  0  0  0  0  0  # atno 17371 bound_to 10713
  140.0482  134.9819  157.1088 LP  0  0  0  0  0  0  0  0  0  0  0  0  # atno 17394 bound_to 11000
  140.4030  134.2062  155.7163 LP  0  0  0  0  0  0  0  0  0  0  0  0  # atno 17395 bound_to 11000

$$$$
