AV-unprocessed.smi:1411|AV-procd|sdf|5739|dock4
  -GOLD-   22720 5373D 1   1.00000     0.00000
 Structure written by MMmdl.
 43 44  0  0  0  0  0  0  0  0  3 V2000
  146.0176  137.8135  155.0885 O   0  0  0  0  0  0  0  0  0  0  0  0
  146.9327  137.6744  154.2756 C   0  0  0  0  0  0  0  0  0  0  0  0
  147.5162  138.8807  153.5258 C   0  0  0  0  0  0  0  0  0  0  0  0
  148.7239  139.4339  154.1610 N   0  0  0  0  0  0  0  0  0  0  0  0
  149.8543  138.5945  154.2098 C   0  0  0  0  0  0  0  0  0  0  0  0
  151.0185  138.9915  154.7596 C   0  0  0  0  0  0  0  0  0  0  0  0
  152.1702  138.1170  154.7963 N   0  3  0  0  0  0  0  0  0  0  0  0
  152.0519  136.9705  154.3760 O   0  0  0  0  0  0  0  0  0  0  0  0
  153.2293  138.5457  155.2449 O   0  5  0  0  0  0  0  0  0  0  0  0
  151.0804  140.3308  155.3121 C   0  0  0  0  0  0  0  0  0  0  0  0
  150.0042  141.1405  155.2641 C   0  0  0  0  0  0  0  0  0  0  0  0
  148.7394  140.7075  154.6611 C   0  0  0  0  0  0  0  0  0  0  0  0
  147.7554  141.4453  154.6082 O   0  0  0  0  0  0  0  0  0  0  0  0
  147.4853  136.4859  153.9882 N   0  0  0  0  0  0  0  0  0  0  0  0
  147.0965  135.2010  154.5664 C   0  0  0  0  0  0  0  0  0  0  0  0
  148.2725  134.2102  154.4235 C   0  0  0  0  0  0  0  0  0  0  0  0
  147.9548  132.7416  154.7696 C   0  0  0  0  0  0  0  0  0  0  0  0
  147.7649  131.8227  153.5451 C   0  0  0  0  0  0  0  0  0  0  0  0
  146.4988  132.0479  152.6930 C   0  0  0  0  0  0  0  0  0  0  0  0
  146.4854  133.3655  151.8910 C   0  0  0  0  0  0  0  0  0  0  0  0
  145.6267  134.4968  152.4891 C   0  0  0  0  0  0  0  0  0  0  0  0
  145.7336  134.7230  154.0100 C   0  0  0  0  0  0  0  0  0  0  0  0
  147.7166  138.5854  152.4945 H   0  0  0  0  0  0  0  0  0  0  0  0
  146.7512  139.6557  153.4534 H   0  0  0  0  0  0  0  0  0  0  0  0
  149.7066  137.6202  153.7660 H   0  0  0  0  0  0  0  0  0  0  0  0
  151.9901  140.6948  155.7666 H   0  0  0  0  0  0  0  0  0  0  0  0
  150.0735  142.1349  155.6804 H   0  0  0  0  0  0  0  0  0  0  0  0
  148.2345  136.4671  153.3114 H   0  0  0  0  0  0  0  0  0  0  0  0
  146.9552  135.3485  155.6388 H   0  0  0  0  0  0  0  0  0  0  0  0
  148.7234  134.2738  153.4338 H   0  0  0  0  0  0  0  0  0  0  0  0
  149.0605  134.5508  155.0968 H   0  0  0  0  0  0  0  0  0  0  0  0
  148.8033  132.3475  155.3301 H   0  0  0  0  0  0  0  0  0  0  0  0
  147.1101  132.6653  155.4541 H   0  0  0  0  0  0  0  0  0  0  0  0
  148.6474  131.8814  152.9067 H   0  0  0  0  0  0  0  0  0  0  0  0
  147.7399  130.7938  153.9063 H   0  0  0  0  0  0  0  0  0  0  0  0
  146.4540  131.2288  151.9742 H   0  0  0  0  0  0  0  0  0  0  0  0
  145.5969  131.9384  153.2952 H   0  0  0  0  0  0  0  0  0  0  0  0
  147.5010  133.7102  151.7042 H   0  0  0  0  0  0  0  0  0  0  0  0
  146.0875  133.1553  150.8975 H   0  0  0  0  0  0  0  0  0  0  0  0
  145.8384  135.4261  151.9597 H   0  0  0  0  0  0  0  0  0  0  0  0
  144.5825  134.2716  152.2695 H   0  0  0  0  0  0  0  0  0  0  0  0
  145.4056  133.8317  154.5418 H   0  0  0  0  0  0  0  0  0  0  0  0
  144.9843  135.4696  154.2763 H   0  0  0  0  0  0  0  0  0  0  0  0
  1  2  2  0  0  0  0
  2  3  1  0  0  0  0
  2 14  1  0  0  0  0
  3  4  1  0  0  0  0
  3 23  1  0  0  0  0
  3 24  1  0  0  0  0
  4 12  1  0  0  0  0
  4  5  1  0  0  0  0
  5  6  2  0  0  0  0
  5 25  1  0  0  0  0
  6  7  1  0  0  0  0
  6 10  1  0  0  0  0
  7  8  2  0  0  0  0
  7  9  1  0  0  0  0
 10 11  2  0  0  0  0
 10 26  1  0  0  0  0
 11 12  1  0  0  0  0
 11 27  1  0  0  0  0
 12 13  2  0  0  0  0
 14 15  1  0  0  0  0
 14 28  1  0  0  0  0
 15 22  1  0  0  0  0
 15 16  1  0  0  0  0
 15 29  1  0  0  0  0
 16 17  1  0  0  0  0
 16 30  1  0  0  0  0
 16 31  1  0  0  0  0
 17 18  1  0  0  0  0
 17 32  1  0  0  0  0
 17 33  1  0  0  0  0
 18 19  1  0  0  0  0
 18 34  1  0  0  0  0
 18 35  1  0  0  0  0
 19 20  1  0  0  0  0
 19 36  1  0  0  0  0
 19 37  1  0  0  0  0
 20 21  1  0  0  0  0
 20 38  1  0  0  0  0
 20 39  1  0  0  0  0
 21 22  1  0  0  0  0
 21 40  1  0  0  0  0
 21 41  1  0  0  0  0
 22 42  1  0  0  0  0
 22 43  1  0  0  0  0
M  CHG  1   7   1
M  CHG  1   9  -1
M  END
> <s_m_source_file>
AV-unprocessed.smi

> <i_m_source_file_index>
1411

> <i_lp_mmshare_version>
43012

> <i_f3d_flags>
0

> <s_epik_input>
Tz1jMVtjSF1bY0hdYyhbTitdKD1PKVtPLV0pW2NIXW4xW0NIMl1DKD1PKVtOSF1bQ0hdMltDSDJdW0NIMl1bQ0gyXVtDSDJdW0NIMl1bQ0gyXVtDSDJdMg==

> <s_epik_cmdline>
J2VwaWtfcHl0aG9uJywgJy1waCcsICc3LjAnLCAnLXRuJywgJzgnLCAnLW1hJywgJzIwMCcsICctbWV0YWxfYmluZGluZycsICctaW1hZScsICc8aW5maWxlLm1hZT4nLCAnLW9tYWUnLCAnPG91dGZpbGUubWFlPic=

> <r_lp_tautomer_probability>
1

> <r_epik_Ionization_Penalty>
2.02954e-08

> <r_epik_Ionization_Penalty_Charging>
8.05481e-11

> <r_epik_Ionization_Penalty_Neutral>
2.02148e-08

> <r_epik_State_Penalty>
-0

> <r_epik_Charging_Adjusted_Penalty>
8.05481e-11

> <i_epik_Tot_Q>
0

> <i_epik_Tot_abs_Q>
2

> <r_epik_Metal_State_Penalty>
-0

> <b_epik_Metal_Only>
0

> <s_lp_Force_Field>
OPLS_2005

> <r_lp_Energy>
31.3753

> <b_lp_Chiralities_Consistent>
1

> <s_lp_Variant>
AV-unprocessed.smi:1411-1

> <Gold.Version>
5.8.1

> <Gold.Id.Protein>
6NUR|6NUR_protein|mol2

> <Gold.PLP.Fitness>
45.6705

> <Gold.PLP.PLP>
-35.2032

> <Gold.PLP.part.hbond>
-2.7868

> <Gold.PLP.part.metal>
0.0000

> <Gold.PLP.part.buried>
-1.0668

> <Gold.PLP.part.nonpolar>
-32.0039

> <Gold.PLP.part.repulsive>
0.3105

> <Gold.PLP.ligand.clash>
0.0000

> <Gold.PLP.ligand.torsion>
0.5900

> <Gold.PLP.Chemscore.Hbond>
2.8640

> <Gold.PLP.Chemscore.CHOScore>
1.0000

> <Gold.PLP.Chemscore.Metal>
0.0000

> <Gold.Chemscore.Hbonds>
donor molecule, donor type, donor heavy atom, donor atom, acceptor molecule, acceptor atom, score
      L1  H    14    28       P1  7948  1.00
      P1  H  7997  8010       L1     9  0.69
      P1  H 10752 10765       L1     8  1.00
      L1  C     5    25       P1  7948  1.00

> <Gold.PLP.Chemscore.Internal.Correction>
0.0553

> <Gold.Rescore>
     Score         DG    S(hbond)    S(metal)    S(lipo)     H(rot)  DE(clash)    DE(int)     intcor
     18.31     -18.88       2.82        0.00      67.82       1.54       0.07       0.50       ----

> <Gold.Chemscore.Fitness>
18.3093

> <Gold.Chemscore.DG>
-18.8799

> <Gold.Chemscore.ZeroCoef>
-5.4800

> <Gold.Chemscore.Hbond>
2.8162

> <Gold.Chemscore.Metal>
0.0000

> <Gold.Chemscore.Lipo>
67.8167

> <Gold.Chemscore.Internal_Hbond>
0.0000

> <Gold.Chemscore.DEClash>
0.0679

> <Gold.Chemscore.DEInternal>
0.5027

> <Gold.Chemscore.Rot>
1.5393

> <Gold.Chemscore.Internal.Correction>
   9.000000E+99

> <Gold.Chemscore.Hbonds>
donor molecule, donor type, donor heavy atom, donor atom, acceptor molecule, acceptor atom, score
      L1  H    14    28       P1  7948  0.99
      P1  H  7997  8010       L1     9  0.65
      P1  H 10752 10765       L1     8  0.93

> <Gold.Chemscore.Hbond.Weighted>
-9.4061

> <Gold.Chemscore.Metal.Weighted>
-0.0000

> <Gold.Chemscore.Lipo.Weighted>
-7.9346

> <Gold.Chemscore.Internal_Hbond.Weighted>
0.0000

> <Gold.Chemscore.DEClash.Weighted>
0.0679

> <Gold.Chemscore.DEInternal.Weighted>
0.5027

> <Gold.Chemscore.Rot.Weighted>
3.9407

> <Gold.Chemscore.Internal.Correction.Weighted>
   9.000000E+99

> <Gold.Protein.RotatedTorsions>
[ 6907 6896 6895 6894 ] final   -8.32 input  -60.11 | X-H torsion
[ 7974 7965 7964 7962 ] final -104.44 input  175.53 | X-H torsion
[ 8008 7997 7996 7995 ] final   88.57 input   59.86 | X-H torsion
[ 10167 10162 10161 10158 ] final -113.74 input  -65.29 | X-H torsion
[ 10718 10713 10712 10709 ] final   16.23 input   66.30 | X-H torsion
[ 10763 10752 10751 10750 ] final  160.27 input  -60.55 | X-H torsion
[ 11005 11000 10999 10996 ] final   84.10 input  -57.11 | X-H torsion

> <Gold.Protein.ActiveResidues>
 VAL166  LYS551  ARG553  GLY616  TRP617  ASP618  TYR619  PRO620  LYS621  CYS622 
 ASP623  PHE694  ASN695  SER759  ASP760  ASP761  ALA762  ILE779  LEU786  VAL792 
 PHE793  MET794  SER795  GLU796  ALA797  LYS798  CYS799  TRP800  GLU811  SER814 

> <Gold.Protein.RotatedAtoms>
  151.4355  135.1014  159.9654 H   0  0  0  0  0  0  0  0  0  0  0  0  # atno 6907 bound_to 6896
  152.4941  133.8577  159.7244 H   0  0  0  0  0  0  0  0  0  0  0  0  # atno 6908 bound_to 6896
  150.9124  133.6922  159.2879 H   0  0  0  0  0  0  0  0  0  0  0  0  # atno 6909 bound_to 6896
  145.2431  140.9212  143.3138 H   0  0  0  0  0  0  0  0  0  0  0  0  # atno 7974 bound_to 7965
  155.9894  140.3370  155.6738 H   0  0  0  0  0  0  0  0  0  0  0  0  # atno 8008 bound_to 7997
  155.6441  140.0698  157.2627 H   0  0  0  0  0  0  0  0  0  0  0  0  # atno 8009 bound_to 7997
  154.4215  140.1737  156.1592 H   0  0  0  0  0  0  0  0  0  0  0  0  # atno 8010 bound_to 7997
  140.1086  143.4548  152.1767 H   0  0  0  0  0  0  0  0  0  0  0  0  # atno 10167 bound_to 10162
  157.0648  130.6324  149.5793 H   0  0  0  0  0  0  0  0  0  0  0  0  # atno 10718 bound_to 10713
  154.2448  135.2773  155.2840 H   0  0  0  0  0  0  0  0  0  0  0  0  # atno 10763 bound_to 10752
  154.5515  135.5674  153.6929 H   0  0  0  0  0  0  0  0  0  0  0  0  # atno 10764 bound_to 10752
  152.9992  135.6275  154.2593 H   0  0  0  0  0  0  0  0  0  0  0  0  # atno 10765 bound_to 10752
  139.9010  134.8192  156.2400 H   0  0  0  0  0  0  0  0  0  0  0  0  # atno 11005 bound_to 11000
  144.9571  139.4020  143.6374 LP  0  0  0  0  0  0  0  0  0  0  0  0  # atno 17320 bound_to 7965
  146.3323  139.8606  142.8857 LP  0  0  0  0  0  0  0  0  0  0  0  0  # atno 17321 bound_to 7965
  139.5632  144.7419  151.4097 LP  0  0  0  0  0  0  0  0  0  0  0  0  # atno 17342 bound_to 10162
  140.6938  143.7797  150.7296 LP  0  0  0  0  0  0  0  0  0  0  0  0  # atno 17343 bound_to 10162
  155.9967  130.5037  150.7509 LP  0  0  0  0  0  0  0  0  0  0  0  0  # atno 17370 bound_to 10713
  157.4925  131.0912  151.0410 LP  0  0  0  0  0  0  0  0  0  0  0  0  # atno 17371 bound_to 10713
  141.0291  133.6998  156.1399 LP  0  0  0  0  0  0  0  0  0  0  0  0  # atno 17394 bound_to 11000
  140.7123  134.4449  157.5581 LP  0  0  0  0  0  0  0  0  0  0  0  0  # atno 17395 bound_to 11000

$$$$
