AV-unprocessed.smi:1929|AV-procd|sdf|7807|dock3
  -GOLD-   22720 9543D 1   1.00000     0.00000
 Structure written by MMmdl.
 43 44  0  0  0  0  0  0  0  0  4 V2000
  143.4299  136.7684  153.3234 C   0  0  0  0  0  0  0  0  0  0  0  0
  144.4100  137.5097  152.5389 N   0  5  0  0  0  0  0  0  0  0  0  0
  145.7496  137.2836  152.6034 C   0  0  0  0  0  0  0  0  0  0  0  0
  146.3969  136.4523  153.2487 O   0  0  0  0  0  0  0  0  0  0  0  0
  146.5204  138.2783  151.7272 C   0  0  0  0  0  0  0  0  0  0  0  0
  147.2141  139.2799  152.5752 N   0  3  2  0  0  0  0  0  0  0  0  0
  147.9490  138.6747  153.7192 C   0  0  0  0  0  0  0  0  0  0  0  0
  148.7558  139.7365  154.4838 C   0  0  0  0  0  0  0  0  0  0  0  0
  147.8512  140.8796  154.9705 C   0  0  1  0  0  0  0  0  0  0  0  0
  148.6604  141.9102  155.6152 N   0  0  0  0  0  0  0  0  0  0  0  0
  149.5423  141.6959  156.6023 C   0  0  0  0  0  0  0  0  0  0  0  0
  149.7579  140.5873  157.0914 O   0  0  0  0  0  0  0  0  0  0  0  0
  150.1288  142.8419  156.9899 N   0  0  0  0  0  0  0  0  0  0  0  0
  151.1322  143.0287  157.9795 C   0  0  0  0  0  0  0  0  0  0  0  0
  151.7638  144.2908  158.0430 C   0  0  0  0  0  0  0  0  0  0  0  0
  152.7764  144.5144  158.9983 C   0  0  0  0  0  0  0  0  0  0  0  0
  153.1421  143.5205  159.8359 N   0  3  0  0  0  0  0  0  0  0  0  0
  152.5787  142.2937  159.8030 C   0  0  0  0  0  0  0  0  0  0  0  0
  151.5604  142.0112  158.8697 C   0  0  0  0  0  0  0  0  0  0  0  0
  147.0712  141.4621  153.7780 C   0  0  0  0  0  0  0  0  0  0  0  0
  146.3028  140.3627  153.0252 C   0  0  0  0  0  0  0  0  0  0  0  0
  142.4138  137.1139  153.1336 H   0  0  0  0  0  0  0  0  0  0  0  0
  143.5943  136.8701  154.3965 H   0  0  0  0  0  0  0  0  0  0  0  0
  143.4403  135.7007  153.1021 H   0  0  0  0  0  0  0  0  0  0  0  0
  147.2523  137.6996  151.1621 H   0  0  0  0  0  0  0  0  0  0  0  0
  145.8864  138.7757  150.9896 H   0  0  0  0  0  0  0  0  0  0  0  0
  147.2414  138.1845  154.3896 H   0  0  0  0  0  0  0  0  0  0  0  0
  148.6329  137.9025  153.3663 H   0  0  0  0  0  0  0  0  0  0  0  0
  149.2626  139.2723  155.3308 H   0  0  0  0  0  0  0  0  0  0  0  0
  149.5380  140.1311  153.8334 H   0  0  0  0  0  0  0  0  0  0  0  0
  147.1427  140.4700  155.6934 H   0  0  0  0  0  0  0  0  0  0  0  0
  148.5422  142.8550  155.2793 H   0  0  0  0  0  0  0  0  0  0  0  0
  149.7795  143.6868  156.5617 H   0  0  0  0  0  0  0  0  0  0  0  0
  151.4732  145.0858  157.3715 H   0  0  0  0  0  0  0  0  0  0  0  0
  153.3022  145.4508  159.1151 H   0  0  0  0  0  0  0  0  0  0  0  0
  152.9603  141.5769  160.5152 H   0  0  0  0  0  0  0  0  0  0  0  0
  151.1381  141.0181  158.8465 H   0  0  0  0  0  0  0  0  0  0  0  0
  146.3727  142.2265  154.1207 H   0  0  0  0  0  0  0  0  0  0  0  0
  147.7588  141.9573  153.0907 H   0  0  0  0  0  0  0  0  0  0  0  0
  145.8018  140.8047  152.1632 H   0  0  0  0  0  0  0  0  0  0  0  0
  145.5243  139.9418  153.6635 H   0  0  0  0  0  0  0  0  0  0  0  0
  147.9034  139.7141  151.9779 H   0  0  0  0  0  0  0  0  0  0  0  0
  153.8783  143.7022  160.5188 H   0  0  0  0  0  0  0  0  0  0  0  0
  1  2  1  0  0  0  0
  1 22  1  0  0  0  0
  1 23  1  0  0  0  0
  1 24  1  0  0  0  0
  2  3  1  0  0  0  0
  3  4  2  0  0  0  0
  3  5  1  0  0  0  0
  5  6  1  0  0  0  0
  5 25  1  0  0  0  0
  5 26  1  0  0  0  0
  6 21  1  0  0  0  0
  6  7  1  0  0  0  0
  6 42  1  0  0  0  0
  7  8  1  0  0  0  0
  7 27  1  0  0  0  0
  7 28  1  0  0  0  0
  8  9  1  0  0  0  0
  8 29  1  0  0  0  0
  8 30  1  0  0  0  0
  9 10  1  0  0  0  0
  9 20  1  0  0  0  0
  9 31  1  0  0  0  0
 10 11  1  0  0  0  0
 10 32  1  0  0  0  0
 11 12  2  0  0  0  0
 11 13  1  0  0  0  0
 13 14  1  0  0  0  0
 13 33  1  0  0  0  0
 14 19  1  0  0  0  0
 14 15  2  0  0  0  0
 15 16  1  0  0  0  0
 15 34  1  0  0  0  0
 16 17  2  0  0  0  0
 16 35  1  0  0  0  0
 17 18  1  0  0  0  0
 17 43  1  0  0  0  0
 18 19  2  0  0  0  0
 18 36  1  0  0  0  0
 19 37  1  0  0  0  0
 20 21  1  0  0  0  0
 20 38  1  0  0  0  0
 20 39  1  0  0  0  0
 21 40  1  0  0  0  0
 21 41  1  0  0  0  0
M  CHG  1   2  -1
M  CHG  1   6   1
M  CHG  1  17   1
M  END
> <s_m_source_file>
AV-unprocessed.smi

> <i_m_source_file_index>
1929

> <i_lp_mmshare_version>
43012

> <i_f3d_flags>
0

> <s_epik_input>
W0NIM11bTkhdQyg9TylbQ0gyXU4xW0NIMl1bQ0gyXVtDSF0oW0NIMl1bQ0gyXTEpW05IXUMoPU8pW05IXWMyW2NIXVtjSF1uW2NIXVtjSF0y

> <s_epik_cmdline>
J2VwaWtfcHl0aG9uJywgJy1waCcsICc3LjAnLCAnLXRuJywgJzgnLCAnLW1hJywgJzIwMCcsICctbWV0YWxfYmluZGluZycsICctaW1hZScsICc8aW5maWxlLm1hZT4nLCAnLW9tYWUnLCAnPG91dGZpbGUubWFlPic=

> <r_epik_Ionization_Penalty>
7.25133

> <r_epik_Ionization_Penalty_Charging>
7.25131

> <r_epik_Ionization_Penalty_Neutral>
1.84563e-05

> <r_epik_State_Penalty>
8.093

> <r_epik_Charging_Adjusted_Penalty>
15.3443

> <i_epik_Tot_Q>
1

> <i_epik_Tot_abs_Q>
3

> <r_epik_Metal_State_Penalty>
4.12368

> <b_epik_Metal_Only>
1

> <s_lp_Force_Field>
OPLS_2005

> <r_lp_Energy>
21.0398

> <b_lp_Chiralities_Consistent>
1

> <s_lp_Variant>
AV-unprocessed.smi:1929-9

> <Gold.Version>
5.8.1

> <Gold.Id.Protein>
6NUR|6NUR_protein|mol2

> <Gold.PLP.Fitness>
40.9327

> <Gold.PLP.PLP>
-32.7689

> <Gold.PLP.part.hbond>
-3.0000

> <Gold.PLP.part.metal>
0.0000

> <Gold.PLP.part.buried>
-1.8842

> <Gold.PLP.part.nonpolar>
-32.1983

> <Gold.PLP.part.repulsive>
3.5935

> <Gold.PLP.ligand.clash>
0.0000

> <Gold.PLP.ligand.torsion>
0.3589

> <Gold.PLP.Chemscore.Hbond>
2.9280

> <Gold.PLP.Chemscore.CHOScore>
0.0000

> <Gold.PLP.Chemscore.Metal>
0.0000

> <Gold.Chemscore.Hbonds>
donor molecule, donor type, donor heavy atom, donor atom, acceptor molecule, acceptor atom, score
      L1  H     6    42       P1  7957  1.00
      L1  H    10    32       P1  8028  0.91
      L1  H    13    33       P1  8028  1.00

> <Gold.PLP.Chemscore.Internal.Correction>
0.0976

> <Gold.Rescore>
     Score         DG    S(hbond)    S(metal)    S(lipo)     H(rot)  DE(clash)    DE(int)     intcor
     15.75     -22.48       2.84        0.00     100.43       1.66       2.53       4.21       ----

> <Gold.Chemscore.Fitness>
15.7486

> <Gold.Chemscore.DG>
-22.4850

> <Gold.Chemscore.ZeroCoef>
-5.4800

> <Gold.Chemscore.Hbond>
2.8436

> <Gold.Chemscore.Metal>
0.0000

> <Gold.Chemscore.Lipo>
100.4300

> <Gold.Chemscore.Internal_Hbond>
0.0000

> <Gold.Chemscore.DEClash>
2.5254

> <Gold.Chemscore.DEInternal>
4.2109

> <Gold.Chemscore.Rot>
1.6574

> <Gold.Chemscore.Internal.Correction>
   9.000000E+99

> <Gold.Chemscore.Hbonds>
donor molecule, donor type, donor heavy atom, donor atom, acceptor molecule, acceptor atom, score
      L1  H     6    42       P1  7957  0.99
      L1  H    10    32       P1  8028  0.89
      L1  H    13    33       P1  8028  0.99

> <Gold.Chemscore.Hbond.Weighted>
-9.4977

> <Gold.Chemscore.Metal.Weighted>
-0.0000

> <Gold.Chemscore.Lipo.Weighted>
-11.7503

> <Gold.Chemscore.Internal_Hbond.Weighted>
0.0000

> <Gold.Chemscore.DEClash.Weighted>
2.5254

> <Gold.Chemscore.DEInternal.Weighted>
4.2109

> <Gold.Chemscore.Rot.Weighted>
4.2430

> <Gold.Chemscore.Internal.Correction.Weighted>
   9.000000E+99

> <Gold.Protein.RotatedTorsions>
[ 6907 6896 6895 6894 ] final   11.02 input  -60.11 | X-H torsion
[ 7974 7965 7964 7962 ] final    8.12 input  175.53 | X-H torsion
[ 8008 7997 7996 7995 ] final   72.94 input   59.86 | X-H torsion
[ 10167 10162 10161 10158 ] final  120.04 input  -65.29 | X-H torsion
[ 10718 10713 10712 10709 ] final  114.61 input   66.30 | X-H torsion
[ 10763 10752 10751 10750 ] final  -34.18 input  -60.55 | X-H torsion
[ 11005 11000 10999 10996 ] final  -50.73 input  -57.11 | X-H torsion

> <Gold.Protein.ActiveResidues>
 VAL166  LYS551  ARG553  GLY616  TRP617  ASP618  TYR619  PRO620  LYS621  CYS622 
 ASP623  PHE694  ASN695  SER759  ASP760  ASP761  ALA762  ILE779  LEU786  VAL792 
 PHE793  MET794  SER795  GLU796  ALA797  LYS798  CYS799  TRP800  GLU811  SER814 

> <Gold.Protein.RotatedAtoms>
  151.7476  135.0840  160.0325 H   0  0  0  0  0  0  0  0  0  0  0  0  # atno 6907 bound_to 6896
  152.3438  133.6094  159.5904 H   0  0  0  0  0  0  0  0  0  0  0  0  # atno 6908 bound_to 6896
  150.7496  133.9597  159.3553 H   0  0  0  0  0  0  0  0  0  0  0  0  # atno 6909 bound_to 6896
  146.2419  139.9980  142.8419 H   0  0  0  0  0  0  0  0  0  0  0  0  # atno 7974 bound_to 7965
  155.7762  140.3483  155.5273 H   0  0  0  0  0  0  0  0  0  0  0  0  # atno 8008 bound_to 7997
  155.8773  140.0996  157.1530 H   0  0  0  0  0  0  0  0  0  0  0  0  # atno 8009 bound_to 7997
  154.4022  140.1329  156.4140 H   0  0  0  0  0  0  0  0  0  0  0  0  # atno 8010 bound_to 7997
  139.6007  144.7056  151.3069 H   0  0  0  0  0  0  0  0  0  0  0  0  # atno 10167 bound_to 10162
  157.6271  131.1001  150.7210 H   0  0  0  0  0  0  0  0  0  0  0  0  # atno 10718 bound_to 10713
  153.8425  135.6856  153.4801 H   0  0  0  0  0  0  0  0  0  0  0  0  # atno 10763 bound_to 10752
  153.1445  135.4643  154.9543 H   0  0  0  0  0  0  0  0  0  0  0  0  # atno 10764 bound_to 10752
  154.7838  135.3278  154.7877 H   0  0  0  0  0  0  0  0  0  0  0  0  # atno 10765 bound_to 10752
  141.0832  133.6648  156.3773 H   0  0  0  0  0  0  0  0  0  0  0  0  # atno 11005 bound_to 11000
  145.1441  140.9588  143.4471 LP  0  0  0  0  0  0  0  0  0  0  0  0  # atno 17320 bound_to 7965
  145.0267  139.3376  143.6045 LP  0  0  0  0  0  0  0  0  0  0  0  0  # atno 17321 bound_to 7965
  140.7247  143.7036  150.7825 LP  0  0  0  0  0  0  0  0  0  0  0  0  # atno 17342 bound_to 10162
  140.0612  143.5153  152.2626 LP  0  0  0  0  0  0  0  0  0  0  0  0  # atno 17343 bound_to 10162
  156.7556  130.4782  149.5447 LP  0  0  0  0  0  0  0  0  0  0  0  0  # atno 17370 bound_to 10713
  156.1450  130.6271  151.0519 LP  0  0  0  0  0  0  0  0  0  0  0  0  # atno 17371 bound_to 10713
  140.5422  134.6109  157.5383 LP  0  0  0  0  0  0  0  0  0  0  0  0  # atno 17394 bound_to 11000
  139.9647  134.7392  156.0162 LP  0  0  0  0  0  0  0  0  0  0  0  0  # atno 17395 bound_to 11000

$$$$
