AV-unprocessed.smi:1812|AV-procd|sdf|7337|dock10
  -GOLD-   22720 8593D 1   1.00000     0.00000
 Structure written by MMmdl.
 34 36  0  0  0  0  0  0  0  0  1 V2000
  145.4411  138.3470  153.0674 O   0  0  0  0  0  0  0  0  0  0  0  0
  146.3333  137.6461  152.5887 C   0  0  0  0  0  0  0  0  0  0  0  0
  146.0972  136.5925  151.7941 N   0  0  0  0  0  0  0  0  0  0  0  0
  144.7740  136.1330  151.3875 C   0  0  0  0  0  0  0  0  0  0  0  0
  144.8575  134.8711  150.5138 C   0  0  1  0  0  0  0  0  0  0  0  0
  145.9203  133.8767  150.9683 C   0  0  0  0  0  0  0  0  0  0  0  0
  145.4506  132.5824  150.3321 C   0  0  0  0  0  0  0  0  0  0  0  0
  143.9384  132.7784  150.1814 C   0  0  0  0  0  0  0  0  0  0  0  0
  143.6662  134.1061  150.6177 O   0  0  0  0  0  0  0  0  0  0  0  0
  147.6517  137.8230  152.7853 N   0  0  0  0  0  0  0  0  0  0  0  0
  148.3010  138.8442  153.5286 C   0  0  0  0  0  0  0  0  0  0  0  0
  147.6557  139.8564  154.1243 N   0  0  0  0  0  0  0  0  0  0  0  0
  148.5293  140.7160  154.7751 N   0  0  0  0  0  0  0  0  0  0  0  0
  149.8056  140.3320  154.6535 C   0  0  0  0  0  0  0  0  0  0  0  0
  150.9292  141.1015  155.2648 C   0  0  0  0  0  0  0  0  0  0  0  0
  151.0922  141.1684  156.7660 C   0  0  0  0  0  0  0  0  0  0  0  0
  150.6938  142.4032  155.9991 C   0  0  0  0  0  0  0  0  0  0  0  0
  150.0457  138.8580  153.7205 S   0  0  0  0  0  0  0  0  0  0  0  0
  146.8863  136.0666  151.4484 H   0  0  0  0  0  0  0  0  0  0  0  0
  144.1624  135.9401  152.2703 H   0  0  0  0  0  0  0  0  0  0  0  0
  144.2815  136.9373  150.8408 H   0  0  0  0  0  0  0  0  0  0  0  0
  145.0249  135.1314  149.4668 H   0  0  0  0  0  0  0  0  0  0  0  0
  146.9274  134.1613  150.6623 H   0  0  0  0  0  0  0  0  0  0  0  0
  145.9087  133.7800  152.0550 H   0  0  0  0  0  0  0  0  0  0  0  0
  145.9096  132.4539  149.3512 H   0  0  0  0  0  0  0  0  0  0  0  0
  145.7023  131.7115  150.9380 H   0  0  0  0  0  0  0  0  0  0  0  0
  143.6349  132.6615  149.1405 H   0  0  0  0  0  0  0  0  0  0  0  0
  143.3712  132.0665  150.7817 H   0  0  0  0  0  0  0  0  0  0  0  0
  148.2644  137.1582  152.3368 H   0  0  0  0  0  0  0  0  0  0  0  0
  151.8283  141.0154  154.6581 H   0  0  0  0  0  0  0  0  0  0  0  0
  150.3299  140.6917  157.3793 H   0  0  0  0  0  0  0  0  0  0  0  0
  152.1040  141.1280  157.1639 H   0  0  0  0  0  0  0  0  0  0  0  0
  151.4412  143.1854  155.8833 H   0  0  0  0  0  0  0  0  0  0  0  0
  149.6702  142.7519  156.1170 H   0  0  0  0  0  0  0  0  0  0  0  0
  1  2  2  0  0  0  0
  2  3  1  0  0  0  0
  2 10  1  0  0  0  0
  3  4  1  0  0  0  0
  3 19  1  0  0  0  0
  4  5  1  0  0  0  0
  4 20  1  0  0  0  0
  4 21  1  0  0  0  0
  5  9  1  0  0  0  0
  5  6  1  0  0  0  0
  5 22  1  0  0  0  0
  6  7  1  0  0  0  0
  6 23  1  0  0  0  0
  6 24  1  0  0  0  0
  7  8  1  0  0  0  0
  7 25  1  0  0  0  0
  7 26  1  0  0  0  0
  8  9  1  0  0  0  0
  8 27  1  0  0  0  0
  8 28  1  0  0  0  0
 10 11  1  0  0  0  0
 10 29  1  0  0  0  0
 11 18  1  0  0  0  0
 11 12  2  0  0  0  0
 12 13  1  0  0  0  0
 13 14  2  0  0  0  0
 14 15  1  0  0  0  0
 14 18  1  0  0  0  0
 15 17  1  0  0  0  0
 15 16  1  0  0  0  0
 15 30  1  0  0  0  0
 16 17  1  0  0  0  0
 16 31  1  0  0  0  0
 16 32  1  0  0  0  0
 17 33  1  0  0  0  0
 17 34  1  0  0  0  0
M  END
> <s_m_source_file>
AV-unprocessed.smi

> <i_m_source_file_index>
1812

> <i_lp_mmshare_version>
43012

> <i_f3d_flags>
0

> <s_epik_input>
TzFbQ0gyXVtDSDJdW0NIMl1bQ0BIXTFbQ0gyXVtOSF1DKD1PKVtOSF1jMm5uYyhzMilbQ0hdM1tDSDJdW0NIMl0z

> <s_epik_cmdline>
J2VwaWtfcHl0aG9uJywgJy1waCcsICc3LjAnLCAnLXRuJywgJzgnLCAnLW1hJywgJzIwMCcsICctbWV0YWxfYmluZGluZycsICctaW1hZScsICc8aW5maWxlLm1hZT4nLCAnLW9tYWUnLCAnPG91dGZpbGUubWFlPic=

> <r_lp_tautomer_probability>
1

> <r_epik_Ionization_Penalty>
0.000281817

> <r_epik_Ionization_Penalty_Charging>
0

> <r_epik_Ionization_Penalty_Neutral>
0.000281817

> <r_epik_State_Penalty>
-0

> <r_epik_Charging_Adjusted_Penalty>
0

> <i_epik_Tot_Q>
0

> <i_epik_Tot_abs_Q>
0

> <r_epik_Metal_State_Penalty>
0.157535

> <b_epik_Metal_Only>
0

> <s_lp_Force_Field>
OPLS_2005

> <r_lp_Energy>
14.4176

> <b_lp_Chiralities_Consistent>
1

> <s_lp_Variant>
AV-unprocessed.smi:1812-2

> <Gold.Version>
5.8.1

> <Gold.Id.Protein>
6NUR|6NUR_protein|mol2

> <Gold.PLP.Fitness>
35.1933

> <Gold.PLP.PLP>
-29.9248

> <Gold.PLP.part.hbond>
-2.0000

> <Gold.PLP.part.metal>
0.0000

> <Gold.PLP.part.buried>
-5.6453

> <Gold.PLP.part.nonpolar>
-24.1315

> <Gold.PLP.part.repulsive>
0.5365

> <Gold.PLP.ligand.clash>
0.0000

> <Gold.PLP.ligand.torsion>
0.3267

> <Gold.PLP.Chemscore.Hbond>
1.9280

> <Gold.PLP.Chemscore.CHOScore>
0.0000

> <Gold.PLP.Chemscore.Metal>
0.0000

> <Gold.Chemscore.Hbonds>
donor molecule, donor type, donor heavy atom, donor atom, acceptor molecule, acceptor atom, score
      L1  H     3    19       P1  7948  0.59
      L1  H    10    29       P1  7948  0.26

> <Gold.PLP.Chemscore.Internal.Correction>
0.1378

> <Gold.Rescore>
     Score         DG    S(hbond)    S(metal)    S(lipo)     H(rot)  DE(clash)    DE(int)     intcor
     14.66     -16.30       1.94        0.00      69.32       1.47       0.10       1.54       ----

> <Gold.Chemscore.Fitness>
14.6589

> <Gold.Chemscore.DG>
-16.2987

> <Gold.Chemscore.ZeroCoef>
-5.4800

> <Gold.Chemscore.Hbond>
1.9395

> <Gold.Chemscore.Metal>
0.0000

> <Gold.Chemscore.Lipo>
69.3201

> <Gold.Chemscore.Internal_Hbond>
0.0000

> <Gold.Chemscore.DEClash>
0.1046

> <Gold.Chemscore.DEInternal>
1.5352

> <Gold.Chemscore.Rot>
1.4725

> <Gold.Chemscore.Internal.Correction>
   9.000000E+99

> <Gold.Chemscore.Hbonds>
donor molecule, donor type, donor heavy atom, donor atom, acceptor molecule, acceptor atom, score
      L1  H     3    19       P1  7948  0.55
      L1  H    10    29       P1  7948  0.27

> <Gold.Chemscore.Hbond.Weighted>
-6.4778

> <Gold.Chemscore.Metal.Weighted>
-0.0000

> <Gold.Chemscore.Lipo.Weighted>
-8.1104

> <Gold.Chemscore.Internal_Hbond.Weighted>
0.0000

> <Gold.Chemscore.DEClash.Weighted>
0.1046

> <Gold.Chemscore.DEInternal.Weighted>
1.5352

> <Gold.Chemscore.Rot.Weighted>
3.7695

> <Gold.Chemscore.Internal.Correction.Weighted>
   9.000000E+99

> <Gold.Protein.RotatedTorsions>
[ 6907 6896 6895 6894 ] final  -53.25 input  -60.11 | X-H torsion
[ 7974 7965 7964 7962 ] final  130.71 input  175.53 | X-H torsion
[ 8008 7997 7996 7995 ] final  151.87 input   59.86 | X-H torsion
[ 10167 10162 10161 10158 ] final   54.63 input  -65.29 | X-H torsion
[ 10718 10713 10712 10709 ] final   -9.94 input   66.30 | X-H torsion
[ 10763 10752 10751 10750 ] final   74.35 input  -60.55 | X-H torsion
[ 11005 11000 10999 10996 ] final  -90.36 input  -57.11 | X-H torsion

> <Gold.Protein.ActiveResidues>
 VAL166  LYS551  ARG553  GLY616  TRP617  ASP618  TYR619  PRO620  LYS621  CYS622 
 ASP623  PHE694  ASN695  SER759  ASP760  ASP761  ALA762  ILE779  LEU786  VAL792 
 PHE793  MET794  SER795  GLU796  ALA797  LYS798  CYS799  TRP800  GLU811  SER814 

> <Gold.Protein.RotatedAtoms>
  150.8444  134.7747  159.6957 H   0  0  0  0  0  0  0  0  0  0  0  0  # atno 6907 bound_to 6896
  152.4524  134.5362  159.9835 H   0  0  0  0  0  0  0  0  0  0  0  0  # atno 6908 bound_to 6896
  151.5495  133.3382  159.2986 H   0  0  0  0  0  0  0  0  0  0  0  0  # atno 6909 bound_to 6896
  145.0151  139.4184  143.5225 H   0  0  0  0  0  0  0  0  0  0  0  0  # atno 7974 bound_to 7965
  156.2655  140.2036  156.6244 H   0  0  0  0  0  0  0  0  0  0  0  0  # atno 8008 bound_to 7997
  154.6732  140.0548  157.0212 H   0  0  0  0  0  0  0  0  0  0  0  0  # atno 8009 bound_to 7997
  155.1107  140.3215  155.4525 H   0  0  0  0  0  0  0  0  0  0  0  0  # atno 8010 bound_to 7997
  140.2280  144.3717  150.6425 H   0  0  0  0  0  0  0  0  0  0  0  0  # atno 10167 bound_to 10162
  156.6807  130.5036  149.5972 H   0  0  0  0  0  0  0  0  0  0  0  0  # atno 10718 bound_to 10713
  153.0581  135.5029  154.8029 H   0  0  0  0  0  0  0  0  0  0  0  0  # atno 10763 bound_to 10752
  154.6839  135.2973  154.9576 H   0  0  0  0  0  0  0  0  0  0  0  0  # atno 10764 bound_to 10752
  154.0353  135.6724  153.4837 H   0  0  0  0  0  0  0  0  0  0  0  0  # atno 10765 bound_to 10752
  141.1567  133.7687  156.9727 H   0  0  0  0  0  0  0  0  0  0  0  0  # atno 11005 bound_to 11000
  146.3476  139.9616  142.8716 LP  0  0  0  0  0  0  0  0  0  0  0  0  # atno 17320 bound_to 7965
  145.1971  140.9838  143.4177 LP  0  0  0  0  0  0  0  0  0  0  0  0  # atno 17321 bound_to 7965
  140.6206  143.2176  151.6702 LP  0  0  0  0  0  0  0  0  0  0  0  0  # atno 17342 bound_to 10162
  139.5120  144.3491  152.0669 LP  0  0  0  0  0  0  0  0  0  0  0  0  # atno 17343 bound_to 10162
  156.1870  130.6535  151.1017 LP  0  0  0  0  0  0  0  0  0  0  0  0  # atno 17370 bound_to 10713
  157.7045  131.0762  150.6713 LP  0  0  0  0  0  0  0  0  0  0  0  0  # atno 17371 bound_to 10713
  140.1119  134.9472  157.2077 LP  0  0  0  0  0  0  0  0  0  0  0  0  # atno 17394 bound_to 11000
  140.3183  134.2945  155.7251 LP  0  0  0  0  0  0  0  0  0  0  0  0  # atno 17395 bound_to 11000

$$$$
