AV-unprocessed.smi:2062|AV-procd|sdf|8404|dock6
  -GOLD-   2272011 93D 1   1.00000     0.00000
 Structure written by MMmdl.
 42 43  0  0  0  0  0  0  0  0  3 V2000
  146.4271  132.5261  149.8953 C   0  0  0  0  0  0  0  0  0  0  0  0
  146.3165  132.2256  151.3995 C   0  0  0  0  0  0  0  0  0  0  0  0
  144.9150  131.6958  151.7375 C   0  0  0  0  0  0  0  0  0  0  0  0
  146.6490  133.4640  152.2593 C   0  0  0  0  0  0  0  0  0  0  0  0
  146.7750  133.1469  153.7080 N   0  3  1  0  0  0  0  0  0  0  0  0
  147.1554  131.7389  153.9773 C   0  0  0  0  0  0  0  0  0  0  0  0
  148.6604  131.5168  153.7476 C   0  0  0  0  0  0  0  0  0  0  0  0
  149.3960  132.4147  154.5678 O   0  0  0  0  0  0  0  0  0  0  0  0
  149.1430  133.7798  154.2479 C   0  0  2  0  0  0  0  0  0  0  0  0
  150.0380  134.6569  155.1330 C   0  0  0  0  0  0  0  0  0  0  0  0
  150.0599  136.0263  154.6382 N   0  0  0  0  0  0  0  0  0  0  0  0
  150.7752  137.0261  155.1675 C   0  0  0  0  0  0  0  0  0  0  0  0
  151.4835  136.8177  156.1551 O   0  0  0  0  0  0  0  0  0  0  0  0
  150.6230  138.2025  154.5190 N   0  5  0  0  0  0  0  0  0  0  0  0
  150.5041  139.3441  155.2164 C   0  0  0  0  0  0  0  0  0  0  0  0
  150.1005  140.4954  154.6669 N   0  0  0  0  0  0  0  0  0  0  0  0
  150.0417  141.5537  155.5755 C   0  0  0  0  0  0  0  0  0  0  0  0
  150.3997  141.1977  156.8488 C   0  0  0  0  0  0  0  0  0  0  0  0
  150.8246  139.5124  156.9450 S   0  0  0  0  0  0  0  0  0  0  0  0
  147.6438  134.0755  154.4768 C   0  0  0  0  0  0  0  0  0  0  0  0
  145.7399  133.3187  149.5974 H   0  0  0  0  0  0  0  0  0  0  0  0
  146.1906  131.6428  149.3012 H   0  0  0  0  0  0  0  0  0  0  0  0
  147.4351  132.8387  149.6221 H   0  0  0  0  0  0  0  0  0  0  0  0
  147.0186  131.4260  151.6337 H   0  0  0  0  0  0  0  0  0  0  0  0
  144.1466  132.4401  151.5249 H   0  0  0  0  0  0  0  0  0  0  0  0
  144.8380  131.4301  152.7922 H   0  0  0  0  0  0  0  0  0  0  0  0
  144.6815  130.8022  151.1577 H   0  0  0  0  0  0  0  0  0  0  0  0
  147.5880  133.8840  151.8962 H   0  0  0  0  0  0  0  0  0  0  0  0
  145.9000  134.2418  152.1111 H   0  0  0  0  0  0  0  0  0  0  0  0
  146.9140  131.5117  155.0165 H   0  0  0  0  0  0  0  0  0  0  0  0
  146.5625  131.0541  153.3701 H   0  0  0  0  0  0  0  0  0  0  0  0
  148.9329  130.4956  154.0143 H   0  0  0  0  0  0  0  0  0  0  0  0
  148.9283  131.6528  152.6987 H   0  0  0  0  0  0  0  0  0  0  0  0
  149.4061  133.9626  153.2049 H   0  0  0  0  0  0  0  0  0  0  0  0
  149.6619  134.6563  156.1573 H   0  0  0  0  0  0  0  0  0  0  0  0
  151.0541  134.2602  155.1604 H   0  0  0  0  0  0  0  0  0  0  0  0
  149.4972  136.2342  153.8264 H   0  0  0  0  0  0  0  0  0  0  0  0
  149.7323  142.5284  155.2285 H   0  0  0  0  0  0  0  0  0  0  0  0
  150.4385  141.8188  157.7307 H   0  0  0  0  0  0  0  0  0  0  0  0
  147.4164  135.1136  154.2375 H   0  0  0  0  0  0  0  0  0  0  0  0
  147.4106  133.9523  155.5354 H   0  0  0  0  0  0  0  0  0  0  0  0
  145.8413  133.2526  154.0788 H   0  0  0  0  0  0  0  0  0  0  0  0
  1  2  1  0  0  0  0
  1 21  1  0  0  0  0
  1 22  1  0  0  0  0
  1 23  1  0  0  0  0
  2  3  1  0  0  0  0
  2  4  1  0  0  0  0
  2 24  1  0  0  0  0
  3 25  1  0  0  0  0
  3 26  1  0  0  0  0
  3 27  1  0  0  0  0
  4  5  1  0  0  0  0
  4 28  1  0  0  0  0
  4 29  1  0  0  0  0
  5 20  1  0  0  0  0
  5  6  1  0  0  0  0
  5 42  1  0  0  0  0
  6  7  1  0  0  0  0
  6 30  1  0  0  0  0
  6 31  1  0  0  0  0
  7  8  1  0  0  0  0
  7 32  1  0  0  0  0
  7 33  1  0  0  0  0
  8  9  1  0  0  0  0
  9 10  1  0  0  0  0
  9 20  1  0  0  0  0
  9 34  1  0  0  0  0
 10 11  1  0  0  0  0
 10 35  1  0  0  0  0
 10 36  1  0  0  0  0
 11 12  1  0  0  0  0
 11 37  1  0  0  0  0
 12 13  2  0  0  0  0
 12 14  1  0  0  0  0
 14 15  1  0  0  0  0
 15 19  1  0  0  0  0
 15 16  2  0  0  0  0
 16 17  1  0  0  0  0
 17 18  2  0  0  0  0
 17 38  1  0  0  0  0
 18 19  1  0  0  0  0
 18 39  1  0  0  0  0
 20 40  1  0  0  0  0
 20 41  1  0  0  0  0
M  CHG  1   5   1
M  CHG  1  14  -1
M  END
> <s_m_source_file>
AV-unprocessed.smi

> <i_m_source_file_index>
2062

> <i_lp_mmshare_version>
43012

> <i_f3d_flags>
0

> <s_epik_input>
W0NIM11bQ0hdKFtDSDNdKVtDSDJdTjFbQ0gyXVtDSDJdT1tDQEhdKFtDSDJdMSlbQ0gyXVtOSF1DKD1PKVtOSF1jMm5bY0hdW2NIXXMy

> <s_epik_cmdline>
J2VwaWtfcHl0aG9uJywgJy1waCcsICc3LjAnLCAnLXRuJywgJzgnLCAnLW1hJywgJzIwMCcsICctbWV0YWxfYmluZGluZycsICctaW1hZScsICc8aW5maWxlLm1hZT4nLCAnLW9tYWUnLCAnPG91dGZpbGUubWFlPic=

> <r_lp_tautomer_probability>
0.999

> <r_epik_Ionization_Penalty>
6.35835

> <r_epik_Ionization_Penalty_Charging>
5.49938

> <r_epik_Ionization_Penalty_Neutral>
0.858963

> <r_epik_State_Penalty>
5.49328

> <r_epik_Charging_Adjusted_Penalty>
10.9927

> <i_epik_Tot_Q>
0

> <i_epik_Tot_abs_Q>
2

> <r_epik_Metal_State_Penalty>
1.51523

> <b_epik_Metal_Only>
1

> <s_lp_Force_Field>
OPLS_2005

> <r_lp_Energy>
10.2516

> <b_lp_Chiralities_Consistent>
1

> <s_lp_Variant>
AV-unprocessed.smi:2062-9

> <Gold.Version>
5.8.1

> <Gold.Id.Protein>
6NUR|6NUR_protein|mol2

> <Gold.PLP.Fitness>
43.1725

> <Gold.PLP.PLP>
-32.8268

> <Gold.PLP.part.hbond>
-3.9625

> <Gold.PLP.part.metal>
0.0000

> <Gold.PLP.part.buried>
-3.6021

> <Gold.PLP.part.nonpolar>
-25.0097

> <Gold.PLP.part.repulsive>
0.4750

> <Gold.PLP.ligand.clash>
0.0000

> <Gold.PLP.ligand.torsion>
0.8698

> <Gold.PLP.Chemscore.Hbond>
2.9920

> <Gold.PLP.Chemscore.CHOScore>
0.9983

> <Gold.PLP.Chemscore.Metal>
0.0000

> <Gold.Chemscore.Hbonds>
donor molecule, donor type, donor heavy atom, donor atom, acceptor molecule, acceptor atom, score
      L1  H    11    37       P1  7948  1.00
      P1  H  7989  7998       L1    16  0.91
      P1  H 10752 10764       L1    13  0.09
      L1  C    17    38       P1  8028  1.00

> <Gold.PLP.Chemscore.Internal.Correction>
0.1146

> <Gold.Rescore>
     Score         DG    S(hbond)    S(metal)    S(lipo)     H(rot)  DE(clash)    DE(int)     intcor
     12.60     -14.91       1.71        0.00      69.52       1.72       0.12       2.19       ----

> <Gold.Chemscore.Fitness>
12.5970

> <Gold.Chemscore.DG>
-14.9074

> <Gold.Chemscore.ZeroCoef>
-5.4800

> <Gold.Chemscore.Hbond>
1.7051

> <Gold.Chemscore.Metal>
0.0000

> <Gold.Chemscore.Lipo>
69.5210

> <Gold.Chemscore.Internal_Hbond>
0.0000

> <Gold.Chemscore.DEClash>
0.1224

> <Gold.Chemscore.DEInternal>
2.1880

> <Gold.Chemscore.Rot>
1.7194

> <Gold.Chemscore.Internal.Correction>
   9.000000E+99

> <Gold.Chemscore.Hbonds>
donor molecule, donor type, donor heavy atom, donor atom, acceptor molecule, acceptor atom, score
      L1  H    11    37       P1  7948  0.66
      P1  H  7989  7998       L1    16  0.15
      P1  H 10752 10764       L1    13  0.01

> <Gold.Chemscore.Hbond.Weighted>
-5.6951

> <Gold.Chemscore.Metal.Weighted>
-0.0000

> <Gold.Chemscore.Lipo.Weighted>
-8.1340

> <Gold.Chemscore.Internal_Hbond.Weighted>
0.0000

> <Gold.Chemscore.DEClash.Weighted>
0.1224

> <Gold.Chemscore.DEInternal.Weighted>
2.1880

> <Gold.Chemscore.Rot.Weighted>
4.4017

> <Gold.Chemscore.Internal.Correction.Weighted>
   9.000000E+99

> <Gold.Protein.RotatedTorsions>
[ 6907 6896 6895 6894 ] final  140.46 input  -60.11 | X-H torsion
[ 7974 7965 7964 7962 ] final   54.65 input  175.53 | X-H torsion
[ 8008 7997 7996 7995 ] final  -59.48 input   59.86 | X-H torsion
[ 10167 10162 10161 10158 ] final   24.23 input  -65.29 | X-H torsion
[ 10718 10713 10712 10709 ] final  139.71 input   66.30 | X-H torsion
[ 10763 10752 10751 10750 ] final  -35.24 input  -60.55 | X-H torsion
[ 11005 11000 10999 10996 ] final -141.49 input  -57.11 | X-H torsion

> <Gold.Protein.ActiveResidues>
 VAL166  LYS551  ARG553  GLY616  TRP617  ASP618  TYR619  PRO620  LYS621  CYS622 
 ASP623  PHE694  ASN695  SER759  ASP760  ASP761  ALA762  ILE779  LEU786  VAL792 
 PHE793  MET794  SER795  GLU796  ALA797  LYS798  CYS799  TRP800  GLU811  SER814 

> <Gold.Protein.RotatedAtoms>
  152.2428  133.5149  159.5279 H   0  0  0  0  0  0  0  0  0  0  0  0  # atno 6907 bound_to 6896
  150.7069  134.1066  159.3994 H   0  0  0  0  0  0  0  0  0  0  0  0  # atno 6908 bound_to 6896
  151.8986  135.0387  160.0555 H   0  0  0  0  0  0  0  0  0  0  0  0  # atno 6909 bound_to 6896
  145.9586  139.4038  143.0262 H   0  0  0  0  0  0  0  0  0  0  0  0  # atno 7974 bound_to 7965
  154.4354  140.1061  156.6123 H   0  0  0  0  0  0  0  0  0  0  0  0  # atno 8008 bound_to 7997
  155.5796  140.3490  155.4518 H   0  0  0  0  0  0  0  0  0  0  0  0  # atno 8009 bound_to 7997
  156.0328  140.1264  157.0229 H   0  0  0  0  0  0  0  0  0  0  0  0  # atno 8010 bound_to 7997
  140.5205  144.0010  150.6415 H   0  0  0  0  0  0  0  0  0  0  0  0  # atno 10167 bound_to 10162
  157.4114  131.1028  151.0450 H   0  0  0  0  0  0  0  0  0  0  0  0  # atno 10718 bound_to 10713
  153.8599  135.6841  153.4784 H   0  0  0  0  0  0  0  0  0  0  0  0  # atno 10763 bound_to 10752
  153.1348  135.4682  154.9402 H   0  0  0  0  0  0  0  0  0  0  0  0  # atno 10764 bound_to 10752
  154.7763  135.3254  154.8034 H   0  0  0  0  0  0  0  0  0  0  0  0  # atno 10765 bound_to 10752
  140.8319  134.2506  157.4852 H   0  0  0  0  0  0  0  0  0  0  0  0  # atno 11005 bound_to 11000
  145.8071  140.9743  143.0968 LP  0  0  0  0  0  0  0  0  0  0  0  0  # atno 17320 bound_to 7965
  144.6810  139.9875  143.7484 LP  0  0  0  0  0  0  0  0  0  0  0  0  # atno 17321 bound_to 7965
  140.3358  143.3050  152.0640 LP  0  0  0  0  0  0  0  0  0  0  0  0  # atno 17342 bound_to 10162
  139.4922  144.6478  151.6742 LP  0  0  0  0  0  0  0  0  0  0  0  0  # atno 17343 bound_to 10162
  157.1413  130.6144  149.5556 LP  0  0  0  0  0  0  0  0  0  0  0  0  # atno 17370 bound_to 10713
  155.9852  130.4880  150.7019 LP  0  0  0  0  0  0  0  0  0  0  0  0  # atno 17371 bound_to 10713
  139.8705  134.9590  156.4320 LP  0  0  0  0  0  0  0  0  0  0  0  0  # atno 17394 bound_to 11000
  140.8989  133.7794  155.9657 LP  0  0  0  0  0  0  0  0  0  0  0  0  # atno 17395 bound_to 11000

$$$$
