AV-unprocessed.smi:191|AV-procd|sdf|1494|dock2
  -GOLD-   2262019313D 1   1.00000     0.00000
 Structure written by MMmdl.
 46 48  0  0  0  0  0  0  0  0  1 V2000
  152.2878  144.4275  158.2783 C   0  0  0  0  0  0  0  0  0  0  0  0
  153.3485  143.6125  159.0342 C   0  0  0  0  0  0  0  0  0  0  0  0
  152.8527  142.3070  159.4803 N   0  0  0  0  0  0  0  0  0  0  0  0
  152.4661  142.1602  160.8844 C   0  0  0  0  0  0  0  0  0  0  0  0
  153.6765  142.1164  161.8372 C   0  0  1  0  0  0  0  0  0  0  0  0
  153.3133  142.6679  163.2209 C   0  0  0  0  0  0  0  0  0  0  0  0
  154.2680  140.7726  161.9505 C   0  0  0  0  0  0  0  0  0  0  0  0
  154.7311  139.7160  162.0424 N   0  0  0  0  0  0  0  0  0  0  0  0
  152.5355  141.3456  158.5621 C   0  0  0  0  0  0  0  0  0  0  0  0
  153.1730  140.1455  158.6393 N   0  0  0  0  0  0  0  0  0  0  0  0
  152.9072  139.1647  157.7741 C   0  0  0  0  0  0  0  0  0  0  0  0
  152.0429  139.1617  156.7606 N   0  0  0  0  0  0  0  0  0  0  0  0
  151.3867  140.3526  156.6712 C   0  0  0  0  0  0  0  0  0  0  0  0
  151.5670  141.4868  157.5180 C   0  0  0  0  0  0  0  0  0  0  0  0
  150.7024  142.4985  157.1108 N   0  0  0  0  0  0  0  0  0  0  0  0
  150.0614  141.9990  156.0914 C   0  0  0  0  0  0  0  0  0  0  0  0
  150.4170  140.7154  155.7518 N   0  0  0  0  0  0  0  0  0  0  0  0
  149.8633  139.9147  154.6699 C   0  0  0  0  0  0  0  0  0  0  0  0
  150.0535  138.3975  154.8543 C   0  0  0  0  0  0  0  0  0  0  0  0
  151.4513  138.0110  154.3304 C   0  0  0  0  0  0  0  0  0  0  0  0
  151.6077  136.6131  154.1863 O   0  0  0  0  0  0  0  0  0  0  0  0
  149.6745  137.8629  156.2432 C   0  0  0  0  0  0  0  0  0  0  0  0
  148.7924  136.8647  155.6837 O   0  0  0  0  0  0  0  0  0  0  0  0
  148.8922  137.5052  154.3924 C   0  0  0  0  0  0  0  0  0  0  0  0
  152.6944  145.3894  157.9658 H   0  0  0  0  0  0  0  0  0  0  0  0
  151.4160  144.6272  158.9011 H   0  0  0  0  0  0  0  0  0  0  0  0
  151.9467  143.9078  157.3831 H   0  0  0  0  0  0  0  0  0  0  0  0
  154.2422  143.4937  158.4207 H   0  0  0  0  0  0  0  0  0  0  0  0
  153.6742  144.1809  159.9048 H   0  0  0  0  0  0  0  0  0  0  0  0
  151.8500  143.0187  161.1506 H   0  0  0  0  0  0  0  0  0  0  0  0
  151.8156  141.3033  161.0438 H   0  0  0  0  0  0  0  0  0  0  0  0
  154.4658  142.7467  161.4284 H   0  0  0  0  0  0  0  0  0  0  0  0
  154.1835  142.6760  163.8779 H   0  0  0  0  0  0  0  0  0  0  0  0
  152.5421  142.0616  163.6973 H   0  0  0  0  0  0  0  0  0  0  0  0
  152.9414  143.6905  163.1518 H   0  0  0  0  0  0  0  0  0  0  0  0
  153.4670  138.2519  157.9153 H   0  0  0  0  0  0  0  0  0  0  0  0
  149.3047  142.5580  155.5605 H   0  0  0  0  0  0  0  0  0  0  0  0
  148.8053  140.1575  154.5658 H   0  0  0  0  0  0  0  0  0  0  0  0
  150.3324  140.2484  153.7433 H   0  0  0  0  0  0  0  0  0  0  0  0
  151.6428  138.4576  153.3548 H   0  0  0  0  0  0  0  0  0  0  0  0
  152.2312  138.3707  155.0023 H   0  0  0  0  0  0  0  0  0  0  0  0
  151.0877  136.3265  153.4510 H   0  0  0  0  0  0  0  0  0  0  0  0
  150.5028  137.4266  156.8026 H   0  0  0  0  0  0  0  0  0  0  0  0
  149.1305  138.5792  156.8609 H   0  0  0  0  0  0  0  0  0  0  0  0
  147.9800  138.0495  154.1466 H   0  0  0  0  0  0  0  0  0  0  0  0
  149.1540  136.8075  153.5963 H   0  0  0  0  0  0  0  0  0  0  0  0
  1  2  1  0  0  0  0
  1 25  1  0  0  0  0
  1 26  1  0  0  0  0
  1 27  1  0  0  0  0
  2  3  1  0  0  0  0
  2 28  1  0  0  0  0
  2 29  1  0  0  0  0
  3  4  1  0  0  0  0
  3  9  1  0  0  0  0
  4  5  1  0  0  0  0
  4 30  1  0  0  0  0
  4 31  1  0  0  0  0
  5  6  1  0  0  0  0
  5  7  1  0  0  0  0
  5 32  1  0  0  0  0
  6 33  1  0  0  0  0
  6 34  1  0  0  0  0
  6 35  1  0  0  0  0
  7  8  3  0  0  0  0
  9 14  1  0  0  0  0
  9 10  2  0  0  0  0
 10 11  1  0  0  0  0
 11 12  2  0  0  0  0
 11 36  1  0  0  0  0
 12 13  1  0  0  0  0
 13 17  1  0  0  0  0
 13 14  2  0  0  0  0
 14 15  1  0  0  0  0
 15 16  2  0  0  0  0
 16 17  1  0  0  0  0
 16 37  1  0  0  0  0
 17 18  1  0  0  0  0
 18 19  1  0  0  0  0
 18 38  1  0  0  0  0
 18 39  1  0  0  0  0
 19 24  1  0  0  0  0
 19 20  1  0  0  0  0
 19 22  1  0  0  0  0
 20 21  1  0  0  0  0
 20 40  1  0  0  0  0
 20 41  1  0  0  0  0
 21 42  1  0  0  0  0
 22 23  1  0  0  0  0
 22 43  1  0  0  0  0
 22 44  1  0  0  0  0
 23 24  1  0  0  0  0
 24 45  1  0  0  0  0
 24 46  1  0  0  0  0
M  END
> <s_m_source_file>
AV-unprocessed.smi

> <i_m_source_file_index>
191

> <i_lp_mmshare_version>
43012

> <i_f3d_flags>
0

> <s_epik_input>
TiNDW0NAQEhdKFtDSDNdKVtDSDJdTihbQ0gyXVtDSDNdKWMobltjSF1uMSljKGMxMiluW2NIXW4yW0NIMl1DMyhbQ0gyXVtPSF0pW0NIMl1PW0NIMl0z

> <s_epik_cmdline>
J2VwaWtfcHl0aG9uJywgJy1waCcsICc3LjAnLCAnLXRuJywgJzgnLCAnLW1hJywgJzIwMCcsICctbWV0YWxfYmluZGluZycsICctaW1hZScsICc8aW5maWxlLm1hZT4nLCAnLW9tYWUnLCAnPG91dGZpbGUubWFlPic=

> <r_lp_tautomer_probability>
1

> <r_epik_Ionization_Penalty>
0.000569684

> <r_epik_Ionization_Penalty_Charging>
0

> <r_epik_Ionization_Penalty_Neutral>
0.000569684

> <r_epik_State_Penalty>
0.000286009

> <r_epik_Charging_Adjusted_Penalty>
0.000286009

> <i_epik_Tot_Q>
0

> <i_epik_Tot_abs_Q>
0

> <r_epik_Metal_State_Penalty>
-0

> <b_epik_Metal_Only>
0

> <s_lp_Force_Field>
OPLS_2005

> <r_lp_Energy>
30.7711

> <b_lp_Chiralities_Consistent>
1

> <s_lp_Variant>
AV-unprocessed.smi:191-2

> <Gold.Version>
5.8.1

> <Gold.Id.Protein>
6NUR|6NUR_protein|mol2

> <Gold.PLP.Fitness>
48.8495

> <Gold.PLP.PLP>
-44.9226

> <Gold.PLP.part.hbond>
-2.9899

> <Gold.PLP.part.metal>
0.0000

> <Gold.PLP.part.buried>
0.0852

> <Gold.PLP.part.nonpolar>
-41.0297

> <Gold.PLP.part.repulsive>
0.1811

> <Gold.PLP.ligand.clash>
0.0000

> <Gold.PLP.ligand.torsion>
2.6592

> <Gold.PLP.Chemscore.Hbond>
1.8000

> <Gold.PLP.Chemscore.CHOScore>
0.9807

> <Gold.PLP.Chemscore.Metal>
0.0000

> <Gold.Chemscore.Hbonds>
donor molecule, donor type, donor heavy atom, donor atom, acceptor molecule, acceptor atom, score
      L1  H    21    42       P1  7949  0.86
      P1  H 10752 10764       L1    21  1.00
      L1  C    16    37       P1  8028  0.97

> <Gold.PLP.Chemscore.Internal.Correction>
0.9033

> <Gold.Rescore>
     Score         DG    S(hbond)    S(metal)    S(lipo)     H(rot)  DE(clash)    DE(int)     intcor
      0.53     -11.58       0.93        0.00      93.41       3.11       3.08       7.97       ----

> <Gold.Chemscore.Fitness>
0.5262

> <Gold.Chemscore.DG>
-11.5777

> <Gold.Chemscore.ZeroCoef>
-5.4800

> <Gold.Chemscore.Hbond>
0.9349

> <Gold.Chemscore.Metal>
0.0000

> <Gold.Chemscore.Lipo>
93.4051

> <Gold.Chemscore.Internal_Hbond>
0.0000

> <Gold.Chemscore.DEClash>
3.0818

> <Gold.Chemscore.DEInternal>
7.9697

> <Gold.Chemscore.Rot>
3.1067

> <Gold.Chemscore.Internal.Correction>
   9.000000E+99

> <Gold.Chemscore.Hbonds>
donor molecule, donor type, donor heavy atom, donor atom, acceptor molecule, acceptor atom, score
      L1  H    21    42       P1  7949  0.29
      P1  H 10752 10764       L1    21  0.39

> <Gold.Chemscore.Hbond.Weighted>
-3.1226

> <Gold.Chemscore.Metal.Weighted>
-0.0000

> <Gold.Chemscore.Lipo.Weighted>
-10.9284

> <Gold.Chemscore.Internal_Hbond.Weighted>
0.0000

> <Gold.Chemscore.DEClash.Weighted>
3.0818

> <Gold.Chemscore.DEInternal.Weighted>
7.9697

> <Gold.Chemscore.Rot.Weighted>
7.9532

> <Gold.Chemscore.Internal.Correction.Weighted>
   9.000000E+99

> <Gold.Protein.RotatedTorsions>
[ 6907 6896 6895 6894 ] final -104.72 input  -60.11 | X-H torsion
[ 7974 7965 7964 7962 ] final   -8.66 input  175.53 | X-H torsion
[ 8008 7997 7996 7995 ] final  -74.67 input   59.86 | X-H torsion
[ 10167 10162 10161 10158 ] final   69.40 input  -65.29 | X-H torsion
[ 10718 10713 10712 10709 ] final -142.47 input   66.30 | X-H torsion
[ 10763 10752 10751 10750 ] final  -95.35 input  -60.55 | X-H torsion
[ 11005 11000 10999 10996 ] final -131.50 input  -57.11 | X-H torsion

> <Gold.Protein.ActiveResidues>
 VAL166  LYS551  ARG553  GLY616  TRP617  ASP618  TYR619  PRO620  LYS621  CYS622 
 ASP623  PHE694  ASN695  SER759  ASP760  ASP761  ALA762  ILE779  LEU786  VAL792 
 PHE793  MET794  SER795  GLU796  ALA797  LYS798  CYS799  TRP800  GLU811  SER814 

> <Gold.Protein.RotatedAtoms>
  150.7301  134.0234  159.3708 H   0  0  0  0  0  0  0  0  0  0  0  0  # atno 6907 bound_to 6896
  151.8200  135.0652  160.0433 H   0  0  0  0  0  0  0  0  0  0  0  0  # atno 6908 bound_to 6896
  152.3010  133.5619  159.5655 H   0  0  0  0  0  0  0  0  0  0  0  0  # atno 6909 bound_to 6896
  146.2274  140.2502  142.8347 H   0  0  0  0  0  0  0  0  0  0  0  0  # atno 7974 bound_to 7965
  154.5350  140.0757  156.8412 H   0  0  0  0  0  0  0  0  0  0  0  0  # atno 8008 bound_to 7997
  155.3296  140.3401  155.4221 H   0  0  0  0  0  0  0  0  0  0  0  0  # atno 8009 bound_to 7997
  156.1819  140.1655  156.8244 H   0  0  0  0  0  0  0  0  0  0  0  0  # atno 8010 bound_to 7997
  140.0682  144.5175  150.7246 H   0  0  0  0  0  0  0  0  0  0  0  0  # atno 10167 bound_to 10162
  156.3463  130.7664  151.1809 H   0  0  0  0  0  0  0  0  0  0  0  0  # atno 10718 bound_to 10713
  154.7140  135.5124  153.8709 H   0  0  0  0  0  0  0  0  0  0  0  0  # atno 10763 bound_to 10752
  153.0804  135.6629  154.0065 H   0  0  0  0  0  0  0  0  0  0  0  0  # atno 10764 bound_to 10752
  153.9901  135.3020  155.3392 H   0  0  0  0  0  0  0  0  0  0  0  0  # atno 10765 bound_to 10752
  140.9253  134.1391  157.4280 H   0  0  0  0  0  0  0  0  0  0  0  0  # atno 11005 bound_to 11000
  144.9418  140.8086  143.5626 LP  0  0  0  0  0  0  0  0  0  0  0  0  # atno 17320 bound_to 7965
  145.2454  139.2054  143.4970 LP  0  0  0  0  0  0  0  0  0  0  0  0  # atno 17321 bound_to 7965
  140.7138  143.2527  151.4497 LP  0  0  0  0  0  0  0  0  0  0  0  0  # atno 17342 bound_to 10162
  139.5852  144.1620  152.2019 LP  0  0  0  0  0  0  0  0  0  0  0  0  # atno 17343 bound_to 10162
  157.7454  131.0440  150.4773 LP  0  0  0  0  0  0  0  0  0  0  0  0  # atno 17370 bound_to 10713
  156.4961  130.4106  149.6379 LP  0  0  0  0  0  0  0  0  0  0  0  0  # atno 17371 bound_to 10713
  139.8784  134.9986  156.5908 LP  0  0  0  0  0  0  0  0  0  0  0  0  # atno 17394 bound_to 11000
  140.7934  133.8563  155.8665 LP  0  0  0  0  0  0  0  0  0  0  0  0  # atno 17395 bound_to 11000

$$$$
