AV-unprocessed.smi:2990|AV-procd|sdf|11393|dock8
  -GOLD-   2272016313D 1   1.00000     0.00000
 Structure written by MMmdl.
 39 41  0  0  0  0  0  0  0  0  1 V2000
  154.9888  138.7747  159.7376 C   0  0  0  0  0  0  0  0  0  0  0  0
  154.2566  140.0720  159.8730 C   0  0  0  0  0  0  0  0  0  0  0  0
  153.8130  140.7516  158.8154 N   0  0  0  0  0  0  0  0  0  0  0  0
  153.2254  141.8606  159.3928 C   0  0  0  0  0  0  0  0  0  0  0  0
  152.5725  142.9662  158.8021 C   0  0  0  0  0  0  0  0  0  0  0  0
  152.0436  143.9964  159.6072 C   0  0  0  0  0  0  0  0  0  0  0  0
  152.1585  143.9357  161.0111 C   0  0  0  0  0  0  0  0  0  0  0  0
  152.8036  142.8420  161.6201 C   0  0  0  0  0  0  0  0  0  0  0  0
  153.3312  141.8170  160.8122 C   0  0  0  0  0  0  0  0  0  0  0  0
  154.0076  140.6311  161.0827 N   0  0  0  0  0  0  0  0  0  0  0  0
  154.3684  140.1184  162.3978 C   0  0  0  0  0  0  0  0  0  0  0  0
  155.8747  140.2552  162.6996 C   0  0  2  0  0  0  0  0  0  0  0  0
  156.5196  139.0118  162.5071 O   0  0  0  0  0  0  0  0  0  0  0  0
  156.1446  140.7212  164.1377 C   0  0  0  0  0  0  0  0  0  0  0  0
  155.8863  142.1161  164.2309 O   0  0  0  0  0  0  0  0  0  0  0  0
  155.7961  142.6801  165.4854 C   0  0  0  0  0  0  0  0  0  0  0  0
  155.6235  144.0787  165.5479 C   0  0  0  0  0  0  0  0  0  0  0  0
  155.5230  144.7386  166.7879 C   0  0  0  0  0  0  0  0  0  0  0  0
  155.5952  144.0018  167.9845 C   0  0  0  0  0  0  0  0  0  0  0  0
  155.7677  142.6061  167.9374 C   0  0  0  0  0  0  0  0  0  0  0  0
  155.8676  141.9461  166.6969 C   0  0  0  0  0  0  0  0  0  0  0  0
  155.0575  138.4832  158.6891 H   0  0  0  0  0  0  0  0  0  0  0  0
  154.4686  137.9848  160.2787 H   0  0  0  0  0  0  0  0  0  0  0  0
  156.0002  138.8691  160.1332 H   0  0  0  0  0  0  0  0  0  0  0  0
  152.4793  143.0221  157.7277 H   0  0  0  0  0  0  0  0  0  0  0  0
  151.5477  144.8375  159.1451 H   0  0  0  0  0  0  0  0  0  0  0  0
  151.7512  144.7292  161.6203 H   0  0  0  0  0  0  0  0  0  0  0  0
  152.8906  142.7912  162.6953 H   0  0  0  0  0  0  0  0  0  0  0  0
  153.7801  140.6428  163.1511 H   0  0  0  0  0  0  0  0  0  0  0  0
  154.0658  139.0722  162.4569 H   0  0  0  0  0  0  0  0  0  0  0  0
  156.3268  140.9665  162.0080 H   0  0  0  0  0  0  0  0  0  0  0  0
  155.8593  138.3517  162.3601 H   0  0  0  0  0  0  0  0  0  0  0  0
  155.5161  140.1646  164.8353 H   0  0  0  0  0  0  0  0  0  0  0  0
  157.1880  140.5292  164.3943 H   0  0  0  0  0  0  0  0  0  0  0  0
  155.5672  144.6521  164.6343 H   0  0  0  0  0  0  0  0  0  0  0  0
  155.3911  145.8101  166.8206 H   0  0  0  0  0  0  0  0  0  0  0  0
  155.5189  144.5061  168.9364 H   0  0  0  0  0  0  0  0  0  0  0  0
  155.8243  142.0393  168.8549 H   0  0  0  0  0  0  0  0  0  0  0  0
  156.0003  140.8750  166.7025 H   0  0  0  0  0  0  0  0  0  0  0  0
  1  2  1  0  0  0  0
  1 22  1  0  0  0  0
  1 23  1  0  0  0  0
  1 24  1  0  0  0  0
  2 10  1  0  0  0  0
  2  3  2  0  0  0  0
  3  4  1  0  0  0  0
  4  9  2  0  0  0  0
  4  5  1  0  0  0  0
  5  6  2  0  0  0  0
  5 25  1  0  0  0  0
  6  7  1  0  0  0  0
  6 26  1  0  0  0  0
  7  8  2  0  0  0  0
  7 27  1  0  0  0  0
  8  9  1  0  0  0  0
  8 28  1  0  0  0  0
  9 10  1  0  0  0  0
 10 11  1  0  0  0  0
 11 12  1  0  0  0  0
 11 29  1  0  0  0  0
 11 30  1  0  0  0  0
 12 13  1  0  0  0  0
 12 14  1  0  0  0  0
 12 31  1  0  0  0  0
 13 32  1  0  0  0  0
 14 15  1  0  0  0  0
 14 33  1  0  0  0  0
 14 34  1  0  0  0  0
 15 16  1  0  0  0  0
 16 21  1  0  0  0  0
 16 17  2  0  0  0  0
 17 18  1  0  0  0  0
 17 35  1  0  0  0  0
 18 19  2  0  0  0  0
 18 36  1  0  0  0  0
 19 20  1  0  0  0  0
 19 37  1  0  0  0  0
 20 21  2  0  0  0  0
 20 38  1  0  0  0  0
 21 39  1  0  0  0  0
M  END
> <s_m_source_file>
AV-unprocessed.smi

> <i_m_source_file_index>
2990

> <i_lp_mmshare_version>
43012

> <i_f3d_flags>
0

> <s_epik_input>
W2NIXTFbY0hdW2NIXVtjSF1jKGMxMiluKGMobjIpW0NIM10pW0NIMl1bQ0BIXShbT0hdKVtDSDJdT2MzW2NIXVtjSF1bY0hdW2NIXVtjSF0z

> <s_epik_cmdline>
J2VwaWtfcHl0aG9uJywgJy1waCcsICc3LjAnLCAnLXRuJywgJzgnLCAnLW1hJywgJzIwMCcsICctbWV0YWxfYmluZGluZycsICctaW1hZScsICc8aW5maWxlLm1hZT4nLCAnLW9tYWUnLCAnPG91dGZpbGUubWFlPic=

> <r_lp_tautomer_probability>
1

> <r_epik_Ionization_Penalty>
0.119634

> <r_epik_Ionization_Penalty_Charging>
0

> <r_epik_Ionization_Penalty_Neutral>
0.119634

> <r_epik_State_Penalty>
0.10919

> <r_epik_Charging_Adjusted_Penalty>
0.10919

> <i_epik_Tot_Q>
0

> <i_epik_Tot_abs_Q>
0

> <r_epik_Metal_State_Penalty>
0.000119887

> <b_epik_Metal_Only>
0

> <s_lp_Force_Field>
OPLS_2005

> <r_lp_Energy>
14.3575

> <b_lp_Chiralities_Consistent>
1

> <s_lp_Variant>
AV-unprocessed.smi:2990-1

> <Gold.Version>
5.8.1

> <Gold.Id.Protein>
6NUR|6NUR_protein|mol2

> <Gold.PLP.Fitness>
48.8302

> <Gold.PLP.PLP>
-49.2972

> <Gold.PLP.part.hbond>
-2.0000

> <Gold.PLP.part.metal>
0.0000

> <Gold.PLP.part.buried>
-2.0773

> <Gold.PLP.part.nonpolar>
-44.1099

> <Gold.PLP.part.repulsive>
0.0000

> <Gold.PLP.ligand.clash>
0.0000

> <Gold.PLP.ligand.torsion>
0.9549

> <Gold.PLP.Chemscore.Hbond>
0.4550

> <Gold.PLP.Chemscore.CHOScore>
0.0000

> <Gold.PLP.Chemscore.Metal>
0.0000

> <Gold.Chemscore.Hbonds>
donor molecule, donor type, donor heavy atom, donor atom, acceptor molecule, acceptor atom, score
      P1  H  7997  8009       L1     3  0.62

> <Gold.PLP.Chemscore.Internal.Correction>
0.0779

> <Gold.Rescore>
     Score         DG    S(hbond)    S(metal)    S(lipo)     H(rot)  DE(clash)    DE(int)     intcor
     16.62     -18.93       0.75        0.00     138.19       2.04       1.50       0.81       ----

> <Gold.Chemscore.Fitness>
16.6227

> <Gold.Chemscore.DG>
-18.9254

> <Gold.Chemscore.ZeroCoef>
-5.4800

> <Gold.Chemscore.Hbond>
0.7455

> <Gold.Chemscore.Metal>
0.0000

> <Gold.Chemscore.Lipo>
138.1857

> <Gold.Chemscore.Internal_Hbond>
0.0000

> <Gold.Chemscore.DEClash>
1.4972

> <Gold.Chemscore.DEInternal>
0.8055

> <Gold.Chemscore.Rot>
2.0361

> <Gold.Chemscore.Internal.Correction>
   9.000000E+99

> <Gold.Chemscore.Hbonds>
donor molecule, donor type, donor heavy atom, donor atom, acceptor molecule, acceptor atom, score
      P1  H  7997  8009       L1     3  0.33

> <Gold.Chemscore.Hbond.Weighted>
-2.4900

> <Gold.Chemscore.Metal.Weighted>
-0.0000

> <Gold.Chemscore.Lipo.Weighted>
-16.1677

> <Gold.Chemscore.Internal_Hbond.Weighted>
0.0000

> <Gold.Chemscore.DEClash.Weighted>
1.4972

> <Gold.Chemscore.DEInternal.Weighted>
0.8055

> <Gold.Chemscore.Rot.Weighted>
5.2124

> <Gold.Chemscore.Internal.Correction.Weighted>
   9.000000E+99

> <Gold.Protein.RotatedTorsions>
[ 6907 6896 6895 6894 ] final  108.90 input  -60.11 | X-H torsion
[ 7974 7965 7964 7962 ] final  121.85 input  175.53 | X-H torsion
[ 8008 7997 7996 7995 ] final  134.57 input   59.86 | X-H torsion
[ 10167 10162 10161 10158 ] final   93.32 input  -65.29 | X-H torsion
[ 10718 10713 10712 10709 ] final   12.14 input   66.30 | X-H torsion
[ 10763 10752 10751 10750 ] final  -66.54 input  -60.55 | X-H torsion
[ 11005 11000 10999 10996 ] final  -75.34 input  -57.11 | X-H torsion

> <Gold.Protein.ActiveResidues>
 VAL166  LYS551  ARG553  GLY616  TRP617  ASP618  TYR619  PRO620  LYS621  CYS622 
 ASP623  PHE694  ASN695  SER759  ASP760  ASP761  ALA762  ILE779  LEU786  VAL792 
 PHE793  MET794  SER795  GLU796  ALA797  LYS798  CYS799  TRP800  GLU811  SER814 

> <Gold.Protein.RotatedAtoms>
  152.5091  133.9022  159.7446 H   0  0  0  0  0  0  0  0  0  0  0  0  # atno 6907 bound_to 6896
  150.9435  133.6621  159.2793 H   0  0  0  0  0  0  0  0  0  0  0  0  # atno 6908 bound_to 6896
  151.3924  135.0963  159.9583 H   0  0  0  0  0  0  0  0  0  0  0  0  # atno 6909 bound_to 6896
  145.1144  139.3431  143.4746 H   0  0  0  0  0  0  0  0  0  0  0  0  # atno 7974 bound_to 7965
  156.2999  140.2493  156.3439 H   0  0  0  0  0  0  0  0  0  0  0  0  # atno 8008 bound_to 7997
  154.9029  140.0405  157.1922 H   0  0  0  0  0  0  0  0  0  0  0  0  # atno 8009 bound_to 7997
  154.8482  140.2902  155.5619 H   0  0  0  0  0  0  0  0  0  0  0  0  # atno 8010 bound_to 7997
  139.8191  144.6739  150.9542 H   0  0  0  0  0  0  0  0  0  0  0  0  # atno 10167 bound_to 10162
  157.0058  130.6097  149.5702 H   0  0  0  0  0  0  0  0  0  0  0  0  # atno 10718 bound_to 10713
  154.3613  135.6115  153.5692 H   0  0  0  0  0  0  0  0  0  0  0  0  # atno 10763 bound_to 10752
  152.9793  135.5816  154.4629 H   0  0  0  0  0  0  0  0  0  0  0  0  # atno 10764 bound_to 10752
  154.4368  135.2849  155.1853 H   0  0  0  0  0  0  0  0  0  0  0  0  # atno 10765 bound_to 10752
  141.1644  133.6943  156.7501 H   0  0  0  0  0  0  0  0  0  0  0  0  # atno 11005 bound_to 11000
  146.3524  140.1077  142.8605 LP  0  0  0  0  0  0  0  0  0  0  0  0  # atno 17320 bound_to 7965
  145.0810  140.9221  143.4825 LP  0  0  0  0  0  0  0  0  0  0  0  0  # atno 17321 bound_to 7965
  140.7814  143.4109  151.0994 LP  0  0  0  0  0  0  0  0  0  0  0  0  # atno 17342 bound_to 10162
  139.7771  143.8409  152.3131 LP  0  0  0  0  0  0  0  0  0  0  0  0  # atno 17343 bound_to 10162
  156.0154  130.5248  150.8119 LP  0  0  0  0  0  0  0  0  0  0  0  0  # atno 17370 bound_to 10713
  157.5357  131.0938  150.9895 LP  0  0  0  0  0  0  0  0  0  0  0  0  # atno 17371 bound_to 10713
  140.2610  134.8467  157.3758 LP  0  0  0  0  0  0  0  0  0  0  0  0  # atno 17394 bound_to 11000
  140.1611  134.4727  155.7894 LP  0  0  0  0  0  0  0  0  0  0  0  0  # atno 17395 bound_to 11000

$$$$
