#       Name:                AV-unprocessed.smi:95
#       Creating user name   scv26
#       Creation time:       Thu Mar 26 17:30:12 2020


#       File generated by GOLD software.
#

@<TRIPOS>MOLECULE
AV-unprocessed.smi:95
    48    51     1
SMALL
NO_CHARGES


@<TRIPOS>ATOM
      1 ****         0.2600   3.3151  -1.7292 O.2            1 S1                 0.0000
      2 ****        -0.4339   2.2971  -1.7653 C.2            1 S1                 0.0000
      3 ****        -1.8892   2.3189  -1.8594 C.2            1 S1                 0.0000
      4 ****        -2.5322   3.4952  -1.9516 F              1 S1                 0.0000
      5 ****        -2.6048   1.1737  -1.8556 C.2            1 S1                 0.0000
      6 ****        -2.0277  -0.0790  -1.7529 N.am           1 S1                 0.0000
      7 ****        -2.9127  -1.3036  -1.7752 C.3            1 S1                 0.0000
      8 ****        -2.7526  -2.2030  -0.5341 C.3            1 S1                 0.0000
      9 ****        -2.3430  -3.5386  -1.1330 C.3            1 S1                 0.0000
     10 ****        -2.8287  -3.4274  -2.5739 C.3            1 S1                 0.0000
     11 ****        -2.5889  -2.0664  -2.8963 O.3            1 S1                 0.0000
     12 ****        -0.6193  -0.1996  -1.7050 C.2            1 S1                 0.0000
     13 ****        -0.0773  -1.3050  -1.6518 O.2            1 S1                 0.0000
     14 ****         0.1322   1.0006  -1.7088 N.am           1 S1                 0.0000
     15 ****         1.5785   0.9139  -1.5703 C.3            1 S1                 0.0000
     16 ****         2.1073   1.1045  -0.1532 C.ar           1 S1                 0.0000
     17 ****         3.3022   1.8189   0.0639 C.ar           1 S1                 0.0000
     18 ****         3.7649   1.9669   1.3840 C.ar           1 S1                 0.0000
     19 ****         3.0209   1.3922   2.4347 C.ar           1 S1                 0.0000
     20 ****         3.4580   1.5234   3.7688 C.2            1 S1                 0.0000
     21 ****         2.7127   0.9450   4.8127 C.2            1 S1                 0.0000
     22 ****         1.5323   0.2373   4.5217 C.2            1 S1                 0.0000
     23 ****         1.0974   0.1087   3.1884 C.2            1 S1                 0.0000
     24 ****         1.8294   0.6801   2.1258 C.ar           1 S1                 0.0000
     25 ****         1.3961   0.5446   0.8525 N.ar           1 S1                 0.0000
     26 ****        -3.6799   1.2497  -1.9292 H              1 S1                 0.0000
     27 ****        -3.9347  -0.9351  -1.8759 H              1 S1                 0.0000
     28 ****        -2.0232  -1.8131   0.1767 H              1 S1                 0.0000
     29 ****        -3.7177  -2.2774  -0.0321 H              1 S1                 0.0000
     30 ****        -1.2579  -3.6435  -1.1142 H              1 S1                 0.0000
     31 ****        -2.7725  -4.3908  -0.6060 H              1 S1                 0.0000
     32 ****        -2.3020  -4.1010  -3.2499 H              1 S1                 0.0000
     33 ****        -3.8976  -3.6357  -2.6411 H              1 S1                 0.0000
     34 ****         1.9135  -0.0443  -1.9681 H              1 S1                 0.0000
     35 ****         2.0048   1.6551  -2.2490 H              1 S1                 0.0000
     36 ****         3.8521   2.2472  -0.7614 H              1 S1                 0.0000
     37 ****         4.6763   2.5119   1.5823 H              1 S1                 0.0000
     38 ****         4.3639   2.0662   3.9961 H              1 S1                 0.0000
     39 ****         3.0462   1.0437   5.8354 H              1 S1                 0.0000
     40 ****         0.9590  -0.2077   5.3216 H              1 S1                 0.0000
     41 ****         0.1891  -0.4372   2.9787 H              1 S1                 0.0000
     42 ****         1.2546   3.2399  -1.6580 LP             1 S1                 0.0000
     43 ****        -0.1717   4.2161  -1.7712 LP             1 S1                 0.0000
     44 ****        -1.6255  -1.9362  -3.1305 LP             1 S1                 0.0000
     45 ****        -3.1600  -1.7938  -3.6706 LP             1 S1                 0.0000
     46 ****        -0.6347  -2.1352  -1.6420 LP             1 S1                 0.0000
     47 ****         0.9199  -1.3719  -1.6185 LP             1 S1                 0.0000
     48 ****         0.5581   0.0355   0.6558 LP             1 S1                 0.0000
@<TRIPOS>BOND
    1    1    2 2     
    2    2   14 am    
    3    2    3 1     
    4    3    4 1     
    5    3    5 2     
    6    5    6 1     
    7    5   26 1     
    8    6    7 1     
    9    6   12 am    
   10    7   11 1     
   11    7    8 1     
   12    7   27 1     
   13    8    9 1     
   14    8   28 1     
   15    8   29 1     
   16    9   10 1     
   17    9   30 1     
   18    9   31 1     
   19   10   11 1     
   20   10   32 1     
   21   10   33 1     
   22   12   13 2     
   23   12   14 am    
   24   14   15 1     
   25   15   16 1     
   26   15   34 1     
   27   15   35 1     
   28   16   25 ar    
   29   16   17 ar    
   30   17   18 ar    
   31   17   36 1     
   32   18   19 ar    
   33   18   37 1     
   34   19   24 ar    
   35   19   20 1     
   36   20   21 2     
   37   20   38 1     
   38   21   22 1     
   39   21   39 1     
   40   22   23 2     
   41   22   40 1     
   42   23   24 1     
   43   23   41 1     
   44   24   25 ar    
   45    1   42 1     
   46    1   43 1     
   47   11   44 1     
   48   11   45 1     
   49   13   46 1     
   50   13   47 1     
   51   25   48 1     
@<TRIPOS>SUBSTRUCTURE
      1 S1             1
@<TRIPOS>SET
LONE_PAIRS      STATIC     ATOMS    <user>   **** ""
7 42 43 44 45 46 47 48
ATOM$BLUE        STATIC     ATOMS    COLORGROUP SYSTEM
7 42 43 44 45 46 47 48
