AV-unprocessed.smi:240|AV-procd|sdf|1839|dock10
  -GOLD-   2262020453D 1   1.00000     0.00000
 Structure written by MMmdl.
 55 59  0  0  0  0  0  0  0  0  1 V2000
  146.9750  141.0446  152.2304 O   0  0  0  0  0  0  0  0  0  0  0  0
  147.2204  141.7400  153.4352 C   0  0  1  0  0  0  0  0  0  0  0  0
  145.9852  142.5131  153.8944 C   0  0  0  0  0  0  0  0  0  0  0  0
  146.2279  142.7534  155.3868 C   0  0  0  0  0  0  0  0  0  0  0  0
  147.1340  141.6063  155.8634 C   0  0  0  0  0  0  0  0  0  0  0  0
  147.5012  140.7892  154.6084 C   0  0  2  0  0  0  0  0  0  0  0  0
  148.9061  140.1119  154.6184 C   0  0  1  0  0  0  0  0  0  0  0  0
  150.0441  141.0464  155.1047 C   0  0  0  0  0  0  0  0  0  0  0  0
  151.2929  140.3654  155.0690 O   0  0  0  0  0  0  0  0  0  0  0  0
  151.3055  139.2354  155.9304 C   0  0  0  0  0  0  0  0  0  0  0  0
  150.2457  138.2350  155.4522 C   0  0  0  0  0  0  0  0  0  0  0  0
  148.9335  138.8697  155.4042 N   0  0  0  0  0  0  0  0  0  0  0  0
  147.9718  137.9557  155.1431 C   0  0  0  0  0  0  0  0  0  0  0  0
  147.7133  137.0427  156.1110 N   0  0  0  0  0  0  0  0  0  0  0  0
  146.7633  136.1216  155.9232 C   0  0  0  0  0  0  0  0  0  0  0  0
  145.9766  135.9377  154.8607 N   0  0  0  0  0  0  0  0  0  0  0  0
  146.2469  136.8448  153.8783 C   0  0  0  0  0  0  0  0  0  0  0  0
  147.2206  137.8813  153.9354 C   0  0  0  0  0  0  0  0  0  0  0  0
  147.2058  138.6104  152.7527 N   0  0  0  0  0  0  0  0  0  0  0  0
  146.2697  138.0439  152.0415 C   0  0  0  0  0  0  0  0  0  0  0  0
  145.6491  136.9679  152.6355 N   0  0  0  0  0  0  0  0  0  0  0  0
  144.5735  136.1616  152.0767 C   0  0  0  0  0  0  0  0  0  0  0  0
  145.0078  135.2278  150.9178 C   0  0  2  0  0  0  0  0  0  0  0  0
  145.2502  136.0011  149.7569 O   0  0  0  0  0  0  0  0  0  0  0  0
  143.9964  134.1282  150.5843 C   0  0  0  0  0  0  0  0  0  0  0  0
  144.5736  132.9044  151.2813 C   0  0  0  0  0  0  0  0  0  0  0  0
  145.9644  133.0635  151.0701 O   0  0  0  0  0  0  0  0  0  0  0  0
  146.2798  134.4339  151.2801 C   0  0  0  0  0  0  0  0  0  0  0  0
  147.7922  140.6865  151.9186 H   0  0  0  0  0  0  0  0  0  0  0  0
  148.0366  142.4456  153.2864 H   0  0  0  0  0  0  0  0  0  0  0  0
  145.8349  143.4386  153.3375 H   0  0  0  0  0  0  0  0  0  0  0  0
  145.0907  141.9006  153.7688 H   0  0  0  0  0  0  0  0  0  0  0  0
  146.7416  143.7054  155.5270 H   0  0  0  0  0  0  0  0  0  0  0  0
  145.2932  142.8015  155.9462 H   0  0  0  0  0  0  0  0  0  0  0  0
  148.0110  142.0167  156.3617 H   0  0  0  0  0  0  0  0  0  0  0  0
  146.6236  140.9768  156.5933 H   0  0  0  0  0  0  0  0  0  0  0  0
  146.7452  140.0062  154.5279 H   0  0  0  0  0  0  0  0  0  0  0  0
  149.1456  139.8472  153.5886 H   0  0  0  0  0  0  0  0  0  0  0  0
  150.1375  141.9180  154.4591 H   0  0  0  0  0  0  0  0  0  0  0  0
  149.8660  141.4168  156.1143 H   0  0  0  0  0  0  0  0  0  0  0  0
  152.2944  138.7779  155.9033 H   0  0  0  0  0  0  0  0  0  0  0  0
  151.1211  139.5412  156.9616 H   0  0  0  0  0  0  0  0  0  0  0  0
  150.5096  137.8628  154.4611 H   0  0  0  0  0  0  0  0  0  0  0  0
  150.2221  137.3749  156.1233 H   0  0  0  0  0  0  0  0  0  0  0  0
  146.6097  135.4349  156.7424 H   0  0  0  0  0  0  0  0  0  0  0  0
  146.0063  138.3981  151.0555 H   0  0  0  0  0  0  0  0  0  0  0  0
  144.1395  135.5728  152.8860 H   0  0  0  0  0  0  0  0  0  0  0  0
  143.7863  136.8364  151.7377 H   0  0  0  0  0  0  0  0  0  0  0  0
  145.7098  135.4643  149.1295 H   0  0  0  0  0  0  0  0  0  0  0  0
  142.9758  134.3422  150.8966 H   0  0  0  0  0  0  0  0  0  0  0  0
  143.9725  133.9372  149.5102 H   0  0  0  0  0  0  0  0  0  0  0  0
  144.3547  132.9192  152.3501 H   0  0  0  0  0  0  0  0  0  0  0  0
  144.2064  131.9671  150.8630 H   0  0  0  0  0  0  0  0  0  0  0  0
  147.1512  134.7187  150.6891 H   0  0  0  0  0  0  0  0  0  0  0  0
  146.5423  134.5667  152.3308 H   0  0  0  0  0  0  0  0  0  0  0  0
  1  2  1  0  0  0  0
  1 29  1  0  0  0  0
  2  6  1  0  0  0  0
  2  3  1  0  0  0  0
  2 30  1  0  0  0  0
  3  4  1  0  0  0  0
  3 31  1  0  0  0  0
  3 32  1  0  0  0  0
  4  5  1  0  0  0  0
  4 33  1  0  0  0  0
  4 34  1  0  0  0  0
  5  6  1  0  0  0  0
  5 35  1  0  0  0  0
  5 36  1  0  0  0  0
  6  7  1  0  0  0  0
  6 37  1  0  0  0  0
  7 12  1  0  0  0  0
  7  8  1  0  0  0  0
  7 38  1  0  0  0  0
  8  9  1  0  0  0  0
  8 39  1  0  0  0  0
  8 40  1  0  0  0  0
  9 10  1  0  0  0  0
 10 11  1  0  0  0  0
 10 41  1  0  0  0  0
 10 42  1  0  0  0  0
 11 12  1  0  0  0  0
 11 43  1  0  0  0  0
 11 44  1  0  0  0  0
 12 13  1  0  0  0  0
 13 18  1  0  0  0  0
 13 14  2  0  0  0  0
 14 15  1  0  0  0  0
 15 16  2  0  0  0  0
 15 45  1  0  0  0  0
 16 17  1  0  0  0  0
 17 21  1  0  0  0  0
 17 18  2  0  0  0  0
 18 19  1  0  0  0  0
 19 20  2  0  0  0  0
 20 21  1  0  0  0  0
 20 46  1  0  0  0  0
 21 22  1  0  0  0  0
 22 23  1  0  0  0  0
 22 47  1  0  0  0  0
 22 48  1  0  0  0  0
 23 28  1  0  0  0  0
 23 24  1  0  0  0  0
 23 25  1  0  0  0  0
 24 49  1  0  0  0  0
 25 26  1  0  0  0  0
 25 50  1  0  0  0  0
 25 51  1  0  0  0  0
 26 27  1  0  0  0  0
 26 52  1  0  0  0  0
 26 53  1  0  0  0  0
 27 28  1  0  0  0  0
 28 54  1  0  0  0  0
 28 55  1  0  0  0  0
M  END
> <s_m_source_file>
AV-unprocessed.smi

> <i_m_source_file_index>
240

> <i_lp_mmshare_version>
43012

> <i_f3d_flags>
0

> <s_epik_input>
W09IXVtDQEBIXTFbQ0gyXVtDSDJdW0NIMl1bQ0BIXTFbQ0BASF0yW0NIMl1PW0NIMl1bQ0gyXU4yYyhuW2NIXW4zKWMoYzM0KW5bY0hdbjRbQ0gyXVtDQEBdNShbT0hdKVtDSDJdW0NIMl1PW0NIMl01

> <s_epik_cmdline>
J2VwaWtfcHl0aG9uJywgJy1waCcsICc3LjAnLCAnLXRuJywgJzgnLCAnLW1hJywgJzIwMCcsICctbWV0YWxfYmluZGluZycsICctaW1hZScsICc8aW5maWxlLm1hZT4nLCAnLW9tYWUnLCAnPG91dGZpbGUubWFlPic=

> <r_lp_tautomer_probability>
1

> <r_epik_Ionization_Penalty>
0.000130618

> <r_epik_Ionization_Penalty_Charging>
0

> <r_epik_Ionization_Penalty_Neutral>
0.000130618

> <r_epik_State_Penalty>
-0

> <r_epik_Charging_Adjusted_Penalty>
0

> <i_epik_Tot_Q>
0

> <i_epik_Tot_abs_Q>
0

> <r_epik_Metal_State_Penalty>
-0

> <b_epik_Metal_Only>
0

> <s_lp_Force_Field>
OPLS_2005

> <r_lp_Energy>
62.6221

> <b_lp_Chiralities_Consistent>
1

> <s_lp_Variant>
AV-unprocessed.smi:240-16

> <Gold.Version>
5.8.1

> <Gold.Id.Protein>
6NUR|6NUR_protein|mol2

> <Gold.PLP.Fitness>
43.4679

> <Gold.PLP.PLP>
-34.4298

> <Gold.PLP.part.hbond>
-4.2041

> <Gold.PLP.part.metal>
0.0000

> <Gold.PLP.part.buried>
-0.9279

> <Gold.PLP.part.nonpolar>
-30.4955

> <Gold.PLP.part.repulsive>
0.8390

> <Gold.PLP.ligand.clash>
0.0667

> <Gold.PLP.ligand.torsion>
0.9544

> <Gold.PLP.Chemscore.Hbond>
2.6113

> <Gold.PLP.Chemscore.CHOScore>
1.0000

> <Gold.PLP.Chemscore.Metal>
0.0000

> <Gold.Chemscore.Hbonds>
donor molecule, donor type, donor heavy atom, donor atom, acceptor molecule, acceptor atom, score
      L1  H     1    29       P1  7957  0.98
      L1  H    24    49       P1  7921  1.00
      P1  H  7989  7998       L1     9  0.70
      L1  C    20    46       P1 10171  1.00

> <Gold.PLP.Chemscore.Internal.Correction>
0.1800

> <Gold.Rescore>
     Score         DG    S(hbond)    S(metal)    S(lipo)     H(rot)  DE(clash)    DE(int)     intcor
      5.75     -13.88       2.07        0.00      78.39       3.00       2.36       5.77       ----

> <Gold.Chemscore.Fitness>
5.7509

> <Gold.Chemscore.DG>
-13.8770

> <Gold.Chemscore.ZeroCoef>
-5.4800

> <Gold.Chemscore.Hbond>
2.0705

> <Gold.Chemscore.Metal>
0.0000

> <Gold.Chemscore.Lipo>
78.3891

> <Gold.Chemscore.Internal_Hbond>
0.0000

> <Gold.Chemscore.DEClash>
2.3563

> <Gold.Chemscore.DEInternal>
5.7698

> <Gold.Chemscore.Rot>
3.0039

> <Gold.Chemscore.Internal.Correction>
   9.000000E+99

> <Gold.Chemscore.Hbonds>
donor molecule, donor type, donor heavy atom, donor atom, acceptor molecule, acceptor atom, score
      L1  H     1    29       P1  7957  0.91
      L1  H    24    49       P1  7921  0.99
      P1  H  7989  7998       L1     9  0.07

> <Gold.Chemscore.Hbond.Weighted>
-6.9154

> <Gold.Chemscore.Metal.Weighted>
-0.0000

> <Gold.Chemscore.Lipo.Weighted>
-9.1715

> <Gold.Chemscore.Internal_Hbond.Weighted>
0.0000

> <Gold.Chemscore.DEClash.Weighted>
2.3563

> <Gold.Chemscore.DEInternal.Weighted>
5.7698

> <Gold.Chemscore.Rot.Weighted>
7.6899

> <Gold.Chemscore.Internal.Correction.Weighted>
   9.000000E+99

> <Gold.Protein.RotatedTorsions>
[ 6907 6896 6895 6894 ] final  156.74 input  -60.11 | X-H torsion
[ 7974 7965 7964 7962 ] final  -90.04 input  175.53 | X-H torsion
[ 8008 7997 7996 7995 ] final  128.24 input   59.86 | X-H torsion
[ 10167 10162 10161 10158 ] final -105.61 input  -65.29 | X-H torsion
[ 10718 10713 10712 10709 ] final  -49.84 input   66.30 | X-H torsion
[ 10763 10752 10751 10750 ] final   -9.43 input  -60.55 | X-H torsion
[ 11005 11000 10999 10996 ] final   85.22 input  -57.11 | X-H torsion

> <Gold.Protein.ActiveResidues>
 VAL166  LYS551  ARG553  GLY616  TRP617  ASP618  TYR619  PRO620  LYS621  CYS622 
 ASP623  PHE694  ASN695  SER759  ASP760  ASP761  ALA762  ILE779  LEU786  VAL792 
 PHE793  MET794  SER795  GLU796  ALA797  LYS798  CYS799  TRP800  GLU811  SER814 

> <Gold.Protein.RotatedAtoms>
  152.0253  133.3915  159.4274 H   0  0  0  0  0  0  0  0  0  0  0  0  # atno 6907 bound_to 6896
  150.6886  134.3581  159.4947 H   0  0  0  0  0  0  0  0  0  0  0  0  # atno 6908 bound_to 6896
  152.1360  134.9098  160.0607 H   0  0  0  0  0  0  0  0  0  0  0  0  # atno 6909 bound_to 6896
  145.4318  140.9556  143.2124 H   0  0  0  0  0  0  0  0  0  0  0  0  # atno 7974 bound_to 7965
  156.2910  140.2649  156.2404 H   0  0  0  0  0  0  0  0  0  0  0  0  # atno 8008 bound_to 7997
  154.9983  140.0388  157.2367 H   0  0  0  0  0  0  0  0  0  0  0  0  # atno 8009 bound_to 7997
  154.7624  140.2763  155.6208 H   0  0  0  0  0  0  0  0  0  0  0  0  # atno 8010 bound_to 7997
  140.1967  143.3850  152.1163 H   0  0  0  0  0  0  0  0  0  0  0  0  # atno 10167 bound_to 10162
  156.1856  130.4151  149.9444 H   0  0  0  0  0  0  0  0  0  0  0  0  # atno 10718 bound_to 10713
  153.4547  135.7015  153.6087 H   0  0  0  0  0  0  0  0  0  0  0  0  # atno 10763 bound_to 10752
  153.4407  135.3781  155.2226 H   0  0  0  0  0  0  0  0  0  0  0  0  # atno 10764 bound_to 10752
  154.8728  135.3973  154.3964 H   0  0  0  0  0  0  0  0  0  0  0  0  # atno 10765 bound_to 10752
  139.8978  134.8271  156.2552 H   0  0  0  0  0  0  0  0  0  0  0  0  # atno 11005 bound_to 11000
  144.8178  139.5845  143.7000 LP  0  0  0  0  0  0  0  0  0  0  0  0  # atno 17320 bound_to 7965
  146.2603  139.6395  142.9366 LP  0  0  0  0  0  0  0  0  0  0  0  0  # atno 17321 bound_to 7965
  139.5234  144.7070  151.5322 LP  0  0  0  0  0  0  0  0  0  0  0  0  # atno 17342 bound_to 10162
  140.6419  143.8873  150.6699 LP  0  0  0  0  0  0  0  0  0  0  0  0  # atno 17343 bound_to 10162
  156.7200  130.9003  151.3617 LP  0  0  0  0  0  0  0  0  0  0  0  0  # atno 17370 bound_to 10713
  157.6897  130.9220  150.0479 LP  0  0  0  0  0  0  0  0  0  0  0  0  # atno 17371 bound_to 10713
  141.0198  133.7048  156.1249 LP  0  0  0  0  0  0  0  0  0  0  0  0  # atno 17394 bound_to 11000
  140.7250  134.4317  157.5571 LP  0  0  0  0  0  0  0  0  0  0  0  0  # atno 17395 bound_to 11000

$$$$
