AV-unprocessed.smi:171|AV-procd|sdf|1417|dock4
  -GOLD-   2262019183D 1   1.00000     0.00000
 Structure written by MMmdl.
 56 59  0  0  0  0  0  0  0  0  1 V2000
  151.1679  142.1380  158.4256 C   0  0  0  0  0  0  0  0  0  0  0  0
  152.1123  140.9870  158.8114 C   0  0  0  0  0  0  0  0  0  0  0  0
  153.3991  141.5375  159.4446 C   0  0  0  0  0  0  0  0  0  0  0  0
  152.4475  140.0645  157.6156 C   0  0  0  0  0  0  0  0  0  0  0  0
  151.2294  139.4146  156.9145 C   0  0  1  0  0  0  0  0  0  0  0  0
  151.6062  138.9799  155.4800 C   0  0  0  0  0  0  0  0  0  0  0  0
  151.8279  139.8360  154.6262 O   0  0  0  0  0  0  0  0  0  0  0  0
  151.6819  137.6684  155.1896 N   0  0  0  0  0  0  0  0  0  0  0  0
  151.4199  136.5686  156.1181 C   0  0  0  0  0  0  0  0  0  0  0  0
  151.4222  137.0182  157.5892 C   0  0  0  0  0  0  0  0  0  0  0  0
  150.7267  138.2941  157.7237 N   0  0  0  0  0  0  0  0  0  0  0  0
  149.3926  138.1946  157.9465 C   0  0  0  0  0  0  0  0  0  0  0  0
  148.5455  139.1445  157.4690 N   0  0  0  0  0  0  0  0  0  0  0  0
  147.2306  139.0408  157.6827 C   0  0  0  0  0  0  0  0  0  0  0  0
  146.5636  138.0861  158.3346 N   0  0  0  0  0  0  0  0  0  0  0  0
  147.4097  137.1289  158.8127 C   0  0  0  0  0  0  0  0  0  0  0  0
  148.8246  137.1067  158.6636 C   0  0  0  0  0  0  0  0  0  0  0  0
  149.3517  135.9853  159.2909 N   0  0  0  0  0  0  0  0  0  0  0  0
  148.3066  135.3772  159.7821 C   0  0  0  0  0  0  0  0  0  0  0  0
  147.0980  135.9895  159.5343 N   0  0  0  0  0  0  0  0  0  0  0  0
  145.7843  135.5371  159.9691 C   0  0  0  0  0  0  0  0  0  0  0  0
  145.6588  135.3367  161.4999 C   0  0  2  0  0  0  0  0  0  0  0  0
  144.2907  135.1406  161.8181 O   0  0  0  0  0  0  0  0  0  0  0  0
  146.1844  136.5119  162.3371 C   0  0  0  0  0  0  0  0  0  0  0  0
  147.3323  135.9177  163.1493 C   0  0  0  0  0  0  0  0  0  0  0  0
  146.9913  134.5475  163.2627 O   0  0  0  0  0  0  0  0  0  0  0  0
  146.5046  134.1393  161.9939 C   0  0  1  0  0  0  0  0  0  0  0  0
  145.8012  132.7752  162.0836 C   0  0  0  0  0  0  0  0  0  0  0  0
  151.5862  142.7416  157.6198 H   0  0  0  0  0  0  0  0  0  0  0  0
  150.9871  142.7972  159.2751 H   0  0  0  0  0  0  0  0  0  0  0  0
  150.1963  141.7679  158.0986 H   0  0  0  0  0  0  0  0  0  0  0  0
  151.6145  140.3940  159.5796 H   0  0  0  0  0  0  0  0  0  0  0  0
  153.9561  142.1539  158.7381 H   0  0  0  0  0  0  0  0  0  0  0  0
  154.0548  140.7298  159.7708 H   0  0  0  0  0  0  0  0  0  0  0  0
  153.1768  142.1508  160.3183 H   0  0  0  0  0  0  0  0  0  0  0  0
  153.0173  140.6383  156.8829 H   0  0  0  0  0  0  0  0  0  0  0  0
  153.1234  139.2800  157.9598 H   0  0  0  0  0  0  0  0  0  0  0  0
  150.4641  140.1849  156.8123 H   0  0  0  0  0  0  0  0  0  0  0  0
  151.9294  137.4138  154.2445 H   0  0  0  0  0  0  0  0  0  0  0  0
  150.4437  136.1528  155.8655 H   0  0  0  0  0  0  0  0  0  0  0  0
  152.1501  135.7746  155.9613 H   0  0  0  0  0  0  0  0  0  0  0  0
  150.9893  136.2416  158.2210 H   0  0  0  0  0  0  0  0  0  0  0  0
  152.4482  137.1479  157.9343 H   0  0  0  0  0  0  0  0  0  0  0  0
  146.6268  139.8367  157.2724 H   0  0  0  0  0  0  0  0  0  0  0  0
  148.3890  134.4568  160.3417 H   0  0  0  0  0  0  0  0  0  0  0  0
  145.0456  136.2616  159.6239 H   0  0  0  0  0  0  0  0  0  0  0  0
  145.5579  134.6043  159.4514 H   0  0  0  0  0  0  0  0  0  0  0  0
  144.0973  134.2185  161.7403 H   0  0  0  0  0  0  0  0  0  0  0  0
  146.5297  137.3559  161.7415 H   0  0  0  0  0  0  0  0  0  0  0  0
  145.4166  136.8915  163.0132 H   0  0  0  0  0  0  0  0  0  0  0  0
  148.2775  136.0141  162.6125 H   0  0  0  0  0  0  0  0  0  0  0  0
  147.4443  136.3872  164.1268 H   0  0  0  0  0  0  0  0  0  0  0  0
  147.3787  134.0295  161.3492 H   0  0  0  0  0  0  0  0  0  0  0  0
  145.3938  132.4809  161.1161 H   0  0  0  0  0  0  0  0  0  0  0  0
  144.9844  132.7870  162.8057 H   0  0  0  0  0  0  0  0  0  0  0  0
  146.5011  132.0006  162.3971 H   0  0  0  0  0  0  0  0  0  0  0  0
  1  2  1  0  0  0  0
  1 29  1  0  0  0  0
  1 30  1  0  0  0  0
  1 31  1  0  0  0  0
  2  3  1  0  0  0  0
  2  4  1  0  0  0  0
  2 32  1  0  0  0  0
  3 33  1  0  0  0  0
  3 34  1  0  0  0  0
  3 35  1  0  0  0  0
  4  5  1  0  0  0  0
  4 36  1  0  0  0  0
  4 37  1  0  0  0  0
  5 11  1  0  0  0  0
  5  6  1  0  0  0  0
  5 38  1  0  0  0  0
  6  7  2  0  0  0  0
  6  8  1  0  0  0  0
  8  9  1  0  0  0  0
  8 39  1  0  0  0  0
  9 10  1  0  0  0  0
  9 40  1  0  0  0  0
  9 41  1  0  0  0  0
 10 11  1  0  0  0  0
 10 42  1  0  0  0  0
 10 43  1  0  0  0  0
 11 12  1  0  0  0  0
 12 17  1  0  0  0  0
 12 13  2  0  0  0  0
 13 14  1  0  0  0  0
 14 15  2  0  0  0  0
 14 44  1  0  0  0  0
 15 16  1  0  0  0  0
 16 20  1  0  0  0  0
 16 17  2  0  0  0  0
 17 18  1  0  0  0  0
 18 19  2  0  0  0  0
 19 20  1  0  0  0  0
 19 45  1  0  0  0  0
 20 21  1  0  0  0  0
 21 22  1  0  0  0  0
 21 46  1  0  0  0  0
 21 47  1  0  0  0  0
 22 27  1  0  0  0  0
 22 23  1  0  0  0  0
 22 24  1  0  0  0  0
 23 48  1  0  0  0  0
 24 25  1  0  0  0  0
 24 49  1  0  0  0  0
 24 50  1  0  0  0  0
 25 26  1  0  0  0  0
 25 51  1  0  0  0  0
 25 52  1  0  0  0  0
 26 27  1  0  0  0  0
 27 28  1  0  0  0  0
 27 53  1  0  0  0  0
 28 54  1  0  0  0  0
 28 55  1  0  0  0  0
 28 56  1  0  0  0  0
M  END
> <s_m_source_file>
AV-unprocessed.smi

> <i_m_source_file_index>
171

> <i_lp_mmshare_version>
43012

> <i_f3d_flags>
0

> <s_epik_input>
W0NIM11bQ0hdKFtDSDNdKVtDSDJdW0NAQEhdMUMoPU8pW05IXVtDSDJdW0NIMl1OMWMobltjSF1uMiljKGMyMyluW2NIXW4zW0NIMl1bQ0BAXTQoW09IXSlbQ0gyXVtDSDJdT1tDQEhdNFtDSDNd

> <s_epik_cmdline>
J2VwaWtfcHl0aG9uJywgJy1waCcsICc3LjAnLCAnLXRuJywgJzgnLCAnLW1hJywgJzIwMCcsICctbWV0YWxfYmluZGluZycsICctaW1hZScsICc8aW5maWxlLm1hZT4nLCAnLW9tYWUnLCAnPG91dGZpbGUubWFlPic=

> <r_lp_tautomer_probability>
1

> <r_epik_Ionization_Penalty>
0.000670584

> <r_epik_Ionization_Penalty_Charging>
0

> <r_epik_Ionization_Penalty_Neutral>
0.000670584

> <r_epik_State_Penalty>
0.000304767

> <r_epik_Charging_Adjusted_Penalty>
0.000304767

> <i_epik_Tot_Q>
0

> <i_epik_Tot_abs_Q>
0

> <r_epik_Metal_State_Penalty>
-0

> <b_epik_Metal_Only>
0

> <s_lp_Force_Field>
OPLS_2005

> <r_lp_Energy>
42.7698

> <b_lp_Chiralities_Consistent>
1

> <s_lp_Variant>
AV-unprocessed.smi:171-4

> <Gold.Version>
5.8.1

> <Gold.Id.Protein>
6NUR|6NUR_protein|mol2

> <Gold.PLP.Fitness>
42.7363

> <Gold.PLP.PLP>
-37.4582

> <Gold.PLP.part.hbond>
-3.3375

> <Gold.PLP.part.metal>
0.0000

> <Gold.PLP.part.buried>
-6.6894

> <Gold.PLP.part.nonpolar>
-28.3724

> <Gold.PLP.part.repulsive>
0.1937

> <Gold.PLP.ligand.clash>
0.0000

> <Gold.PLP.ligand.torsion>
0.4791

> <Gold.PLP.Chemscore.Hbond>
1.9760

> <Gold.PLP.Chemscore.CHOScore>
0.0000

> <Gold.PLP.Chemscore.Metal>
0.0000

> <Gold.Chemscore.Hbonds>
donor molecule, donor type, donor heavy atom, donor atom, acceptor molecule, acceptor atom, score
      P1  H  6896  6907       L1    18  0.95
      P1  H  7989  7998       L1     7  0.98

> <Gold.PLP.Chemscore.Internal.Correction>
0.3085

> <Gold.Rescore>
     Score         DG    S(hbond)    S(metal)    S(lipo)     H(rot)  DE(clash)    DE(int)     intcor
     12.63     -14.74       1.77        0.00      78.63       2.29       0.31       1.80       ----

> <Gold.Chemscore.Fitness>
12.6270

> <Gold.Chemscore.DG>
-14.7356

> <Gold.Chemscore.ZeroCoef>
-5.4800

> <Gold.Chemscore.Hbond>
1.7739

> <Gold.Chemscore.Metal>
0.0000

> <Gold.Chemscore.Lipo>
78.6349

> <Gold.Chemscore.Internal_Hbond>
0.0000

> <Gold.Chemscore.DEClash>
0.3063

> <Gold.Chemscore.DEInternal>
1.8023

> <Gold.Chemscore.Rot>
2.2928

> <Gold.Chemscore.Internal.Correction>
   9.000000E+99

> <Gold.Chemscore.Hbonds>
donor molecule, donor type, donor heavy atom, donor atom, acceptor molecule, acceptor atom, score
      P1  H  6896  6907       L1    18  0.21
      P1  H  7989  7998       L1     7  0.88

> <Gold.Chemscore.Hbond.Weighted>
-5.9249

> <Gold.Chemscore.Metal.Weighted>
-0.0000

> <Gold.Chemscore.Lipo.Weighted>
-9.2003

> <Gold.Chemscore.Internal_Hbond.Weighted>
0.0000

> <Gold.Chemscore.DEClash.Weighted>
0.3063

> <Gold.Chemscore.DEInternal.Weighted>
1.8023

> <Gold.Chemscore.Rot.Weighted>
5.8696

> <Gold.Chemscore.Internal.Correction.Weighted>
   9.000000E+99

> <Gold.Protein.RotatedTorsions>
[ 6907 6896 6895 6894 ] final  -71.34 input  -60.11 | X-H torsion
[ 7974 7965 7964 7962 ] final   26.42 input  175.53 | X-H torsion
[ 8008 7997 7996 7995 ] final  -38.24 input   59.86 | X-H torsion
[ 10167 10162 10161 10158 ] final  -94.54 input  -65.29 | X-H torsion
[ 10718 10713 10712 10709 ] final   79.54 input   66.30 | X-H torsion
[ 10763 10752 10751 10750 ] final -112.35 input  -60.55 | X-H torsion
[ 11005 11000 10999 10996 ] final -126.29 input  -57.11 | X-H torsion

> <Gold.Protein.ActiveResidues>
 VAL166  LYS551  ARG553  GLY616  TRP617  ASP618  TYR619  PRO620  LYS621  CYS622 
 ASP623  PHE694  ASN695  SER759  ASP760  ASP761  ALA762  ILE779  LEU786  VAL792 
 PHE793  MET794  SER795  GLU796  ALA797  LYS798  CYS799  TRP800  GLU811  SER814 

> <Gold.Protein.RotatedAtoms>
  150.7217  134.5323  159.5706 H   0  0  0  0  0  0  0  0  0  0  0  0  # atno 6907 bound_to 6896
  152.2853  134.7779  160.0397 H   0  0  0  0  0  0  0  0  0  0  0  0  # atno 6908 bound_to 6896
  151.8412  133.3388  159.3680 H   0  0  0  0  0  0  0  0  0  0  0  0  # atno 6909 bound_to 6896
  146.1838  139.7330  142.8881 H   0  0  0  0  0  0  0  0  0  0  0  0  # atno 7974 bound_to 7965
  154.4040  140.1583  156.2667 H   0  0  0  0  0  0  0  0  0  0  0  0  # atno 8008 bound_to 7997
  155.8989  140.3434  155.5989 H   0  0  0  0  0  0  0  0  0  0  0  0  # atno 8009 bound_to 7997
  155.7471  140.0800  157.2209 H   0  0  0  0  0  0  0  0  0  0  0  0  # atno 8010 bound_to 7997
  140.3133  143.3092  152.0125 H   0  0  0  0  0  0  0  0  0  0  0  0  # atno 10167 bound_to 10162
  157.6780  130.9919  150.1948 H   0  0  0  0  0  0  0  0  0  0  0  0  # atno 10718 bound_to 10713
  154.8345  135.4494  154.1180 H   0  0  0  0  0  0  0  0  0  0  0  0  # atno 10763 bound_to 10752
  153.2424  135.6918  153.7774 H   0  0  0  0  0  0  0  0  0  0  0  0  # atno 10764 bound_to 10752
  153.7117  135.3355  155.3223 H   0  0  0  0  0  0  0  0  0  0  0  0  # atno 10765 bound_to 10752
  140.9693  134.0828  157.3886 H   0  0  0  0  0  0  0  0  0  0  0  0  # atno 11005 bound_to 11000
  145.3998  141.0383  143.3077 LP  0  0  0  0  0  0  0  0  0  0  0  0  # atno 17320 bound_to 7965
  144.8361  139.5547  143.6921 LP  0  0  0  0  0  0  0  0  0  0  0  0  # atno 17321 bound_to 7965
  139.4889  144.6367  151.6960 LP  0  0  0  0  0  0  0  0  0  0  0  0  # atno 17342 bound_to 10162
  140.5548  144.0365  150.6143 LP  0  0  0  0  0  0  0  0  0  0  0  0  # atno 17343 bound_to 10162
  156.2652  130.3715  149.8089 LP  0  0  0  0  0  0  0  0  0  0  0  0  # atno 17370 bound_to 10713
  156.5822  130.8471  151.3386 LP  0  0  0  0  0  0  0  0  0  0  0  0  # atno 17371 bound_to 10713
  139.8906  135.0113  156.6746 LP  0  0  0  0  0  0  0  0  0  0  0  0  # atno 17394 bound_to 11000
  140.7352  133.9024  155.8239 LP  0  0  0  0  0  0  0  0  0  0  0  0  # atno 17395 bound_to 11000

$$$$
