AV-unprocessed.smi:509|AV-procd|sdf|2761|dock4
  -GOLD-   2262023223D 1   1.00000     0.00000
 Structure written by MMmdl.
 45 47  0  0  0  0  0  0  0  0  1 V2000
  150.6361  135.3312  155.3669 C   0  0  0  0  0  0  0  0  0  0  0  0
  151.2971  136.5629  155.1417 O   0  0  0  0  0  0  0  0  0  0  0  0
  150.6217  137.6618  155.7313 C   0  0  0  0  0  0  0  0  0  0  0  0
  151.3323  138.9662  155.3449 C   0  0  0  0  0  0  0  0  0  0  0  0
  150.8126  140.1113  156.0911 N   0  0  0  0  0  0  0  0  0  0  0  0
  149.7299  140.8919  155.8184 C   0  0  0  0  0  0  0  0  0  0  0  0
  148.8877  140.6571  154.7310 N   0  0  0  0  0  0  0  0  0  0  0  0
  148.3862  141.6412  153.7742 C   0  0  0  0  0  0  0  0  0  0  0  0
  146.8683  141.4776  153.5611 C   0  0  0  0  0  0  0  0  0  0  0  0
  146.5962  140.1518  153.0167 N   0  0  0  0  0  0  0  0  0  0  0  0
  147.0828  139.1511  153.9606 C   0  0  0  0  0  0  0  0  0  0  0  0
  148.5974  139.3345  154.1850 C   0  0  0  0  0  0  0  0  0  0  0  0
  149.5684  141.9239  156.6501 N   0  0  0  0  0  0  0  0  0  0  0  0
  150.6164  141.7747  157.5441 C   0  0  0  0  0  0  0  0  0  0  0  0
  151.3759  140.7005  157.2267 C   0  0  0  0  0  0  0  0  0  0  0  0
  152.5756  140.3260  157.9878 C   0  0  0  0  0  0  0  0  0  0  0  0
  153.2684  139.3624  157.6590 O   0  0  0  0  0  0  0  0  0  0  0  0
  152.8304  141.1371  159.0624 N   0  0  0  0  0  0  0  0  0  0  0  0
  154.0028  140.8357  159.9051 C   0  0  0  0  0  0  0  0  0  0  0  0
  152.0727  142.2352  159.4299 C   0  0  0  0  0  0  0  0  0  0  0  0
  152.3648  142.9098  160.4216 O   0  0  0  0  0  0  0  0  0  0  0  0
  150.9824  142.5631  158.6648 N   0  0  0  0  0  0  0  0  0  0  0  0
  150.1628  143.7269  159.0142 C   0  0  0  0  0  0  0  0  0  0  0  0
  151.1951  134.5248  154.8924 H   0  0  0  0  0  0  0  0  0  0  0  0
  149.6311  135.3400  154.9431 H   0  0  0  0  0  0  0  0  0  0  0  0
  150.5661  135.1109  156.4328 H   0  0  0  0  0  0  0  0  0  0  0  0
  149.5866  137.6904  155.3887 H   0  0  0  0  0  0  0  0  0  0  0  0
  150.6032  137.5502  156.8164 H   0  0  0  0  0  0  0  0  0  0  0  0
  152.3985  138.8541  155.5107 H   0  0  0  0  0  0  0  0  0  0  0  0
  151.2330  139.1570  154.2775 H   0  0  0  0  0  0  0  0  0  0  0  0
  148.6241  142.6509  154.1061 H   0  0  0  0  0  0  0  0  0  0  0  0
  148.9111  141.5149  152.8261 H   0  0  0  0  0  0  0  0  0  0  0  0
  146.3238  141.6165  154.4962 H   0  0  0  0  0  0  0  0  0  0  0  0
  146.5035  142.2287  152.8606 H   0  0  0  0  0  0  0  0  0  0  0  0
  145.6017  140.0367  152.8833 H   0  0  0  0  0  0  0  0  0  0  0  0
  146.5392  139.2333  154.9026 H   0  0  0  0  0  0  0  0  0  0  0  0
  146.8802  138.1584  153.5588 H   0  0  0  0  0  0  0  0  0  0  0  0
  149.1457  139.1926  153.2526 H   0  0  0  0  0  0  0  0  0  0  0  0
  148.9553  138.5712  154.8767 H   0  0  0  0  0  0  0  0  0  0  0  0
  153.6947  140.6587  160.9367 H   0  0  0  0  0  0  0  0  0  0  0  0
  154.6986  141.6762  159.9026 H   0  0  0  0  0  0  0  0  0  0  0  0
  154.5748  139.9585  159.6009 H   0  0  0  0  0  0  0  0  0  0  0  0
  149.6132  143.5377  159.9368 H   0  0  0  0  0  0  0  0  0  0  0  0
  149.4354  143.9752  158.2418 H   0  0  0  0  0  0  0  0  0  0  0  0
  150.7826  144.6125  159.1619 H   0  0  0  0  0  0  0  0  0  0  0  0
  1  2  1  0  0  0  0
  1 24  1  0  0  0  0
  1 25  1  0  0  0  0
  1 26  1  0  0  0  0
  2  3  1  0  0  0  0
  3  4  1  0  0  0  0
  3 27  1  0  0  0  0
  3 28  1  0  0  0  0
  4  5  1  0  0  0  0
  4 29  1  0  0  0  0
  4 30  1  0  0  0  0
  5 15  1  0  0  0  0
  5  6  1  0  0  0  0
  6  7  1  0  0  0  0
  6 13  2  0  0  0  0
  7 12  1  0  0  0  0
  7  8  1  0  0  0  0
  8  9  1  0  0  0  0
  8 31  1  0  0  0  0
  8 32  1  0  0  0  0
  9 10  1  0  0  0  0
  9 33  1  0  0  0  0
  9 34  1  0  0  0  0
 10 11  1  0  0  0  0
 10 35  1  0  0  0  0
 11 12  1  0  0  0  0
 11 36  1  0  0  0  0
 11 37  1  0  0  0  0
 12 38  1  0  0  0  0
 12 39  1  0  0  0  0
 13 14  1  0  0  0  0
 14 22  1  0  0  0  0
 14 15  2  0  0  0  0
 15 16  1  0  0  0  0
 16 17  2  0  0  0  0
 16 18  1  0  0  0  0
 18 19  1  0  0  0  0
 18 20  1  0  0  0  0
 19 40  1  0  0  0  0
 19 41  1  0  0  0  0
 19 42  1  0  0  0  0
 20 21  2  0  0  0  0
 20 22  1  0  0  0  0
 22 23  1  0  0  0  0
 23 43  1  0  0  0  0
 23 44  1  0  0  0  0
 23 45  1  0  0  0  0
M  END
> <s_m_source_file>
AV-unprocessed.smi

> <i_m_source_file_index>
509

> <i_lp_mmshare_version>
43012

> <i_f3d_flags>
0

> <s_epik_input>
W0NIM11uMWMoPU8pbihbQ0gzXSljKD1PKWMoYzEyKW4oW0NIMl1bQ0gyXU9bQ0gzXSljKG4yKU4zW0NIMl1bQ0gyXVtOSF1bQ0gyXVtDSDJdMw==

> <s_epik_cmdline>
J2VwaWtfcHl0aG9uJywgJy1waCcsICc3LjAnLCAnLXRuJywgJzgnLCAnLW1hJywgJzIwMCcsICctbWV0YWxfYmluZGluZycsICctaW1hZScsICc8aW5maWxlLm1hZT4nLCAnLW9tYWUnLCAnPG91dGZpbGUubWFlPic=

> <r_epik_Ionization_Penalty>
2.51424

> <r_epik_Ionization_Penalty_Charging>
1.27827e-08

> <r_epik_Ionization_Penalty_Neutral>
2.51424

> <r_epik_State_Penalty>
2.67993

> <r_epik_Charging_Adjusted_Penalty>
2.67993

> <i_epik_Tot_Q>
0

> <i_epik_Tot_abs_Q>
0

> <r_epik_Metal_State_Penalty>
2.67967

> <b_epik_Metal_Only>
0

> <s_lp_Force_Field>
OPLS_2005

> <r_lp_Energy>
54.3442

> <b_lp_Chiralities_Consistent>
1

> <s_lp_Variant>
AV-unprocessed.smi:509-2

> <Gold.Version>
5.8.1

> <Gold.Id.Protein>
6NUR|6NUR_protein|mol2

> <Gold.PLP.Fitness>
44.1362

> <Gold.PLP.PLP>
-37.9314

> <Gold.PLP.part.hbond>
-3.0000

> <Gold.PLP.part.metal>
0.0000

> <Gold.PLP.part.buried>
-4.4046

> <Gold.PLP.part.nonpolar>
-31.2838

> <Gold.PLP.part.repulsive>
0.8466

> <Gold.PLP.ligand.clash>
0.2169

> <Gold.PLP.ligand.torsion>
0.9216

> <Gold.PLP.Chemscore.Hbond>
2.6443

> <Gold.PLP.Chemscore.CHOScore>
0.0000

> <Gold.PLP.Chemscore.Metal>
0.0000

> <Gold.Chemscore.Hbonds>
donor molecule, donor type, donor heavy atom, donor atom, acceptor molecule, acceptor atom, score
      L1  H    10    35       P1 10175  1.00
      P1  H  7997  8008       L1    17  1.00
      P1  H 10752 10763       L1     2  0.60

> <Gold.PLP.Chemscore.Internal.Correction>
0.3319

> <Gold.Rescore>
     Score         DG    S(hbond)    S(metal)    S(lipo)     H(rot)  DE(clash)    DE(int)     intcor
     11.96     -15.07       1.83        0.00      62.35       1.49       1.10       2.01       ----

> <Gold.Chemscore.Fitness>
11.9633

> <Gold.Chemscore.DG>
-15.0690

> <Gold.Chemscore.ZeroCoef>
-5.4800

> <Gold.Chemscore.Hbond>
1.8301

> <Gold.Chemscore.Metal>
0.0000

> <Gold.Chemscore.Lipo>
62.3474

> <Gold.Chemscore.Internal_Hbond>
0.0000

> <Gold.Chemscore.DEClash>
1.0954

> <Gold.Chemscore.DEInternal>
2.0104

> <Gold.Chemscore.Rot>
1.4915

> <Gold.Chemscore.Internal.Correction>
   9.000000E+99

> <Gold.Chemscore.Hbonds>
donor molecule, donor type, donor heavy atom, donor atom, acceptor molecule, acceptor atom, score
      L1  H    10    35       P1 10175  0.94
      P1  H  7997  8008       L1    17  0.34
      P1  H 10752 10763       L1     2  0.04

> <Gold.Chemscore.Hbond.Weighted>
-6.1127

> <Gold.Chemscore.Metal.Weighted>
-0.0000

> <Gold.Chemscore.Lipo.Weighted>
-7.2947

> <Gold.Chemscore.Internal_Hbond.Weighted>
0.0000

> <Gold.Chemscore.DEClash.Weighted>
1.0954

> <Gold.Chemscore.DEInternal.Weighted>
2.0104

> <Gold.Chemscore.Rot.Weighted>
3.8183

> <Gold.Chemscore.Internal.Correction.Weighted>
   9.000000E+99

> <Gold.Protein.RotatedTorsions>
[ 6907 6896 6895 6894 ] final -111.81 input  -60.11 | X-H torsion
[ 7974 7965 7964 7962 ] final  -31.77 input  175.53 | X-H torsion
[ 8008 7997 7996 7995 ] final  -69.94 input   59.86 | X-H torsion
[ 10167 10162 10161 10158 ] final   69.62 input  -65.29 | X-H torsion
[ 10718 10713 10712 10709 ] final  131.28 input   66.30 | X-H torsion
[ 10763 10752 10751 10750 ] final   48.22 input  -60.55 | X-H torsion
[ 11005 11000 10999 10996 ] final  111.82 input  -57.11 | X-H torsion

> <Gold.Protein.ActiveResidues>
 VAL166  LYS551  ARG553  GLY616  TRP617  ASP618  TYR619  PRO620  LYS621  CYS622 
 ASP623  PHE694  ASN695  SER759  ASP760  ASP761  ALA762  ILE779  LEU786  VAL792 
 PHE793  MET794  SER795  GLU796  ALA797  LYS798  CYS799  TRP800  GLU811  SER814 

> <Gold.Protein.RotatedAtoms>
  150.7715  133.9181  159.3389 H   0  0  0  0  0  0  0  0  0  0  0  0  # atno 6907 bound_to 6896
  151.7066  135.0918  160.0270 H   0  0  0  0  0  0  0  0  0  0  0  0  # atno 6908 bound_to 6896
  152.3735  133.6412  159.6141 H   0  0  0  0  0  0  0  0  0  0  0  0  # atno 6909 bound_to 6896
  146.1042  140.5709  142.8807 H   0  0  0  0  0  0  0  0  0  0  0  0  # atno 7974 bound_to 7965
  154.4975  140.0844  156.7728 H   0  0  0  0  0  0  0  0  0  0  0  0  # atno 8008 bound_to 7997
  155.4081  140.3440  155.4243 H   0  0  0  0  0  0  0  0  0  0  0  0  # atno 8009 bound_to 7997
  156.1413  140.1530  156.8903 H   0  0  0  0  0  0  0  0  0  0  0  0  # atno 8010 bound_to 7997
  140.0658  144.5194  150.7262 H   0  0  0  0  0  0  0  0  0  0  0  0  # atno 10167 bound_to 10162
  157.4982  131.1093  150.9464 H   0  0  0  0  0  0  0  0  0  0  0  0  # atno 10718 bound_to 10713
  152.9793  135.5951  154.3891 H   0  0  0  0  0  0  0  0  0  0  0  0  # atno 10763 bound_to 10752
  154.3548  135.2767  155.2354 H   0  0  0  0  0  0  0  0  0  0  0  0  # atno 10764 bound_to 10752
  154.4377  135.6021  153.6164 H   0  0  0  0  0  0  0  0  0  0  0  0  # atno 10765 bound_to 10752
  139.8912  134.9516  156.6492 H   0  0  0  0  0  0  0  0  0  0  0  0  # atno 11005 bound_to 11000
  144.7457  140.5061  143.6837 LP  0  0  0  0  0  0  0  0  0  0  0  0  # atno 17320 bound_to 7965
  145.5794  139.1488  143.3243 LP  0  0  0  0  0  0  0  0  0  0  0  0  # atno 17321 bound_to 7965
  140.7150  143.2536  151.4463 LP  0  0  0  0  0  0  0  0  0  0  0  0  # atno 17342 bound_to 10162
  139.5866  144.1591  152.2036 LP  0  0  0  0  0  0  0  0  0  0  0  0  # atno 17343 bound_to 10162
  157.0143  130.5649  149.5324 LP  0  0  0  0  0  0  0  0  0  0  0  0  # atno 17370 bound_to 10713
  156.0213  130.5308  150.8283 LP  0  0  0  0  0  0  0  0  0  0  0  0  # atno 17371 bound_to 10713
  140.7534  133.8878  155.8364 LP  0  0  0  0  0  0  0  0  0  0  0  0  # atno 17394 bound_to 11000
  140.9982  134.1186  157.4343 LP  0  0  0  0  0  0  0  0  0  0  0  0  # atno 17395 bound_to 11000

$$$$
