AV-unprocessed.smi:2768|AV-procd|sdf|10653|dock8
  -GOLD-   2272015103D 1   1.00000     0.00000
 Structure written by MMmdl.
 34 35  0  0  0  0  0  0  0  0  2 V2000
  150.5800  140.0293  154.7426 O   0  0  0  0  0  0  0  0  0  0  0  0
  150.2475  140.3379  155.8927 C   0  0  0  0  0  0  0  0  0  0  0  0
  149.0745  140.8635  156.3508 N   0  5  0  0  0  0  0  0  0  0  0  0
  147.8555  140.9936  155.5474 C   0  0  1  0  0  0  0  0  0  0  0  0
  146.7640  141.7647  156.3327 C   0  0  0  0  0  0  0  0  0  0  0  0
  145.4897  142.0392  155.4943 C   0  0  0  0  0  0  0  0  0  0  0  0
  145.7905  142.7899  154.1796 C   0  0  0  0  0  0  0  0  0  0  0  0
  146.8748  142.0333  153.3800 C   0  0  0  0  0  0  0  0  0  0  0  0
  148.1523  141.7300  154.2090 C   0  0  1  0  0  0  0  0  0  0  0  0
  148.8396  142.9455  154.4450 O   0  0  0  0  0  0  0  0  0  0  0  0
  151.2592  140.1071  157.0358 C   0  0  0  0  0  0  0  0  0  0  0  0
  150.7231  139.2707  157.9292 F   0  0  0  0  0  0  0  0  0  0  0  0
  152.3603  139.5196  156.5551 F   0  0  0  0  0  0  0  0  0  0  0  0
  151.6150  141.4287  157.7152 C   0  0  0  0  0  0  0  0  0  0  0  0
  152.4672  141.4601  158.8429 C   0  0  0  0  0  0  0  0  0  0  0  0
  152.7748  142.7046  159.4247 C   0  0  0  0  0  0  0  0  0  0  0  0
  152.2212  143.8710  158.8640 C   0  0  0  0  0  0  0  0  0  0  0  0
  151.3844  143.7393  157.7386 C   0  0  0  0  0  0  0  0  0  0  0  0
  151.0850  142.5515  157.1719 N   0  0  0  0  0  0  0  0  0  0  0  0
  147.4398  140.0187  155.2869 H   0  0  0  0  0  0  0  0  0  0  0  0
  148.8168  141.1067  153.6092 H   0  0  0  0  0  0  0  0  0  0  0  0
  146.4915  141.2052  157.2282 H   0  0  0  0  0  0  0  0  0  0  0  0
  147.1660  142.7164  156.6837 H   0  0  0  0  0  0  0  0  0  0  0  0
  144.9809  141.1000  155.2673 H   0  0  0  0  0  0  0  0  0  0  0  0
  144.7847  142.6213  156.0883 H   0  0  0  0  0  0  0  0  0  0  0  0
  144.8832  142.8946  153.5844 H   0  0  0  0  0  0  0  0  0  0  0  0
  146.1358  143.7996  154.4043 H   0  0  0  0  0  0  0  0  0  0  0  0
  146.4501  141.0988  153.0084 H   0  0  0  0  0  0  0  0  0  0  0  0
  147.1390  142.6065  152.4905 H   0  0  0  0  0  0  0  0  0  0  0  0
  148.8278  143.0974  155.3786 H   0  0  0  0  0  0  0  0  0  0  0  0
  152.8865  140.5503  159.2466 H   0  0  0  0  0  0  0  0  0  0  0  0
  153.4254  142.7636  160.2845 H   0  0  0  0  0  0  0  0  0  0  0  0
  152.4344  144.8428  159.2839 H   0  0  0  0  0  0  0  0  0  0  0  0
  150.9429  144.6125  157.2814 H   0  0  0  0  0  0  0  0  0  0  0  0
  1  2  2  0  0  0  0
  2  3  1  0  0  0  0
  2 11  1  0  0  0  0
  3  4  1  0  0  0  0
  4 20  1  0  0  0  0
  4  9  1  0  0  0  0
  4  5  1  0  0  0  0
  5  6  1  0  0  0  0
  5 22  1  0  0  0  0
  5 23  1  0  0  0  0
  6  7  1  0  0  0  0
  6 24  1  0  0  0  0
  6 25  1  0  0  0  0
  7  8  1  0  0  0  0
  7 26  1  0  0  0  0
  7 27  1  0  0  0  0
  8  9  1  0  0  0  0
  8 28  1  0  0  0  0
  8 29  1  0  0  0  0
  9 21  1  0  0  0  0
  9 10  1  0  0  0  0
 10 30  1  0  0  0  0
 11 12  1  0  0  0  0
 11 13  1  0  0  0  0
 11 14  1  0  0  0  0
 14 19  1  0  0  0  0
 14 15  2  0  0  0  0
 15 16  1  0  0  0  0
 15 31  1  0  0  0  0
 16 17  2  0  0  0  0
 16 32  1  0  0  0  0
 17 18  1  0  0  0  0
 17 33  1  0  0  0  0
 18 19  2  0  0  0  0
 18 34  1  0  0  0  0
M  CHG  1   3  -1
M  END
> <s_m_source_file>
AV-unprocessed.smi

> <i_m_source_file_index>
2768

> <i_lp_mmshare_version>
43012

> <i_f3d_flags>
0

> <s_epik_input>
bjFbY0hdW2NIXVtjSF1bY0hdYzFDKEYpKEYpQyg9TylbTkhdW0NAQEhdMltDSDJdW0NIMl1bQ0gyXVtDSDJdW0NASF0yW09IXQ==

> <s_epik_cmdline>
J2VwaWtfcHl0aG9uJywgJy1waCcsICc3LjAnLCAnLXRuJywgJzgnLCAnLW1hJywgJzIwMCcsICctbWV0YWxfYmluZGluZycsICctaW1hZScsICc8aW5maWxlLm1hZT4nLCAnLW9tYWUnLCAnPG91dGZpbGUubWFlPic=

> <r_lp_tautomer_probability>
1

> <r_epik_Ionization_Penalty>
5.70553

> <r_epik_Ionization_Penalty_Charging>
5.70553

> <r_epik_Ionization_Penalty_Neutral>
5.5493e-06

> <r_epik_State_Penalty>
5.70549

> <r_epik_Charging_Adjusted_Penalty>
11.411

> <i_epik_Tot_Q>
-1

> <i_epik_Tot_abs_Q>
1

> <r_epik_Metal_State_Penalty>
1.6859

> <b_epik_Metal_Only>
1

> <s_lp_Force_Field>
OPLS_2005

> <r_lp_Energy>
27.4562

> <b_lp_Chiralities_Consistent>
1

> <s_lp_Variant>
AV-unprocessed.smi:2768-6

> <Gold.Version>
5.8.1

> <Gold.Id.Protein>
6NUR|6NUR_protein|mol2

> <Gold.PLP.Fitness>
44.8161

> <Gold.PLP.PLP>
-35.3285

> <Gold.PLP.part.hbond>
-2.7184

> <Gold.PLP.part.metal>
0.0000

> <Gold.PLP.part.buried>
-3.0974

> <Gold.PLP.part.nonpolar>
-29.9007

> <Gold.PLP.part.repulsive>
0.2271

> <Gold.PLP.ligand.clash>
0.0000

> <Gold.PLP.ligand.torsion>
0.1222

> <Gold.PLP.Chemscore.Hbond>
2.2560

> <Gold.PLP.Chemscore.CHOScore>
0.9811

> <Gold.PLP.Chemscore.Metal>
0.0000

> <Gold.Chemscore.Hbonds>
donor molecule, donor type, donor heavy atom, donor atom, acceptor molecule, acceptor atom, score
      L1  H    10    30       P1  8028  0.16
      P1  H  7989  7998       L1     1  1.00
      P1  H  8022  8030       L1    10  1.00
      L1  C    18    34       P1  8028  0.86

> <Gold.PLP.Chemscore.Internal.Correction>
0.0207

> <Gold.Rescore>
     Score         DG    S(hbond)    S(metal)    S(lipo)     H(rot)  DE(clash)    DE(int)     intcor
     14.51     -17.17       1.85        0.00      89.84       1.95       1.13       1.53       ----

> <Gold.Chemscore.Fitness>
14.5067

> <Gold.Chemscore.DG>
-17.1735

> <Gold.Chemscore.ZeroCoef>
-5.4800

> <Gold.Chemscore.Hbond>
1.8487

> <Gold.Chemscore.Metal>
0.0000

> <Gold.Chemscore.Lipo>
89.8433

> <Gold.Chemscore.Internal_Hbond>
0.0000

> <Gold.Chemscore.DEClash>
1.1335

> <Gold.Chemscore.DEInternal>
1.5333

> <Gold.Chemscore.Rot>
1.9503

> <Gold.Chemscore.Internal.Correction>
   9.000000E+99

> <Gold.Chemscore.Hbonds>
donor molecule, donor type, donor heavy atom, donor atom, acceptor molecule, acceptor atom, score
      L1  H    10    30       P1  8028  0.17
      P1  H  7989  7998       L1     1  1.00
      P1  H  8022  8030       L1    10  0.48

> <Gold.Chemscore.Hbond.Weighted>
-6.1746

> <Gold.Chemscore.Metal.Weighted>
-0.0000

> <Gold.Chemscore.Lipo.Weighted>
-10.5117

> <Gold.Chemscore.Internal_Hbond.Weighted>
0.0000

> <Gold.Chemscore.DEClash.Weighted>
1.1335

> <Gold.Chemscore.DEInternal.Weighted>
1.5333

> <Gold.Chemscore.Rot.Weighted>
4.9928

> <Gold.Chemscore.Internal.Correction.Weighted>
   9.000000E+99

> <Gold.Protein.RotatedTorsions>
[ 6907 6896 6895 6894 ] final -112.44 input  -60.11 | X-H torsion
[ 7974 7965 7964 7962 ] final  -82.63 input  175.53 | X-H torsion
[ 8008 7997 7996 7995 ] final  115.91 input   59.86 | X-H torsion
[ 10167 10162 10161 10158 ] final -178.06 input  -65.29 | X-H torsion
[ 10718 10713 10712 10709 ] final  141.63 input   66.30 | X-H torsion
[ 10763 10752 10751 10750 ] final -157.93 input  -60.55 | X-H torsion
[ 11005 11000 10999 10996 ] final   94.03 input  -57.11 | X-H torsion

> <Gold.Protein.ActiveResidues>
 VAL166  LYS551  ARG553  GLY616  TRP617  ASP618  TYR619  PRO620  LYS621  CYS622 
 ASP623  PHE694  ASN695  SER759  ASP760  ASP761  ALA762  ILE779  LEU786  VAL792 
 PHE793  MET794  SER795  GLU796  ALA797  LYS798  CYS799  TRP800  GLU811  SER814 

> <Gold.Protein.RotatedAtoms>
  150.7759  133.9089  159.3363 H   0  0  0  0  0  0  0  0  0  0  0  0  # atno 6907 bound_to 6896
  151.6964  135.0936  160.0252 H   0  0  0  0  0  0  0  0  0  0  0  0  # atno 6908 bound_to 6896
  152.3794  133.6487  159.6185 H   0  0  0  0  0  0  0  0  0  0  0  0  # atno 6909 bound_to 6896
  145.5307  140.9521  143.1605 H   0  0  0  0  0  0  0  0  0  0  0  0  # atno 7974 bound_to 7965
  156.2409  140.2928  156.0442 H   0  0  0  0  0  0  0  0  0  0  0  0  # atno 8008 bound_to 7997
  155.1953  140.0408  157.2925 H   0  0  0  0  0  0  0  0  0  0  0  0  # atno 8009 bound_to 7997
  154.6167  140.2465  155.7608 H   0  0  0  0  0  0  0  0  0  0  0  0  # atno 8010 bound_to 7997
  139.5450  144.2260  152.0970 H   0  0  0  0  0  0  0  0  0  0  0  0  # atno 10167 bound_to 10162
  157.3898  131.1003  151.0657 H   0  0  0  0  0  0  0  0  0  0  0  0  # atno 10718 bound_to 10713
  154.7597  135.3114  154.8401 H   0  0  0  0  0  0  0  0  0  0  0  0  # atno 10763 bound_to 10752
  153.9165  135.6800  153.4753 H   0  0  0  0  0  0  0  0  0  0  0  0  # atno 10764 bound_to 10752
  153.1197  135.4828  154.9106 H   0  0  0  0  0  0  0  0  0  0  0  0  # atno 10765 bound_to 10752
  139.8803  134.8823  156.3805 H   0  0  0  0  0  0  0  0  0  0  0  0  # atno 11005 bound_to 11000
  144.7627  139.6917  143.7227 LP  0  0  0  0  0  0  0  0  0  0  0  0  # atno 17320 bound_to 7965
  146.2046  139.5362  142.9721 LP  0  0  0  0  0  0  0  0  0  0  0  0  # atno 17321 bound_to 7965
  140.1745  144.4904  150.6561 LP  0  0  0  0  0  0  0  0  0  0  0  0  # atno 17342 bound_to 10162
  140.6695  143.2280  151.5661 LP  0  0  0  0  0  0  0  0  0  0  0  0  # atno 17343 bound_to 10162
  157.1695  130.6261  149.5636 LP  0  0  0  0  0  0  0  0  0  0  0  0  # atno 17370 bound_to 10713
  155.9795  130.4790  150.6722 LP  0  0  0  0  0  0  0  0  0  0  0  0  # atno 17371 bound_to 10713
  140.9402  133.7520  156.0137 LP  0  0  0  0  0  0  0  0  0  0  0  0  # atno 17394 bound_to 11000
  140.8228  134.3269  157.5376 LP  0  0  0  0  0  0  0  0  0  0  0  0  # atno 17395 bound_to 11000

$$$$
