AV-unprocessed.smi:77|AV-procd|sdf|774|dock9
  -GOLD-   2262017123D 1   1.00000     0.00000
 Structure written by MMmdl.
 57 61  0  0  0  0  0  0  0  0  1 V2000
  142.9989  135.1723  154.5989 O   0  0  0  0  0  0  0  0  0  0  0  0
  142.3405  135.0819  153.5614 C   0  0  0  0  0  0  0  0  0  0  0  0
  142.6867  134.0367  152.4926 C   0  0  0  0  0  0  0  0  0  0  0  0
  144.0249  134.2197  151.9157 N   0  0  0  0  0  0  0  0  0  0  0  0
  145.0186  134.6323  152.7535 C   0  0  0  0  0  0  0  0  0  0  0  0
  145.8781  133.7099  153.2659 N   0  0  0  0  0  0  0  0  0  0  0  0
  146.8602  134.0756  154.0934 C   0  0  0  0  0  0  0  0  0  0  0  0
  147.1611  135.2945  154.5408 N   0  0  0  0  0  0  0  0  0  0  0  0
  146.3086  136.2301  154.0358 C   0  0  0  0  0  0  0  0  0  0  0  0
  145.2255  135.9908  153.1406 C   0  0  0  0  0  0  0  0  0  0  0  0
  144.6039  137.1963  152.8332 N   0  0  0  0  0  0  0  0  0  0  0  0
  145.2712  138.0896  153.5092 C   0  0  0  0  0  0  0  0  0  0  0  0
  146.2957  137.5929  154.2816 N   0  0  0  0  0  0  0  0  0  0  0  0
  147.1933  138.3643  155.1249 C   0  0  0  0  0  0  0  0  0  0  0  0
  148.4501  138.9333  154.4072 C   0  0  1  0  0  0  0  0  0  0  0  0
  148.2634  140.4553  154.1932 C   0  0  0  0  0  0  0  0  0  0  0  0
  149.1773  140.9581  153.2401 O   0  0  0  0  0  0  0  0  0  0  0  0
  149.7870  138.6328  155.1502 C   0  0  1  0  0  0  0  0  0  0  0  0
  151.0670  138.9108  154.3742 C   0  0  0  0  0  0  0  0  0  0  0  0
  152.1208  139.0117  155.4707 C   0  0  0  0  0  0  0  0  0  0  0  0
  151.4419  139.5029  156.6178 O   0  0  0  0  0  0  0  0  0  0  0  0
  150.0399  139.5177  156.3792 C   0  0  0  0  0  0  0  0  0  0  0  0
  144.3839  133.3523  150.7939 C   0  0  0  0  0  0  0  0  0  0  0  0
  143.4910  132.1800  150.4510 C   0  0  0  0  0  0  0  0  0  0  0  0
  144.8453  131.9403  151.0741 C   0  0  0  0  0  0  0  0  0  0  0  0
  141.2871  135.8645  153.2876 N   0  0  0  0  0  0  0  0  0  0  0  0
  140.7772  136.8948  154.1332 C   0  0  0  0  0  0  0  0  0  0  0  0
  139.4310  137.4894  153.7802 C   0  0  0  0  0  0  0  0  0  0  0  0
  140.6830  138.2925  153.5606 C   0  0  0  0  0  0  0  0  0  0  0  0
  142.5676  133.0377  152.9149 H   0  0  0  0  0  0  0  0  0  0  0  0
  141.9445  134.1073  151.6957 H   0  0  0  0  0  0  0  0  0  0  0  0
  147.4940  133.2770  154.4491 H   0  0  0  0  0  0  0  0  0  0  0  0
  145.0221  139.1400  153.4727 H   0  0  0  0  0  0  0  0  0  0  0  0
  146.5981  139.1721  155.5509 H   0  0  0  0  0  0  0  0  0  0  0  0
  147.5015  137.7409  155.9649 H   0  0  0  0  0  0  0  0  0  0  0  0
  148.5191  138.4827  153.4167 H   0  0  0  0  0  0  0  0  0  0  0  0
  147.2459  140.6806  153.8721 H   0  0  0  0  0  0  0  0  0  0  0  0
  148.4393  141.0145  155.1108 H   0  0  0  0  0  0  0  0  0  0  0  0
  149.2723  140.3215  152.5481 H   0  0  0  0  0  0  0  0  0  0  0  0
  149.7953  137.5896  155.4701 H   0  0  0  0  0  0  0  0  0  0  0  0
  151.3249  138.1325  153.6585 H   0  0  0  0  0  0  0  0  0  0  0  0
  150.9918  139.8587  153.8394 H   0  0  0  0  0  0  0  0  0  0  0  0
  152.5241  138.0258  155.7037 H   0  0  0  0  0  0  0  0  0  0  0  0
  152.9511  139.6599  155.1898 H   0  0  0  0  0  0  0  0  0  0  0  0
  149.7410  140.5478  156.1796 H   0  0  0  0  0  0  0  0  0  0  0  0
  149.5007  139.1747  157.2625 H   0  0  0  0  0  0  0  0  0  0  0  0
  144.8640  133.8484  149.9521 H   0  0  0  0  0  0  0  0  0  0  0  0
  142.6157  132.0082  151.0744 H   0  0  0  0  0  0  0  0  0  0  0  0
  143.3690  131.9359  149.3980 H   0  0  0  0  0  0  0  0  0  0  0  0
  145.6262  131.5320  150.4360 H   0  0  0  0  0  0  0  0  0  0  0  0
  144.8629  131.5989  152.1068 H   0  0  0  0  0  0  0  0  0  0  0  0
  140.8058  135.7170  152.4123 H   0  0  0  0  0  0  0  0  0  0  0  0
  141.0037  136.8275  155.1965 H   0  0  0  0  0  0  0  0  0  0  0  0
  138.9197  137.1064  152.8989 H   0  0  0  0  0  0  0  0  0  0  0  0
  138.7821  137.7862  154.6018 H   0  0  0  0  0  0  0  0  0  0  0  0
  140.8715  139.1242  154.2364 H   0  0  0  0  0  0  0  0  0  0  0  0
  141.0085  138.4448  152.5333 H   0  0  0  0  0  0  0  0  0  0  0  0
  1  2  2  0  0  0  0
  2  3  1  0  0  0  0
  2 26  1  0  0  0  0
  3  4  1  0  0  0  0
  3 30  1  0  0  0  0
  3 31  1  0  0  0  0
  4  5  1  0  0  0  0
  4 23  1  0  0  0  0
  5 10  1  0  0  0  0
  5  6  2  0  0  0  0
  6  7  1  0  0  0  0
  7  8  2  0  0  0  0
  7 32  1  0  0  0  0
  8  9  1  0  0  0  0
  9 13  1  0  0  0  0
  9 10  2  0  0  0  0
 10 11  1  0  0  0  0
 11 12  2  0  0  0  0
 12 13  1  0  0  0  0
 12 33  1  0  0  0  0
 13 14  1  0  0  0  0
 14 15  1  0  0  0  0
 14 34  1  0  0  0  0
 14 35  1  0  0  0  0
 15 16  1  0  0  0  0
 15 18  1  0  0  0  0
 15 36  1  0  0  0  0
 16 17  1  0  0  0  0
 16 37  1  0  0  0  0
 16 38  1  0  0  0  0
 17 39  1  0  0  0  0
 18 22  1  0  0  0  0
 18 19  1  0  0  0  0
 18 40  1  0  0  0  0
 19 20  1  0  0  0  0
 19 41  1  0  0  0  0
 19 42  1  0  0  0  0
 20 21  1  0  0  0  0
 20 43  1  0  0  0  0
 20 44  1  0  0  0  0
 21 22  1  0  0  0  0
 22 45  1  0  0  0  0
 22 46  1  0  0  0  0
 23 25  1  0  0  0  0
 23 24  1  0  0  0  0
 23 47  1  0  0  0  0
 24 25  1  0  0  0  0
 24 48  1  0  0  0  0
 24 49  1  0  0  0  0
 25 50  1  0  0  0  0
 25 51  1  0  0  0  0
 26 27  1  0  0  0  0
 26 52  1  0  0  0  0
 27 29  1  0  0  0  0
 27 28  1  0  0  0  0
 27 53  1  0  0  0  0
 28 29  1  0  0  0  0
 28 54  1  0  0  0  0
 28 55  1  0  0  0  0
 29 56  1  0  0  0  0
 29 57  1  0  0  0  0
M  END
> <s_m_source_file>
AV-unprocessed.smi

> <i_m_source_file_index>
77

> <i_lp_mmshare_version>
43012

> <i_f3d_flags>
0

> <s_epik_input>
W0NIMl0xW0NIMl1bQ0hdMVtOSF1DKD1PKVtDSDJdTihbQ0hdMltDSDJdW0NIMl0yKWMobltjSF1uMyljKGMzNCluW2NIXW40W0NIMl1bQ0BIXShbQ0gyXVtPSF0pW0NAQEhdNVtDSDJdW0NIMl1PW0NIMl01

> <s_epik_cmdline>
J2VwaWtfcHl0aG9uJywgJy1waCcsICc3LjAnLCAnLXRuJywgJzgnLCAnLW1hJywgJzIwMCcsICctbWV0YWxfYmluZGluZycsICctaW1hZScsICc8aW5maWxlLm1hZT4nLCAnLW9tYWUnLCAnPG91dGZpbGUubWFlPic=

> <r_lp_tautomer_probability>
1

> <r_epik_Ionization_Penalty>
0.000703847

> <r_epik_Ionization_Penalty_Charging>
0

> <r_epik_Ionization_Penalty_Neutral>
0.000703847

> <r_epik_State_Penalty>
0.00034025

> <r_epik_Charging_Adjusted_Penalty>
0.00034025

> <i_epik_Tot_Q>
0

> <i_epik_Tot_abs_Q>
0

> <r_epik_Metal_State_Penalty>
-0

> <b_epik_Metal_Only>
0

> <s_lp_Force_Field>
OPLS_2005

> <r_lp_Energy>
54.3031

> <b_lp_Chiralities_Consistent>
1

> <s_lp_Variant>
AV-unprocessed.smi:77-4

> <Gold.Version>
5.8.1

> <Gold.Id.Protein>
6NUR|6NUR_protein|mol2

> <Gold.PLP.Fitness>
43.1585

> <Gold.PLP.PLP>
-39.5931

> <Gold.PLP.part.hbond>
-2.6070

> <Gold.PLP.part.metal>
0.0000

> <Gold.PLP.part.buried>
-7.0703

> <Gold.PLP.part.nonpolar>
-31.1489

> <Gold.PLP.part.repulsive>
0.5109

> <Gold.PLP.ligand.clash>
0.0000

> <Gold.PLP.ligand.torsion>
3.0661

> <Gold.PLP.Chemscore.Hbond>
1.6993

> <Gold.PLP.Chemscore.CHOScore>
1.0000

> <Gold.PLP.Chemscore.Metal>
0.0000

> <Gold.Chemscore.Hbonds>
donor molecule, donor type, donor heavy atom, donor atom, acceptor molecule, acceptor atom, score
      L1  H    17    39       P1  7957  0.78
      P1  H  8011  8017       L1    17  0.90
      L1  C    12    33       P1 10175  1.00

> <Gold.PLP.Chemscore.Internal.Correction>
1.5997

> <Gold.Rescore>
     Score         DG    S(hbond)    S(metal)    S(lipo)     H(rot)  DE(clash)    DE(int)     intcor
      2.97     -10.62       1.22        0.00      85.16       3.47       0.13       7.52       ----

> <Gold.Chemscore.Fitness>
2.9671

> <Gold.Chemscore.DG>
-10.6214

> <Gold.Chemscore.ZeroCoef>
-5.4800

> <Gold.Chemscore.Hbond>
1.2153

> <Gold.Chemscore.Metal>
0.0000

> <Gold.Chemscore.Lipo>
85.1644

> <Gold.Chemscore.Internal_Hbond>
0.0000

> <Gold.Chemscore.DEClash>
0.1334

> <Gold.Chemscore.DEInternal>
7.5209

> <Gold.Chemscore.Rot>
3.4695

> <Gold.Chemscore.Internal.Correction>
   9.000000E+99

> <Gold.Chemscore.Hbonds>
donor molecule, donor type, donor heavy atom, donor atom, acceptor molecule, acceptor atom, score
      L1  H    17    39       P1  7957  0.74
      P1  H  8011  8017       L1    17  0.18

> <Gold.Chemscore.Hbond.Weighted>
-4.0591

> <Gold.Chemscore.Metal.Weighted>
-0.0000

> <Gold.Chemscore.Lipo.Weighted>
-9.9642

> <Gold.Chemscore.Internal_Hbond.Weighted>
0.0000

> <Gold.Chemscore.DEClash.Weighted>
0.1334

> <Gold.Chemscore.DEInternal.Weighted>
7.5209

> <Gold.Chemscore.Rot.Weighted>
8.8820

> <Gold.Chemscore.Internal.Correction.Weighted>
   9.000000E+99

> <Gold.Protein.RotatedTorsions>
[ 6907 6896 6895 6894 ] final  133.44 input  -60.11 | X-H torsion
[ 7974 7965 7964 7962 ] final  -84.29 input  175.53 | X-H torsion
[ 8008 7997 7996 7995 ] final -106.35 input   59.86 | X-H torsion
[ 10167 10162 10161 10158 ] final  149.71 input  -65.29 | X-H torsion
[ 10718 10713 10712 10709 ] final  -13.34 input   66.30 | X-H torsion
[ 10763 10752 10751 10750 ] final  -64.10 input  -60.55 | X-H torsion
[ 11005 11000 10999 10996 ] final -136.99 input  -57.11 | X-H torsion

> <Gold.Protein.ActiveResidues>
 VAL166  LYS551  ARG553  GLY616  TRP617  ASP618  TYR619  PRO620  LYS621  CYS622 
 ASP623  PHE694  ASN695  SER759  ASP760  ASP761  ALA762  ILE779  LEU786  VAL792 
 PHE793  MET794  SER795  GLU796  ALA797  LYS798  CYS799  TRP800  GLU811  SER814 

> <Gold.Protein.RotatedAtoms>
  152.3219  133.5863  159.5750 H   0  0  0  0  0  0  0  0  0  0  0  0  # atno 6907 bound_to 6896
  150.7376  133.9998  159.3643 H   0  0  0  0  0  0  0  0  0  0  0  0  # atno 6908 bound_to 6896
  151.7881  135.0744  160.0434 H   0  0  0  0  0  0  0  0  0  0  0  0  # atno 6909 bound_to 6896
  145.5086  140.9542  143.1720 H   0  0  0  0  0  0  0  0  0  0  0  0  # atno 7974 bound_to 7965
  154.9133  140.0409  157.1958 H   0  0  0  0  0  0  0  0  0  0  0  0  # atno 8008 bound_to 7997
  154.8326  140.2901  155.5690 H   0  0  0  0  0  0  0  0  0  0  0  0  # atno 8009 bound_to 7997
  156.2988  140.2498  156.3254 H   0  0  0  0  0  0  0  0  0  0  0  0  # atno 8010 bound_to 7997
  139.4858  144.5580  151.7282 H   0  0  0  0  0  0  0  0  0  0  0  0  # atno 10167 bound_to 10162
  156.6317  130.4903  149.6127 H   0  0  0  0  0  0  0  0  0  0  0  0  # atno 10718 bound_to 10713
  154.3251  135.6188  153.5525 H   0  0  0  0  0  0  0  0  0  0  0  0  # atno 10763 bound_to 10752
  152.9816  135.5733  154.5026 H   0  0  0  0  0  0  0  0  0  0  0  0  # atno 10764 bound_to 10752
  154.4701  135.2859  155.1625 H   0  0  0  0  0  0  0  0  0  0  0  0  # atno 10765 bound_to 10752
  140.8753  134.2000  157.4625 H   0  0  0  0  0  0  0  0  0  0  0  0  # atno 11005 bound_to 11000
  144.7740  139.6671  143.7183 LP  0  0  0  0  0  0  0  0  0  0  0  0  # atno 17320 bound_to 7965
  146.2181  139.5585  142.9637 LP  0  0  0  0  0  0  0  0  0  0  0  0  # atno 17321 bound_to 7965
  140.5145  144.0974  150.6004 LP  0  0  0  0  0  0  0  0  0  0  0  0  # atno 17342 bound_to 10162
  140.3911  143.2752  152.0059 LP  0  0  0  0  0  0  0  0  0  0  0  0  # atno 17343 bound_to 10162
  156.2229  130.6748  151.1387 LP  0  0  0  0  0  0  0  0  0  0  0  0  # atno 17370 bound_to 10713
  157.7198  131.0688  150.6182 LP  0  0  0  0  0  0  0  0  0  0  0  0  # atno 17371 bound_to 10713
  139.8715  134.9793  156.5030 LP  0  0  0  0  0  0  0  0  0  0  0  0  # atno 17394 bound_to 11000
  140.8525  133.8121  155.9183 LP  0  0  0  0  0  0  0  0  0  0  0  0  # atno 17395 bound_to 11000

$$$$
