AV-unprocessed.smi:2093|AV-procd|sdf|8548|dock6
  -GOLD-   2272011273D 1   1.00000     0.00000
 Structure written by MMmdl.
 30 31  0  0  0  0  0  0  0  0  2 V2000
  153.9230  141.5557  160.4265 C   0  0  0  0  0  0  0  0  0  0  0  0
  152.5712  141.4831  159.6933 C   0  0  2  0  0  0  0  0  0  0  0  0
  152.7772  141.0155  158.3239 N   0  0  0  0  0  0  0  0  0  0  0  0
  152.1520  139.9859  157.7348 C   0  0  0  0  0  0  0  0  0  0  0  0
  151.3220  139.3265  158.3651 O   0  0  0  0  0  0  0  0  0  0  0  0
  152.5282  139.7837  156.4514 N   0  5  0  0  0  0  0  0  0  0  0  0
  151.8003  138.9839  155.6552 C   0  0  0  0  0  0  0  0  0  0  0  0
  151.2218  139.4111  154.5270 N   0  0  0  0  0  0  0  0  0  0  0  0
  150.5078  138.4155  153.8578 C   0  0  0  0  0  0  0  0  0  0  0  0
  150.5354  137.2041  154.4959 C   0  0  0  0  0  0  0  0  0  0  0  0
  151.4644  137.2781  155.9659 S   0  0  0  0  0  0  0  0  0  0  0  0
  151.8530  142.8465  159.6580 C   0  0  2  0  0  0  0  0  0  0  0  0
  152.5727  143.9267  158.8493 C   0  0  0  0  0  0  0  0  0  0  0  0
  152.0043  145.1911  159.4512 C   0  0  0  0  0  0  0  0  0  0  0  0
  151.8928  144.8178  160.9267 C   0  0  0  0  0  0  0  0  0  0  0  0
  151.7613  143.3992  160.9696 O   0  0  0  0  0  0  0  0  0  0  0  0
  153.7964  141.8571  161.4663 H   0  0  0  0  0  0  0  0  0  0  0  0
  154.5935  142.2719  159.9505 H   0  0  0  0  0  0  0  0  0  0  0  0
  154.4230  140.5865  160.4322 H   0  0  0  0  0  0  0  0  0  0  0  0
  151.9270  140.7739  160.2162 H   0  0  0  0  0  0  0  0  0  0  0  0
  153.4450  141.5276  157.7664 H   0  0  0  0  0  0  0  0  0  0  0  0
  150.0081  138.6591  152.9322 H   0  0  0  0  0  0  0  0  0  0  0  0
  150.0684  136.2787  154.1949 H   0  0  0  0  0  0  0  0  0  0  0  0
  150.8376  142.7301  159.2744 H   0  0  0  0  0  0  0  0  0  0  0  0
  153.6492  143.8831  159.0203 H   0  0  0  0  0  0  0  0  0  0  0  0
  152.3917  143.8492  157.7769 H   0  0  0  0  0  0  0  0  0  0  0  0
  152.6292  146.0679  159.2791 H   0  0  0  0  0  0  0  0  0  0  0  0
  151.0144  145.3890  159.0375 H   0  0  0  0  0  0  0  0  0  0  0  0
  152.8005  145.0964  161.4632 H   0  0  0  0  0  0  0  0  0  0  0  0
  151.0487  145.3085  161.4117 H   0  0  0  0  0  0  0  0  0  0  0  0
  1  2  1  0  0  0  0
  1 17  1  0  0  0  0
  1 18  1  0  0  0  0
  1 19  1  0  0  0  0
  2  3  1  0  0  0  0
  2 12  1  0  0  0  0
  2 20  1  0  0  0  0
  3  4  1  0  0  0  0
  3 21  1  0  0  0  0
  4  5  2  0  0  0  0
  4  6  1  0  0  0  0
  6  7  1  0  0  0  0
  7 11  1  0  0  0  0
  7  8  2  0  0  0  0
  8  9  1  0  0  0  0
  9 10  2  0  0  0  0
  9 22  1  0  0  0  0
 10 11  1  0  0  0  0
 10 23  1  0  0  0  0
 12 16  1  0  0  0  0
 12 13  1  0  0  0  0
 12 24  1  0  0  0  0
 13 14  1  0  0  0  0
 13 25  1  0  0  0  0
 13 26  1  0  0  0  0
 14 15  1  0  0  0  0
 14 27  1  0  0  0  0
 14 28  1  0  0  0  0
 15 16  1  0  0  0  0
 15 29  1  0  0  0  0
 15 30  1  0  0  0  0
M  CHG  1   6  -1
M  END
> <s_m_source_file>
AV-unprocessed.smi

> <i_m_source_file_index>
2093

> <i_lp_mmshare_version>
43012

> <i_f3d_flags>
0

> <s_epik_input>
TzFbQ0gyXVtDSDJdW0NIMl1bQ0BIXTFbQ0BIXShbQ0gzXSlbTkhdQyg9TylbTkhdYzJuW2NIXVtjSF1zMg==

> <s_epik_cmdline>
J2VwaWtfcHl0aG9uJywgJy1waCcsICc3LjAnLCAnLXRuJywgJzgnLCAnLW1hJywgJzIwMCcsICctbWV0YWxfYmluZGluZycsICctaW1hZScsICc8aW5maWxlLm1hZT4nLCAnLW9tYWUnLCAnPG91dGZpbGUubWFlPic=

> <r_lp_tautomer_probability>
0.999

> <r_epik_Ionization_Penalty>
8.26346

> <r_epik_Ionization_Penalty_Charging>
6.6559

> <r_epik_Ionization_Penalty_Neutral>
1.60756

> <r_epik_State_Penalty>
6.65607

> <r_epik_Charging_Adjusted_Penalty>
13.312

> <i_epik_Tot_Q>
-1

> <i_epik_Tot_abs_Q>
1

> <r_epik_Metal_State_Penalty>
2.5789

> <b_epik_Metal_Only>
1

> <s_lp_Force_Field>
OPLS_2005

> <r_lp_Energy>
13.8271

> <b_lp_Chiralities_Consistent>
1

> <s_lp_Variant>
AV-unprocessed.smi:2093-5

> <Gold.Version>
5.8.1

> <Gold.Id.Protein>
6NUR|6NUR_protein|mol2

> <Gold.PLP.Fitness>
46.6528

> <Gold.PLP.PLP>
-33.3385

> <Gold.PLP.part.hbond>
-2.1235

> <Gold.PLP.part.metal>
0.0000

> <Gold.PLP.part.buried>
-1.0543

> <Gold.PLP.part.nonpolar>
-30.1608

> <Gold.PLP.part.repulsive>
0.3206

> <Gold.PLP.ligand.clash>
0.0000

> <Gold.PLP.ligand.torsion>
0.7088

> <Gold.PLP.Chemscore.Hbond>
3.0000

> <Gold.PLP.Chemscore.CHOScore>
1.8998

> <Gold.PLP.Chemscore.Metal>
0.0000

> <Gold.Chemscore.Hbonds>
donor molecule, donor type, donor heavy atom, donor atom, acceptor molecule, acceptor atom, score
      P1  H  7989  7998       L1     8  1.00
      P1  H  7997  8009       L1     6  2.00
      L1  C     9    22       P1  7948  0.18
      L1  C     9    22       P1  7957  1.00
      L1  C    10    23       P1  7948  0.69

> <Gold.PLP.Chemscore.Internal.Correction>
0.0325

> <Gold.Rescore>
     Score         DG    S(hbond)    S(metal)    S(lipo)     H(rot)  DE(clash)    DE(int)     intcor
     17.55     -18.43       1.79        0.00      87.50       1.28       0.17       0.71       ----

> <Gold.Chemscore.Fitness>
17.5496

> <Gold.Chemscore.DG>
-18.4278

> <Gold.Chemscore.ZeroCoef>
-5.4800

> <Gold.Chemscore.Hbond>
1.7909

> <Gold.Chemscore.Metal>
0.0000

> <Gold.Chemscore.Lipo>
87.4996

> <Gold.Chemscore.Internal_Hbond>
0.0000

> <Gold.Chemscore.DEClash>
0.1676

> <Gold.Chemscore.DEInternal>
0.7105

> <Gold.Chemscore.Rot>
1.2778

> <Gold.Chemscore.Internal.Correction>
   9.000000E+99

> <Gold.Chemscore.Hbonds>
donor molecule, donor type, donor heavy atom, donor atom, acceptor molecule, acceptor atom, score
      P1  H  7989  7998       L1     8  0.88
      P1  H  7997  8009       L1     6  0.45

> <Gold.Chemscore.Hbond.Weighted>
-5.9814

> <Gold.Chemscore.Metal.Weighted>
-0.0000

> <Gold.Chemscore.Lipo.Weighted>
-10.2375

> <Gold.Chemscore.Internal_Hbond.Weighted>
0.0000

> <Gold.Chemscore.DEClash.Weighted>
0.1676

> <Gold.Chemscore.DEInternal.Weighted>
0.7105

> <Gold.Chemscore.Rot.Weighted>
3.2711

> <Gold.Chemscore.Internal.Correction.Weighted>
   9.000000E+99

> <Gold.Protein.RotatedTorsions>
[ 6907 6896 6895 6894 ] final  164.13 input  -60.11 | X-H torsion
[ 7974 7965 7964 7962 ] final   43.13 input  175.53 | X-H torsion
[ 8008 7997 7996 7995 ] final -169.23 input   59.86 | X-H torsion
[ 10167 10162 10161 10158 ] final   -1.53 input  -65.29 | X-H torsion
[ 10718 10713 10712 10709 ] final  -25.66 input   66.30 | X-H torsion
[ 10763 10752 10751 10750 ] final  155.55 input  -60.55 | X-H torsion
[ 11005 11000 10999 10996 ] final -169.52 input  -57.11 | X-H torsion

> <Gold.Protein.ActiveResidues>
 VAL166  LYS551  ARG553  GLY616  TRP617  ASP618  TYR619  PRO620  LYS621  CYS622 
 ASP623  PHE694  ASN695  SER759  ASP760  ASP761  ALA762  ILE779  LEU786  VAL792 
 PHE793  MET794  SER795  GLU796  ALA797  LYS798  CYS799  TRP800  GLU811  SER814 

> <Gold.Protein.RotatedAtoms>
  151.9145  133.3569  159.3874 H   0  0  0  0  0  0  0  0  0  0  0  0  # atno 6907 bound_to 6896
  150.7050  134.4698  159.5429 H   0  0  0  0  0  0  0  0  0  0  0  0  # atno 6908 bound_to 6896
  152.2310  134.8322  160.0524 H   0  0  0  0  0  0  0  0  0  0  0  0  # atno 6909 bound_to 6896
  146.0682  139.5222  142.9615 H   0  0  0  0  0  0  0  0  0  0  0  0  # atno 7974 bound_to 7965
  155.9022  140.1043  157.1342 H   0  0  0  0  0  0  0  0  0  0  0  0  # atno 8008 bound_to 7997
  154.4028  140.1290  156.4514 H   0  0  0  0  0  0  0  0  0  0  0  0  # atno 8009 bound_to 7997
  155.7409  140.3467  155.5106 H   0  0  0  0  0  0  0  0  0  0  0  0  # atno 8010 bound_to 7997
  140.6814  143.6765  150.8141 H   0  0  0  0  0  0  0  0  0  0  0  0  # atno 10167 bound_to 10162
  156.4614  130.4505  149.6926 H   0  0  0  0  0  0  0  0  0  0  0  0  # atno 10718 bound_to 10713
  154.1702  135.2805  155.3083 H   0  0  0  0  0  0  0  0  0  0  0  0  # atno 10763 bound_to 10752
  154.6081  135.5508  153.7447 H   0  0  0  0  0  0  0  0  0  0  0  0  # atno 10764 bound_to 10752
  153.0167  135.6408  154.1842 H   0  0  0  0  0  0  0  0  0  0  0  0  # atno 10765 bound_to 10752
  140.5298  134.5627  157.5071 H   0  0  0  0  0  0  0  0  0  0  0  0  # atno 11005 bound_to 11000
  145.6439  141.0278  143.1797 LP  0  0  0  0  0  0  0  0  0  0  0  0  # atno 17320 bound_to 7965
  144.7215  139.8014  143.7380 LP  0  0  0  0  0  0  0  0  0  0  0  0  # atno 17321 bound_to 7965
  140.0466  143.5292  152.2693 LP  0  0  0  0  0  0  0  0  0  0  0  0  # atno 17342 bound_to 10162
  139.6139  144.7615  151.2890 LP  0  0  0  0  0  0  0  0  0  0  0  0  # atno 17343 bound_to 10162
  156.3712  130.7531  151.2515 LP  0  0  0  0  0  0  0  0  0  0  0  0  # atno 17370 bound_to 10713
  157.7497  131.0322  150.4218 LP  0  0  0  0  0  0  0  0  0  0  0  0  # atno 17371 bound_to 10713
  139.9560  134.7534  156.0340 LP  0  0  0  0  0  0  0  0  0  0  0  0  # atno 17394 bound_to 11000
  141.1288  133.6592  156.3408 LP  0  0  0  0  0  0  0  0  0  0  0  0  # atno 17395 bound_to 11000

$$$$
