AV-unprocessed.smi:3327|AV-procd|sdf|12790|dock7
  -GOLD-   2272019143D 1   1.00000     0.00000
 Structure written by MMmdl.
 40 41  0  0  0  0  0  0  0  0  1 V2000
  152.1747  144.7385  160.7168 C   0  0  0  0  0  0  0  0  0  0  0  0
  151.5901  143.6047  159.8629 C   0  0  1  0  0  0  0  0  0  0  0  0
  150.3860  144.0883  159.0252 C   0  0  0  0  0  0  0  0  0  0  0  0
  149.8664  142.9919  158.0759 C   0  0  0  0  0  0  0  0  0  0  0  0
  151.0181  142.3933  157.2500 C   0  0  0  0  0  0  0  0  0  0  0  0
  152.0426  141.8850  158.1721 N   0  0  0  0  0  0  0  0  0  0  0  0
  152.3272  140.5775  158.3905 C   0  0  0  0  0  0  0  0  0  0  0  0
  153.1778  140.2194  159.2079 O   0  0  0  0  0  0  0  0  0  0  0  0
  151.5612  139.5075  157.5930 C   0  0  0  0  0  0  0  0  0  0  0  0
  152.4399  138.5966  156.8475 N   0  0  0  0  0  0  0  0  0  0  0  0
  152.5186  138.9917  155.4495 C   0  0  0  0  0  0  0  0  0  0  0  0
  151.3618  138.3518  154.6681 C   0  0  0  0  0  0  0  0  0  0  0  0
  150.2595  139.2777  154.4923 N   0  0  0  0  0  0  0  0  0  0  0  0
  148.9932  139.0207  154.0099 C   0  0  0  0  0  0  0  0  0  0  0  0
  148.3062  140.2007  154.0234 C   0  0  0  0  0  0  0  0  0  0  0  0
  149.2488  141.1343  154.5381 C   0  0  0  0  0  0  0  0  0  0  0  0
  150.4172  140.5790  154.8171 N   0  0  0  0  0  0  0  0  0  0  0  0
  152.6585  142.9718  158.9454 C   0  0  0  0  0  0  0  0  0  0  0  0
  152.5581  145.5476  160.0941 H   0  0  0  0  0  0  0  0  0  0  0  0
  152.9955  144.3787  161.3378 H   0  0  0  0  0  0  0  0  0  0  0  0
  151.4191  145.1588  161.3809 H   0  0  0  0  0  0  0  0  0  0  0  0
  151.2349  142.8307  160.5451 H   0  0  0  0  0  0  0  0  0  0  0  0
  149.5809  144.4258  159.6785 H   0  0  0  0  0  0  0  0  0  0  0  0
  150.6843  144.9541  158.4325 H   0  0  0  0  0  0  0  0  0  0  0  0
  149.3837  142.2031  158.6547 H   0  0  0  0  0  0  0  0  0  0  0  0
  149.1036  143.4024  157.4140 H   0  0  0  0  0  0  0  0  0  0  0  0
  150.6312  141.6432  156.5624 H   0  0  0  0  0  0  0  0  0  0  0  0
  151.4593  143.1633  156.6156 H   0  0  0  0  0  0  0  0  0  0  0  0
  150.9533  138.9238  158.2866 H   0  0  0  0  0  0  0  0  0  0  0  0
  150.8887  140.0068  156.8939 H   0  0  0  0  0  0  0  0  0  0  0  0
  153.3686  138.5772  157.2442 H   0  0  0  0  0  0  0  0  0  0  0  0
  152.4710  140.0788  155.3694 H   0  0  0  0  0  0  0  0  0  0  0  0
  153.4731  138.6722  155.0281 H   0  0  0  0  0  0  0  0  0  0  0  0
  151.7004  138.0285  153.6827 H   0  0  0  0  0  0  0  0  0  0  0  0
  150.9925  137.4637  155.1836 H   0  0  0  0  0  0  0  0  0  0  0  0
  148.6903  138.0315  153.6994 H   0  0  0  0  0  0  0  0  0  0  0  0
  147.2858  140.3709  153.7133 H   0  0  0  0  0  0  0  0  0  0  0  0
  149.1199  142.1919  154.7157 H   0  0  0  0  0  0  0  0  0  0  0  0
  153.0603  143.7192  158.2596 H   0  0  0  0  0  0  0  0  0  0  0  0
  153.5074  142.6334  159.5410 H   0  0  0  0  0  0  0  0  0  0  0  0
  1  2  1  0  0  0  0
  1 19  1  0  0  0  0
  1 20  1  0  0  0  0
  1 21  1  0  0  0  0
  2 18  1  0  0  0  0
  2  3  1  0  0  0  0
  2 22  1  0  0  0  0
  3  4  1  0  0  0  0
  3 23  1  0  0  0  0
  3 24  1  0  0  0  0
  4  5  1  0  0  0  0
  4 25  1  0  0  0  0
  4 26  1  0  0  0  0
  5  6  1  0  0  0  0
  5 27  1  0  0  0  0
  5 28  1  0  0  0  0
  6  7  1  0  0  0  0
  6 18  1  0  0  0  0
  7  8  2  0  0  0  0
  7  9  1  0  0  0  0
  9 10  1  0  0  0  0
  9 29  1  0  0  0  0
  9 30  1  0  0  0  0
 10 11  1  0  0  0  0
 10 31  1  0  0  0  0
 11 12  1  0  0  0  0
 11 32  1  0  0  0  0
 11 33  1  0  0  0  0
 12 13  1  0  0  0  0
 12 34  1  0  0  0  0
 12 35  1  0  0  0  0
 13 17  1  0  0  0  0
 13 14  1  0  0  0  0
 14 15  2  0  0  0  0
 14 36  1  0  0  0  0
 15 16  1  0  0  0  0
 15 37  1  0  0  0  0
 16 17  2  0  0  0  0
 16 38  1  0  0  0  0
 18 39  1  0  0  0  0
 18 40  1  0  0  0  0
M  END
> <s_m_source_file>
AV-unprocessed.smi

> <i_m_source_file_index>
3327

> <i_lp_mmshare_version>
43012

> <i_f3d_flags>
0

> <s_epik_input>
W0NIM11bQ0BASF0xW0NIMl1bQ0gyXVtDSDJdTihbQ0gyXTEpQyg9TylbQ0gyXVtOSF1bQ0gyXVtDSDJdbjJbY0hdW2NIXVtjSF1uMg==

> <s_epik_cmdline>
J2VwaWtfcHl0aG9uJywgJy1waCcsICc3LjAnLCAnLXRuJywgJzgnLCAnLW1hJywgJzIwMCcsICctbWV0YWxfYmluZGluZycsICctaW1hZScsICc8aW5maWxlLm1hZT4nLCAnLW9tYWUnLCAnPG91dGZpbGUubWFlPic=

> <r_lp_tautomer_probability>
1

> <r_epik_Ionization_Penalty>
0.752964

> <r_epik_Ionization_Penalty_Charging>
0

> <r_epik_Ionization_Penalty_Neutral>
0.752964

> <r_epik_State_Penalty>
0.778238

> <r_epik_Charging_Adjusted_Penalty>
0.778238

> <i_epik_Tot_Q>
0

> <i_epik_Tot_abs_Q>
0

> <r_epik_Metal_State_Penalty>
0.776974

> <b_epik_Metal_Only>
0

> <s_lp_Force_Field>
OPLS_2005

> <r_lp_Energy>
25.5335

> <b_lp_Chiralities_Consistent>
1

> <s_lp_Variant>
AV-unprocessed.smi:3327-4

> <Gold.Version>
5.8.1

> <Gold.Id.Protein>
6NUR|6NUR_protein|mol2

> <Gold.PLP.Fitness>
42.8845

> <Gold.PLP.PLP>
-38.0229

> <Gold.PLP.part.hbond>
-1.0000

> <Gold.PLP.part.metal>
0.0000

> <Gold.PLP.part.buried>
-3.1628

> <Gold.PLP.part.nonpolar>
-32.9477

> <Gold.PLP.part.repulsive>
0.0881

> <Gold.PLP.ligand.clash>
0.0000

> <Gold.PLP.ligand.torsion>
0.8054

> <Gold.PLP.Chemscore.Hbond>
0.7200

> <Gold.PLP.Chemscore.CHOScore>
1.4257

> <Gold.PLP.Chemscore.Metal>
0.0000

> <Gold.Chemscore.Hbonds>
donor molecule, donor type, donor heavy atom, donor atom, acceptor molecule, acceptor atom, score
      P1  H  7989  7998       L1    17  0.67
      L1  C    14    36       P1  7948  0.90
      L1  C    16    38       P1  8028  0.59

> <Gold.PLP.Chemscore.Internal.Correction>
0.0352

> <Gold.Rescore>
     Score         DG    S(hbond)    S(metal)    S(lipo)     H(rot)  DE(clash)    DE(int)     intcor
     13.84     -15.04       0.90        0.00      93.86       1.73       0.12       1.09       ----

> <Gold.Chemscore.Fitness>
13.8408

> <Gold.Chemscore.DG>
-15.0449

> <Gold.Chemscore.ZeroCoef>
-5.4800

> <Gold.Chemscore.Hbond>
0.9016

> <Gold.Chemscore.Metal>
0.0000

> <Gold.Chemscore.Lipo>
93.8563

> <Gold.Chemscore.Internal_Hbond>
0.0000

> <Gold.Chemscore.DEClash>
0.1165

> <Gold.Chemscore.DEInternal>
1.0876

> <Gold.Chemscore.Rot>
1.7296

> <Gold.Chemscore.Internal.Correction>
   9.000000E+99

> <Gold.Chemscore.Hbonds>
donor molecule, donor type, donor heavy atom, donor atom, acceptor molecule, acceptor atom, score
      P1  H  7989  7998       L1    17  0.05

> <Gold.Chemscore.Hbond.Weighted>
-3.0115

> <Gold.Chemscore.Metal.Weighted>
-0.0000

> <Gold.Chemscore.Lipo.Weighted>
-10.9812

> <Gold.Chemscore.Internal_Hbond.Weighted>
0.0000

> <Gold.Chemscore.DEClash.Weighted>
0.1165

> <Gold.Chemscore.DEInternal.Weighted>
1.0876

> <Gold.Chemscore.Rot.Weighted>
4.4278

> <Gold.Chemscore.Internal.Correction.Weighted>
   9.000000E+99

> <Gold.Protein.RotatedTorsions>
[ 6907 6896 6895 6894 ] final -129.46 input  -60.11 | X-H torsion
[ 7974 7965 7964 7962 ] final -142.23 input  175.53 | X-H torsion
[ 8008 7997 7996 7995 ] final  168.68 input   59.86 | X-H torsion
[ 10167 10162 10161 10158 ] final   69.46 input  -65.29 | X-H torsion
[ 10718 10713 10712 10709 ] final  122.05 input   66.30 | X-H torsion
[ 10763 10752 10751 10750 ] final  165.71 input  -60.55 | X-H torsion
[ 11005 11000 10999 10996 ] final  -33.63 input  -57.11 | X-H torsion

> <Gold.Protein.ActiveResidues>
 VAL166  LYS551  ARG553  GLY616  TRP617  ASP618  TYR619  PRO620  LYS621  CYS622 
 ASP623  PHE694  ASN695  SER759  ASP760  ASP761  ALA762  ILE779  LEU786  VAL792 
 PHE793  MET794  SER795  GLU796  ALA797  LYS798  CYS799  TRP800  GLU811  SER814 

> <Gold.Protein.RotatedAtoms>
  150.9289  133.6790  159.2814 H   0  0  0  0  0  0  0  0  0  0  0  0  # atno 6907 bound_to 6896
  151.4219  135.0997  159.9626 H   0  0  0  0  0  0  0  0  0  0  0  0  # atno 6908 bound_to 6896
  152.5016  133.8739  159.7367 H   0  0  0  0  0  0  0  0  0  0  0  0  # atno 6909 bound_to 6896
  144.8459  140.5983  143.5422 H   0  0  0  0  0  0  0  0  0  0  0  0  # atno 7974 bound_to 7965
  156.1525  140.1584  156.8746 H   0  0  0  0  0  0  0  0  0  0  0  0  # atno 8008 bound_to 7997
  154.5084  140.0807  156.7978 H   0  0  0  0  0  0  0  0  0  0  0  0  # atno 8009 bound_to 7997
  155.3867  140.3408  155.4251 H   0  0  0  0  0  0  0  0  0  0  0  0  # atno 8010 bound_to 7997
  140.0675  144.5180  150.7250 H   0  0  0  0  0  0  0  0  0  0  0  0  # atno 10167 bound_to 10162
  157.5772  131.1078  150.8257 H   0  0  0  0  0  0  0  0  0  0  0  0  # atno 10718 bound_to 10713
  154.3281  135.2755  155.2486 H   0  0  0  0  0  0  0  0  0  0  0  0  # atno 10763 bound_to 10752
  154.4810  135.5858  153.6393 H   0  0  0  0  0  0  0  0  0  0  0  0  # atno 10764 bound_to 10752
  152.9869  135.6111  154.3471 H   0  0  0  0  0  0  0  0  0  0  0  0  # atno 10765 bound_to 10752
  140.9650  133.7142  156.1431 H   0  0  0  0  0  0  0  0  0  0  0  0  # atno 11005 bound_to 11000
  145.4599  139.1514  143.3872 LP  0  0  0  0  0  0  0  0  0  0  0  0  # atno 17320 bound_to 7965
  146.2743  140.4728  142.8801 LP  0  0  0  0  0  0  0  0  0  0  0  0  # atno 17321 bound_to 7965
  140.7142  143.2530  151.4488 LP  0  0  0  0  0  0  0  0  0  0  0  0  # atno 17342 bound_to 10162
  139.5856  144.1612  152.2024 LP  0  0  0  0  0  0  0  0  0  0  0  0  # atno 17343 bound_to 10162
  156.8712  130.5147  149.5296 LP  0  0  0  0  0  0  0  0  0  0  0  0  # atno 17370 bound_to 10713
  156.0817  130.5825  150.9574 LP  0  0  0  0  0  0  0  0  0  0  0  0  # atno 17371 bound_to 10713
  140.7412  134.4148  157.5554 LP  0  0  0  0  0  0  0  0  0  0  0  0  # atno 17394 bound_to 11000
  139.8891  134.8838  156.2437 LP  0  0  0  0  0  0  0  0  0  0  0  0  # atno 17395 bound_to 11000

$$$$
