AV-unprocessed.smi:958|AV-procd|sdf|4267|dock3
  -GOLD-   22720 2173D 1   1.00000     0.00000
 Structure written by MMmdl.
 31 33  0  0  0  0  0  0  0  0  2 V2000
  153.6723  141.7016  160.0310 C   0  0  0  0  0  0  0  0  0  0  0  0
  154.2251  140.6015  159.5232 N   0  0  0  0  0  0  0  0  0  0  0  0
  153.3431  140.1907  158.5458 N   0  0  0  0  0  0  0  0  0  0  0  0
  152.3420  141.0806  158.5611 C   0  0  0  0  0  0  0  0  0  0  0  0
  151.1432  140.9875  157.6591 C   0  0  2  0  0  0  0  0  0  0  0  0
  151.3384  139.9399  156.5461 C   0  0  0  0  0  0  0  0  0  0  0  0
  150.1054  139.8885  155.6309 C   0  0  0  0  0  0  0  0  0  0  0  0
  149.7733  141.2844  155.0783 C   0  0  0  0  0  0  0  0  0  0  0  0
  149.5836  142.2504  156.1820 N   0  3  0  0  0  0  0  0  0  0  0  0
  150.7674  142.3598  157.0629 C   0  0  0  0  0  0  0  0  0  0  0  0
  152.5135  142.0714  159.4631 N   0  0  0  0  0  0  0  0  0  0  0  0
  151.6540  143.1913  159.8094 C   0  0  0  0  0  0  0  0  0  0  0  0
  152.2212  144.5477  159.4576 C   0  0  0  0  0  0  0  0  0  0  0  0
  152.1898  144.0924  160.8997 C   0  0  0  0  0  0  0  0  0  0  0  0
  154.1284  142.2544  160.8392 H   0  0  0  0  0  0  0  0  0  0  0  0
  150.2942  140.6545  158.2557 H   0  0  0  0  0  0  0  0  0  0  0  0
  152.2194  140.1850  155.9511 H   0  0  0  0  0  0  0  0  0  0  0  0
  151.5203  138.9565  156.9813 H   0  0  0  0  0  0  0  0  0  0  0  0
  150.2799  139.1936  154.8089 H   0  0  0  0  0  0  0  0  0  0  0  0
  149.2512  139.5011  156.1879 H   0  0  0  0  0  0  0  0  0  0  0  0
  150.5743  141.6360  154.4265 H   0  0  0  0  0  0  0  0  0  0  0  0
  148.8650  141.2479  154.4765 H   0  0  0  0  0  0  0  0  0  0  0  0
  149.3810  143.1594  155.7907 H   0  0  0  0  0  0  0  0  0  0  0  0
  150.5483  143.0722  157.8586 H   0  0  0  0  0  0  0  0  0  0  0  0
  151.5984  142.7705  156.4874 H   0  0  0  0  0  0  0  0  0  0  0  0
  150.5903  142.9807  159.7185 H   0  0  0  0  0  0  0  0  0  0  0  0
  153.1911  144.5884  158.9652 H   0  0  0  0  0  0  0  0  0  0  0  0
  151.5173  145.3235  159.1634 H   0  0  0  0  0  0  0  0  0  0  0  0
  151.4645  144.5661  161.5578 H   0  0  0  0  0  0  0  0  0  0  0  0
  153.1434  143.8460  161.3628 H   0  0  0  0  0  0  0  0  0  0  0  0
  148.7949  141.9522  156.7380 H   0  0  0  0  0  0  0  0  0  0  0  0
  1 11  1  0  0  0  0
  1  2  2  0  0  0  0
  1 15  1  0  0  0  0
  2  3  1  0  0  0  0
  3  4  2  0  0  0  0
  4  5  1  0  0  0  0
  4 11  1  0  0  0  0
  5 10  1  0  0  0  0
  5  6  1  0  0  0  0
  5 16  1  0  0  0  0
  6  7  1  0  0  0  0
  6 17  1  0  0  0  0
  6 18  1  0  0  0  0
  7  8  1  0  0  0  0
  7 19  1  0  0  0  0
  7 20  1  0  0  0  0
  8  9  1  0  0  0  0
  8 21  1  0  0  0  0
  8 22  1  0  0  0  0
  9 10  1  0  0  0  0
  9 23  1  0  0  0  0
  9 31  1  0  0  0  0
 10 24  1  0  0  0  0
 10 25  1  0  0  0  0
 11 12  1  0  0  0  0
 12 14  1  0  0  0  0
 12 13  1  0  0  0  0
 12 26  1  0  0  0  0
 13 14  1  0  0  0  0
 13 27  1  0  0  0  0
 13 28  1  0  0  0  0
 14 29  1  0  0  0  0
 14 30  1  0  0  0  0
M  CHG  1   9   1
M  END
> <s_m_source_file>
AV-unprocessed.smi

> <i_m_source_file_index>
958

> <i_lp_mmshare_version>
43012

> <i_f3d_flags>
0

> <s_epik_input>
W0NIMl0xW0NIMl1bQ0hdMW4yW2NIXW5uYzJbQ0BASF0zW0NIMl1bQ0gyXVtDSDJdW05IXVtDSDJdMw==

> <s_epik_cmdline>
J2VwaWtfcHl0aG9uJywgJy1waCcsICc3LjAnLCAnLXRuJywgJzgnLCAnLW1hJywgJzIwMCcsICctbWV0YWxfYmluZGluZycsICctaW1hZScsICc8aW5maWxlLm1hZT4nLCAnLW9tYWUnLCAnPG91dGZpbGUubWFlPic=

> <r_lp_tautomer_probability>
1

> <r_epik_Ionization_Penalty>
0.000442722

> <r_epik_Ionization_Penalty_Charging>
0.000426856

> <r_epik_Ionization_Penalty_Neutral>
1.58656e-05

> <r_epik_State_Penalty>
-0

> <r_epik_Charging_Adjusted_Penalty>
0.000426856

> <i_epik_Tot_Q>
1

> <i_epik_Tot_abs_Q>
1

> <r_epik_Metal_State_Penalty>
-0

> <b_epik_Metal_Only>
0

> <s_lp_Force_Field>
OPLS_2005

> <r_lp_Energy>
27.25

> <b_lp_Chiralities_Consistent>
1

> <s_lp_Variant>
AV-unprocessed.smi:958-1

> <Gold.Version>
5.8.1

> <Gold.Id.Protein>
6NUR|6NUR_protein|mol2

> <Gold.PLP.Fitness>
41.1106

> <Gold.PLP.PLP>
-33.0260

> <Gold.PLP.part.hbond>
-2.1846

> <Gold.PLP.part.metal>
0.0000

> <Gold.PLP.part.buried>
-2.7791

> <Gold.PLP.part.nonpolar>
-28.1077

> <Gold.PLP.part.repulsive>
0.0886

> <Gold.PLP.ligand.clash>
0.0000

> <Gold.PLP.ligand.torsion>
0.4213

> <Gold.PLP.Chemscore.Hbond>
2.9440

> <Gold.PLP.Chemscore.CHOScore>
0.0000

> <Gold.PLP.Chemscore.Metal>
0.0000

> <Gold.Chemscore.Hbonds>
donor molecule, donor type, donor heavy atom, donor atom, acceptor molecule, acceptor atom, score
      L1  H     9    23       P1  8028  2.00
      P1  H  7997  8010       L1     3  0.85

> <Gold.PLP.Chemscore.Internal.Correction>
0.0951

> <Gold.Rescore>
     Score         DG    S(hbond)    S(metal)    S(lipo)     H(rot)  DE(clash)    DE(int)     intcor
     14.17     -15.44       1.60        0.00      66.79       1.25       0.01       1.25       ----

> <Gold.Chemscore.Fitness>
14.1736

> <Gold.Chemscore.DG>
-15.4374

> <Gold.Chemscore.ZeroCoef>
-5.4800

> <Gold.Chemscore.Hbond>
1.5991

> <Gold.Chemscore.Metal>
0.0000

> <Gold.Chemscore.Lipo>
66.7876

> <Gold.Chemscore.Internal_Hbond>
0.0000

> <Gold.Chemscore.DEClash>
0.0149

> <Gold.Chemscore.DEInternal>
1.2489

> <Gold.Chemscore.Rot>
1.2491

> <Gold.Chemscore.Internal.Correction>
   9.000000E+99

> <Gold.Chemscore.Hbonds>
donor molecule, donor type, donor heavy atom, donor atom, acceptor molecule, acceptor atom, score
      L1  H     9    23       P1  8028  0.99
      P1  H  7997  8010       L1     3  0.16

> <Gold.Chemscore.Hbond.Weighted>
-5.3409

> <Gold.Chemscore.Metal.Weighted>
-0.0000

> <Gold.Chemscore.Lipo.Weighted>
-7.8141

> <Gold.Chemscore.Internal_Hbond.Weighted>
0.0000

> <Gold.Chemscore.DEClash.Weighted>
0.0149

> <Gold.Chemscore.DEInternal.Weighted>
1.2489

> <Gold.Chemscore.Rot.Weighted>
3.1977

> <Gold.Chemscore.Internal.Correction.Weighted>
   9.000000E+99

> <Gold.Protein.RotatedTorsions>
[ 6907 6896 6895 6894 ] final    3.12 input  -60.11 | X-H torsion
[ 7974 7965 7964 7962 ] final -114.08 input  175.53 | X-H torsion
[ 8008 7997 7996 7995 ] final   31.91 input   59.86 | X-H torsion
[ 10167 10162 10161 10158 ] final  -79.81 input  -65.29 | X-H torsion
[ 10718 10713 10712 10709 ] final   95.99 input   66.30 | X-H torsion
[ 10763 10752 10751 10750 ] final   58.06 input  -60.55 | X-H torsion
[ 11005 11000 10999 10996 ] final  -35.93 input  -57.11 | X-H torsion

> <Gold.Protein.ActiveResidues>
 VAL166  LYS551  ARG553  GLY616  TRP617  ASP618  TYR619  PRO620  LYS621  CYS622 
 ASP623  PHE694  ASN695  SER759  ASP760  ASP761  ALA762  ILE779  LEU786  VAL792 
 PHE793  MET794  SER795  GLU796  ALA797  LYS798  CYS799  TRP800  GLU811  SER814 

> <Gold.Protein.RotatedAtoms>
  151.6199  135.1033  160.0099 H   0  0  0  0  0  0  0  0  0  0  0  0  # atno 6907 bound_to 6896
  152.4163  133.7040  159.6451 H   0  0  0  0  0  0  0  0  0  0  0  0  # atno 6908 bound_to 6896
  150.8052  133.8450  159.3230 H   0  0  0  0  0  0  0  0  0  0  0  0  # atno 6909 bound_to 6896
  145.1244  140.8688  143.3795 H   0  0  0  0  0  0  0  0  0  0  0  0  # atno 7974 bound_to 7965
  155.1140  140.3242  155.4514 H   0  0  0  0  0  0  0  0  0  0  0  0  # atno 8008 bound_to 7997
  156.2682  140.2039  156.6211 H   0  0  0  0  0  0  0  0  0  0  0  0  # atno 8009 bound_to 7997
  154.6734  140.0534  157.0177 H   0  0  0  0  0  0  0  0  0  0  0  0  # atno 8010 bound_to 7997
  140.4560  143.2468  151.8420 H   0  0  0  0  0  0  0  0  0  0  0  0  # atno 10167 bound_to 10162
  157.6932  131.0563  150.4423 H   0  0  0  0  0  0  0  0  0  0  0  0  # atno 10718 bound_to 10713
  152.9862  135.5620  154.5491 H   0  0  0  0  0  0  0  0  0  0  0  0  # atno 10763 bound_to 10752
  154.4931  135.2793  155.1483 H   0  0  0  0  0  0  0  0  0  0  0  0  # atno 10764 bound_to 10752
  154.2944  135.6320  153.5451 H   0  0  0  0  0  0  0  0  0  0  0  0  # atno 10765 bound_to 10752
  140.9835  133.7043  156.1725 H   0  0  0  0  0  0  0  0  0  0  0  0  # atno 11005 bound_to 11000
  145.0704  139.3036  143.5835 LP  0  0  0  0  0  0  0  0  0  0  0  0  # atno 17320 bound_to 7965
  146.3518  140.0177  142.8661 LP  0  0  0  0  0  0  0  0  0  0  0  0  # atno 17321 bound_to 7965
  139.4801  144.5065  151.8991 LP  0  0  0  0  0  0  0  0  0  0  0  0  # atno 17342 bound_to 10162
  140.4151  144.2318  150.5888 LP  0  0  0  0  0  0  0  0  0  0  0  0  # atno 17343 bound_to 10162
  156.4780  130.4067  149.6478 LP  0  0  0  0  0  0  0  0  0  0  0  0  # atno 17370 bound_to 10713
  156.3534  130.7444  151.2406 LP  0  0  0  0  0  0  0  0  0  0  0  0  # atno 17371 bound_to 10713
  140.7150  134.4420  157.5579 LP  0  0  0  0  0  0  0  0  0  0  0  0  # atno 17394 bound_to 11000
  139.8960  134.8669  156.2106 LP  0  0  0  0  0  0  0  0  0  0  0  0  # atno 17395 bound_to 11000

$$$$
