AV-unprocessed.smi:203|AV-procd|sdf|1597|dock2
  -GOLD-   2262019503D 1   1.00000     0.00000
 Structure written by MMmdl.
 57 61  0  0  0  0  0  0  0  0  1 V2000
  153.9422  136.9032  161.8599 O   0  0  0  0  0  0  0  0  0  0  0  0
  153.5738  137.5100  160.8569 C   0  0  0  0  0  0  0  0  0  0  0  0
  154.3100  138.7090  160.2846 C   0  0  0  0  0  0  0  0  0  0  0  0
  153.3493  139.2431  159.2025 C   0  0  2  0  0  0  0  0  0  0  0  0
  152.7009  140.6241  159.5376 C   0  0  1  0  0  0  0  0  0  0  0  0
  153.5073  141.4255  160.5941 C   0  0  0  0  0  0  0  0  0  0  0  0
  152.8525  142.7779  160.9046 C   0  0  0  0  0  0  0  0  0  0  0  0
  152.6718  143.5783  159.6108 C   0  0  0  0  0  0  0  0  0  0  0  0
  151.8648  142.7660  158.5896 C   0  0  0  0  0  0  0  0  0  0  0  0
  152.4769  141.4604  158.3441 N   0  0  0  0  0  0  0  0  0  0  0  0
  151.8895  140.8600  157.2849 C   0  0  0  0  0  0  0  0  0  0  0  0
  152.6480  139.9980  156.5644 N   0  0  0  0  0  0  0  0  0  0  0  0
  152.1216  139.3668  155.5105 C   0  0  0  0  0  0  0  0  0  0  0  0
  150.8846  139.4549  155.0161 N   0  0  0  0  0  0  0  0  0  0  0  0
  150.1233  140.3282  155.7357 C   0  0  0  0  0  0  0  0  0  0  0  0
  150.5430  141.0715  156.8741 C   0  0  0  0  0  0  0  0  0  0  0  0
  149.4970  141.8606  157.3381 N   0  0  0  0  0  0  0  0  0  0  0  0
  148.5131  141.5955  156.5222 C   0  0  0  0  0  0  0  0  0  0  0  0
  148.8028  140.6863  155.5304 N   0  0  0  0  0  0  0  0  0  0  0  0
  147.8970  140.2130  154.4977 C   0  0  0  0  0  0  0  0  0  0  0  0
  147.3681  141.3553  153.6041 C   0  0  1  0  0  0  0  0  0  0  0  0
  146.5070  140.7928  152.6326 O   0  0  0  0  0  0  0  0  0  0  0  0
  146.5637  142.4124  154.3875 C   0  0  1  0  0  0  0  0  0  0  0  0
  145.8939  143.4833  153.5238 C   0  0  0  0  0  0  0  0  0  0  0  0
  144.7441  143.9726  154.3885 C   0  0  0  0  0  0  0  0  0  0  0  0
  144.5548  142.8519  155.4132 C   0  0  0  0  0  0  0  0  0  0  0  0
  145.4275  141.8124  154.9921 O   0  0  0  0  0  0  0  0  0  0  0  0
  152.3161  138.1145  158.9959 C   0  0  0  0  0  0  0  0  0  0  0  0
  152.4995  137.2233  160.1248 N   0  0  0  0  0  0  0  0  0  0  0  0
  154.5414  139.4412  161.0584 H   0  0  0  0  0  0  0  0  0  0  0  0
  155.2499  138.3759  159.8439 H   0  0  0  0  0  0  0  0  0  0  0  0
  153.9003  139.3292  158.2656 H   0  0  0  0  0  0  0  0  0  0  0  0
  151.7212  140.4248  159.9731 H   0  0  0  0  0  0  0  0  0  0  0  0
  153.6037  140.8616  161.5211 H   0  0  0  0  0  0  0  0  0  0  0  0
  154.5227  141.6038  160.2401 H   0  0  0  0  0  0  0  0  0  0  0  0
  151.8843  142.6199  161.3813 H   0  0  0  0  0  0  0  0  0  0  0  0
  153.4638  143.3388  161.6118 H   0  0  0  0  0  0  0  0  0  0  0  0
  152.1694  144.5231  159.8192 H   0  0  0  0  0  0  0  0  0  0  0  0
  153.6476  143.8287  159.1923 H   0  0  0  0  0  0  0  0  0  0  0  0
  150.8460  142.6252  158.9535 H   0  0  0  0  0  0  0  0  0  0  0  0
  151.7938  143.3262  157.6558 H   0  0  0  0  0  0  0  0  0  0  0  0
  152.7865  138.6943  154.9888 H   0  0  0  0  0  0  0  0  0  0  0  0
  147.5427  142.0602  156.6207 H   0  0  0  0  0  0  0  0  0  0  0  0
  148.4107  139.4633  153.8941 H   0  0  0  0  0  0  0  0  0  0  0  0
  147.0729  139.6996  154.9936 H   0  0  0  0  0  0  0  0  0  0  0  0
  148.2070  141.8334  153.0967 H   0  0  0  0  0  0  0  0  0  0  0  0
  145.6139  140.9771  152.8800 H   0  0  0  0  0  0  0  0  0  0  0  0
  147.1816  142.8902  155.1512 H   0  0  0  0  0  0  0  0  0  0  0  0
  146.5754  144.2846  153.2372 H   0  0  0  0  0  0  0  0  0  0  0  0
  145.4968  143.0354  152.6116 H   0  0  0  0  0  0  0  0  0  0  0  0
  144.9972  144.9075  154.8901 H   0  0  0  0  0  0  0  0  0  0  0  0
  143.8457  144.1419  153.7937 H   0  0  0  0  0  0  0  0  0  0  0  0
  144.8476  143.1881  156.4086 H   0  0  0  0  0  0  0  0  0  0  0  0
  143.5248  142.4986  155.4616 H   0  0  0  0  0  0  0  0  0  0  0  0
  151.2886  138.4737  158.9345 H   0  0  0  0  0  0  0  0  0  0  0  0
  152.5241  137.5618  158.0789 H   0  0  0  0  0  0  0  0  0  0  0  0
  151.8663  136.4624  160.3251 H   0  0  0  0  0  0  0  0  0  0  0  0
  1  2  2  0  0  0  0
  2 29  1  0  0  0  0
  2  3  1  0  0  0  0
  3  4  1  0  0  0  0
  3 30  1  0  0  0  0
  3 31  1  0  0  0  0
  4  5  1  0  0  0  0
  4 28  1  0  0  0  0
  4 32  1  0  0  0  0
  5 10  1  0  0  0  0
  5  6  1  0  0  0  0
  5 33  1  0  0  0  0
  6  7  1  0  0  0  0
  6 34  1  0  0  0  0
  6 35  1  0  0  0  0
  7  8  1  0  0  0  0
  7 36  1  0  0  0  0
  7 37  1  0  0  0  0
  8  9  1  0  0  0  0
  8 38  1  0  0  0  0
  8 39  1  0  0  0  0
  9 10  1  0  0  0  0
  9 40  1  0  0  0  0
  9 41  1  0  0  0  0
 10 11  1  0  0  0  0
 11 16  1  0  0  0  0
 11 12  2  0  0  0  0
 12 13  1  0  0  0  0
 13 14  2  0  0  0  0
 13 42  1  0  0  0  0
 14 15  1  0  0  0  0
 15 19  1  0  0  0  0
 15 16  2  0  0  0  0
 16 17  1  0  0  0  0
 17 18  2  0  0  0  0
 18 19  1  0  0  0  0
 18 43  1  0  0  0  0
 19 20  1  0  0  0  0
 20 21  1  0  0  0  0
 20 44  1  0  0  0  0
 20 45  1  0  0  0  0
 21 22  1  0  0  0  0
 21 23  1  0  0  0  0
 21 46  1  0  0  0  0
 22 47  1  0  0  0  0
 23 27  1  0  0  0  0
 23 24  1  0  0  0  0
 23 48  1  0  0  0  0
 24 25  1  0  0  0  0
 24 49  1  0  0  0  0
 24 50  1  0  0  0  0
 25 26  1  0  0  0  0
 25 51  1  0  0  0  0
 25 52  1  0  0  0  0
 26 27  1  0  0  0  0
 26 53  1  0  0  0  0
 26 54  1  0  0  0  0
 28 29  1  0  0  0  0
 28 55  1  0  0  0  0
 28 56  1  0  0  0  0
 29 57  1  0  0  0  0
M  END
> <s_m_source_file>
AV-unprocessed.smi

> <i_m_source_file_index>
203

> <i_lp_mmshare_version>
43012

> <i_f3d_flags>
0

> <s_epik_input>
Tz1DMVtDSDJdW0NASF0oW0NIMl1bTkhdMSlbQ0BASF0yW0NIMl1bQ0gyXVtDSDJdW0NIMl1OMmMobltjSF1uMyljKGMzNCluW2NIXW40W0NIMl1bQ0BIXShbT0hdKVtDQEBIXTVbQ0gyXVtDSDJdW0NIMl1PNQ==

> <s_epik_cmdline>
J2VwaWtfcHl0aG9uJywgJy1waCcsICc3LjAnLCAnLXRuJywgJzgnLCAnLW1hJywgJzIwMCcsICctbWV0YWxfYmluZGluZycsICctaW1hZScsICc8aW5maWxlLm1hZT4nLCAnLW9tYWUnLCAnPG91dGZpbGUubWFlPic=

> <r_lp_tautomer_probability>
1

> <r_epik_Ionization_Penalty>
0.00175146

> <r_epik_Ionization_Penalty_Charging>
0

> <r_epik_Ionization_Penalty_Neutral>
0.00175146

> <r_epik_State_Penalty>
0.00109045

> <r_epik_Charging_Adjusted_Penalty>
0.00109045

> <i_epik_Tot_Q>
0

> <i_epik_Tot_abs_Q>
0

> <r_epik_Metal_State_Penalty>
-0

> <b_epik_Metal_Only>
0

> <s_lp_Force_Field>
OPLS_2005

> <r_lp_Energy>
57.64

> <b_lp_Chiralities_Consistent>
1

> <s_lp_Variant>
AV-unprocessed.smi:203-16

> <Gold.Version>
5.8.1

> <Gold.Id.Protein>
6NUR|6NUR_protein|mol2

> <Gold.PLP.Fitness>
54.0330

> <Gold.PLP.PLP>
-50.4838

> <Gold.PLP.part.hbond>
-2.3960

> <Gold.PLP.part.metal>
0.0000

> <Gold.PLP.part.buried>
-6.0711

> <Gold.PLP.part.nonpolar>
-40.6519

> <Gold.PLP.part.repulsive>
0.4764

> <Gold.PLP.ligand.clash>
0.0089

> <Gold.PLP.ligand.torsion>
1.5359

> <Gold.PLP.Chemscore.Hbond>
2.1071

> <Gold.PLP.Chemscore.CHOScore>
0.0000

> <Gold.PLP.Chemscore.Metal>
0.0000

> <Gold.Chemscore.Hbonds>
donor molecule, donor type, donor heavy atom, donor atom, acceptor molecule, acceptor atom, score
      L1  H    22    47       P1 10175  0.86
      P1  H  7989  7998       L1    14  0.23
      P1  H  7997  8009       L1    12  1.00

> <Gold.PLP.Chemscore.Internal.Correction>
0.3086

> <Gold.Rescore>
     Score         DG    S(hbond)    S(metal)    S(lipo)     H(rot)  DE(clash)    DE(int)     intcor
     11.45     -16.98       1.77        0.00     107.21       2.72       0.19       5.34       ----

> <Gold.Chemscore.Fitness>
11.4524

> <Gold.Chemscore.DG>
-16.9823

> <Gold.Chemscore.ZeroCoef>
-5.4800

> <Gold.Chemscore.Hbond>
1.7708

> <Gold.Chemscore.Metal>
0.0000

> <Gold.Chemscore.Lipo>
107.2097

> <Gold.Chemscore.Internal_Hbond>
0.0000

> <Gold.Chemscore.DEClash>
0.1897

> <Gold.Chemscore.DEInternal>
5.3403

> <Gold.Chemscore.Rot>
2.7171

> <Gold.Chemscore.Internal.Correction>
   9.000000E+99

> <Gold.Chemscore.Hbonds>
donor molecule, donor type, donor heavy atom, donor atom, acceptor molecule, acceptor atom, score
      L1  H    22    47       P1 10175  0.21
      P1  H  7997  8009       L1    12  0.84

> <Gold.Chemscore.Hbond.Weighted>
-5.9145

> <Gold.Chemscore.Metal.Weighted>
-0.0000

> <Gold.Chemscore.Lipo.Weighted>
-12.5435

> <Gold.Chemscore.Internal_Hbond.Weighted>
0.0000

> <Gold.Chemscore.DEClash.Weighted>
0.1897

> <Gold.Chemscore.DEInternal.Weighted>
5.3403

> <Gold.Chemscore.Rot.Weighted>
6.9557

> <Gold.Chemscore.Internal.Correction.Weighted>
   9.000000E+99

> <Gold.Protein.RotatedTorsions>
[ 6907 6896 6895 6894 ] final   61.86 input  -60.11 | X-H torsion
[ 7974 7965 7964 7962 ] final -132.81 input  175.53 | X-H torsion
[ 8008 7997 7996 7995 ] final -171.43 input   59.86 | X-H torsion
[ 10167 10162 10161 10158 ] final   73.94 input  -65.29 | X-H torsion
[ 10718 10713 10712 10709 ] final   84.77 input   66.30 | X-H torsion
[ 10763 10752 10751 10750 ] final  112.04 input  -60.55 | X-H torsion
[ 11005 11000 10999 10996 ] final -102.72 input  -57.11 | X-H torsion

> <Gold.Protein.ActiveResidues>
 VAL166  LYS551  ARG553  GLY616  TRP617  ASP618  TYR619  PRO620  LYS621  CYS622 
 ASP623  PHE694  ASN695  SER759  ASP760  ASP761  ALA762  ILE779  LEU786  VAL792 
 PHE793  MET794  SER795  GLU796  ALA797  LYS798  CYS799  TRP800  GLU811  SER814 

> <Gold.Protein.RotatedAtoms>
  152.4124  134.6101  160.0023 H   0  0  0  0  0  0  0  0  0  0  0  0  # atno 6907 bound_to 6896
  151.6274  133.3329  159.3109 H   0  0  0  0  0  0  0  0  0  0  0  0  # atno 6908 bound_to 6896
  150.8014  134.7150  159.6670 H   0  0  0  0  0  0  0  0  0  0  0  0  # atno 6909 bound_to 6896
  144.9251  140.7061  143.4941 H   0  0  0  0  0  0  0  0  0  0  0  0  # atno 7974 bound_to 7965
  155.9315  140.1092  157.1128 H   0  0  0  0  0  0  0  0  0  0  0  0  # atno 8008 bound_to 7997
  154.4072  140.1236  156.4874 H   0  0  0  0  0  0  0  0  0  0  0  0  # atno 8009 bound_to 7997
  155.7074  140.3471  155.4961 H   0  0  0  0  0  0  0  0  0  0  0  0  # atno 8010 bound_to 7997
  140.0191  144.5554  150.7596 H   0  0  0  0  0  0  0  0  0  0  0  0  # atno 10167 bound_to 10162
  157.6904  131.0147  150.2722 H   0  0  0  0  0  0  0  0  0  0  0  0  # atno 10718 bound_to 10713
  153.4720  135.3698  155.2396 H   0  0  0  0  0  0  0  0  0  0  0  0  # atno 10763 bound_to 10752
  154.8757  135.3934  154.3801 H   0  0  0  0  0  0  0  0  0  0  0  0  # atno 10764 bound_to 10752
  153.4391  135.7084  153.6245 H   0  0  0  0  0  0  0  0  0  0  0  0  # atno 10765 bound_to 10752
  141.1177  133.8581  157.1395 H   0  0  0  0  0  0  0  0  0  0  0  0  # atno 11005 bound_to 11000
  145.3232  139.1782  143.4576 LP  0  0  0  0  0  0  0  0  0  0  0  0  # atno 17320 bound_to 7965
  146.3222  140.3252  142.8636 LP  0  0  0  0  0  0  0  0  0  0  0  0  # atno 17321 bound_to 7965
  140.7350  143.2735  151.3813 LP  0  0  0  0  0  0  0  0  0  0  0  0  # atno 17342 bound_to 10162
  139.6152  144.1017  152.2338 LP  0  0  0  0  0  0  0  0  0  0  0  0  # atno 17343 bound_to 10162
  156.3283  130.3796  149.7513 LP  0  0  0  0  0  0  0  0  0  0  0  0  # atno 17370 bound_to 10713
  156.5061  130.8151  151.3151 LP  0  0  0  0  0  0  0  0  0  0  0  0  # atno 17371 bound_to 10713
  140.0111  134.9988  157.0396 LP  0  0  0  0  0  0  0  0  0  0  0  0  # atno 17394 bound_to 11000
  140.4598  134.1496  155.7190 LP  0  0  0  0  0  0  0  0  0  0  0  0  # atno 17395 bound_to 11000

$$$$
