AV-unprocessed.smi:91|AV-procd|sdf|837|dock1
  -GOLD-   2262017263D 1   1.00000     0.00000
 Structure written by MMmdl.
 60 63  0  0  0  0  0  0  0  0  1 V2000
  146.8658  132.2022  152.3783 C   0  0  0  0  0  0  0  0  0  0  0  0
  147.4135  133.2376  153.1751 O   0  0  0  0  0  0  0  0  0  0  0  0
  148.7498  133.5506  152.8155 C   0  0  0  0  0  0  0  0  0  0  0  0
  149.5443  133.9789  154.0570 C   0  0  2  0  0  0  0  0  0  0  0  0
  150.1434  135.3908  153.9305 C   0  0  0  0  0  0  0  0  0  0  0  0
  150.9709  135.6800  155.0955 N   0  0  0  0  0  0  0  0  0  0  0  0
  151.3368  136.9652  155.3278 C   0  0  0  0  0  0  0  0  0  0  0  0
  151.9828  137.6747  154.3639 N   0  0  0  0  0  0  0  0  0  0  0  0
  152.3499  138.9397  154.5894 C   0  0  0  0  0  0  0  0  0  0  0  0
  152.1690  139.6785  155.6856 N   0  0  0  0  0  0  0  0  0  0  0  0
  151.5122  138.9762  156.6524 C   0  0  0  0  0  0  0  0  0  0  0  0
  151.0652  137.6279  156.5579 C   0  0  0  0  0  0  0  0  0  0  0  0
  150.4246  137.2582  157.7351 N   0  0  0  0  0  0  0  0  0  0  0  0
  150.4945  138.3240  158.4846 C   0  0  0  0  0  0  0  0  0  0  0  0
  151.1250  139.4040  157.9107 N   0  0  0  0  0  0  0  0  0  0  0  0
  151.3276  140.7070  158.5198 C   0  0  0  0  0  0  0  0  0  0  0  0
  152.6914  141.3403  158.1487 C   0  0  2  0  0  0  0  0  0  0  0  0
  153.8893  140.4539  158.5688 C   0  0  0  0  0  0  0  0  0  0  0  0
  155.0575  140.7887  157.8475 O   0  0  0  0  0  0  0  0  0  0  0  0
  152.8129  142.7904  158.6817 C   0  0  1  0  0  0  0  0  0  0  0  0
  151.5905  143.6617  158.4506 C   0  0  0  0  0  0  0  0  0  0  0  0
  151.8078  144.7891  159.4526 C   0  0  0  0  0  0  0  0  0  0  0  0
  152.4527  144.1852  160.5675 O   0  0  0  0  0  0  0  0  0  0  0  0
  152.9508  142.9008  160.2051 C   0  0  0  0  0  0  0  0  0  0  0  0
  152.0168  134.6863  155.3100 C   0  0  0  0  0  0  0  0  0  0  0  0
  151.4163  133.2674  155.4224 C   0  0  0  0  0  0  0  0  0  0  0  0
  152.5379  132.2213  155.3365 C   0  0  0  0  0  0  0  0  0  0  0  0
  150.6443  133.0759  156.7454 C   0  0  0  0  0  0  0  0  0  0  0  0
  150.5738  133.0167  154.2914 O   0  0  0  0  0  0  0  0  0  0  0  0
  145.8422  131.9998  152.6928 H   0  0  0  0  0  0  0  0  0  0  0  0
  147.4388  131.2799  152.4825 H   0  0  0  0  0  0  0  0  0  0  0  0
  146.8449  132.4843  151.3249 H   0  0  0  0  0  0  0  0  0  0  0  0
  149.2205  132.6763  152.3632 H   0  0  0  0  0  0  0  0  0  0  0  0
  148.7646  134.3486  152.0716 H   0  0  0  0  0  0  0  0  0  0  0  0
  148.8528  133.9627  154.8994 H   0  0  0  0  0  0  0  0  0  0  0  0
  150.7551  135.4678  153.0303 H   0  0  0  0  0  0  0  0  0  0  0  0
  149.3405  136.1241  153.8437 H   0  0  0  0  0  0  0  0  0  0  0  0
  152.8611  139.4300  153.7742 H   0  0  0  0  0  0  0  0  0  0  0  0
  150.0792  138.3554  159.4815 H   0  0  0  0  0  0  0  0  0  0  0  0
  150.5058  141.3471  158.1987 H   0  0  0  0  0  0  0  0  0  0  0  0
  151.2334  140.6092  159.6019 H   0  0  0  0  0  0  0  0  0  0  0  0
  152.7247  141.3995  157.0597 H   0  0  0  0  0  0  0  0  0  0  0  0
  154.0960  140.5528  159.6342 H   0  0  0  0  0  0  0  0  0  0  0  0
  153.6688  139.3993  158.4054 H   0  0  0  0  0  0  0  0  0  0  0  0
  155.7846  140.3059  158.2100 H   0  0  0  0  0  0  0  0  0  0  0  0
  153.6741  143.2786  158.2227 H   0  0  0  0  0  0  0  0  0  0  0  0
  151.5083  144.0269  157.4267 H   0  0  0  0  0  0  0  0  0  0  0  0
  150.6784  143.1149  158.6944 H   0  0  0  0  0  0  0  0  0  0  0  0
  152.4722  145.5464  159.0346 H   0  0  0  0  0  0  0  0  0  0  0  0
  150.8768  145.2761  159.7431 H   0  0  0  0  0  0  0  0  0  0  0  0
  152.3412  142.1478  160.7063 H   0  0  0  0  0  0  0  0  0  0  0  0
  153.9812  142.7748  160.5388 H   0  0  0  0  0  0  0  0  0  0  0  0
  152.7022  134.7325  154.4625 H   0  0  0  0  0  0  0  0  0  0  0  0
  152.6094  134.9073  156.1972 H   0  0  0  0  0  0  0  0  0  0  0  0
  153.2515  132.3355  156.1533 H   0  0  0  0  0  0  0  0  0  0  0  0
  153.0903  132.3102  154.4004 H   0  0  0  0  0  0  0  0  0  0  0  0
  152.1372  131.2084  155.3854 H   0  0  0  0  0  0  0  0  0  0  0  0
  151.3161  133.1484  157.6014 H   0  0  0  0  0  0  0  0  0  0  0  0
  150.1664  132.0965  156.7834 H   0  0  0  0  0  0  0  0  0  0  0  0
  149.8697  133.8283  156.8896 H   0  0  0  0  0  0  0  0  0  0  0  0
  1  2  1  0  0  0  0
  1 30  1  0  0  0  0
  1 31  1  0  0  0  0
  1 32  1  0  0  0  0
  2  3  1  0  0  0  0
  3  4  1  0  0  0  0
  3 33  1  0  0  0  0
  3 34  1  0  0  0  0
  4 29  1  0  0  0  0
  4  5  1  0  0  0  0
  4 35  1  0  0  0  0
  5  6  1  0  0  0  0
  5 36  1  0  0  0  0
  5 37  1  0  0  0  0
  6  7  1  0  0  0  0
  6 25  1  0  0  0  0
  7 12  1  0  0  0  0
  7  8  2  0  0  0  0
  8  9  1  0  0  0  0
  9 10  2  0  0  0  0
  9 38  1  0  0  0  0
 10 11  1  0  0  0  0
 11 15  1  0  0  0  0
 11 12  2  0  0  0  0
 12 13  1  0  0  0  0
 13 14  2  0  0  0  0
 14 15  1  0  0  0  0
 14 39  1  0  0  0  0
 15 16  1  0  0  0  0
 16 17  1  0  0  0  0
 16 40  1  0  0  0  0
 16 41  1  0  0  0  0
 17 18  1  0  0  0  0
 17 20  1  0  0  0  0
 17 42  1  0  0  0  0
 18 19  1  0  0  0  0
 18 43  1  0  0  0  0
 18 44  1  0  0  0  0
 19 45  1  0  0  0  0
 20 24  1  0  0  0  0
 20 21  1  0  0  0  0
 20 46  1  0  0  0  0
 21 22  1  0  0  0  0
 21 47  1  0  0  0  0
 21 48  1  0  0  0  0
 22 23  1  0  0  0  0
 22 49  1  0  0  0  0
 22 50  1  0  0  0  0
 23 24  1  0  0  0  0
 24 51  1  0  0  0  0
 24 52  1  0  0  0  0
 25 26  1  0  0  0  0
 25 53  1  0  0  0  0
 25 54  1  0  0  0  0
 26 27  1  0  0  0  0
 26 28  1  0  0  0  0
 26 29  1  0  0  0  0
 27 55  1  0  0  0  0
 27 56  1  0  0  0  0
 27 57  1  0  0  0  0
 28 58  1  0  0  0  0
 28 59  1  0  0  0  0
 28 60  1  0  0  0  0
M  END
> <s_m_source_file>
AV-unprocessed.smi

> <i_m_source_file_index>
91

> <i_lp_mmshare_version>
43012

> <i_f3d_flags>
0

> <s_epik_input>
W0NIM11PW0NIMl1bQ0BASF0oTzEpW0NIMl1OKFtDSDJdQzEoW0NIM10pW0NIM10pYyhuW2NIXW4yKWMoYzIzKW5bY0hdbjNbQ0gyXVtDQEhdKFtDSDJdW09IXSlbQ0BASF00W0NIMl1bQ0gyXU9bQ0gyXTQ=

> <s_epik_cmdline>
J2VwaWtfcHl0aG9uJywgJy1waCcsICc3LjAnLCAnLXRuJywgJzgnLCAnLW1hJywgJzIwMCcsICctbWV0YWxfYmluZGluZycsICctaW1hZScsICc8aW5maWxlLm1hZT4nLCAnLW9tYWUnLCAnPG91dGZpbGUubWFlPic=

> <r_lp_tautomer_probability>
1

> <r_epik_Ionization_Penalty>
8.63591e-05

> <r_epik_Ionization_Penalty_Charging>
0

> <r_epik_Ionization_Penalty_Neutral>
8.63591e-05

> <r_epik_State_Penalty>
-0

> <r_epik_Charging_Adjusted_Penalty>
0

> <i_epik_Tot_Q>
0

> <i_epik_Tot_abs_Q>
0

> <r_epik_Metal_State_Penalty>
-0

> <b_epik_Metal_Only>
0

> <s_lp_Force_Field>
OPLS_2005

> <r_lp_Energy>
47.5582

> <b_lp_Chiralities_Consistent>
1

> <s_lp_Variant>
AV-unprocessed.smi:91-5

> <Gold.Version>
5.8.1

> <Gold.Id.Protein>
6NUR|6NUR_protein|mol2

> <Gold.PLP.Fitness>
47.7532

> <Gold.PLP.PLP>
-45.0681

> <Gold.PLP.part.hbond>
-2.5350

> <Gold.PLP.part.metal>
0.0000

> <Gold.PLP.part.buried>
-4.7587

> <Gold.PLP.part.nonpolar>
-38.0366

> <Gold.PLP.part.repulsive>
0.3306

> <Gold.PLP.ligand.clash>
0.0000

> <Gold.PLP.ligand.torsion>
1.8798

> <Gold.PLP.Chemscore.Hbond>
1.8880

> <Gold.PLP.Chemscore.CHOScore>
0.0000

> <Gold.PLP.Chemscore.Metal>
0.0000

> <Gold.PLP.Chemscore.Internal.Correction>
0.7807

> <Gold.Rescore>
     Score         DG    S(hbond)    S(metal)    S(lipo)     H(rot)  DE(clash)    DE(int)     intcor
     12.40     -16.29       1.86        0.00     105.68       3.03       0.01       3.89       ----

> <Gold.Chemscore.Fitness>
12.3961

> <Gold.Chemscore.DG>
-16.2916

> <Gold.Chemscore.ZeroCoef>
-5.4800

> <Gold.Chemscore.Hbond>
1.8562

> <Gold.Chemscore.Metal>
0.0000

> <Gold.Chemscore.Lipo>
105.6799

> <Gold.Chemscore.Internal_Hbond>
0.0000

> <Gold.Chemscore.DEClash>
0.0053

> <Gold.Chemscore.DEInternal>
3.8903

> <Gold.Chemscore.Rot>
3.0284

> <Gold.Chemscore.Internal.Correction>
   9.000000E+99

> <Gold.Chemscore.Hbond.Weighted>
-6.1999

> <Gold.Chemscore.Metal.Weighted>
-0.0000

> <Gold.Chemscore.Lipo.Weighted>
-12.3646

> <Gold.Chemscore.Internal_Hbond.Weighted>
0.0000

> <Gold.Chemscore.DEClash.Weighted>
0.0053

> <Gold.Chemscore.DEInternal.Weighted>
3.8903

> <Gold.Chemscore.Rot.Weighted>
7.7528

> <Gold.Chemscore.Internal.Correction.Weighted>
   9.000000E+99

> <Gold.Protein.RotatedTorsions>
[ 6907 6896 6895 6894 ] final -166.09 input  -60.11 | X-H torsion
[ 7974 7965 7964 7962 ] final   10.25 input  175.53 | X-H torsion
[ 8008 7997 7996 7995 ] final  116.23 input   59.86 | X-H torsion
[ 10167 10162 10161 10158 ] final -135.12 input  -65.29 | X-H torsion
[ 10718 10713 10712 10709 ] final  -87.81 input   66.30 | X-H torsion
[ 10763 10752 10751 10750 ] final -168.80 input  -60.55 | X-H torsion
[ 11005 11000 10999 10996 ] final -111.02 input  -57.11 | X-H torsion

> <Gold.Protein.ActiveResidues>
 VAL166  LYS551  ARG553  GLY616  TRP617  ASP618  TYR619  PRO620  LYS621  CYS622 
 ASP623  PHE694  ASN695  SER759  ASP760  ASP761  ALA762  ILE779  LEU786  VAL792 
 PHE793  MET794  SER795  GLU796  ALA797  LYS798  CYS799  TRP800  GLU811  SER814 

> <Gold.Protein.RotatedAtoms>
  151.4381  133.3651  159.2777 H   0  0  0  0  0  0  0  0  0  0  0  0  # atno 6907 bound_to 6896
  150.9177  134.8596  159.7479 H   0  0  0  0  0  0  0  0  0  0  0  0  # atno 6908 bound_to 6896
  152.4965  134.4316  159.9566 H   0  0  0  0  0  0  0  0  0  0  0  0  # atno 6909 bound_to 6896
  146.2391  139.9663  142.8452 H   0  0  0  0  0  0  0  0  0  0  0  0  # atno 7974 bound_to 7965
  156.2427  140.2922  156.0490 H   0  0  0  0  0  0  0  0  0  0  0  0  # atno 8008 bound_to 7997
  155.1902  140.0406  157.2916 H   0  0  0  0  0  0  0  0  0  0  0  0  # atno 8009 bound_to 7997
  154.6200  140.2473  155.7568 H   0  0  0  0  0  0  0  0  0  0  0  0  # atno 8010 bound_to 7997
  139.8811  143.6838  152.2627 H   0  0  0  0  0  0  0  0  0  0  0  0  # atno 10167 bound_to 10162
  155.9984  130.4813  150.4923 H   0  0  0  0  0  0  0  0  0  0  0  0  # atno 10718 bound_to 10713
  154.6590  135.2922  154.9891 H   0  0  0  0  0  0  0  0  0  0  0  0  # atno 10763 bound_to 10752
  154.0957  135.6584  153.4864 H   0  0  0  0  0  0  0  0  0  0  0  0  # atno 10764 bound_to 10752
  153.0419  135.5230  154.7532 H   0  0  0  0  0  0  0  0  0  0  0  0  # atno 10765 bound_to 10752
  141.0758  133.9303  157.2392 H   0  0  0  0  0  0  0  0  0  0  0  0  # atno 11005 bound_to 11000
  145.1723  140.9727  143.4314 LP  0  0  0  0  0  0  0  0  0  0  0  0  # atno 17320 bound_to 7965
  145.0017  139.3592  143.6164 LP  0  0  0  0  0  0  0  0  0  0  0  0  # atno 17321 bound_to 7965
  139.7195  144.7605  151.0978 LP  0  0  0  0  0  0  0  0  0  0  0  0  # atno 17342 bound_to 10162
  140.7744  143.5226  150.9519 LP  0  0  0  0  0  0  0  0  0  0  0  0  # atno 17343 bound_to 10162
  157.2917  131.0627  151.2129 LP  0  0  0  0  0  0  0  0  0  0  0  0  # atno 17370 bound_to 10713
  157.3140  130.6904  149.6231 LP  0  0  0  0  0  0  0  0  0  0  0  0  # atno 17371 bound_to 10713
  139.9571  135.0163  156.9157 LP  0  0  0  0  0  0  0  0  0  0  0  0  # atno 17394 bound_to 11000
  140.5576  134.0566  155.7388 LP  0  0  0  0  0  0  0  0  0  0  0  0  # atno 17395 bound_to 11000

$$$$
