#       Name:                AV-unprocessed.smi:1235
#       Creating user name   scv26
#       Creation time:       Fri Mar 27 04:25:46 2020


#       File generated by GOLD software.
#

@<TRIPOS>MOLECULE
AV-unprocessed.smi:1235
    57    58     1
SMALL
NO_CHARGES


@<TRIPOS>ATOM
      1 ****        -6.1589  -1.8201   4.4030 C.3            1 S1                 0.0000
      2 ****        -5.8516  -1.7083   3.0244 O.3            1 S1                 0.0000
      3 ****        -5.2245  -0.4776   2.7068 C.3            1 S1                 0.0000
      4 ****        -4.9389  -0.4400   1.1977 C.3            1 S1                 0.0000
      5 ****        -4.2550   0.7980   0.8100 N.am           1 S1                 0.0000
      6 ****        -2.8781   0.6781   0.7176 N.2            1 S1                 0.0000
      7 ****        -2.1572   1.7023   0.3927 C.2            1 S1                 0.0000
      8 ****        -0.6746   1.6161   0.2776 C.2            1 S1                 0.0000
      9 ****         0.0126   2.5928  -0.0264 O.2            1 S1                 0.0000
     10 ****        -0.1435   0.4040   0.5210 N.am           1 S1                 0.0000
     11 ****         1.2789   0.0869   0.4586 C.3            1 S1                 0.0000
     12 ****         1.7447  -0.1254  -0.9978 C.3            1 S1                 0.0000
     13 ****         3.2149  -0.3451  -1.1252 N.4            1 S1                 1.0000
     14 ****         3.6332  -1.6437  -0.5203 C.3            1 S1                 0.0000
     15 ****         5.1568  -1.8287  -0.5382 C.3            1 S1                 0.0000
     16 ****         5.6906  -1.7339  -1.9663 C.3            1 S1                 0.0000
     17 ****         5.2650  -0.3958  -2.5732 C.3            1 S1                 0.0000
     18 ****         3.7336  -0.1950  -2.5261 C.3            1 S1                 0.0000
     19 ****         3.4045   1.1747  -3.1573 C.3            1 S1                 0.0000
     20 ****        -2.7732   2.9903   0.1214 C.2            1 S1                 0.0000
     21 ****        -4.1169   3.0919   0.2172 C.2            1 S1                 0.0000
     22 ****        -4.9558   1.9502   0.5846 C.2            1 S1                 0.0000
     23 ****        -6.1802   2.0197   0.6863 O.2            1 S1                 0.0000
     24 ****        -6.6361  -2.7810   4.5950 H              1 S1                 0.0000
     25 ****        -6.8462  -1.0343   4.7194 H              1 S1                 0.0000
     26 ****        -5.2573  -1.7639   5.0147 H              1 S1                 0.0000
     27 ****        -5.8713   0.3533   2.9931 H              1 S1                 0.0000
     28 ****        -4.2931  -0.3794   3.2672 H              1 S1                 0.0000
     29 ****        -4.3293  -1.3029   0.9235 H              1 S1                 0.0000
     30 ****        -5.8690  -0.5531   0.6378 H              1 S1                 0.0000
     31 ****        -0.7724  -0.3473   0.7680 H              1 S1                 0.0000
     32 ****         1.8591   0.8779   0.9369 H              1 S1                 0.0000
     33 ****         1.4212  -0.8119   1.0562 H              1 S1                 0.0000
     34 ****         1.2085  -0.9591  -1.4539 H              1 S1                 0.0000
     35 ****         1.4492   0.7638  -1.5479 H              1 S1                 0.0000
     36 ****         3.3078  -1.7110   0.5158 H              1 S1                 0.0000
     37 ****         3.1523  -2.4646  -1.0546 H              1 S1                 0.0000
     38 ****         5.6294  -1.0694   0.0864 H              1 S1                 0.0000
     39 ****         5.4205  -2.7946  -0.1062 H              1 S1                 0.0000
     40 ****         6.7774  -1.8237  -1.9715 H              1 S1                 0.0000
     41 ****         5.3030  -2.5578  -2.5670 H              1 S1                 0.0000
     42 ****         5.7601   0.4171  -2.0394 H              1 S1                 0.0000
     43 ****         5.6181  -0.3442  -3.6039 H              1 S1                 0.0000
     44 ****         3.2702  -0.9701  -3.1391 H              1 S1                 0.0000
     45 ****         3.9466   1.3113  -4.0936 H              1 S1                 0.0000
     46 ****         3.6828   1.9960  -2.4965 H              1 S1                 0.0000
     47 ****         2.3496   1.2782  -3.4085 H              1 S1                 0.0000
     48 ****        -2.1791   3.8505  -0.1511 H              1 S1                 0.0000
     49 ****        -4.5882   4.0431   0.0178 H              1 S1                 0.0000
     50 ****         3.6589   0.3837  -0.5849 H              1 S1                 0.0000
     51 ****        -6.6998  -1.7809   2.4997 LP             1 S1                 0.0000
     52 ****        -5.2378  -2.4559   2.7708 LP             1 S1                 0.0000
     53 ****        -2.4403  -0.2018   0.9023 LP             1 S1                 0.0000
     54 ****        -0.4233   3.4752  -0.2039 LP             1 S1                 0.0000
     55 ****         1.0062   2.5031  -0.0957 LP             1 S1                 0.0000
     56 ****        -6.7073   1.2100   0.9441 LP             1 S1                 0.0000
     57 ****        -6.6481   2.8860   0.5111 LP             1 S1                 0.0000
@<TRIPOS>BOND
    1    1    2 1     
    2    1   24 1     
    3    1   25 1     
    4    1   26 1     
    5    2    3 1     
    6    3    4 1     
    7    3   27 1     
    8    3   28 1     
    9    4    5 1     
   10    4   29 1     
   11    4   30 1     
   12    5   22 am    
   13    5    6 1     
   14    6    7 2     
   15    7    8 1     
   16    7   20 1     
   17    8    9 2     
   18    8   10 am    
   19   10   11 1     
   20   10   31 1     
   21   11   12 1     
   22   11   32 1     
   23   11   33 1     
   24   12   13 1     
   25   12   34 1     
   26   12   35 1     
   27   13   18 1     
   28   13   14 1     
   29   13   50 1     
   30   14   15 1     
   31   14   36 1     
   32   14   37 1     
   33   15   16 1     
   34   15   38 1     
   35   15   39 1     
   36   16   17 1     
   37   16   40 1     
   38   16   41 1     
   39   17   18 1     
   40   17   42 1     
   41   17   43 1     
   42   18   19 1     
   43   18   44 1     
   44   19   45 1     
   45   19   46 1     
   46   19   47 1     
   47   20   21 2     
   48   20   48 1     
   49   21   22 1     
   50   21   49 1     
   51   22   23 2     
   52    2   51 1     
   53    2   52 1     
   54    6   53 1     
   55    9   54 1     
   56    9   55 1     
   57   23   56 1     
   58   23   57 1     
@<TRIPOS>SUBSTRUCTURE
      1 S1             1
@<TRIPOS>SET
LONE_PAIRS      STATIC     ATOMS    <user>   **** ""
7 51 52 53 54 55 56 57
DONOR_HYDROGENS      STATIC     ATOMS    <user>   **** ""
2 31 50
ATOM$BLUE        STATIC     ATOMS    COLORGROUP SYSTEM
7 51 52 53 54 55 56 57
ATOM$RED        STATIC     ATOMS    COLORGROUP SYSTEM
2 31 50
