AV-unprocessed.smi:1601|AV-procd|sdf|6434|dock3
  -GOLD-   22720 7 73D 1   1.00000     0.00000
 Structure written by MMmdl.
 41 42  0  0  0  0  0  0  0  0  1 V2000
  148.8293  141.1770  154.4164 C   0  0  0  0  0  0  0  0  0  0  0  0
  150.0829  141.0996  155.3252 C   0  0  1  0  0  0  0  0  0  0  0  0
  149.7436  141.7484  156.6953 C   0  0  0  0  0  0  0  0  0  0  0  0
  150.9019  142.4012  157.2971 N   0  0  0  0  0  0  0  0  0  0  0  0
  150.9190  143.0022  158.4964 C   0  0  0  0  0  0  0  0  0  0  0  0
  149.9368  143.0604  159.2372 O   0  0  0  0  0  0  0  0  0  0  0  0
  152.2574  143.6260  158.9203 C   0  0  1  0  0  0  0  0  0  0  0  0
  152.1916  145.1615  159.0138 C   0  0  0  0  0  0  0  0  0  0  0  0
  152.7110  143.0424  160.1758 N   0  0  0  0  0  0  0  0  0  0  0  0
  152.2954  143.3237  161.4633 C   0  0  0  0  0  0  0  0  0  0  0  0
  153.0060  142.5197  162.3076 C   0  0  0  0  0  0  0  0  0  0  0  0
  153.8432  141.7704  161.4351 C   0  0  0  0  0  0  0  0  0  0  0  0
  153.6648  142.0847  160.1623 N   0  0  0  0  0  0  0  0  0  0  0  0
  150.6187  139.7234  155.4429 N   0  0  0  0  0  0  0  0  0  0  0  0
  152.0328  139.6945  155.8352 C   0  0  0  0  0  0  0  0  0  0  0  0
  152.5984  138.2664  155.9270 C   0  0  0  0  0  0  0  0  0  0  0  0
  152.4204  137.5980  154.6861 O   0  0  0  0  0  0  0  0  0  0  0  0
  151.0528  137.5337  154.3072 C   0  0  0  0  0  0  0  0  0  0  0  0
  150.4796  138.9569  154.1992 C   0  0  0  0  0  0  0  0  0  0  0  0
  148.3971  142.1764  154.3823 H   0  0  0  0  0  0  0  0  0  0  0  0
  148.0504  140.4970  154.7631 H   0  0  0  0  0  0  0  0  0  0  0  0
  149.0550  140.9313  153.3797 H   0  0  0  0  0  0  0  0  0  0  0  0
  150.8518  141.7198  154.8616 H   0  0  0  0  0  0  0  0  0  0  0  0
  148.9182  142.4519  156.5715 H   0  0  0  0  0  0  0  0  0  0  0  0
  149.4223  141.0086  157.4262 H   0  0  0  0  0  0  0  0  0  0  0  0
  151.7565  142.3964  156.7592 H   0  0  0  0  0  0  0  0  0  0  0  0
  152.9904  143.3816  158.1484 H   0  0  0  0  0  0  0  0  0  0  0  0
  151.8652  145.6003  158.0701 H   0  0  0  0  0  0  0  0  0  0  0  0
  153.1725  145.5774  159.2455 H   0  0  0  0  0  0  0  0  0  0  0  0
  151.5022  145.4929  159.7911 H   0  0  0  0  0  0  0  0  0  0  0  0
  151.5355  144.0639  161.6674 H   0  0  0  0  0  0  0  0  0  0  0  0
  152.9376  142.4740  163.3843 H   0  0  0  0  0  0  0  0  0  0  0  0
  154.5696  141.0119  161.6874 H   0  0  0  0  0  0  0  0  0  0  0  0
  152.6260  140.2737  155.1256 H   0  0  0  0  0  0  0  0  0  0  0  0
  152.1723  140.1510  156.8128 H   0  0  0  0  0  0  0  0  0  0  0  0
  153.6616  138.2950  156.1656 H   0  0  0  0  0  0  0  0  0  0  0  0
  152.1065  137.7070  156.7243 H   0  0  0  0  0  0  0  0  0  0  0  0
  150.9726  137.0193  153.3493 H   0  0  0  0  0  0  0  0  0  0  0  0
  150.4915  136.9451  155.0346 H   0  0  0  0  0  0  0  0  0  0  0  0
  149.4311  138.8571  153.9246 H   0  0  0  0  0  0  0  0  0  0  0  0
  150.9731  139.4849  153.3817 H   0  0  0  0  0  0  0  0  0  0  0  0
  1  2  1  0  0  0  0
  1 20  1  0  0  0  0
  1 21  1  0  0  0  0
  1 22  1  0  0  0  0
  2  3  1  0  0  0  0
  2 14  1  0  0  0  0
  2 23  1  0  0  0  0
  3  4  1  0  0  0  0
  3 24  1  0  0  0  0
  3 25  1  0  0  0  0
  4  5  1  0  0  0  0
  4 26  1  0  0  0  0
  5  6  2  0  0  0  0
  5  7  1  0  0  0  0
  7  8  1  0  0  0  0
  7  9  1  0  0  0  0
  7 27  1  0  0  0  0
  8 28  1  0  0  0  0
  8 29  1  0  0  0  0
  8 30  1  0  0  0  0
  9 13  1  0  0  0  0
  9 10  1  0  0  0  0
 10 11  2  0  0  0  0
 10 31  1  0  0  0  0
 11 12  1  0  0  0  0
 11 32  1  0  0  0  0
 12 13  2  0  0  0  0
 12 33  1  0  0  0  0
 14 19  1  0  0  0  0
 14 15  1  0  0  0  0
 15 16  1  0  0  0  0
 15 34  1  0  0  0  0
 15 35  1  0  0  0  0
 16 17  1  0  0  0  0
 16 36  1  0  0  0  0
 16 37  1  0  0  0  0
 17 18  1  0  0  0  0
 18 19  1  0  0  0  0
 18 38  1  0  0  0  0
 18 39  1  0  0  0  0
 19 40  1  0  0  0  0
 19 41  1  0  0  0  0
M  END
> <s_m_source_file>
AV-unprocessed.smi

> <i_m_source_file_index>
1601

> <i_lp_mmshare_version>
43012

> <i_f3d_flags>
0

> <s_epik_input>
W0NIMl0xW0NIMl1PW0NIMl1bQ0gyXU4xW0NASF0oW0NIM10pW0NIMl1bTkhdQyg9TylbQ0BIXShbQ0gzXSluMltjSF1bY0hdW2NIXW4y

> <s_epik_cmdline>
J2VwaWtfcHl0aG9uJywgJy1waCcsICc3LjAnLCAnLXRuJywgJzgnLCAnLW1hJywgJzIwMCcsICctbWV0YWxfYmluZGluZycsICctaW1hZScsICc8aW5maWxlLm1hZT4nLCAnLW9tYWUnLCAnPG91dGZpbGUubWFlPic=

> <r_lp_tautomer_probability>
1

> <r_epik_Ionization_Penalty>
0.203323

> <r_epik_Ionization_Penalty_Charging>
0

> <r_epik_Ionization_Penalty_Neutral>
0.203323

> <r_epik_State_Penalty>
0.193192

> <r_epik_Charging_Adjusted_Penalty>
0.193192

> <i_epik_Tot_Q>
0

> <i_epik_Tot_abs_Q>
0

> <r_epik_Metal_State_Penalty>
0.193187

> <b_epik_Metal_Only>
0

> <s_lp_Force_Field>
OPLS_2005

> <r_lp_Energy>
33.1122

> <b_lp_Chiralities_Consistent>
1

> <s_lp_Variant>
AV-unprocessed.smi:1601-4

> <Gold.Version>
5.8.1

> <Gold.Id.Protein>
6NUR|6NUR_protein|mol2

> <Gold.PLP.Fitness>
49.0976

> <Gold.PLP.PLP>
-49.5281

> <Gold.PLP.part.hbond>
-1.6593

> <Gold.PLP.part.metal>
0.0000

> <Gold.PLP.part.buried>
-5.7181

> <Gold.PLP.part.nonpolar>
-42.0743

> <Gold.PLP.part.repulsive>
0.2425

> <Gold.PLP.ligand.clash>
0.0000

> <Gold.PLP.ligand.torsion>
1.2718

> <Gold.PLP.Chemscore.Hbond>
0.6720

> <Gold.PLP.Chemscore.CHOScore>
0.0000

> <Gold.PLP.Chemscore.Metal>
0.0000

> <Gold.Chemscore.Hbonds>
donor molecule, donor type, donor heavy atom, donor atom, acceptor molecule, acceptor atom, score
      P1  H 10752 10765       L1    17  0.62

> <Gold.PLP.Chemscore.Internal.Correction>
0.0971

> <Gold.Rescore>
     Score         DG    S(hbond)    S(metal)    S(lipo)     H(rot)  DE(clash)    DE(int)     intcor
     15.68     -16.58       0.87        0.00     109.25       1.79       0.03       0.87       ----

> <Gold.Chemscore.Fitness>
15.6817

> <Gold.Chemscore.DG>
-16.5778

> <Gold.Chemscore.ZeroCoef>
-5.4800

> <Gold.Chemscore.Hbond>
0.8654

> <Gold.Chemscore.Metal>
0.0000

> <Gold.Chemscore.Lipo>
109.2535

> <Gold.Chemscore.Internal_Hbond>
0.0000

> <Gold.Chemscore.DEClash>
0.0270

> <Gold.Chemscore.DEInternal>
0.8691

> <Gold.Chemscore.Rot>
1.7872

> <Gold.Chemscore.Internal.Correction>
   9.000000E+99

> <Gold.Chemscore.Hbonds>
donor molecule, donor type, donor heavy atom, donor atom, acceptor molecule, acceptor atom, score
      P1  H 10752 10765       L1    17  0.15

> <Gold.Chemscore.Hbond.Weighted>
-2.8903

> <Gold.Chemscore.Metal.Weighted>
-0.0000

> <Gold.Chemscore.Lipo.Weighted>
-12.7827

> <Gold.Chemscore.Internal_Hbond.Weighted>
0.0000

> <Gold.Chemscore.DEClash.Weighted>
0.0270

> <Gold.Chemscore.DEInternal.Weighted>
0.8691

> <Gold.Chemscore.Rot.Weighted>
4.5752

> <Gold.Chemscore.Internal.Correction.Weighted>
   9.000000E+99

> <Gold.Protein.RotatedTorsions>
[ 6907 6896 6895 6894 ] final   57.74 input  -60.11 | X-H torsion
[ 7974 7965 7964 7962 ] final   72.03 input  175.53 | X-H torsion
[ 8008 7997 7996 7995 ] final -124.84 input   59.86 | X-H torsion
[ 10167 10162 10161 10158 ] final   78.17 input  -65.29 | X-H torsion
[ 10718 10713 10712 10709 ] final   14.69 input   66.30 | X-H torsion
[ 10763 10752 10751 10750 ] final  169.70 input  -60.55 | X-H torsion
[ 11005 11000 10999 10996 ] final -133.67 input  -57.11 | X-H torsion

> <Gold.Protein.ActiveResidues>
 VAL166  LYS551  ARG553  GLY616  TRP617  ASP618  TYR619  PRO620  LYS621  CYS622 
 ASP623  PHE694  ASN695  SER759  ASP760  ASP761  ALA762  ILE779  LEU786  VAL792 
 PHE793  MET794  SER795  GLU796  ALA797  LYS798  CYS799  TRP800  GLU811  SER814 

> <Gold.Protein.RotatedAtoms>
  152.3759  134.6664  160.0159 H   0  0  0  0  0  0  0  0  0  0  0  0  # atno 6907 bound_to 6896
  151.6942  133.3305  159.3258 H   0  0  0  0  0  0  0  0  0  0  0  0  # atno 6908 bound_to 6896
  150.7709  134.6607  159.6383 H   0  0  0  0  0  0  0  0  0  0  0  0  # atno 6909 bound_to 6896
  145.7584  139.2790  143.1390 H   0  0  0  0  0  0  0  0  0  0  0  0  # atno 7974 bound_to 7965
  155.2035  140.0416  157.2921 H   0  0  0  0  0  0  0  0  0  0  0  0  # atno 8008 bound_to 7997
  154.6059  140.2464  155.7703 H   0  0  0  0  0  0  0  0  0  0  0  0  # atno 8009 bound_to 7997
  156.2350  140.2925  156.0297 H   0  0  0  0  0  0  0  0  0  0  0  0  # atno 8010 bound_to 7997
  139.9738  144.5876  150.7962 H   0  0  0  0  0  0  0  0  0  0  0  0  # atno 10167 bound_to 10162
  157.0427  130.6238  149.5754 H   0  0  0  0  0  0  0  0  0  0  0  0  # atno 10718 bound_to 10713
  154.3870  135.2754  155.2178 H   0  0  0  0  0  0  0  0  0  0  0  0  # atno 10763 bound_to 10752
  154.4260  135.5988  153.6043 H   0  0  0  0  0  0  0  0  0  0  0  0  # atno 10764 bound_to 10752
  152.9833  135.5984  154.4119 H   0  0  0  0  0  0  0  0  0  0  0  0  # atno 10765 bound_to 10752
  140.9060  134.1629  157.4425 H   0  0  0  0  0  0  0  0  0  0  0  0  # atno 11005 bound_to 11000
  146.0288  140.8278  142.9886 LP  0  0  0  0  0  0  0  0  0  0  0  0  # atno 17320 bound_to 7965
  144.6835  140.2737  143.7302 LP  0  0  0  0  0  0  0  0  0  0  0  0  # atno 17321 bound_to 7965
  140.7513  143.2970  151.3179 LP  0  0  0  0  0  0  0  0  0  0  0  0  # atno 17342 bound_to 10162
  139.6461  144.0448  152.2592 LP  0  0  0  0  0  0  0  0  0  0  0  0  # atno 17343 bound_to 10162
  156.0033  130.5115  150.7740 LP  0  0  0  0  0  0  0  0  0  0  0  0  # atno 17370 bound_to 10713
  157.5092  131.0924  151.0220 LP  0  0  0  0  0  0  0  0  0  0  0  0  # atno 17371 bound_to 10713
  139.8749  134.9917  156.5561 LP  0  0  0  0  0  0  0  0  0  0  0  0  # atno 17394 bound_to 11000
  140.8170  133.8383  155.8861 LP  0  0  0  0  0  0  0  0  0  0  0  0  # atno 17395 bound_to 11000

$$$$
