AV-unprocessed.smi:342|AV-procd|sdf|2386|dock4
  -GOLD-   2262022313D 1   1.00000     0.00000
 Structure written by MMmdl.
 42 44  0  0  0  0  0  0  0  0  2 V2000
  146.5071  140.2256  152.6973 O   0  0  0  0  0  0  0  0  0  0  0  0
  146.8807  138.8726  152.8610 C   0  0  2  0  0  0  0  0  0  0  0  0
  146.0219  138.0008  151.9186 C   0  0  0  0  0  0  0  0  0  0  0  0
  146.4634  136.5835  151.8937 N   0  3  0  0  0  0  0  0  0  0  0  0
  146.0755  135.8178  153.1049 C   0  0  0  0  0  0  0  0  0  0  0  0
  146.6049  134.3763  153.0197 C   0  0  0  0  0  0  0  0  0  0  0  0
  146.1121  133.7558  151.8388 O   0  0  0  0  0  0  0  0  0  0  0  0
  146.5467  134.4289  150.6639 C   0  0  0  0  0  0  0  0  0  0  0  0
  146.0184  135.8735  150.6710 C   0  0  0  0  0  0  0  0  0  0  0  0
  146.7263  138.5166  154.3546 C   0  0  0  0  0  0  0  0  0  0  0  0
  147.6510  139.2497  155.2107 N   0  0  0  0  0  0  0  0  0  0  0  0
  147.4029  140.3219  156.0096 C   0  0  0  0  0  0  0  0  0  0  0  0
  146.0426  140.9549  156.1145 C   0  0  0  0  0  0  0  0  0  0  0  0
  146.0267  141.8993  157.0562 F   0  0  0  0  0  0  0  0  0  0  0  0
  145.7008  141.5254  154.9593 F   0  0  0  0  0  0  0  0  0  0  0  0
  145.1206  140.0481  156.4362 F   0  0  0  0  0  0  0  0  0  0  0  0
  148.4534  140.7852  156.6907 N   0  0  0  0  0  0  0  0  0  0  0  0
  149.4773  139.9544  156.2841 C   0  0  0  0  0  0  0  0  0  0  0  0
  150.8435  139.9373  156.6450 C   0  0  0  0  0  0  0  0  0  0  0  0
  151.7176  138.9835  156.0843 C   0  0  0  0  0  0  0  0  0  0  0  0
  151.2394  138.0365  155.1559 C   0  0  0  0  0  0  0  0  0  0  0  0
  149.8813  138.0360  154.7839 C   0  0  0  0  0  0  0  0  0  0  0  0
  149.0111  138.9874  155.3501 C   0  0  0  0  0  0  0  0  0  0  0  0
  145.5963  140.2609  152.4464 H   0  0  0  0  0  0  0  0  0  0  0  0
  147.9327  138.7894  152.5937 H   0  0  0  0  0  0  0  0  0  0  0  0
  144.9690  138.0316  152.2014 H   0  0  0  0  0  0  0  0  0  0  0  0
  146.0790  138.4204  150.9132 H   0  0  0  0  0  0  0  0  0  0  0  0
  146.4691  136.2918  154.0028 H   0  0  0  0  0  0  0  0  0  0  0  0
  144.9884  135.8080  153.2007 H   0  0  0  0  0  0  0  0  0  0  0  0
  147.6961  134.3606  153.0264 H   0  0  0  0  0  0  0  0  0  0  0  0
  146.2731  133.8024  153.8851 H   0  0  0  0  0  0  0  0  0  0  0  0
  147.6359  134.4112  150.6012 H   0  0  0  0  0  0  0  0  0  0  0  0
  146.1693  133.8953  149.7916 H   0  0  0  0  0  0  0  0  0  0  0  0
  144.9281  135.8735  150.6244 H   0  0  0  0  0  0  0  0  0  0  0  0
  146.3781  136.3984  149.7850 H   0  0  0  0  0  0  0  0  0  0  0  0
  145.7127  138.7437  154.6878 H   0  0  0  0  0  0  0  0  0  0  0  0
  146.8585  137.4456  154.5006 H   0  0  0  0  0  0  0  0  0  0  0  0
  151.2206  140.6613  157.3520 H   0  0  0  0  0  0  0  0  0  0  0  0
  152.7606  138.9805  156.3656 H   0  0  0  0  0  0  0  0  0  0  0  0
  151.9170  137.3118  154.7285 H   0  0  0  0  0  0  0  0  0  0  0  0
  149.5169  137.3141  154.0685 H   0  0  0  0  0  0  0  0  0  0  0  0
  147.4732  136.5991  151.8611 H   0  0  0  0  0  0  0  0  0  0  0  0
  1  2  1  0  0  0  0
  1 24  1  0  0  0  0
  2  3  1  0  0  0  0
  2 10  1  0  0  0  0
  2 25  1  0  0  0  0
  3  4  1  0  0  0  0
  3 26  1  0  0  0  0
  3 27  1  0  0  0  0
  4  9  1  0  0  0  0
  4  5  1  0  0  0  0
  4 42  1  0  0  0  0
  5  6  1  0  0  0  0
  5 28  1  0  0  0  0
  5 29  1  0  0  0  0
  6  7  1  0  0  0  0
  6 30  1  0  0  0  0
  6 31  1  0  0  0  0
  7  8  1  0  0  0  0
  8  9  1  0  0  0  0
  8 32  1  0  0  0  0
  8 33  1  0  0  0  0
  9 34  1  0  0  0  0
  9 35  1  0  0  0  0
 10 11  1  0  0  0  0
 10 36  1  0  0  0  0
 10 37  1  0  0  0  0
 11 23  1  0  0  0  0
 11 12  1  0  0  0  0
 12 13  1  0  0  0  0
 12 17  2  0  0  0  0
 13 14  1  0  0  0  0
 13 15  1  0  0  0  0
 13 16  1  0  0  0  0
 17 18  1  0  0  0  0
 18 23  2  0  0  0  0
 18 19  1  0  0  0  0
 19 20  2  0  0  0  0
 19 38  1  0  0  0  0
 20 21  1  0  0  0  0
 20 39  1  0  0  0  0
 21 22  2  0  0  0  0
 21 40  1  0  0  0  0
 22 23  1  0  0  0  0
 22 41  1  0  0  0  0
M  CHG  1   4   1
M  END
> <s_m_source_file>
AV-unprocessed.smi

> <i_m_source_file_index>
342

> <i_lp_mmshare_version>
43012

> <i_f3d_flags>
0

> <s_epik_input>
W2NIXTFbY0hdW2NIXVtjSF1jKGMxMiluKGMobjIpQyhGKShGKUYpW0NIMl1bQ0BIXShbT0hdKVtDSDJdTjNbQ0gyXVtDSDJdT1tDSDJdW0NIMl0z

> <s_epik_cmdline>
J2VwaWtfcHl0aG9uJywgJy1waCcsICc3LjAnLCAnLXRuJywgJzgnLCAnLW1hJywgJzIwMCcsICctbWV0YWxfYmluZGluZycsICctaW1hZScsICc8aW5maWxlLm1hZT4nLCAnLW9tYWUnLCAnPG91dGZpbGUubWFlPic=

> <r_epik_Ionization_Penalty>
0.608409

> <r_epik_Ionization_Penalty_Charging>
0.608065

> <r_epik_Ionization_Penalty_Neutral>
0.000344684

> <r_epik_State_Penalty>
0.623026

> <r_epik_Charging_Adjusted_Penalty>
1.23109

> <i_epik_Tot_Q>
1

> <i_epik_Tot_abs_Q>
1

> <r_epik_Metal_State_Penalty>
0.623013

> <b_epik_Metal_Only>
0

> <s_lp_Force_Field>
OPLS_2005

> <r_lp_Energy>
26.0931

> <b_lp_Chiralities_Consistent>
1

> <s_lp_Variant>
AV-unprocessed.smi:342-3

> <Gold.Version>
5.8.1

> <Gold.Id.Protein>
6NUR|6NUR_protein|mol2

> <Gold.PLP.Fitness>
43.3603

> <Gold.PLP.PLP>
-35.4161

> <Gold.PLP.part.hbond>
-2.5856

> <Gold.PLP.part.metal>
0.0000

> <Gold.PLP.part.buried>
-1.0276

> <Gold.PLP.part.nonpolar>
-32.9637

> <Gold.PLP.part.repulsive>
0.2242

> <Gold.PLP.ligand.clash>
0.0000

> <Gold.PLP.ligand.torsion>
0.5472

> <Gold.PLP.Chemscore.Hbond>
2.9913

> <Gold.PLP.Chemscore.CHOScore>
0.0000

> <Gold.PLP.Chemscore.Metal>
0.0000

> <Gold.Chemscore.Hbonds>
donor molecule, donor type, donor heavy atom, donor atom, acceptor molecule, acceptor atom, score
      L1  H     1    24       P1 10175  1.00
      L1  H     4    42       P1  7948  1.85

> <Gold.PLP.Chemscore.Internal.Correction>
0.0648

> <Gold.Rescore>
     Score         DG    S(hbond)    S(metal)    S(lipo)     H(rot)  DE(clash)    DE(int)     intcor
     12.93     -15.14       1.93        0.00      78.20       2.32       0.08       2.13       ----

> <Gold.Chemscore.Fitness>
12.9313

> <Gold.Chemscore.DG>
-15.1366

> <Gold.Chemscore.ZeroCoef>
-5.4800

> <Gold.Chemscore.Hbond>
1.9306

> <Gold.Chemscore.Metal>
0.0000

> <Gold.Chemscore.Lipo>
78.1982

> <Gold.Chemscore.Internal_Hbond>
0.0000

> <Gold.Chemscore.DEClash>
0.0774

> <Gold.Chemscore.DEInternal>
2.1279

> <Gold.Chemscore.Rot>
2.3206

> <Gold.Chemscore.Internal.Correction>
   9.000000E+99

> <Gold.Chemscore.Hbonds>
donor molecule, donor type, donor heavy atom, donor atom, acceptor molecule, acceptor atom, score
      L1  H     1    24       P1 10175  0.70
      L1  H     4    42       P1  7948  0.89

> <Gold.Chemscore.Hbond.Weighted>
-6.4481

> <Gold.Chemscore.Metal.Weighted>
-0.0000

> <Gold.Chemscore.Lipo.Weighted>
-9.1492

> <Gold.Chemscore.Internal_Hbond.Weighted>
0.0000

> <Gold.Chemscore.DEClash.Weighted>
0.0774

> <Gold.Chemscore.DEInternal.Weighted>
2.1279

> <Gold.Chemscore.Rot.Weighted>
5.9407

> <Gold.Chemscore.Internal.Correction.Weighted>
   9.000000E+99

> <Gold.Protein.RotatedTorsions>
[ 6907 6896 6895 6894 ] final  132.89 input  -60.11 | X-H torsion
[ 7974 7965 7964 7962 ] final -134.51 input  175.53 | X-H torsion
[ 8008 7997 7996 7995 ] final  -74.95 input   59.86 | X-H torsion
[ 10167 10162 10161 10158 ] final  -39.74 input  -65.29 | X-H torsion
[ 10718 10713 10712 10709 ] final  -14.38 input   66.30 | X-H torsion
[ 10763 10752 10751 10750 ] final  -48.93 input  -60.55 | X-H torsion
[ 11005 11000 10999 10996 ] final -139.52 input  -57.11 | X-H torsion

> <Gold.Protein.ActiveResidues>
 VAL166  LYS551  ARG553  GLY616  TRP617  ASP618  TYR619  PRO620  LYS621  CYS622 
 ASP623  PHE694  ASN695  SER759  ASP760  ASP761  ALA762  ILE779  LEU786  VAL792 
 PHE793  MET794  SER795  GLU796  ALA797  LYS798  CYS799  TRP800  GLU811  SER814 

> <Gold.Protein.RotatedAtoms>
  152.3277  133.5923  159.5787 H   0  0  0  0  0  0  0  0  0  0  0  0  # atno 6907 bound_to 6896
  150.7405  133.9916  159.3618 H   0  0  0  0  0  0  0  0  0  0  0  0  # atno 6908 bound_to 6896
  151.7794  135.0766  160.0422 H   0  0  0  0  0  0  0  0  0  0  0  0  # atno 6909 bound_to 6896
  144.9096  140.6878  143.5033 H   0  0  0  0  0  0  0  0  0  0  0  0  # atno 7974 bound_to 7965
  154.5374  140.0752  156.8451 H   0  0  0  0  0  0  0  0  0  0  0  0  # atno 8008 bound_to 7997
  155.3250  140.3398  155.4222 H   0  0  0  0  0  0  0  0  0  0  0  0  # atno 8009 bound_to 7997
  156.1842  140.1663  156.8204 H   0  0  0  0  0  0  0  0  0  0  0  0  # atno 8010 bound_to 7997
  140.7055  143.3196  151.2825 H   0  0  0  0  0  0  0  0  0  0  0  0  # atno 10167 bound_to 10162
  156.6168  130.4864  149.6180 H   0  0  0  0  0  0  0  0  0  0  0  0  # atno 10718 bound_to 10713
  154.0858  135.6584  153.4844 H   0  0  0  0  0  0  0  0  0  0  0  0  # atno 10763 bound_to 10752
  153.0339  135.5190  154.7429 H   0  0  0  0  0  0  0  0  0  0  0  0  # atno 10764 bound_to 10752
  154.6538  135.3005  154.9922 H   0  0  0  0  0  0  0  0  0  0  0  0  # atno 10765 bound_to 10752
  140.8511  134.2284  157.4759 H   0  0  0  0  0  0  0  0  0  0  0  0  # atno 11005 bound_to 11000
  145.3476  139.1715  143.4452 LP  0  0  0  0  0  0  0  0  0  0  0  0  # atno 17320 bound_to 7965
  146.3152  140.3524  142.8657 LP  0  0  0  0  0  0  0  0  0  0  0  0  # atno 17321 bound_to 7965
  139.6645  144.0129  152.2714 LP  0  0  0  0  0  0  0  0  0  0  0  0  # atno 17342 bound_to 10162
  139.9708  144.6495  150.7991 LP  0  0  0  0  0  0  0  0  0  0  0  0  # atno 17343 bound_to 10162
  156.2344  130.6814  151.1495 LP  0  0  0  0  0  0  0  0  0  0  0  0  # atno 17370 bound_to 10713
  157.7239  131.0663  150.6018 LP  0  0  0  0  0  0  0  0  0  0  0  0  # atno 17371 bound_to 10713
  139.8704  134.9684  156.4629 LP  0  0  0  0  0  0  0  0  0  0  0  0  # atno 17394 bound_to 11000
  140.8789  133.7933  155.9444 LP  0  0  0  0  0  0  0  0  0  0  0  0  # atno 17395 bound_to 11000

$$$$
