AV-unprocessed.smi:546|AV-procd|sdf|2888|dock6
  -GOLD-   2262023383D 1   1.00000     0.00000
 Structure written by MMmdl.
 51 53  0  0  0  0  0  0  0  0  2 V2000
  147.1568  141.6937  153.7918 C   0  0  0  0  0  0  0  0  0  0  0  0
  147.4789  141.7298  155.2872 C   0  0  0  0  0  0  0  0  0  0  0  0
  148.8725  141.5427  155.4507 O   0  0  0  0  0  0  0  0  0  0  0  0
  149.3704  142.0813  156.6637 C   0  0  0  0  0  0  0  0  0  0  0  0
  150.8885  142.2852  156.5530 C   0  0  0  0  0  0  0  0  0  0  0  0
  151.6228  141.2003  157.1975 N   0  0  0  0  0  0  0  0  0  0  0  0
  152.2823  141.2326  158.3868 C   0  0  0  0  0  0  0  0  0  0  0  0
  152.3898  142.3947  159.1553 N   0  0  0  0  0  0  0  0  0  0  0  0
  152.5479  143.7375  158.5876 C   0  0  0  0  0  0  0  0  0  0  0  0
  151.8988  144.8596  159.4315 C   0  0  1  0  0  0  0  0  0  0  0  0
  150.3663  144.9015  159.3191 C   0  0  0  0  0  0  0  0  0  0  0  0
  152.3797  144.7864  160.8902 C   0  0  0  0  0  0  0  0  0  0  0  0
  152.2267  143.3641  161.4511 C   0  0  2  0  0  0  0  0  0  0  0  0
  152.7694  143.2628  162.8827 C   0  0  0  0  0  0  0  0  0  0  0  0
  152.9268  142.3634  160.5155 C   0  0  0  0  0  0  0  0  0  0  0  0
  152.7905  140.0599  158.7710 N   0  0  0  0  0  0  0  0  0  0  0  0
  152.4452  139.2126  157.7303 C   0  0  0  0  0  0  0  0  0  0  0  0
  151.7434  139.8722  156.7699 C   0  0  0  0  0  0  0  0  0  0  0  0
  151.2153  139.2213  155.5483 C   0  0  0  0  0  0  0  0  0  0  0  0
  150.5725  139.8543  154.7135 O   0  0  0  0  0  0  0  0  0  0  0  0
  151.5322  137.8890  155.4932 N   0  5  0  0  0  0  0  0  0  0  0  0
  152.2429  137.1848  156.4407 C   0  0  0  0  0  0  0  0  0  0  0  0
  152.4861  135.9843  156.3114 O   0  0  0  0  0  0  0  0  0  0  0  0
  152.6991  137.8239  157.5631 N   0  0  0  0  0  0  0  0  0  0  0  0
  153.4489  137.0984  158.5925 C   0  0  0  0  0  0  0  0  0  0  0  0
  146.0898  141.8338  153.6184 H   0  0  0  0  0  0  0  0  0  0  0  0
  147.4459  140.7380  153.3537 H   0  0  0  0  0  0  0  0  0  0  0  0
  147.6903  142.4806  153.2580 H   0  0  0  0  0  0  0  0  0  0  0  0
  147.1742  142.6860  155.7146 H   0  0  0  0  0  0  0  0  0  0  0  0
  146.9293  140.9427  155.8055 H   0  0  0  0  0  0  0  0  0  0  0  0
  148.8805  143.0310  156.8830 H   0  0  0  0  0  0  0  0  0  0  0  0
  149.1481  141.3997  157.4860 H   0  0  0  0  0  0  0  0  0  0  0  0
  151.1900  142.3702  155.5115 H   0  0  0  0  0  0  0  0  0  0  0  0
  151.1722  143.2333  156.9978 H   0  0  0  0  0  0  0  0  0  0  0  0
  153.6179  143.9318  158.5043 H   0  0  0  0  0  0  0  0  0  0  0  0
  152.1705  143.7645  157.5658 H   0  0  0  0  0  0  0  0  0  0  0  0
  152.2518  145.8081  159.0247 H   0  0  0  0  0  0  0  0  0  0  0  0
  149.9060  143.9893  159.6950 H   0  0  0  0  0  0  0  0  0  0  0  0
  150.0528  145.0338  158.2836 H   0  0  0  0  0  0  0  0  0  0  0  0
  149.9564  145.7348  159.8901 H   0  0  0  0  0  0  0  0  0  0  0  0
  153.4305  145.0771  160.9325 H   0  0  0  0  0  0  0  0  0  0  0  0
  151.8390  145.5045  161.5080 H   0  0  0  0  0  0  0  0  0  0  0  0
  151.1659  143.1128  161.4868 H   0  0  0  0  0  0  0  0  0  0  0  0
  153.8360  143.4864  162.9203 H   0  0  0  0  0  0  0  0  0  0  0  0
  152.6253  142.2600  163.2861 H   0  0  0  0  0  0  0  0  0  0  0  0
  152.2584  143.9612  163.5459 H   0  0  0  0  0  0  0  0  0  0  0  0
  152.8129  141.3555  160.9170 H   0  0  0  0  0  0  0  0  0  0  0  0
  153.9989  142.5619  160.4792 H   0  0  0  0  0  0  0  0  0  0  0  0
  154.3887  136.7244  158.1850 H   0  0  0  0  0  0  0  0  0  0  0  0
  152.8735  136.2473  158.9595 H   0  0  0  0  0  0  0  0  0  0  0  0
  153.6899  137.7197  159.4543 H   0  0  0  0  0  0  0  0  0  0  0  0
  1  2  1  0  0  0  0
  1 26  1  0  0  0  0
  1 27  1  0  0  0  0
  1 28  1  0  0  0  0
  2  3  1  0  0  0  0
  2 29  1  0  0  0  0
  2 30  1  0  0  0  0
  3  4  1  0  0  0  0
  4  5  1  0  0  0  0
  4 31  1  0  0  0  0
  4 32  1  0  0  0  0
  5  6  1  0  0  0  0
  5 33  1  0  0  0  0
  5 34  1  0  0  0  0
  6 18  1  0  0  0  0
  6  7  1  0  0  0  0
  7  8  1  0  0  0  0
  7 16  2  0  0  0  0
  8 15  1  0  0  0  0
  8  9  1  0  0  0  0
  9 10  1  0  0  0  0
  9 35  1  0  0  0  0
  9 36  1  0  0  0  0
 10 11  1  0  0  0  0
 10 12  1  0  0  0  0
 10 37  1  0  0  0  0
 11 38  1  0  0  0  0
 11 39  1  0  0  0  0
 11 40  1  0  0  0  0
 12 13  1  0  0  0  0
 12 41  1  0  0  0  0
 12 42  1  0  0  0  0
 13 14  1  0  0  0  0
 13 15  1  0  0  0  0
 13 43  1  0  0  0  0
 14 44  1  0  0  0  0
 14 45  1  0  0  0  0
 14 46  1  0  0  0  0
 15 47  1  0  0  0  0
 15 48  1  0  0  0  0
 16 17  1  0  0  0  0
 17 24  1  0  0  0  0
 17 18  2  0  0  0  0
 18 19  1  0  0  0  0
 19 20  2  0  0  0  0
 19 21  1  0  0  0  0
 21 22  1  0  0  0  0
 22 23  2  0  0  0  0
 22 24  1  0  0  0  0
 24 25  1  0  0  0  0
 25 49  1  0  0  0  0
 25 50  1  0  0  0  0
 25 51  1  0  0  0  0
M  CHG  1  21  -1
M  END
> <s_m_source_file>
AV-unprocessed.smi

> <i_m_source_file_index>
546

> <i_lp_mmshare_version>
43012

> <i_f3d_flags>
0

> <s_epik_input>
W0NIM11uMWMoPU8pW25IXWMoPU8pYyhjMTIpbihbQ0gyXVtDSDJdT1tDSDJdW0NIM10pYyhuMilOM1tDSDJdW0NAQEhdKFtDSDNdKVtDSDJdW0NAQEhdKFtDSDNdKVtDSDJdMw==

> <s_epik_cmdline>
J2VwaWtfcHl0aG9uJywgJy1waCcsICc3LjAnLCAnLXRuJywgJzgnLCAnLW1hJywgJzIwMCcsICctbWV0YWxfYmluZGluZycsICctaW1hZScsICc8aW5maWxlLm1hZT4nLCAnLW9tYWUnLCAnPG91dGZpbGUubWFlPic=

> <r_lp_tautomer_probability>
1

> <r_epik_Ionization_Penalty>
5.12825

> <r_epik_Ionization_Penalty_Charging>
0.0743105

> <r_epik_Ionization_Penalty_Neutral>
5.05394

> <r_epik_State_Penalty>
5.04406

> <r_epik_Charging_Adjusted_Penalty>
5.11837

> <i_epik_Tot_Q>
-1

> <i_epik_Tot_abs_Q>
1

> <r_epik_Metal_State_Penalty>
1.15122

> <b_epik_Metal_Only>
1

> <s_lp_Force_Field>
OPLS_2005

> <r_lp_Energy>
44.0722

> <b_lp_Chiralities_Consistent>
1

> <s_lp_Variant>
AV-unprocessed.smi:546-6

> <Gold.Version>
5.8.1

> <Gold.Id.Protein>
6NUR|6NUR_protein|mol2

> <Gold.PLP.Fitness>
52.9515

> <Gold.PLP.PLP>
-48.1786

> <Gold.PLP.part.hbond>
-1.8521

> <Gold.PLP.part.metal>
0.0000

> <Gold.PLP.part.buried>
-4.5166

> <Gold.PLP.part.nonpolar>
-42.3851

> <Gold.PLP.part.repulsive>
0.2310

> <Gold.PLP.ligand.clash>
0.0000

> <Gold.PLP.ligand.torsion>
0.9173

> <Gold.PLP.Chemscore.Hbond>
2.0000

> <Gold.PLP.Chemscore.CHOScore>
0.0000

> <Gold.PLP.Chemscore.Metal>
0.0000

> <Gold.Chemscore.Hbonds>
donor molecule, donor type, donor heavy atom, donor atom, acceptor molecule, acceptor atom, score
      P1  H  7989  7998       L1    20  1.00
      P1  H 10752 10764       L1    23  1.00

> <Gold.PLP.Chemscore.Internal.Correction>
0.6075

> <Gold.Rescore>
     Score         DG    S(hbond)    S(metal)    S(lipo)     H(rot)  DE(clash)    DE(int)     intcor
     15.66     -21.38       1.85        0.00     116.33       1.52       2.02       3.70       ----

> <Gold.Chemscore.Fitness>
15.6603

> <Gold.Chemscore.DG>
-21.3828

> <Gold.Chemscore.ZeroCoef>
-5.4800

> <Gold.Chemscore.Hbond>
1.8518

> <Gold.Chemscore.Metal>
0.0000

> <Gold.Chemscore.Lipo>
116.3278

> <Gold.Chemscore.Internal_Hbond>
0.0000

> <Gold.Chemscore.DEClash>
2.0230

> <Gold.Chemscore.DEInternal>
3.6995

> <Gold.Chemscore.Rot>
1.5206

> <Gold.Chemscore.Internal.Correction>
   9.000000E+99

> <Gold.Chemscore.Hbonds>
donor molecule, donor type, donor heavy atom, donor atom, acceptor molecule, acceptor atom, score
      P1  H  7989  7998       L1    20  0.90
      P1  H 10752 10764       L1    23  0.87

> <Gold.Chemscore.Hbond.Weighted>
-6.1851

> <Gold.Chemscore.Metal.Weighted>
-0.0000

> <Gold.Chemscore.Lipo.Weighted>
-13.6104

> <Gold.Chemscore.Internal_Hbond.Weighted>
0.0000

> <Gold.Chemscore.DEClash.Weighted>
2.0230

> <Gold.Chemscore.DEInternal.Weighted>
3.6995

> <Gold.Chemscore.Rot.Weighted>
3.8926

> <Gold.Chemscore.Internal.Correction.Weighted>
   9.000000E+99

> <Gold.Protein.RotatedTorsions>
[ 6907 6896 6895 6894 ] final  -12.26 input  -60.11 | X-H torsion
[ 7974 7965 7964 7962 ] final -164.41 input  175.53 | X-H torsion
[ 8008 7997 7996 7995 ] final   68.00 input   59.86 | X-H torsion
[ 10167 10162 10161 10158 ] final   22.77 input  -65.29 | X-H torsion
[ 10718 10713 10712 10709 ] final  -98.60 input   66.30 | X-H torsion
[ 10763 10752 10751 10750 ] final  -37.80 input  -60.55 | X-H torsion
[ 11005 11000 10999 10996 ] final   29.15 input  -57.11 | X-H torsion

> <Gold.Protein.ActiveResidues>
 VAL166  LYS551  ARG553  GLY616  TRP617  ASP618  TYR619  PRO620  LYS621  CYS622 
 ASP623  PHE694  ASN695  SER759  ASP760  ASP761  ALA762  ILE779  LEU786  VAL792 
 PHE793  MET794  SER795  GLU796  ALA797  LYS798  CYS799  TRP800  GLU811  SER814 

> <Gold.Protein.RotatedAtoms>
  151.3734  135.0926  159.9472 H   0  0  0  0  0  0  0  0  0  0  0  0  # atno 6907 bound_to 6896
  152.5129  133.9143  159.7513 H   0  0  0  0  0  0  0  0  0  0  0  0  # atno 6908 bound_to 6896
  150.9561  133.6441  159.2792 H   0  0  0  0  0  0  0  0  0  0  0  0  # atno 6909 bound_to 6896
  144.7298  140.2965  143.6212 H   0  0  0  0  0  0  0  0  0  0  0  0  # atno 7974 bound_to 7965
  155.7016  140.3495  155.4935 H   0  0  0  0  0  0  0  0  0  0  0  0  # atno 8008 bound_to 7997
  155.9435  140.1106  157.1058 H   0  0  0  0  0  0  0  0  0  0  0  0  # atno 8009 bound_to 7997
  154.4107  140.1208  156.4945 H   0  0  0  0  0  0  0  0  0  0  0  0  # atno 8010 bound_to 7997
  140.5322  143.9822  150.6472 H   0  0  0  0  0  0  0  0  0  0  0  0  # atno 10167 bound_to 10162
  156.0112  130.5245  150.6547 H   0  0  0  0  0  0  0  0  0  0  0  0  # atno 10718 bound_to 10713
  153.9023  135.6801  153.4754 H   0  0  0  0  0  0  0  0  0  0  0  0  # atno 10763 bound_to 10752
  153.1123  135.4777  154.9053 H   0  0  0  0  0  0  0  0  0  0  0  0  # atno 10764 bound_to 10752
  154.7569  135.3200  154.8407 H   0  0  0  0  0  0  0  0  0  0  0  0  # atno 10765 bound_to 10752
  140.3080  134.2681  155.7740 H   0  0  0  0  0  0  0  0  0  0  0  0  # atno 11005 bound_to 11000
  145.7803  139.1889  143.2161 LP  0  0  0  0  0  0  0  0  0  0  0  0  # atno 17320 bound_to 7965
  146.0839  140.7733  142.9628 LP  0  0  0  0  0  0  0  0  0  0  0  0  # atno 17321 bound_to 7965
  140.3200  143.3143  152.0794 LP  0  0  0  0  0  0  0  0  0  0  0  0  # atno 17342 bound_to 10162
  139.4958  144.6580  151.6529 LP  0  0  0  0  0  0  0  0  0  0  0  0  # atno 17343 bound_to 10162
  157.4301  131.0848  151.1047 LP  0  0  0  0  0  0  0  0  0  0  0  0  # atno 17370 bound_to 10713
  157.1622  130.6230  149.5614 LP  0  0  0  0  0  0  0  0  0  0  0  0  # atno 17371 bound_to 10713
  141.2114  133.7690  156.9866 LP  0  0  0  0  0  0  0  0  0  0  0  0  # atno 17394 bound_to 11000
  140.1050  134.9512  157.1980 LP  0  0  0  0  0  0  0  0  0  0  0  0  # atno 17395 bound_to 11000

$$$$
