#       Name:                AV-unprocessed.smi:1825
#       Creating user name   scv26
#       Creation time:       Fri Mar 27 09:09:05 2020


#       File generated by GOLD software.
#

@<TRIPOS>MOLECULE
AV-unprocessed.smi:1825
    39    40     1
SMALL
NO_CHARGES


@<TRIPOS>ATOM
      1 ****        -0.8879   2.0382   1.4375 O.2            1 S1                 0.0000
      2 ****        -1.2929   0.8755   1.4196 C.2            1 S1                 0.0000
      3 ****        -0.4828  -0.1920   1.3890 N.am           1 S1                 0.0000
      4 ****         0.9758  -0.1409   1.3236 C.3            1 S1                 0.0000
      5 ****         1.5304  -0.2804  -0.1172 C.3            1 S1                 0.0000
      6 ****         1.3430   0.9690  -0.7568 O.3            1 S1                 0.0000
      7 ****         3.0559  -0.5374  -0.0619 C.3            1 S1                 0.0000
      8 ****         3.6818  -0.7710  -1.4486 C.3            1 S1                 0.0000
      9 ****         2.9697  -1.9061  -2.1967 C.3            1 S1                 0.0000
     10 ****         1.4659  -1.6236  -2.3165 C.3            1 S1                 0.0000
     11 ****         0.8227  -1.3901  -0.9375 C.3            1 S1                 0.0000
     12 ****        -2.5846   0.5027   1.4215 N.am           1 S1                 0.0000
     13 ****        -3.7373   1.3303   1.4490 C.2            1 S1                 0.0000
     14 ****        -3.7066   2.6662   1.5229 N.2            1 S1                 0.0000
     15 ****        -4.9890   3.2203   1.5360 C.2            1 S1                 0.0000
     16 ****        -5.9917   2.2851   1.4716 C.2            1 S1                 0.0000
     17 ****        -5.3616   0.6615   1.3927 S.3            1 S1                 0.0000
     18 ****        -0.9042  -1.1090   1.3787 H              1 S1                 0.0000
     19 ****         1.3644   0.7567   1.8086 H              1 S1                 0.0000
     20 ****         1.3306  -0.9771   1.9268 H              1 S1                 0.0000
     21 ****         1.7027   0.9157  -1.6288 H              1 S1                 0.0000
     22 ****         3.5615   0.2927   0.4337 H              1 S1                 0.0000
     23 ****         3.2501  -1.4167   0.5541 H              1 S1                 0.0000
     24 ****         3.6323   0.1454  -2.0380 H              1 S1                 0.0000
     25 ****         4.7406  -1.0070  -1.3400 H              1 S1                 0.0000
     26 ****         3.4055  -2.0293  -3.1886 H              1 S1                 0.0000
     27 ****         3.1256  -2.8483  -1.6696 H              1 S1                 0.0000
     28 ****         1.3071  -0.7500  -2.9499 H              1 S1                 0.0000
     29 ****         0.9721  -2.4571  -2.8168 H              1 S1                 0.0000
     30 ****         0.8529  -2.3239  -0.3745 H              1 S1                 0.0000
     31 ****        -0.2329  -1.1538  -1.0768 H              1 S1                 0.0000
     32 ****        -2.7648  -0.4899   1.3925 H              1 S1                 0.0000
     33 ****        -5.0966   4.2934   1.5932 H              1 S1                 0.0000
     34 ****        -7.0584   2.4524   1.4664 H              1 S1                 0.0000
     35 ****         0.0944   2.2257   1.4294 LP             1 S1                 0.0000
     36 ****        -1.5412   2.7949   1.4602 LP             1 S1                 0.0000
     37 ****         1.8125   1.6858  -0.2413 LP             1 S1                 0.0000
     38 ****         0.3667   1.1794  -0.8067 LP             1 S1                 0.0000
     39 ****        -2.8648   3.2044   1.5639 LP             1 S1                 0.0000
@<TRIPOS>BOND
    1    1    2 2     
    2    2    3 am    
    3    2   12 am    
    4    3    4 1     
    5    3   18 1     
    6    4    5 1     
    7    4   19 1     
    8    4   20 1     
    9    5   11 1     
   10    5    6 1     
   11    5    7 1     
   12    6   21 1     
   13    7    8 1     
   14    7   22 1     
   15    7   23 1     
   16    8    9 1     
   17    8   24 1     
   18    8   25 1     
   19    9   10 1     
   20    9   26 1     
   21    9   27 1     
   22   10   11 1     
   23   10   28 1     
   24   10   29 1     
   25   11   30 1     
   26   11   31 1     
   27   12   13 1     
   28   12   32 1     
   29   13   17 1     
   30   13   14 2     
   31   14   15 1     
   32   15   16 2     
   33   15   33 1     
   34   16   17 1     
   35   16   34 1     
   36    1   35 1     
   37    1   36 1     
   38    6   37 1     
   39    6   38 1     
   40   14   39 1     
@<TRIPOS>SUBSTRUCTURE
      1 S1             1
@<TRIPOS>SET
LONE_PAIRS      STATIC     ATOMS    <user>   **** ""
5 35 36 37 38 39
DONOR_HYDROGENS      STATIC     ATOMS    <user>   **** ""
3 18 21 32
ATOM$BLUE        STATIC     ATOMS    COLORGROUP SYSTEM
5 35 36 37 38 39
ATOM$RED        STATIC     ATOMS    COLORGROUP SYSTEM
3 18 21 32
