AV-unprocessed.smi:1648|AV-procd|sdf|6631|dock8
  -GOLD-   22720 7333D 1   1.00000     0.00000
 Structure written by MMmdl.
 41 41  0  0  0  0  0  0  0  0  1 V2000
  151.0769  137.6400  154.4722 C   0  0  0  0  0  0  0  0  0  0  0  0
  149.6592  138.0466  154.8796 C   0  0  0  0  0  0  0  0  0  0  0  0
  149.4724  138.5651  155.9779 O   0  0  0  0  0  0  0  0  0  0  0  0
  148.6406  137.8259  154.0303 N   0  0  0  0  0  0  0  0  0  0  0  0
  147.2235  138.1408  154.2339 C   0  0  2  0  0  0  0  0  0  0  0  0
  146.3917  136.8680  153.9849 C   0  0  0  0  0  0  0  0  0  0  0  0
  145.2469  136.7696  154.4295 O   0  0  0  0  0  0  0  0  0  0  0  0
  146.9957  135.8954  153.2843 N   0  0  0  0  0  0  0  0  0  0  0  0
  146.4060  134.6055  152.9401 C   0  0  2  0  0  0  0  0  0  0  0  0
  147.3826  133.4681  153.2929 C   0  0  0  0  0  0  0  0  0  0  0  0
  146.0019  134.6211  151.4525 C   0  0  0  0  0  0  0  0  0  0  0  0
  145.3498  133.3945  151.0333 N   0  0  0  0  0  0  0  0  0  0  0  0
  144.0282  133.2439  150.6347 C   0  0  0  0  0  0  0  0  0  0  0  0
  143.8594  131.9126  150.3275 C   0  0  0  0  0  0  0  0  0  0  0  0
  145.0577  131.2307  150.5240 N   0  0  0  0  0  0  0  0  0  0  0  0
  145.8940  132.1733  150.9389 C   0  0  0  0  0  0  0  0  0  0  0  0
  146.8075  139.2505  153.2232 C   0  0  0  0  0  0  0  0  0  0  0  0
  146.9324  138.7720  151.7628 C   0  0  0  0  0  0  0  0  0  0  0  0
  147.6095  140.5580  153.3939 C   0  0  0  0  0  0  0  0  0  0  0  0
  151.3798  138.1472  153.5564 H   0  0  0  0  0  0  0  0  0  0  0  0
  151.1406  136.5632  154.3161 H   0  0  0  0  0  0  0  0  0  0  0  0
  151.7906  137.9072  155.2523 H   0  0  0  0  0  0  0  0  0  0  0  0
  148.8686  137.3769  153.1551 H   0  0  0  0  0  0  0  0  0  0  0  0
  147.0591  138.5047  155.2496 H   0  0  0  0  0  0  0  0  0  0  0  0
  147.9394  136.0617  152.9661 H   0  0  0  0  0  0  0  0  0  0  0  0
  145.4968  134.4689  153.5290 H   0  0  0  0  0  0  0  0  0  0  0  0
  146.9413  132.4889  153.1062 H   0  0  0  0  0  0  0  0  0  0  0  0
  147.6595  133.4982  154.3470 H   0  0  0  0  0  0  0  0  0  0  0  0
  148.2995  133.5382  152.7066 H   0  0  0  0  0  0  0  0  0  0  0  0
  145.3204  135.4500  151.2552 H   0  0  0  0  0  0  0  0  0  0  0  0
  146.8784  134.7804  150.8223 H   0  0  0  0  0  0  0  0  0  0  0  0
  143.3364  134.0728  150.6060 H   0  0  0  0  0  0  0  0  0  0  0  0
  142.9753  131.3978  149.9816 H   0  0  0  0  0  0  0  0  0  0  0  0
  146.9261  131.9694  151.1838 H   0  0  0  0  0  0  0  0  0  0  0  0
  145.7562  139.4937  153.3887 H   0  0  0  0  0  0  0  0  0  0  0  0
  147.9555  138.4740  151.5313 H   0  0  0  0  0  0  0  0  0  0  0  0
  146.6523  139.5618  151.0652 H   0  0  0  0  0  0  0  0  0  0  0  0
  146.2829  137.9221  151.5537 H   0  0  0  0  0  0  0  0  0  0  0  0
  148.6811  140.3785  153.3014 H   0  0  0  0  0  0  0  0  0  0  0  0
  147.4315  141.0278  154.3614 H   0  0  0  0  0  0  0  0  0  0  0  0
  147.3312  141.2905  152.6358 H   0  0  0  0  0  0  0  0  0  0  0  0
  1  2  1  0  0  0  0
  1 20  1  0  0  0  0
  1 21  1  0  0  0  0
  1 22  1  0  0  0  0
  2  3  2  0  0  0  0
  2  4  1  0  0  0  0
  4  5  1  0  0  0  0
  4 23  1  0  0  0  0
  5  6  1  0  0  0  0
  5 17  1  0  0  0  0
  5 24  1  0  0  0  0
  6  7  2  0  0  0  0
  6  8  1  0  0  0  0
  8  9  1  0  0  0  0
  8 25  1  0  0  0  0
  9 10  1  0  0  0  0
  9 11  1  0  0  0  0
  9 26  1  0  0  0  0
 10 27  1  0  0  0  0
 10 28  1  0  0  0  0
 10 29  1  0  0  0  0
 11 12  1  0  0  0  0
 11 30  1  0  0  0  0
 11 31  1  0  0  0  0
 12 16  1  0  0  0  0
 12 13  1  0  0  0  0
 13 14  2  0  0  0  0
 13 32  1  0  0  0  0
 14 15  1  0  0  0  0
 14 33  1  0  0  0  0
 15 16  2  0  0  0  0
 16 34  1  0  0  0  0
 17 18  1  0  0  0  0
 17 19  1  0  0  0  0
 17 35  1  0  0  0  0
 18 36  1  0  0  0  0
 18 37  1  0  0  0  0
 18 38  1  0  0  0  0
 19 39  1  0  0  0  0
 19 40  1  0  0  0  0
 19 41  1  0  0  0  0
M  END
> <s_m_source_file>
AV-unprocessed.smi

> <i_m_source_file_index>
1648

> <i_lp_mmshare_version>
43012

> <i_f3d_flags>
0

> <s_epik_input>
W0NIM11DKD1PKVtOSF1bQ0BASF0oW0NIXShbQ0gzXSlbQ0gzXSlDKD1PKVtOSF1bQ0BIXShbQ0gzXSlbQ0gyXW4xW2NIXVtjSF1uW2NIXTE=

> <s_epik_cmdline>
J2VwaWtfcHl0aG9uJywgJy1waCcsICc3LjAnLCAnLXRuJywgJzgnLCAnLW1hJywgJzIwMCcsICctbWV0YWxfYmluZGluZycsICctaW1hZScsICc8aW5maWxlLm1hZT4nLCAnLW9tYWUnLCAnPG91dGZpbGUubWFlPic=

> <r_lp_tautomer_probability>
1

> <r_epik_Ionization_Penalty>
0.628885

> <r_epik_Ionization_Penalty_Charging>
0.628884

> <r_epik_Ionization_Penalty_Neutral>
4.35155e-07

> <r_epik_State_Penalty>
0.64556

> <r_epik_Charging_Adjusted_Penalty>
1.27444

> <i_epik_Tot_Q>
0

> <i_epik_Tot_abs_Q>
0

> <r_epik_Metal_State_Penalty>
0.30874

> <b_epik_Metal_Only>
0

> <s_lp_Force_Field>
OPLS_2005

> <r_lp_Energy>
10.0668

> <b_lp_Chiralities_Consistent>
1

> <s_lp_Variant>
AV-unprocessed.smi:1648-5

> <Gold.Version>
5.8.1

> <Gold.Id.Protein>
6NUR|6NUR_protein|mol2

> <Gold.PLP.Fitness>
43.8164

> <Gold.PLP.PLP>
-30.5408

> <Gold.PLP.part.hbond>
-1.8931

> <Gold.PLP.part.metal>
0.0000

> <Gold.PLP.part.buried>
-2.5597

> <Gold.PLP.part.nonpolar>
-27.5878

> <Gold.PLP.part.repulsive>
0.1534

> <Gold.PLP.ligand.clash>
0.0000

> <Gold.PLP.ligand.torsion>
0.8116

> <Gold.PLP.Chemscore.Hbond>
1.9750

> <Gold.PLP.Chemscore.CHOScore>
2.9649

> <Gold.PLP.Chemscore.Metal>
0.0000

> <Gold.Chemscore.Hbonds>
donor molecule, donor type, donor heavy atom, donor atom, acceptor molecule, acceptor atom, score
      L1  H     4    23       P1  7948  1.00
      L1  H     8    25       P1  7948  0.94
      L1  C    13    32       P1 10186  0.88
      L1  C    14    33       P1 10952  1.00
      L1  C    16    34       P1 10747  1.00

> <Gold.PLP.Chemscore.Internal.Correction>
0.0791

> <Gold.Rescore>
     Score         DG    S(hbond)    S(metal)    S(lipo)     H(rot)  DE(clash)    DE(int)     intcor
     12.23     -12.98       1.93        0.00      64.14       2.52       0.01       0.74       ----

> <Gold.Chemscore.Fitness>
12.2311

> <Gold.Chemscore.DG>
-12.9827

> <Gold.Chemscore.ZeroCoef>
-5.4800

> <Gold.Chemscore.Hbond>
1.9321

> <Gold.Chemscore.Metal>
0.0000

> <Gold.Chemscore.Lipo>
64.1445

> <Gold.Chemscore.Internal_Hbond>
0.0000

> <Gold.Chemscore.DEClash>
0.0146

> <Gold.Chemscore.DEInternal>
0.7370

> <Gold.Chemscore.Rot>
2.5216

> <Gold.Chemscore.Internal.Correction>
   9.000000E+99

> <Gold.Chemscore.Hbonds>
donor molecule, donor type, donor heavy atom, donor atom, acceptor molecule, acceptor atom, score
      L1  H     4    23       P1  7948  1.00
      L1  H     8    25       P1  7948  0.86

> <Gold.Chemscore.Hbond.Weighted>
-6.4531

> <Gold.Chemscore.Metal.Weighted>
-0.0000

> <Gold.Chemscore.Lipo.Weighted>
-7.5049

> <Gold.Chemscore.Internal_Hbond.Weighted>
0.0000

> <Gold.Chemscore.DEClash.Weighted>
0.0146

> <Gold.Chemscore.DEInternal.Weighted>
0.7370

> <Gold.Chemscore.Rot.Weighted>
6.4553

> <Gold.Chemscore.Internal.Correction.Weighted>
   9.000000E+99

> <Gold.Protein.RotatedTorsions>
[ 6907 6896 6895 6894 ] final -115.80 input  -60.11 | X-H torsion
[ 7974 7965 7964 7962 ] final  130.03 input  175.53 | X-H torsion
[ 8008 7997 7996 7995 ] final  140.84 input   59.86 | X-H torsion
[ 10167 10162 10161 10158 ] final  129.65 input  -65.29 | X-H torsion
[ 10718 10713 10712 10709 ] final  109.17 input   66.30 | X-H torsion
[ 10763 10752 10751 10750 ] final  -81.83 input  -60.55 | X-H torsion
[ 11005 11000 10999 10996 ] final  -98.81 input  -57.11 | X-H torsion

> <Gold.Protein.ActiveResidues>
 VAL166  LYS551  ARG553  GLY616  TRP617  ASP618  TYR619  PRO620  LYS621  CYS622 
 ASP623  PHE694  ASN695  SER759  ASP760  ASP761  ALA762  ILE779  LEU786  VAL792 
 PHE793  MET794  SER795  GLU796  ALA797  LYS798  CYS799  TRP800  GLU811  SER814 

> <Gold.Protein.RotatedAtoms>
  150.8006  133.8607  159.3230 H   0  0  0  0  0  0  0  0  0  0  0  0  # atno 6907 bound_to 6896
  151.6420  135.1010  160.0153 H   0  0  0  0  0  0  0  0  0  0  0  0  # atno 6908 bound_to 6896
  152.4092  133.6898  159.6418 H   0  0  0  0  0  0  0  0  0  0  0  0  # atno 6909 bound_to 6896
  145.0223  139.4121  143.5191 H   0  0  0  0  0  0  0  0  0  0  0  0  # atno 7974 bound_to 7965
  156.2974  140.2331  156.4467 H   0  0  0  0  0  0  0  0  0  0  0  0  # atno 8008 bound_to 7997
  154.8137  140.0441  157.1382 H   0  0  0  0  0  0  0  0  0  0  0  0  # atno 8009 bound_to 7997
  154.9393  140.3027  155.5132 H   0  0  0  0  0  0  0  0  0  0  0  0  # atno 8010 bound_to 7997
  139.5467  144.6779  151.4450 H   0  0  0  0  0  0  0  0  0  0  0  0  # atno 10167 bound_to 10162
  157.6554  131.0908  150.6413 H   0  0  0  0  0  0  0  0  0  0  0  0  # atno 10718 bound_to 10713
  154.5684  135.5612  153.7072 H   0  0  0  0  0  0  0  0  0  0  0  0  # atno 10763 bound_to 10752
  153.0040  135.6291  154.2148 H   0  0  0  0  0  0  0  0  0  0  0  0  # atno 10764 bound_to 10752
  154.2087  135.2874  155.2945 H   0  0  0  0  0  0  0  0  0  0  0  0  # atno 10765 bound_to 10752
  141.1331  133.8274  157.0889 H   0  0  0  0  0  0  0  0  0  0  0  0  # atno 11005 bound_to 11000
  146.3487  139.9727  142.8704 LP  0  0  0  0  0  0  0  0  0  0  0  0  # atno 17320 bound_to 7965
  145.1879  140.9798  143.4228 LP  0  0  0  0  0  0  0  0  0  0  0  0  # atno 17321 bound_to 7965
  140.6718  143.8278  150.7008 LP  0  0  0  0  0  0  0  0  0  0  0  0  # atno 17342 bound_to 10162
  140.1704  143.4199  152.2005 LP  0  0  0  0  0  0  0  0  0  0  0  0  # atno 17343 bound_to 10162
  156.6720  130.4542  149.5654 LP  0  0  0  0  0  0  0  0  0  0  0  0  # atno 17370 bound_to 10713
  156.1990  130.6608  151.1146 LP  0  0  0  0  0  0  0  0  0  0  0  0  # atno 17371 bound_to 10713
  140.0404  134.9857  157.0951 LP  0  0  0  0  0  0  0  0  0  0  0  0  # atno 17394 bound_to 11000
  140.4144  134.1947  155.7163 LP  0  0  0  0  0  0  0  0  0  0  0  0  # atno 17395 bound_to 11000

$$$$
