#       Name:                AV-unprocessed.smi:746
#       Creating user name   scv26
#       Creation time:       Fri Mar 27 00:57:05 2020


#       File generated by GOLD software.
#

@<TRIPOS>MOLECULE
AV-unprocessed.smi:746
    55    57     1
SMALL
NO_CHARGES


@<TRIPOS>ATOM
      1 ****        -6.3892   6.9269  -0.2394 C.3            1 S1                 0.0000
      2 ****        -5.7874   5.6449  -0.2894 O.3            1 S1                 0.0000
      3 ****        -4.3716   5.7096  -0.2542 C.3            1 S1                 0.0000
      4 ****        -3.8013   4.2899  -0.3148 C.3            1 S1                 0.0000
      5 ****        -2.3802   4.3718  -0.2704 O.3            1 S1                 0.0000
      6 ****        -1.6492   3.2030  -0.3235 C.ar           1 S1                 0.0000
      7 ****        -0.2441   3.2862  -0.2676 C.ar           1 S1                 0.0000
      8 ****         0.5115   2.0997  -0.3212 C.ar           1 S1                 0.0000
      9 ****        -0.1661   0.8613  -0.4208 C.ar           1 S1                 0.0000
     10 ****         0.4815  -0.4013  -0.5008 N.am           1 S1                 0.0000
     11 ****         1.7411  -0.7276  -0.1485 C.2            1 S1                 0.0000
     12 ****         2.4895   0.0269   0.4724 O.2            1 S1                 0.0000
     13 ****         2.0440  -2.0248  -0.3994 N.am           1 S1                 0.0000
     14 ****         1.6293  -2.7017  -1.6408 C.3            1 S1                 0.0000
     15 ****         0.9373  -4.0402  -1.3213 C.3            1 S1                 0.0000
     16 ****         1.5441  -4.7364  -0.0880 C.3            1 S1                 0.0000
     17 ****         3.0034  -4.2993   0.1571 C.3            1 S1                 0.0000
     18 ****         3.5945  -4.8972   1.4492 C.3            1 S1                 0.0000
     19 ****         4.0525  -3.7133   2.3050 C.3            1 S1                 0.0000
     20 ****         3.2187  -2.5326   1.8155 C.3            1 S1                 0.0000
     21 ****         3.1265  -2.7580   0.2966 C.3            1 S1                 0.0000
     22 ****        -1.5747   0.8874  -0.4841 C.ar           1 S1                 0.0000
     23 ****        -2.3051   2.0214  -0.4328 N.ar           1 S1                 0.0000
     24 ****        -7.4739   6.8243  -0.2694 H              1 S1                 0.0000
     25 ****        -6.0856   7.5388  -1.0899 H              1 S1                 0.0000
     26 ****        -6.1265   7.4509   0.6805 H              1 S1                 0.0000
     27 ****        -4.0018   6.2948  -1.0976 H              1 S1                 0.0000
     28 ****        -4.0425   6.2043   0.6610 H              1 S1                 0.0000
     29 ****        -4.1738   3.7068   0.5294 H              1 S1                 0.0000
     30 ****        -4.1278   3.8017  -1.2347 H              1 S1                 0.0000
     31 ****         0.2470   4.2448  -0.1891 H              1 S1                 0.0000
     32 ****         1.5880   2.1665  -0.2987 H              1 S1                 0.0000
     33 ****        -0.0842  -1.1565  -0.8602 H              1 S1                 0.0000
     34 ****         0.9919  -2.0976  -2.2877 H              1 S1                 0.0000
     35 ****         2.5272  -2.8913  -2.2314 H              1 S1                 0.0000
     36 ****        -0.1283  -3.8804  -1.1525 H              1 S1                 0.0000
     37 ****         1.0120  -4.6923  -2.1923 H              1 S1                 0.0000
     38 ****         0.9481  -4.4766   0.7883 H              1 S1                 0.0000
     39 ****         1.4748  -5.8195  -0.1938 H              1 S1                 0.0000
     40 ****         3.6039  -4.6251  -0.6938 H              1 S1                 0.0000
     41 ****         2.8395  -5.4696   1.9898 H              1 S1                 0.0000
     42 ****         4.4214  -5.5770   1.2405 H              1 S1                 0.0000
     43 ****         3.9318  -3.8973   3.3730 H              1 S1                 0.0000
     44 ****         5.1089  -3.5137   2.1205 H              1 S1                 0.0000
     45 ****         2.2260  -2.5680   2.2671 H              1 S1                 0.0000
     46 ****         3.6794  -1.5821   2.0848 H              1 S1                 0.0000
     47 ****         4.0753  -2.4494  -0.1461 H              1 S1                 0.0000
     48 ****        -2.1366  -0.0308  -0.5754 H              1 S1                 0.0000
     49 ****        -6.0670   5.1918  -1.1359 LP             1 S1                 0.0000
     50 ****        -6.1039   5.1109   0.4946 LP             1 S1                 0.0000
     51 ****        -2.1380   4.8323   0.5836 LP             1 S1                 0.0000
     52 ****        -2.0930   4.9345  -1.0456 LP             1 S1                 0.0000
     53 ****         2.1716   0.9358   0.7422 LP             1 S1                 0.0000
     54 ****         3.4155  -0.2691   0.7070 LP             1 S1                 0.0000
     55 ****        -3.3038   1.9908  -0.4743 LP             1 S1                 0.0000
@<TRIPOS>BOND
    1    1    2 1     
    2    1   24 1     
    3    1   25 1     
    4    1   26 1     
    5    2    3 1     
    6    3    4 1     
    7    3   27 1     
    8    3   28 1     
    9    4    5 1     
   10    4   29 1     
   11    4   30 1     
   12    5    6 1     
   13    6   23 ar    
   14    6    7 ar    
   15    7    8 ar    
   16    7   31 1     
   17    8    9 ar    
   18    8   32 1     
   19    9   10 1     
   20    9   22 ar    
   21   10   11 am    
   22   10   33 1     
   23   11   12 2     
   24   11   13 am    
   25   13   21 1     
   26   13   14 1     
   27   14   15 1     
   28   14   34 1     
   29   14   35 1     
   30   15   16 1     
   31   15   36 1     
   32   15   37 1     
   33   16   17 1     
   34   16   38 1     
   35   16   39 1     
   36   17   21 1     
   37   17   18 1     
   38   17   40 1     
   39   18   19 1     
   40   18   41 1     
   41   18   42 1     
   42   19   20 1     
   43   19   43 1     
   44   19   44 1     
   45   20   21 1     
   46   20   45 1     
   47   20   46 1     
   48   21   47 1     
   49   22   23 ar    
   50   22   48 1     
   51    2   49 1     
   52    2   50 1     
   53    5   51 1     
   54    5   52 1     
   55   12   53 1     
   56   12   54 1     
   57   23   55 1     
@<TRIPOS>SUBSTRUCTURE
      1 S1             1
@<TRIPOS>SET
LONE_PAIRS      STATIC     ATOMS    <user>   **** ""
7 49 50 51 52 53 54 55
DONOR_HYDROGENS      STATIC     ATOMS    <user>   **** ""
1 33
ATOM$BLUE        STATIC     ATOMS    COLORGROUP SYSTEM
7 49 50 51 52 53 54 55
ATOM$RED        STATIC     ATOMS    COLORGROUP SYSTEM
1 33
