AV-unprocessed.smi:37|AV-procd|sdf|318|dock2
  -GOLD-   2262016133D 1   1.00000     0.00000
 Structure written by MMmdl.
 44 45  0  0  0  0  0  0  0  0  1 V2000
  148.7767  141.1973  154.1100 C   0  0  0  0  0  0  0  0  0  0  0  0
  149.0002  141.4883  155.6014 C   0  0  0  0  0  0  0  0  0  0  0  0
  150.3773  141.0574  156.1104 C   0  0  0  0  0  0  0  0  0  0  0  0
  151.2466  140.6046  155.3633 O   0  0  0  0  0  0  0  0  0  0  0  0
  150.4979  141.2330  157.4345 O   0  0  0  0  0  0  0  0  0  0  0  0
  151.7068  140.8767  158.0882 C   0  0  0  0  0  0  0  0  0  0  0  0
  152.0629  139.4158  157.7838 C   0  0  1  0  0  0  0  0  0  0  0  0
  153.4299  139.1450  158.0917 O   0  0  0  0  0  0  0  0  0  0  0  0
  153.5108  137.9955  158.8792 C   0  0  2  0  0  0  0  0  0  0  0  0
  154.7401  137.1981  158.5121 N   0  0  0  0  0  0  0  0  0  0  0  0
  155.6346  137.6219  157.5363 C   0  0  0  0  0  0  0  0  0  0  0  0
  156.7370  136.9144  157.1936 C   0  0  0  0  0  0  0  0  0  0  0  0
  157.5550  137.3837  156.2364 F   0  0  0  0  0  0  0  0  0  0  0  0
  157.0419  135.6456  157.8489 C   0  0  0  0  0  0  0  0  0  0  0  0
  158.0169  134.9361  157.6097 O   0  0  0  0  0  0  0  0  0  0  0  0
  156.1111  135.2572  158.8173 N   0  0  0  0  0  0  0  0  0  0  0  0
  154.9702  135.9756  159.1783 C   0  0  0  0  0  0  0  0  0  0  0  0
  154.2117  135.5380  160.0424 O   0  0  0  0  0  0  0  0  0  0  0  0
  152.2095  137.2180  158.6550 C   0  0  2  0  0  0  0  0  0  0  0  0
  152.2493  136.1739  156.9481 Br  0  0  0  0  0  0  0  0  0  0  0  0
  151.2310  138.3754  158.5452 C   0  0  2  0  0  0  0  0  0  0  0  0
  150.0349  138.0382  157.8544 O   0  0  0  0  0  0  0  0  0  0  0  0
  149.2377  137.0622  158.3225 C   0  0  0  0  0  0  0  0  0  0  0  0
  149.4988  136.3142  159.2663 O   0  0  0  0  0  0  0  0  0  0  0  0
  147.9289  136.9665  157.5359 C   0  0  0  0  0  0  0  0  0  0  0  0
  146.6797  137.2431  158.3855 C   0  0  0  0  0  0  0  0  0  0  0  0
  156.2781  134.3830  159.2939 H   0  0  0  0  0  0  0  0  0  0  0  0
  147.7808  141.5163  153.8024 H   0  0  0  0  0  0  0  0  0  0  0  0
  148.8615  140.1312  153.8958 H   0  0  0  0  0  0  0  0  0  0  0  0
  149.4991  141.7263  153.4874 H   0  0  0  0  0  0  0  0  0  0  0  0
  148.8809  142.5555  155.7892 H   0  0  0  0  0  0  0  0  0  0  0  0
  148.2393  140.9776  156.1921 H   0  0  0  0  0  0  0  0  0  0  0  0
  152.5184  141.5201  157.7447 H   0  0  0  0  0  0  0  0  0  0  0  0
  151.6027  141.0285  159.1633 H   0  0  0  0  0  0  0  0  0  0  0  0
  151.9573  139.2445  156.7115 H   0  0  0  0  0  0  0  0  0  0  0  0
  153.6469  138.3113  159.9160 H   0  0  0  0  0  0  0  0  0  0  0  0
  155.4565  138.5469  157.0078 H   0  0  0  0  0  0  0  0  0  0  0  0
  151.9983  136.5370  159.4799 H   0  0  0  0  0  0  0  0  0  0  0  0
  151.0107  138.7502  159.5458 H   0  0  0  0  0  0  0  0  0  0  0  0
  147.9724  137.6738  156.7074 H   0  0  0  0  0  0  0  0  0  0  0  0
  147.8607  135.9707  157.0976 H   0  0  0  0  0  0  0  0  0  0  0  0
  145.7775  137.1564  157.7801 H   0  0  0  0  0  0  0  0  0  0  0  0
  146.6986  138.2491  158.8059 H   0  0  0  0  0  0  0  0  0  0  0  0
  146.5929  136.5330  159.2086 H   0  0  0  0  0  0  0  0  0  0  0  0
  1  2  1  0  0  0  0
  1 28  1  0  0  0  0
  1 29  1  0  0  0  0
  1 30  1  0  0  0  0
  2  3  1  0  0  0  0
  2 31  1  0  0  0  0
  2 32  1  0  0  0  0
  3  4  2  0  0  0  0
  3  5  1  0  0  0  0
  5  6  1  0  0  0  0
  6  7  1  0  0  0  0
  6 33  1  0  0  0  0
  6 34  1  0  0  0  0
  7 21  1  0  0  0  0
  7  8  1  0  0  0  0
  7 35  1  0  0  0  0
  8  9  1  0  0  0  0
  9 10  1  0  0  0  0
  9 19  1  0  0  0  0
  9 36  1  0  0  0  0
 10 17  1  0  0  0  0
 10 11  1  0  0  0  0
 11 12  2  0  0  0  0
 11 37  1  0  0  0  0
 12 13  1  0  0  0  0
 12 14  1  0  0  0  0
 14 15  2  0  0  0  0
 14 16  1  0  0  0  0
 16 27  1  0  0  0  0
 16 17  1  0  0  0  0
 17 18  2  0  0  0  0
 19 20  1  0  0  0  0
 19 21  1  0  0  0  0
 19 38  1  0  0  0  0
 21 22  1  0  0  0  0
 21 39  1  0  0  0  0
 22 23  1  0  0  0  0
 23 24  2  0  0  0  0
 23 25  1  0  0  0  0
 25 26  1  0  0  0  0
 25 40  1  0  0  0  0
 25 41  1  0  0  0  0
 26 42  1  0  0  0  0
 26 43  1  0  0  0  0
 26 44  1  0  0  0  0
M  END
> <s_m_source_file>
AV-unprocessed.smi

> <i_m_source_file_index>
37

> <i_lp_mmshare_version>
43012

> <i_f3d_flags>
0

> <s_epik_input>
W0NIM11bQ0gyXUMoPU8pT1tDSDJdW0NAQEhdMU9bQ0BASF0objJbY0hdYyhGKWMoPU8pW25IXWMyPU8pW0NAQEhdKEJyKVtDQEhdMU9DKD1PKVtDSDJdW0NIM10=

> <s_epik_cmdline>
J2VwaWtfcHl0aG9uJywgJy1waCcsICc3LjAnLCAnLXRuJywgJzgnLCAnLW1hJywgJzIwMCcsICctbWV0YWxfYmluZGluZycsICctaW1hZScsICc8aW5maWxlLm1hZT4nLCAnLW9tYWUnLCAnPG91dGZpbGUubWFlPic=

> <r_lp_tautomer_probability>
0.999537

> <r_epik_Ionization_Penalty>
0.104106

> <r_epik_Ionization_Penalty_Charging>
0.104106

> <r_epik_Ionization_Penalty_Neutral>
3.94675e-16

> <r_epik_State_Penalty>
0.0940182

> <r_epik_Charging_Adjusted_Penalty>
0.198124

> <i_epik_Tot_Q>
0

> <i_epik_Tot_abs_Q>
0

> <r_epik_Metal_State_Penalty>
3.05314

> <b_epik_Metal_Only>
0

> <s_epik_Chemistry_Notes>
This compound has an ester and may undergo hydrolysis at high or low pH. This compound contains an acetal/aminal-like group ( X-CH(R)-Y where X, Y are N, S, or O) that may be acid/base labile, releasing an aldehyde.

> <s_lp_Force_Field>
OPLS_2005

> <r_lp_Energy>
25.1984

> <b_lp_Chiralities_Consistent>
1

> <s_lp_Variant>
AV-unprocessed.smi:37-16

> <Gold.Version>
5.8.1

> <Gold.Id.Protein>
6NUR|6NUR_protein|mol2

> <Gold.PLP.Fitness>
37.4846

> <Gold.PLP.PLP>
-25.8120

> <Gold.PLP.part.hbond>
-4.0000

> <Gold.PLP.part.metal>
0.0000

> <Gold.PLP.part.buried>
-4.8195

> <Gold.PLP.part.nonpolar>
-17.8626

> <Gold.PLP.part.repulsive>
0.0936

> <Gold.PLP.ligand.clash>
0.0000

> <Gold.PLP.ligand.torsion>
0.2213

> <Gold.PLP.Chemscore.Hbond>
4.0000

> <Gold.PLP.Chemscore.CHOScore>
0.0000

> <Gold.PLP.Chemscore.Metal>
0.0000

> <Gold.Chemscore.Hbonds>
donor molecule, donor type, donor heavy atom, donor atom, acceptor molecule, acceptor atom, score
      P1  H  6896  6907       L1    18  1.00
      P1  H  6896  6909       L1    24  1.00
      P1  H  7989  7998       L1     4  0.85
      P1  H  7997  8009       L1     8  1.00

> <Gold.PLP.Chemscore.Internal.Correction>
0.1152

> <Gold.Rescore>
     Score         DG    S(hbond)    S(metal)    S(lipo)     H(rot)  DE(clash)    DE(int)     intcor
     12.35     -15.06       3.80        0.00      46.21       3.33       0.13       2.59       ----

> <Gold.Chemscore.Fitness>
12.3459

> <Gold.Chemscore.DG>
-15.0615

> <Gold.Chemscore.ZeroCoef>
-5.4800

> <Gold.Chemscore.Hbond>
3.8024

> <Gold.Chemscore.Metal>
0.0000

> <Gold.Chemscore.Lipo>
46.2130

> <Gold.Chemscore.Internal_Hbond>
0.0000

> <Gold.Chemscore.DEClash>
0.1305

> <Gold.Chemscore.DEInternal>
2.5851

> <Gold.Chemscore.Rot>
3.3303

> <Gold.Chemscore.Internal.Correction>
   9.000000E+99

> <Gold.Chemscore.Hbonds>
donor molecule, donor type, donor heavy atom, donor atom, acceptor molecule, acceptor atom, score
      P1  H  6896  6907       L1    18  0.99
      P1  H  6896  6909       L1    24  0.94
      P1  H  7989  7998       L1     4  0.85
      P1  H  7997  8009       L1     8  0.98

> <Gold.Chemscore.Hbond.Weighted>
-12.7001

> <Gold.Chemscore.Metal.Weighted>
-0.0000

> <Gold.Chemscore.Lipo.Weighted>
-5.4069

> <Gold.Chemscore.Internal_Hbond.Weighted>
0.0000

> <Gold.Chemscore.DEClash.Weighted>
0.1305

> <Gold.Chemscore.DEInternal.Weighted>
2.5851

> <Gold.Chemscore.Rot.Weighted>
8.5256

> <Gold.Chemscore.Internal.Correction.Weighted>
   9.000000E+99

> <Gold.Protein.RotatedTorsions>
[ 6907 6896 6895 6894 ] final   66.65 input  -60.11 | X-H torsion
[ 7974 7965 7964 7962 ] final  -86.58 input  175.53 | X-H torsion
[ 8008 7997 7996 7995 ] final  141.45 input   59.86 | X-H torsion
[ 10167 10162 10161 10158 ] final  -59.07 input  -65.29 | X-H torsion
[ 10718 10713 10712 10709 ] final    6.62 input   66.30 | X-H torsion
[ 10763 10752 10751 10750 ] final -169.85 input  -60.55 | X-H torsion
[ 11005 11000 10999 10996 ] final   39.15 input  -57.11 | X-H torsion

> <Gold.Protein.ActiveResidues>
 VAL166  LYS551  ARG553  GLY616  TRP617  ASP618  TYR619  PRO620  LYS621  CYS622 
 ASP623  PHE694  ASN695  SER759  ASP760  ASP761  ALA762  ILE779  LEU786  VAL792 
 PHE793  MET794  SER795  GLU796  ALA797  LYS798  CYS799  TRP800  GLU811  SER814 

> <Gold.Protein.RotatedAtoms>
  152.4496  134.5422  159.9842 H   0  0  0  0  0  0  0  0  0  0  0  0  # atno 6907 bound_to 6896
  151.5498  133.3413  159.2959 H   0  0  0  0  0  0  0  0  0  0  0  0  # atno 6908 bound_to 6896
  150.8421  134.7749  159.7004 H   0  0  0  0  0  0  0  0  0  0  0  0  # atno 6909 bound_to 6896
  145.4779  140.9558  143.1880 H   0  0  0  0  0  0  0  0  0  0  0  0  # atno 7974 bound_to 7965
  156.2965  140.2315  156.4567 H   0  0  0  0  0  0  0  0  0  0  0  0  # atno 8008 bound_to 7997
  154.8054  140.0446  157.1324 H   0  0  0  0  0  0  0  0  0  0  0  0  # atno 8009 bound_to 7997
  154.9484  140.3039  155.5090 H   0  0  0  0  0  0  0  0  0  0  0  0  # atno 8010 bound_to 7997
  140.6158  143.2402  151.5600 H   0  0  0  0  0  0  0  0  0  0  0  0  # atno 10167 bound_to 10162
  156.9248  130.5804  149.5648 H   0  0  0  0  0  0  0  0  0  0  0  0  # atno 10718 bound_to 10713
  154.6478  135.2907  155.0024 H   0  0  0  0  0  0  0  0  0  0  0  0  # atno 10763 bound_to 10752
  154.1128  135.6560  153.4892 H   0  0  0  0  0  0  0  0  0  0  0  0  # atno 10764 bound_to 10752
  153.0360  135.5269  154.7373 H   0  0  0  0  0  0  0  0  0  0  0  0  # atno 10765 bound_to 10752
  140.2056  134.3817  155.8074 H   0  0  0  0  0  0  0  0  0  0  0  0  # atno 11005 bound_to 11000
  144.7906  139.6336  143.7115 LP  0  0  0  0  0  0  0  0  0  0  0  0  # atno 17320 bound_to 7965
  146.2358  139.5903  142.9524 LP  0  0  0  0  0  0  0  0  0  0  0  0  # atno 17321 bound_to 7965
  139.5398  144.2680  152.1326 LP  0  0  0  0  0  0  0  0  0  0  0  0  # atno 17342 bound_to 10162
  140.1889  144.4771  150.6489 LP  0  0  0  0  0  0  0  0  0  0  0  0  # atno 17343 bound_to 10162
  156.0474  130.5549  150.8912 LP  0  0  0  0  0  0  0  0  0  0  0  0  # atno 17370 bound_to 10713
  157.5885  131.0945  150.9158 LP  0  0  0  0  0  0  0  0  0  0  0  0  # atno 17371 bound_to 10713
  141.2227  133.7116  156.8332 LP  0  0  0  0  0  0  0  0  0  0  0  0  # atno 17394 bound_to 11000
  140.2006  134.8900  157.3165 LP  0  0  0  0  0  0  0  0  0  0  0  0  # atno 17395 bound_to 11000

$$$$
