#       Name:                AV-unprocessed.smi:1329
#       Creating user name   scv26
#       Creation time:       Fri Mar 27 05:05:57 2020


#       File generated by GOLD software.
#

@<TRIPOS>MOLECULE
AV-unprocessed.smi:1329
    50    51     1
SMALL
NO_CHARGES


@<TRIPOS>ATOM
      1 ****        -3.6423   3.6071   2.3306 C.3            1 S1                 0.0000
      2 ****        -3.2199   2.8828   1.0810 C.2            1 S1                 0.0000
      3 ****        -2.8156   1.6635   1.2247 N.2            1 S1                 0.0000
      4 ****        -2.4019   0.9108   0.1436 N.am           1 S1                 0.0000
      5 ****        -1.9561  -0.4431   0.4958 C.3            1 S1                 0.0000
      6 ****        -0.4172  -0.5351   0.5988 C.3            1 S1                 0.0000
      7 ****        -0.0409  -0.0584   1.8760 O.3            1 S1                 0.0000
      8 ****         0.0830  -1.9852   0.4893 C.3            1 S1                 0.0000
      9 ****         1.4602  -1.9711   0.1507 O.3            1 S1                 0.0000
     10 ****         2.0128  -3.2702   0.0292 C.3            1 S1                 0.0000
     11 ****         3.4815  -3.2077  -0.3366 C.ar           1 S1                 0.0000
     12 ****         3.8854  -3.3429  -1.6814 C.ar           1 S1                 0.0000
     13 ****         5.2515  -3.2777  -2.0191 C.ar           1 S1                 0.0000
     14 ****         6.2172  -3.0766  -1.0137 C.ar           1 S1                 0.0000
     15 ****         5.8168  -2.9394   0.3295 C.ar           1 S1                 0.0000
     16 ****         4.4508  -3.0038   0.6676 C.ar           1 S1                 0.0000
     17 ****        -2.3787   1.3520  -1.1468 C.2            1 S1                 0.0000
     18 ****        -1.9972   0.6463  -2.0817 O.2            1 S1                 0.0000
     19 ****        -2.8398   2.7333  -1.3030 C.2            1 S1                 0.0000
     20 ****        -2.8276   3.2370  -2.6386 C.1            1 S1                 0.0000
     21 ****        -2.8198   3.6651  -3.7140 N.1            1 S1                 0.0000
     22 ****        -3.2462   3.4838  -0.2487 C.2            1 S1                 0.0000
     23 ****        -3.7293   4.9237  -0.3568 C.3            1 S1                 0.0000
     24 ****        -4.6906   3.9005   2.2724 H              1 S1                 0.0000
     25 ****        -3.0461   4.5081   2.4761 H              1 S1                 0.0000
     26 ****        -3.5229   2.9873   3.2206 H              1 S1                 0.0000
     27 ****        -2.4238  -0.7810   1.4231 H              1 S1                 0.0000
     28 ****        -2.3210  -1.1353  -0.2651 H              1 S1                 0.0000
     29 ****         0.0544   0.0687  -0.1776 H              1 S1                 0.0000
     30 ****        -0.3201   0.8410   1.9536 H              1 S1                 0.0000
     31 ****        -0.0971  -2.5392   1.4126 H              1 S1                 0.0000
     32 ****        -0.4533  -2.5029  -0.3075 H              1 S1                 0.0000
     33 ****         1.9035  -3.8117   0.9703 H              1 S1                 0.0000
     34 ****         1.4736  -3.8378  -0.7313 H              1 S1                 0.0000
     35 ****         3.1495  -3.4940  -2.4577 H              1 S1                 0.0000
     36 ****         5.5584  -3.3808  -3.0494 H              1 S1                 0.0000
     37 ****         7.2645  -3.0261  -1.2727 H              1 S1                 0.0000
     38 ****         6.5569  -2.7832   1.1006 H              1 S1                 0.0000
     39 ****         4.1484  -2.8940   1.6988 H              1 S1                 0.0000
     40 ****        -3.7497   5.2764  -1.3875 H              1 S1                 0.0000
     41 ****        -3.0727   5.5888   0.2048 H              1 S1                 0.0000
     42 ****        -4.7398   5.0211   0.0408 H              1 S1                 0.0000
     43 ****        -2.8021   1.2567   2.1381 LP             1 S1                 0.0000
     44 ****         0.9524  -0.1135   1.9776 LP             1 S1                 0.0000
     45 ****        -0.4796  -0.6104   2.5850 LP             1 S1                 0.0000
     46 ****         1.9588  -1.4779   0.8635 LP             1 S1                 0.0000
     47 ****         1.5691  -1.4954  -0.7222 LP             1 S1                 0.0000
     48 ****        -1.6887  -0.2890  -1.9086 LP             1 S1                 0.0000
     49 ****        -1.9960   1.0088  -3.0137 LP             1 S1                 0.0000
     50 ****        -2.8130   4.0349  -4.6431 LP             1 S1                 0.0000
@<TRIPOS>BOND
    1    1    2 1     
    2    1   24 1     
    3    1   25 1     
    4    1   26 1     
    5    2   22 1     
    6    2    3 2     
    7    3    4 1     
    8    4    5 1     
    9    4   17 am    
   10    5    6 1     
   11    5   27 1     
   12    5   28 1     
   13    6    7 1     
   14    6    8 1     
   15    6   29 1     
   16    7   30 1     
   17    8    9 1     
   18    8   31 1     
   19    8   32 1     
   20    9   10 1     
   21   10   11 1     
   22   10   33 1     
   23   10   34 1     
   24   11   16 ar    
   25   11   12 ar    
   26   12   13 ar    
   27   12   35 1     
   28   13   14 ar    
   29   13   36 1     
   30   14   15 ar    
   31   14   37 1     
   32   15   16 ar    
   33   15   38 1     
   34   16   39 1     
   35   17   18 2     
   36   17   19 1     
   37   19   20 1     
   38   19   22 2     
   39   20   21 3     
   40   22   23 1     
   41   23   40 1     
   42   23   41 1     
   43   23   42 1     
   44    3   43 1     
   45    7   44 1     
   46    7   45 1     
   47    9   46 1     
   48    9   47 1     
   49   18   48 1     
   50   18   49 1     
   51   21   50 1     
@<TRIPOS>SUBSTRUCTURE
      1 S1             1
@<TRIPOS>SET
LONE_PAIRS      STATIC     ATOMS    <user>   **** ""
8 43 44 45 46 47 48 49 50
DONOR_HYDROGENS      STATIC     ATOMS    <user>   **** ""
1 30
ATOM$BLUE        STATIC     ATOMS    COLORGROUP SYSTEM
8 43 44 45 46 47 48 49 50
ATOM$RED        STATIC     ATOMS    COLORGROUP SYSTEM
1 30
