AV-unprocessed.smi:2858|AV-procd|sdf|11002|dock1
  -GOLD-   2272015453D 1   1.00000     0.00000
 Structure written by MMmdl.
 39 40  0  0  0  0  0  0  0  0  3 V2000
  143.1789  136.4200  152.1197 O   0  0  0  0  0  0  0  0  0  0  0  0
  143.6735  137.2141  152.9166 C   0  0  0  0  0  0  0  0  0  0  0  0
  145.1369  137.6579  152.6470 C   0  0  0  0  0  0  0  0  0  0  0  0
  145.4871  138.9227  153.3566 N   0  3  2  0  0  0  0  0  0  0  0  0
  146.9043  139.3232  153.1690 C   0  0  0  0  0  0  0  0  0  0  0  0
  147.2449  140.6301  153.9035 C   0  0  0  0  0  0  0  0  0  0  0  0
  148.7243  141.0179  153.7517 C   0  0  0  0  0  0  0  0  0  0  0  0
  149.1523  141.9086  154.8240 N   0  0  0  0  0  0  0  0  0  0  0  0
  150.1236  141.6344  155.7069 C   0  0  0  0  0  0  0  0  0  0  0  0
  150.7764  140.5902  155.6924 O   0  0  0  0  0  0  0  0  0  0  0  0
  150.2718  142.6339  156.5940 N   0  0  0  0  0  0  0  0  0  0  0  0
  151.1976  142.7251  157.6672 C   0  0  0  0  0  0  0  0  0  0  0  0
  151.6075  144.0377  157.9929 C   0  0  0  0  0  0  0  0  0  0  0  0
  152.5280  144.2362  159.0400 C   0  0  0  0  0  0  0  0  0  0  0  0
  153.0161  143.1155  159.7353 C   0  0  0  0  0  0  0  0  0  0  0  0
  152.5567  141.8433  159.3479 C   0  0  0  0  0  0  0  0  0  0  0  0
  151.6739  141.6506  158.3450 N   0  0  0  0  0  0  0  0  0  0  0  0
  145.0890  138.8849  154.7874 C   0  0  0  0  0  0  0  0  0  0  0  0
  143.5585  138.7637  154.9155 C   0  0  0  0  0  0  0  0  0  0  0  0
  143.0583  137.6980  154.0402 N   0  5  0  0  0  0  0  0  0  0  0  0
  145.8044  136.8557  152.9649 H   0  0  0  0  0  0  0  0  0  0  0  0
  145.2666  137.7816  151.5721 H   0  0  0  0  0  0  0  0  0  0  0  0
  147.5530  138.5399  153.5635 H   0  0  0  0  0  0  0  0  0  0  0  0
  147.1306  139.4039  152.1048 H   0  0  0  0  0  0  0  0  0  0  0  0
  146.6287  141.4480  153.5305 H   0  0  0  0  0  0  0  0  0  0  0  0
  147.0029  140.5174  154.9613 H   0  0  0  0  0  0  0  0  0  0  0  0
  149.3552  140.1276  153.7286 H   0  0  0  0  0  0  0  0  0  0  0  0
  148.8784  141.5319  152.8025 H   0  0  0  0  0  0  0  0  0  0  0  0
  148.6664  142.7897  154.9066 H   0  0  0  0  0  0  0  0  0  0  0  0
  149.6518  143.4231  156.4892 H   0  0  0  0  0  0  0  0  0  0  0  0
  151.2228  144.8878  157.4481 H   0  0  0  0  0  0  0  0  0  0  0  0
  152.8537  145.2316  159.3039 H   0  0  0  0  0  0  0  0  0  0  0  0
  153.7240  143.2275  160.5433 H   0  0  0  0  0  0  0  0  0  0  0  0
  152.9069  140.9567  159.8555 H   0  0  0  0  0  0  0  0  0  0  0  0
  145.5841  138.0474  155.2820 H   0  0  0  0  0  0  0  0  0  0  0  0
  145.4130  139.7922  155.2982 H   0  0  0  0  0  0  0  0  0  0  0  0
  143.2960  138.5919  155.9590 H   0  0  0  0  0  0  0  0  0  0  0  0
  143.1108  139.7218  154.6503 H   0  0  0  0  0  0  0  0  0  0  0  0
  144.9204  139.6497  152.9442 H   0  0  0  0  0  0  0  0  0  0  0  0
  1  2  2  0  0  0  0
  2 20  1  0  0  0  0
  2  3  1  0  0  0  0
  3  4  1  0  0  0  0
  3 21  1  0  0  0  0
  3 22  1  0  0  0  0
  4  5  1  0  0  0  0
  4 18  1  0  0  0  0
  4 39  1  0  0  0  0
  5  6  1  0  0  0  0
  5 23  1  0  0  0  0
  5 24  1  0  0  0  0
  6  7  1  0  0  0  0
  6 25  1  0  0  0  0
  6 26  1  0  0  0  0
  7  8  1  0  0  0  0
  7 27  1  0  0  0  0
  7 28  1  0  0  0  0
  8  9  1  0  0  0  0
  8 29  1  0  0  0  0
  9 10  2  0  0  0  0
  9 11  1  0  0  0  0
 11 12  1  0  0  0  0
 11 30  1  0  0  0  0
 12 17  1  0  0  0  0
 12 13  2  0  0  0  0
 13 14  1  0  0  0  0
 13 31  1  0  0  0  0
 14 15  2  0  0  0  0
 14 32  1  0  0  0  0
 15 16  1  0  0  0  0
 15 33  1  0  0  0  0
 16 17  2  0  0  0  0
 16 34  1  0  0  0  0
 18 19  1  0  0  0  0
 18 35  1  0  0  0  0
 18 36  1  0  0  0  0
 19 20  1  0  0  0  0
 19 37  1  0  0  0  0
 19 38  1  0  0  0  0
M  CHG  1   4   1
M  CHG  1  20  -1
M  END
> <s_m_source_file>
AV-unprocessed.smi

> <i_m_source_file_index>
2858

> <i_lp_mmshare_version>
43012

> <i_f3d_flags>
0

> <s_epik_input>
Tz1DMVtDSDJdTihbQ0gyXVtDSDJdW05IXTEpW0NIMl1bQ0gyXVtDSDJdW05IXUMoPU8pW05IXWMyW2NIXVtjSF1bY0hdW2NIXW4y

> <s_epik_cmdline>
J2VwaWtfcHl0aG9uJywgJy1waCcsICc3LjAnLCAnLXRuJywgJzgnLCAnLW1hJywgJzIwMCcsICctbWV0YWxfYmluZGluZycsICctaW1hZScsICc8aW5maWxlLm1hZT4nLCAnLW9tYWUnLCAnPG91dGZpbGUubWFlPic=

> <r_epik_Ionization_Penalty>
5.09835

> <r_epik_Ionization_Penalty_Charging>
5.09831

> <r_epik_Ionization_Penalty_Neutral>
4.20822e-05

> <r_epik_State_Penalty>
5.19693

> <r_epik_Charging_Adjusted_Penalty>
10.2952

> <i_epik_Tot_Q>
0

> <i_epik_Tot_abs_Q>
2

> <r_epik_Metal_State_Penalty>
1.27693

> <b_epik_Metal_Only>
1

> <s_lp_Force_Field>
OPLS_2005

> <r_lp_Energy>
13.8629

> <b_lp_Chiralities_Consistent>
1

> <s_lp_Variant>
AV-unprocessed.smi:2858-4

> <Gold.Version>
5.8.1

> <Gold.Id.Protein>
6NUR|6NUR_protein|mol2

> <Gold.PLP.Fitness>
48.3641

> <Gold.PLP.PLP>
-35.7942

> <Gold.PLP.part.hbond>
-4.0000

> <Gold.PLP.part.metal>
0.0000

> <Gold.PLP.part.buried>
-2.2296

> <Gold.PLP.part.nonpolar>
-30.1836

> <Gold.PLP.part.repulsive>
0.6278

> <Gold.PLP.ligand.clash>
0.0000

> <Gold.PLP.ligand.torsion>
0.3245

> <Gold.PLP.Chemscore.Hbond>
4.3845

> <Gold.PLP.Chemscore.CHOScore>
0.0000

> <Gold.PLP.Chemscore.Metal>
0.0000

> <Gold.Chemscore.Hbonds>
donor molecule, donor type, donor heavy atom, donor atom, acceptor molecule, acceptor atom, score
      L1  H     4    39       P1 10175  2.00
      L1  H     8    29       P1  8028  0.79
      L1  H    11    30       P1  8028  1.00
      P1  H  7989  7998       L1    10  0.11

> <Gold.PLP.Chemscore.Internal.Correction>
0.0654

> <Gold.Rescore>
     Score         DG    S(hbond)    S(metal)    S(lipo)     H(rot)  DE(clash)    DE(int)     intcor
     17.85     -19.26       2.97        0.00      77.24       2.02       0.02       1.39       ----

> <Gold.Chemscore.Fitness>
17.8502

> <Gold.Chemscore.DG>
-19.2576

> <Gold.Chemscore.ZeroCoef>
-5.4800

> <Gold.Chemscore.Hbond>
2.9685

> <Gold.Chemscore.Metal>
0.0000

> <Gold.Chemscore.Lipo>
77.2413

> <Gold.Chemscore.Internal_Hbond>
0.0000

> <Gold.Chemscore.DEClash>
0.0167

> <Gold.Chemscore.DEInternal>
1.3907

> <Gold.Chemscore.Rot>
2.0213

> <Gold.Chemscore.Internal.Correction>
   9.000000E+99

> <Gold.Chemscore.Hbonds>
donor molecule, donor type, donor heavy atom, donor atom, acceptor molecule, acceptor atom, score
      L1  H     4    39       P1 10175  0.96
      L1  H     8    29       P1  8028  0.74
      L1  H    11    30       P1  8028  0.98
      P1  H  7989  7998       L1    10  0.01

> <Gold.Chemscore.Hbond.Weighted>
-9.9148

> <Gold.Chemscore.Metal.Weighted>
-0.0000

> <Gold.Chemscore.Lipo.Weighted>
-9.0372

> <Gold.Chemscore.Internal_Hbond.Weighted>
0.0000

> <Gold.Chemscore.DEClash.Weighted>
0.0167

> <Gold.Chemscore.DEInternal.Weighted>
1.3907

> <Gold.Chemscore.Rot.Weighted>
5.1744

> <Gold.Chemscore.Internal.Correction.Weighted>
   9.000000E+99

> <Gold.Protein.RotatedTorsions>
[ 6907 6896 6895 6894 ] final   -0.87 input  -60.11 | X-H torsion
[ 7974 7965 7964 7962 ] final -142.92 input  175.53 | X-H torsion
[ 8008 7997 7996 7995 ] final  -44.29 input   59.86 | X-H torsion
[ 10167 10162 10161 10158 ] final   48.86 input  -65.29 | X-H torsion
[ 10718 10713 10712 10709 ] final   87.81 input   66.30 | X-H torsion
[ 10763 10752 10751 10750 ] final -105.77 input  -60.55 | X-H torsion
[ 11005 11000 10999 10996 ] final   92.59 input  -57.11 | X-H torsion

> <Gold.Protein.ActiveResidues>
 VAL166  LYS551  ARG553  GLY616  TRP617  ASP618  TYR619  PRO620  LYS621  CYS622 
 ASP623  PHE694  ASN695  SER759  ASP760  ASP761  ALA762  ILE779  LEU786  VAL792 
 PHE793  MET794  SER795  GLU796  ALA797  LYS798  CYS799  TRP800  GLU811  SER814 

> <Gold.Protein.RotatedAtoms>
  151.5552  135.1066  159.9959 H   0  0  0  0  0  0  0  0  0  0  0  0  # atno 6907 bound_to 6896
  152.4473  133.7556  159.6729 H   0  0  0  0  0  0  0  0  0  0  0  0  # atno 6908 bound_to 6896
  150.8391  133.7897  159.3092 H   0  0  0  0  0  0  0  0  0  0  0  0  # atno 6909 bound_to 6896
  144.8408  140.5899  143.5454 H   0  0  0  0  0  0  0  0  0  0  0  0  # atno 7974 bound_to 7965
  154.3997  140.1426  156.3659 H   0  0  0  0  0  0  0  0  0  0  0  0  # atno 8008 bound_to 7997
  155.8138  140.3472  155.5452 H   0  0  0  0  0  0  0  0  0  0  0  0  # atno 8009 bound_to 7997
  155.8359  140.0919  157.1755 H   0  0  0  0  0  0  0  0  0  0  0  0  # atno 8010 bound_to 7997
  140.2889  144.3069  150.6245 H   0  0  0  0  0  0  0  0  0  0  0  0  # atno 10167 bound_to 10162
  157.6943  131.0270  150.3179 H   0  0  0  0  0  0  0  0  0  0  0  0  # atno 10718 bound_to 10713
  154.7969  135.4736  154.0181 H   0  0  0  0  0  0  0  0  0  0  0  0  # atno 10763 bound_to 10752
  153.1717  135.6826  153.8605 H   0  0  0  0  0  0  0  0  0  0  0  0  # atno 10764 bound_to 10752
  153.8185  135.3207  155.3386 H   0  0  0  0  0  0  0  0  0  0  0  0  # atno 10765 bound_to 10752
  139.8821  134.8742  156.3595 H   0  0  0  0  0  0  0  0  0  0  0  0  # atno 11005 bound_to 11000
  145.4699  139.1504  143.3820 LP  0  0  0  0  0  0  0  0  0  0  0  0  # atno 17320 bound_to 7965
  146.2700  140.4832  142.8818 LP  0  0  0  0  0  0  0  0  0  0  0  0  # atno 17321 bound_to 7965
  140.5749  143.2177  151.7533 LP  0  0  0  0  0  0  0  0  0  0  0  0  # atno 17342 bound_to 10162
  139.4943  144.4164  152.0025 LP  0  0  0  0  0  0  0  0  0  0  0  0  # atno 17343 bound_to 10162
  156.3671  130.3857  149.7205 LP  0  0  0  0  0  0  0  0  0  0  0  0  # atno 17370 bound_to 10713
  156.4632  130.7961  151.2981 LP  0  0  0  0  0  0  0  0  0  0  0  0  # atno 17371 bound_to 10713
  140.9539  133.7433  156.0309 LP  0  0  0  0  0  0  0  0  0  0  0  0  # atno 17394 bound_to 11000
  140.8072  134.3441  157.5422 LP  0  0  0  0  0  0  0  0  0  0  0  0  # atno 17395 bound_to 11000

$$$$
