AV-unprocessed.smi:1817|AV-procd|sdf|7370|dock3
  -GOLD-   22720 9 33D 1   1.00000     0.00000
 Structure written by MMmdl.
 43 44  0  0  0  0  0  0  0  0  2 V2000
  150.3427  137.2403  158.1629 C   0  0  0  0  0  0  0  0  0  0  0  0
  150.9296  137.9551  156.9372 C   0  0  0  0  0  0  0  0  0  0  0  0
  150.8434  137.1318  155.7286 N   0  0  0  0  0  0  0  0  0  0  0  0
  149.5312  136.5287  155.4822 C   0  0  0  0  0  0  0  0  0  0  0  0
  148.4660  137.5732  155.0870 C   0  0  0  0  0  0  0  0  0  0  0  0
  148.8884  138.3345  153.8800 N   0  3  0  0  0  0  0  0  0  0  0  0
  147.8960  139.3290  153.3574 C   0  0  2  0  0  0  0  0  0  0  0  0
  147.6580  140.5307  154.2999 C   0  0  0  0  0  0  0  0  0  0  0  0
  146.5379  138.6628  153.0143 C   0  0  0  0  0  0  0  0  0  0  0  0
  146.6783  137.3164  152.4613 N   0  0  0  0  0  0  0  0  0  0  0  0
  145.6748  136.4628  152.2128 C   0  0  0  0  0  0  0  0  0  0  0  0
  144.4908  136.7356  152.4079 O   0  0  0  0  0  0  0  0  0  0  0  0
  146.1346  135.3001  151.7239 N   0  0  0  0  0  0  0  0  0  0  0  0
  145.3846  134.1660  151.3233 C   0  0  0  0  0  0  0  0  0  0  0  0
  146.0285  133.1808  150.6868 N   0  0  0  0  0  0  0  0  0  0  0  0
  145.1772  132.1359  150.3498 N   0  0  0  0  0  0  0  0  0  0  0  0
  143.9232  132.3739  150.7462 C   0  0  0  0  0  0  0  0  0  0  0  0
  143.6557  133.9013  151.5683 S   0  0  0  0  0  0  0  0  0  0  0  0
  150.2275  138.9356  154.1231 C   0  0  0  0  0  0  0  0  0  0  0  0
  151.2531  137.8562  154.5249 C   0  0  0  0  0  0  0  0  0  0  0  0
  150.5370  137.8166  159.0675 H   0  0  0  0  0  0  0  0  0  0  0  0
  150.7898  136.2550  158.2984 H   0  0  0  0  0  0  0  0  0  0  0  0
  149.2628  137.1165  158.0876 H   0  0  0  0  0  0  0  0  0  0  0  0
  150.4497  138.9235  156.8016 H   0  0  0  0  0  0  0  0  0  0  0  0
  151.9819  138.1581  157.1397 H   0  0  0  0  0  0  0  0  0  0  0  0
  149.6361  135.8008  154.6765 H   0  0  0  0  0  0  0  0  0  0  0  0
  149.2020  135.9614  156.3519 H   0  0  0  0  0  0  0  0  0  0  0  0
  147.5470  137.0241  154.8861 H   0  0  0  0  0  0  0  0  0  0  0  0
  148.2537  138.2567  155.9097 H   0  0  0  0  0  0  0  0  0  0  0  0
  148.3056  139.7416  152.4341 H   0  0  0  0  0  0  0  0  0  0  0  0
  146.8741  141.1808  153.9098 H   0  0  0  0  0  0  0  0  0  0  0  0
  148.5486  141.1513  154.4017 H   0  0  0  0  0  0  0  0  0  0  0  0
  147.3503  140.2104  155.2961 H   0  0  0  0  0  0  0  0  0  0  0  0
  145.9435  138.5754  153.9241 H   0  0  0  0  0  0  0  0  0  0  0  0
  145.9383  139.2827  152.3480 H   0  0  0  0  0  0  0  0  0  0  0  0
  147.6198  137.0046  152.2704 H   0  0  0  0  0  0  0  0  0  0  0  0
  147.1353  135.2137  151.6233 H   0  0  0  0  0  0  0  0  0  0  0  0
  143.1502  131.6455  150.5517 H   0  0  0  0  0  0  0  0  0  0  0  0
  150.5935  139.4269  153.2235 H   0  0  0  0  0  0  0  0  0  0  0  0
  150.1574  139.7116  154.8860 H   0  0  0  0  0  0  0  0  0  0  0  0
  152.2345  138.3055  154.6826 H   0  0  0  0  0  0  0  0  0  0  0  0
  151.3713  137.1428  153.7079 H   0  0  0  0  0  0  0  0  0  0  0  0
  149.0094  137.6467  153.1499 H   0  0  0  0  0  0  0  0  0  0  0  0
  1  2  1  0  0  0  0
  1 21  1  0  0  0  0
  1 22  1  0  0  0  0
  1 23  1  0  0  0  0
  2  3  1  0  0  0  0
  2 24  1  0  0  0  0
  2 25  1  0  0  0  0
  3 20  1  0  0  0  0
  3  4  1  0  0  0  0
  4  5  1  0  0  0  0
  4 26  1  0  0  0  0
  4 27  1  0  0  0  0
  5  6  1  0  0  0  0
  5 28  1  0  0  0  0
  5 29  1  0  0  0  0
  6  7  1  0  0  0  0
  6 19  1  0  0  0  0
  6 43  1  0  0  0  0
  7  8  1  0  0  0  0
  7  9  1  0  0  0  0
  7 30  1  0  0  0  0
  8 31  1  0  0  0  0
  8 32  1  0  0  0  0
  8 33  1  0  0  0  0
  9 10  1  0  0  0  0
  9 34  1  0  0  0  0
  9 35  1  0  0  0  0
 10 11  1  0  0  0  0
 10 36  1  0  0  0  0
 11 12  2  0  0  0  0
 11 13  1  0  0  0  0
 13 14  1  0  0  0  0
 13 37  1  0  0  0  0
 14 18  1  0  0  0  0
 14 15  2  0  0  0  0
 15 16  1  0  0  0  0
 16 17  2  0  0  0  0
 17 18  1  0  0  0  0
 17 38  1  0  0  0  0
 19 20  1  0  0  0  0
 19 39  1  0  0  0  0
 19 40  1  0  0  0  0
 20 41  1  0  0  0  0
 20 42  1  0  0  0  0
M  CHG  1   6   1
M  END
> <s_m_source_file>
AV-unprocessed.smi

> <i_m_source_file_index>
1817

> <i_lp_mmshare_version>
43012

> <i_f3d_flags>
0

> <s_epik_input>
W0NIM11bQ0gyXU4xW0NIMl1bQ0gyXU4oW0NIMl1bQ0gyXTEpW0NASF0oW0NIM10pW0NIMl1bTkhdQyg9TylbTkhdYzJubltjSF1zMg==

> <s_epik_cmdline>
J2VwaWtfcHl0aG9uJywgJy1waCcsICc3LjAnLCAnLXRuJywgJzgnLCAnLW1hJywgJzIwMCcsICctbWV0YWxfYmluZGluZycsICctaW1hZScsICc8aW5maWxlLm1hZT4nLCAnLW9tYWUnLCAnPG91dGZpbGUubWFlPic=

> <r_epik_Ionization_Penalty>
0.153808

> <r_epik_Ionization_Penalty_Charging>
0.148467

> <r_epik_Ionization_Penalty_Neutral>
0.00534086

> <r_epik_State_Penalty>
0.974087

> <r_epik_Charging_Adjusted_Penalty>
1.12255

> <i_epik_Tot_Q>
1

> <i_epik_Tot_abs_Q>
1

> <r_epik_Metal_State_Penalty>
1.30894

> <b_epik_Metal_Only>
0

> <s_lp_Force_Field>
OPLS_2005

> <r_lp_Energy>
26.4186

> <b_lp_Chiralities_Consistent>
1

> <s_lp_Variant>
AV-unprocessed.smi:1817-3

> <Gold.Version>
5.8.1

> <Gold.Id.Protein>
6NUR|6NUR_protein|mol2

> <Gold.PLP.Fitness>
39.0991

> <Gold.PLP.PLP>
-27.0987

> <Gold.PLP.part.hbond>
-3.2825

> <Gold.PLP.part.metal>
0.0000

> <Gold.PLP.part.buried>
-4.0858

> <Gold.PLP.part.nonpolar>
-21.2373

> <Gold.PLP.part.repulsive>
0.7340

> <Gold.PLP.ligand.clash>
0.0000

> <Gold.PLP.ligand.torsion>
0.3091

> <Gold.PLP.Chemscore.Hbond>
3.9120

> <Gold.PLP.Chemscore.CHOScore>
0.2686

> <Gold.PLP.Chemscore.Metal>
0.0000

> <Gold.Chemscore.Hbonds>
donor molecule, donor type, donor heavy atom, donor atom, acceptor molecule, acceptor atom, score
      L1  H     6    43       P1  7948  2.00
      L1  H    10    36       P1  7948  1.00
      L1  H    13    37       P1  7948  0.84
      L1  C    17    38       P1 10952  0.23

> <Gold.PLP.Chemscore.Internal.Correction>
0.0769

> <Gold.Rescore>
     Score         DG    S(hbond)    S(metal)    S(lipo)     H(rot)  DE(clash)    DE(int)     intcor
     16.29     -17.32       2.85        0.00      61.69       1.92       0.02       1.01       ----

> <Gold.Chemscore.Fitness>
16.2857

> <Gold.Chemscore.DG>
-17.3168

> <Gold.Chemscore.ZeroCoef>
-5.4800

> <Gold.Chemscore.Hbond>
2.8543

> <Gold.Chemscore.Metal>
0.0000

> <Gold.Chemscore.Lipo>
61.6872

> <Gold.Chemscore.Internal_Hbond>
0.0000

> <Gold.Chemscore.DEClash>
0.0224

> <Gold.Chemscore.DEInternal>
1.0087

> <Gold.Chemscore.Rot>
1.9196

> <Gold.Chemscore.Internal.Correction>
   9.000000E+99

> <Gold.Chemscore.Hbonds>
donor molecule, donor type, donor heavy atom, donor atom, acceptor molecule, acceptor atom, score
      L1  H     6    43       P1  7948  1.00
      L1  H    10    36       P1  7948  0.98
      L1  H    13    37       P1  7948  0.75

> <Gold.Chemscore.Hbond.Weighted>
-9.5334

> <Gold.Chemscore.Metal.Weighted>
-0.0000

> <Gold.Chemscore.Lipo.Weighted>
-7.2174

> <Gold.Chemscore.Internal_Hbond.Weighted>
0.0000

> <Gold.Chemscore.DEClash.Weighted>
0.0224

> <Gold.Chemscore.DEInternal.Weighted>
1.0087

> <Gold.Chemscore.Rot.Weighted>
4.9141

> <Gold.Chemscore.Internal.Correction.Weighted>
   9.000000E+99

> <Gold.Protein.RotatedTorsions>
[ 6907 6896 6895 6894 ] final  -27.45 input  -60.11 | X-H torsion
[ 7974 7965 7964 7962 ] final   22.67 input  175.53 | X-H torsion
[ 8008 7997 7996 7995 ] final  -51.99 input   59.86 | X-H torsion
[ 10167 10162 10161 10158 ] final   88.05 input  -65.29 | X-H torsion
[ 10718 10713 10712 10709 ] final    0.08 input   66.30 | X-H torsion
[ 10763 10752 10751 10750 ] final -179.10 input  -60.55 | X-H torsion
[ 11005 11000 10999 10996 ] final  -60.80 input  -57.11 | X-H torsion

> <Gold.Protein.ActiveResidues>
 VAL166  LYS551  ARG553  GLY616  TRP617  ASP618  TYR619  PRO620  LYS621  CYS622 
 ASP623  PHE694  ASN695  SER759  ASP760  ASP761  ALA762  ILE779  LEU786  VAL792 
 PHE793  MET794  SER795  GLU796  ALA797  LYS798  CYS799  TRP800  GLU811  SER814 

> <Gold.Protein.RotatedAtoms>
  151.1467  135.0207  159.8649 H   0  0  0  0  0  0  0  0  0  0  0  0  # atno 6907 bound_to 6896
  152.5453  134.1436  159.8499 H   0  0  0  0  0  0  0  0  0  0  0  0  # atno 6908 bound_to 6896
  151.1517  133.4857  159.2628 H   0  0  0  0  0  0  0  0  0  0  0  0  # atno 6909 bound_to 6896
  146.2019  139.7853  142.8755 H   0  0  0  0  0  0  0  0  0  0  0  0  # atno 7974 bound_to 7965
  154.4096  140.1234  156.4918 H   0  0  0  0  0  0  0  0  0  0  0  0  # atno 8008 bound_to 7997
  155.6982  140.3495  155.4902 H   0  0  0  0  0  0  0  0  0  0  0  0  # atno 8009 bound_to 7997
  155.9409  140.1087  157.1047 H   0  0  0  0  0  0  0  0  0  0  0  0  # atno 8010 bound_to 7997
  139.8711  144.6492  150.8948 H   0  0  0  0  0  0  0  0  0  0  0  0  # atno 10167 bound_to 10162
  156.8280  130.5479  149.5690 H   0  0  0  0  0  0  0  0  0  0  0  0  # atno 10718 bound_to 10713
  154.5394  135.2805  155.1109 H   0  0  0  0  0  0  0  0  0  0  0  0  # atno 10763 bound_to 10752
  154.2598  135.6324  153.5274 H   0  0  0  0  0  0  0  0  0  0  0  0  # atno 10764 bound_to 10752
  152.9975  135.5603  154.5929 H   0  0  0  0  0  0  0  0  0  0  0  0  # atno 10765 bound_to 10752
  141.1301  133.6625  156.5279 H   0  0  0  0  0  0  0  0  0  0  0  0  # atno 11005 bound_to 11000
  145.3455  141.0297  143.3368 LP  0  0  0  0  0  0  0  0  0  0  0  0  # atno 17320 bound_to 7965
  144.8702  139.5049  143.6771 LP  0  0  0  0  0  0  0  0  0  0  0  0  # atno 17321 bound_to 7965
  140.7760  143.3663  151.1733 LP  0  0  0  0  0  0  0  0  0  0  0  0  # atno 17342 bound_to 10162
  139.7283  143.9113  152.3010 LP  0  0  0  0  0  0  0  0  0  0  0  0  # atno 17343 bound_to 10162
  156.0950  130.5925  150.9798 LP  0  0  0  0  0  0  0  0  0  0  0  0  # atno 17370 bound_to 10713
  157.6421  131.0909  150.8229 LP  0  0  0  0  0  0  0  0  0  0  0  0  # atno 17371 bound_to 10713
  140.4240  134.7162  157.4905 LP  0  0  0  0  0  0  0  0  0  0  0  0  # atno 17394 bound_to 11000
  140.0340  134.6364  155.9068 LP  0  0  0  0  0  0  0  0  0  0  0  0  # atno 17395 bound_to 11000

$$$$
