#       Name:                AV-unprocessed.smi:438
#       Creating user name   scv26
#       Creation time:       Thu Mar 26 22:54:05 2020


#       File generated by GOLD software.
#

@<TRIPOS>MOLECULE
AV-unprocessed.smi:438
    55    56     1
SMALL
NO_CHARGES


@<TRIPOS>ATOM
      1 ****        -1.9602  -1.3414   1.1786 C.3            1 S1                 0.0000
      2 ****        -1.2046  -0.4040   2.1041 C.2            1 S1                 0.0000
      3 ****         0.1778  -0.3399   1.8958 N.2            1 S1                 0.0000
      4 ****         0.9108   0.4520   2.6110 C.2            1 S1                 0.0000
      5 ****         2.7038   0.7571   2.5316 S.3            1 S1                 0.0000
      6 ****         3.2165  -0.2842   1.1302 C.3            1 S1                 0.0000
      7 ****         2.6935   0.2214  -0.2146 C.2            1 S1                 0.0000
      8 ****         3.0240   1.3342  -0.6225 O.2            1 S1                 0.0000
      9 ****         1.8523  -0.5992  -0.8671 N.am           1 S1                 0.0000
     10 ****         1.0942  -0.3167  -2.0875 C.3            1 S1                 0.0000
     11 ****         0.0535   0.8005  -1.8566 C.3            1 S1                 0.0000
     12 ****        -0.8125   1.0170  -3.1054 C.3            1 S1                 0.0000
     13 ****         0.0594   1.3129  -4.3350 C.3            1 S1                 0.0000
     14 ****         1.0943   0.2000  -4.5680 C.3            1 S1                 0.0000
     15 ****         1.9824  -0.0294  -3.3278 C.3            1 S1                 0.0000
     16 ****         3.0089  -1.1442  -3.5957 C.3            1 S1                 0.0000
     17 ****         0.3330   1.2347   3.6108 N.am           1 S1                 0.0000
     18 ****        -0.9877   1.2389   3.8985 C.2            1 S1                 0.0000
     19 ****        -1.4278   1.9596   4.7930 O.2            1 S1                 0.0000
     20 ****        -1.8108   0.3396   3.0721 C.2            1 S1                 0.0000
     21 ****        -3.3173   0.3189   3.3302 C.3            1 S1                 0.0000
     22 ****        -3.7074  -0.4672   4.5942 C.3            1 S1                 0.0000
     23 ****        -3.3912  -1.8362   4.4531 O.3            1 S1                 0.0000
     24 ****        -2.5535  -2.0550   1.7501 H              1 S1                 0.0000
     25 ****        -1.2772  -1.9077   0.5441 H              1 S1                 0.0000
     26 ****        -2.6269  -0.7756   0.5275 H              1 S1                 0.0000
     27 ****         2.8975  -1.3119   1.3105 H              1 S1                 0.0000
     28 ****         4.3059  -0.2967   1.0927 H              1 S1                 0.0000
     29 ****         1.6615  -1.4911  -0.4334 H              1 S1                 0.0000
     30 ****         0.5404  -1.2348  -2.2887 H              1 S1                 0.0000
     31 ****        -0.5856   0.5484  -1.0093 H              1 S1                 0.0000
     32 ****         0.5496   1.7371  -1.6003 H              1 S1                 0.0000
     33 ****        -1.4183   0.1289  -3.2897 H              1 S1                 0.0000
     34 ****        -1.5095   1.8385  -2.9361 H              1 S1                 0.0000
     35 ****        -0.5709   1.4235  -5.2178 H              1 S1                 0.0000
     36 ****         0.5721   2.2661  -4.1998 H              1 S1                 0.0000
     37 ****         0.5782  -0.7252  -4.8279 H              1 S1                 0.0000
     38 ****         1.7142   0.4574  -5.4276 H              1 S1                 0.0000
     39 ****         2.5386   0.8926  -3.1556 H              1 S1                 0.0000
     40 ****         2.5180  -2.1049  -3.7535 H              1 S1                 0.0000
     41 ****         3.7062  -1.2573  -2.7654 H              1 S1                 0.0000
     42 ****         3.6014  -0.9239  -4.4840 H              1 S1                 0.0000
     43 ****         0.9315   1.8405   4.1530 H              1 S1                 0.0000
     44 ****        -3.8544  -0.0847   2.4726 H              1 S1                 0.0000
     45 ****        -3.6675   1.3478   3.4225 H              1 S1                 0.0000
     46 ****        -3.2029  -0.0716   5.4760 H              1 S1                 0.0000
     47 ****        -4.7789  -0.3766   4.7737 H              1 S1                 0.0000
     48 ****        -3.6525  -2.2876   5.2415 H              1 S1                 0.0000
     49 ****         0.6015  -0.9087   1.1909 LP             1 S1                 0.0000
     50 ****         3.6339   1.9067  -0.0746 LP             1 S1                 0.0000
     51 ****         2.6826   1.6661  -1.5019 LP             1 S1                 0.0000
     52 ****        -0.8074   2.5472   5.3125 LP             1 S1                 0.0000
     53 ****        -2.4060   1.9579   5.0008 LP             1 S1                 0.0000
     54 ****        -2.4066  -1.9423   4.3144 LP             1 S1                 0.0000
     55 ****        -3.8813  -2.2164   3.6687 LP             1 S1                 0.0000
@<TRIPOS>BOND
    1    1   24 1     
    2    1   25 1     
    3    1   26 1     
    4    1    2 1     
    5    2   20 2     
    6    2    3 1     
    7    3    4 2     
    8    4    5 1     
    9    4   17 1     
   10    5    6 1     
   11    6    7 1     
   12    6   27 1     
   13    6   28 1     
   14    7    8 2     
   15    7    9 am    
   16    9   10 1     
   17    9   29 1     
   18   10   15 1     
   19   10   11 1     
   20   10   30 1     
   21   11   12 1     
   22   11   31 1     
   23   11   32 1     
   24   12   13 1     
   25   12   33 1     
   26   12   34 1     
   27   13   14 1     
   28   13   35 1     
   29   13   36 1     
   30   14   15 1     
   31   14   37 1     
   32   14   38 1     
   33   15   16 1     
   34   15   39 1     
   35   16   40 1     
   36   16   41 1     
   37   16   42 1     
   38   17   43 1     
   39   17   18 am    
   40   18   19 2     
   41   18   20 1     
   42   20   21 1     
   43   21   22 1     
   44   21   44 1     
   45   21   45 1     
   46   22   23 1     
   47   22   46 1     
   48   22   47 1     
   49   23   48 1     
   50    3   49 1     
   51    8   50 1     
   52    8   51 1     
   53   19   52 1     
   54   19   53 1     
   55   23   54 1     
   56   23   55 1     
@<TRIPOS>SUBSTRUCTURE
      1 S1             1
@<TRIPOS>SET
LONE_PAIRS      STATIC     ATOMS    <user>   **** ""
7 49 50 51 52 53 54 55
DONOR_HYDROGENS      STATIC     ATOMS    <user>   **** ""
3 29 43 48
ATOM$BLUE        STATIC     ATOMS    COLORGROUP SYSTEM
7 49 50 51 52 53 54 55
ATOM$RED        STATIC     ATOMS    COLORGROUP SYSTEM
3 29 43 48
