AV-unprocessed.smi:571|AV-procd|sdf|2964|dock7
  -GOLD-   2262023473D 1   1.00000     0.00000
 Structure written by MMmdl.
 44 45  0  0  0  0  0  0  0  0  2 V2000
  149.0030  134.3263  156.6741 C   0  0  0  0  0  0  0  0  0  0  0  0
  148.9261  134.7680  155.2063 C   0  0  1  0  0  0  0  0  0  0  0  0
  147.5036  135.2456  154.8360 C   0  0  0  0  0  0  0  0  0  0  0  0
  147.2286  135.1866  153.3772 N   0  3  0  0  0  0  0  0  0  0  0  0
  145.9986  135.9259  152.9936 C   0  0  0  0  0  0  0  0  0  0  0  0
  145.8379  135.9740  151.4647 C   0  0  0  0  0  0  0  0  0  0  0  0
  145.8371  134.5615  150.8655 C   0  0  0  0  0  0  0  0  0  0  0  0
  147.0955  133.8030  151.3074 C   0  0  0  0  0  0  0  0  0  0  0  0
  147.2270  133.8003  152.8394 C   0  0  0  0  0  0  0  0  0  0  0  0
  149.9144  135.8210  154.9755 N   0  0  0  0  0  0  0  0  0  0  0  0
  149.9299  137.0385  155.5469 C   0  0  0  0  0  0  0  0  0  0  0  0
  149.0957  137.3931  156.3785 O   0  0  0  0  0  0  0  0  0  0  0  0
  151.0507  138.0160  155.1533 C   0  0  0  0  0  0  0  0  0  0  0  0
  150.7933  139.4281  155.4891 N   0  0  0  0  0  0  0  0  0  0  0  0
  149.8960  140.1284  154.6584 C   0  0  0  0  0  0  0  0  0  0  0  0
  149.5892  141.4176  154.8724 C   0  0  0  0  0  0  0  0  0  0  0  0
  150.2079  142.0898  155.9904 C   0  0  0  0  0  0  0  0  0  0  0  0
  151.0636  141.4280  156.7942 C   0  0  0  0  0  0  0  0  0  0  0  0
  151.3962  140.0166  156.5684 C   0  0  0  0  0  0  0  0  0  0  0  0
  152.1619  139.3983  157.3079 O   0  0  0  0  0  0  0  0  0  0  0  0
  148.3011  133.5171  156.8773 H   0  0  0  0  0  0  0  0  0  0  0  0
  148.7684  135.1480  157.3518 H   0  0  0  0  0  0  0  0  0  0  0  0
  150.0011  133.9646  156.9238 H   0  0  0  0  0  0  0  0  0  0  0  0
  149.1809  133.8960  154.6027 H   0  0  0  0  0  0  0  0  0  0  0  0
  146.7494  134.6700  155.3749 H   0  0  0  0  0  0  0  0  0  0  0  0
  147.3978  136.2762  155.1786 H   0  0  0  0  0  0  0  0  0  0  0  0
  145.1288  135.4530  153.4526 H   0  0  0  0  0  0  0  0  0  0  0  0
  146.0462  136.9459  153.3770 H   0  0  0  0  0  0  0  0  0  0  0  0
  144.9142  136.4905  151.2024 H   0  0  0  0  0  0  0  0  0  0  0  0
  146.6521  136.5555  151.0300 H   0  0  0  0  0  0  0  0  0  0  0  0
  144.9474  134.0222  151.1930 H   0  0  0  0  0  0  0  0  0  0  0  0
  145.7896  134.6130  149.7774 H   0  0  0  0  0  0  0  0  0  0  0  0
  147.0629  132.7791  150.9338 H   0  0  0  0  0  0  0  0  0  0  0  0
  147.9786  134.2663  150.8651 H   0  0  0  0  0  0  0  0  0  0  0  0
  148.1478  133.2873  153.1150 H   0  0  0  0  0  0  0  0  0  0  0  0
  146.4064  133.2359  153.2851 H   0  0  0  0  0  0  0  0  0  0  0  0
  150.6384  135.6159  154.3015 H   0  0  0  0  0  0  0  0  0  0  0  0
  151.9796  137.6792  155.6169 H   0  0  0  0  0  0  0  0  0  0  0  0
  151.2232  137.9150  154.0808 H   0  0  0  0  0  0  0  0  0  0  0  0
  149.4749  139.5524  153.8470 H   0  0  0  0  0  0  0  0  0  0  0  0
  148.8980  141.9386  154.2261 H   0  0  0  0  0  0  0  0  0  0  0  0
  149.9843  143.1288  156.1830 H   0  0  0  0  0  0  0  0  0  0  0  0
  151.5172  141.9478  157.6254 H   0  0  0  0  0  0  0  0  0  0  0  0
  147.9941  135.6707  152.9298 H   0  0  0  0  0  0  0  0  0  0  0  0
  1  2  1  0  0  0  0
  1 21  1  0  0  0  0
  1 22  1  0  0  0  0
  1 23  1  0  0  0  0
  2  3  1  0  0  0  0
  2 10  1  0  0  0  0
  2 24  1  0  0  0  0
  3  4  1  0  0  0  0
  3 25  1  0  0  0  0
  3 26  1  0  0  0  0
  4  9  1  0  0  0  0
  4  5  1  0  0  0  0
  4 44  1  0  0  0  0
  5  6  1  0  0  0  0
  5 27  1  0  0  0  0
  5 28  1  0  0  0  0
  6  7  1  0  0  0  0
  6 29  1  0  0  0  0
  6 30  1  0  0  0  0
  7  8  1  0  0  0  0
  7 31  1  0  0  0  0
  7 32  1  0  0  0  0
  8  9  1  0  0  0  0
  8 33  1  0  0  0  0
  8 34  1  0  0  0  0
  9 35  1  0  0  0  0
  9 36  1  0  0  0  0
 10 11  1  0  0  0  0
 10 37  1  0  0  0  0
 11 12  2  0  0  0  0
 11 13  1  0  0  0  0
 13 14  1  0  0  0  0
 13 38  1  0  0  0  0
 13 39  1  0  0  0  0
 14 19  1  0  0  0  0
 14 15  1  0  0  0  0
 15 16  2  0  0  0  0
 15 40  1  0  0  0  0
 16 17  1  0  0  0  0
 16 41  1  0  0  0  0
 17 18  2  0  0  0  0
 17 42  1  0  0  0  0
 18 19  1  0  0  0  0
 18 43  1  0  0  0  0
 19 20  2  0  0  0  0
M  CHG  1   4   1
M  END
> <s_m_source_file>
AV-unprocessed.smi

> <i_m_source_file_index>
571

> <i_lp_mmshare_version>
43012

> <i_f3d_flags>
0

> <s_epik_input>
W0NIMl0xW0NIMl1bQ0gyXVtDSDJdW0NIMl1OMVtDSDJdW0NAQEhdKFtDSDNdKVtOSF1DKD1PKVtDSDJdbjJbY0hdW2NIXVtjSF1bY0hdYzI9Tw==

> <s_epik_cmdline>
J2VwaWtfcHl0aG9uJywgJy1waCcsICc3LjAnLCAnLXRuJywgJzgnLCAnLW1hJywgJzIwMCcsICctbWV0YWxfYmluZGluZycsICctaW1hZScsICc8aW5maWxlLm1hZT4nLCAnLW9tYWUnLCAnPG91dGZpbGUubWFlPic=

> <r_lp_tautomer_probability>
1

> <r_epik_Ionization_Penalty>
0.00237248

> <r_epik_Ionization_Penalty_Charging>
0.0023724

> <r_epik_Ionization_Penalty_Neutral>
8.2065e-08

> <r_epik_State_Penalty>
0.00163922

> <r_epik_Charging_Adjusted_Penalty>
0.00401161

> <i_epik_Tot_Q>
1

> <i_epik_Tot_abs_Q>
1

> <r_epik_Metal_State_Penalty>
-0

> <b_epik_Metal_Only>
0

> <s_lp_Force_Field>
OPLS_2005

> <r_lp_Energy>
32.4052

> <b_lp_Chiralities_Consistent>
1

> <s_lp_Variant>
AV-unprocessed.smi:571-2

> <Gold.Version>
5.8.1

> <Gold.Id.Protein>
6NUR|6NUR_protein|mol2

> <Gold.PLP.Fitness>
50.6222

> <Gold.PLP.PLP>
-39.0510

> <Gold.PLP.part.hbond>
-4.0000

> <Gold.PLP.part.metal>
0.0000

> <Gold.PLP.part.buried>
-0.9382

> <Gold.PLP.part.nonpolar>
-32.8511

> <Gold.PLP.part.repulsive>
0.1325

> <Gold.PLP.ligand.clash>
0.0000

> <Gold.PLP.ligand.torsion>
0.7270

> <Gold.PLP.Chemscore.Hbond>
3.7359

> <Gold.PLP.Chemscore.CHOScore>
0.5636

> <Gold.PLP.Chemscore.Metal>
0.0000

> <Gold.Chemscore.Hbonds>
donor molecule, donor type, donor heavy atom, donor atom, acceptor molecule, acceptor atom, score
      L1  H     4    44       P1  7948  1.98
      L1  C    15    40       P1  7957  0.48

> <Gold.PLP.Chemscore.Internal.Correction>
0.1266

> <Gold.Rescore>
     Score         DG    S(hbond)    S(metal)    S(lipo)     H(rot)  DE(clash)    DE(int)     intcor
     13.70     -15.72       1.99        0.00      70.93       1.84       0.01       2.00       ----

> <Gold.Chemscore.Fitness>
13.6981

> <Gold.Chemscore.DG>
-15.7163

> <Gold.Chemscore.ZeroCoef>
-5.4800

> <Gold.Chemscore.Hbond>
1.9913

> <Gold.Chemscore.Metal>
0.0000

> <Gold.Chemscore.Lipo>
70.9314

> <Gold.Chemscore.Internal_Hbond>
0.0000

> <Gold.Chemscore.DEClash>
0.0137

> <Gold.Chemscore.DEInternal>
2.0045

> <Gold.Chemscore.Rot>
1.8413

> <Gold.Chemscore.Internal.Correction>
   9.000000E+99

> <Gold.Chemscore.Hbonds>
donor molecule, donor type, donor heavy atom, donor atom, acceptor molecule, acceptor atom, score
      L1  H     4    44       P1  7948  0.92
      P1  H  7997  8009       L1    20  0.01

> <Gold.Chemscore.Hbond.Weighted>
-6.6510

> <Gold.Chemscore.Metal.Weighted>
-0.0000

> <Gold.Chemscore.Lipo.Weighted>
-8.2990

> <Gold.Chemscore.Internal_Hbond.Weighted>
0.0000

> <Gold.Chemscore.DEClash.Weighted>
0.0137

> <Gold.Chemscore.DEInternal.Weighted>
2.0045

> <Gold.Chemscore.Rot.Weighted>
4.7137

> <Gold.Chemscore.Internal.Correction.Weighted>
   9.000000E+99

> <Gold.Protein.RotatedTorsions>
[ 6907 6896 6895 6894 ] final -125.85 input  -60.11 | X-H torsion
[ 7974 7965 7964 7962 ] final  -19.77 input  175.53 | X-H torsion
[ 8008 7997 7996 7995 ] final -164.35 input   59.86 | X-H torsion
[ 10167 10162 10161 10158 ] final   81.75 input  -65.29 | X-H torsion
[ 10718 10713 10712 10709 ] final  -69.29 input   66.30 | X-H torsion
[ 10763 10752 10751 10750 ] final  129.56 input  -60.55 | X-H torsion
[ 11005 11000 10999 10996 ] final  -40.36 input  -57.11 | X-H torsion

> <Gold.Protein.ActiveResidues>
 VAL166  LYS551  ARG553  GLY616  TRP617  ASP618  TYR619  PRO620  LYS621  CYS622 
 ASP623  PHE694  ASN695  SER759  ASP760  ASP761  ALA762  ILE779  LEU786  VAL792 
 PHE793  MET794  SER795  GLU796  ALA797  LYS798  CYS799  TRP800  GLU811  SER814 

> <Gold.Protein.RotatedAtoms>
  150.8910  133.7244  159.2904 H   0  0  0  0  0  0  0  0  0  0  0  0  # atno 6907 bound_to 6896
  151.4794  135.1050  159.9783 H   0  0  0  0  0  0  0  0  0  0  0  0  # atno 6908 bound_to 6896
  152.4820  133.8230  159.7119 H   0  0  0  0  0  0  0  0  0  0  0  0  # atno 6909 bound_to 6896
  146.1824  140.4109  142.8489 H   0  0  0  0  0  0  0  0  0  0  0  0  # atno 7974 bound_to 7965
  155.8343  140.0938  157.1773 H   0  0  0  0  0  0  0  0  0  0  0  0  # atno 8008 bound_to 7997
  154.3980  140.1413  156.3712 H   0  0  0  0  0  0  0  0  0  0  0  0  # atno 8009 bound_to 7997
  155.8133  140.3449  155.5473 H   0  0  0  0  0  0  0  0  0  0  0  0  # atno 8010 bound_to 7997
  139.9360  144.6121  150.8298 H   0  0  0  0  0  0  0  0  0  0  0  0  # atno 10167 bound_to 10162
  156.0463  130.4310  150.2126 H   0  0  0  0  0  0  0  0  0  0  0  0  # atno 10718 bound_to 10713
  153.7438  135.3220  155.3309 H   0  0  0  0  0  0  0  0  0  0  0  0  # atno 10763 bound_to 10752
  154.8286  135.4551  154.1000 H   0  0  0  0  0  0  0  0  0  0  0  0  # atno 10764 bound_to 10752
  153.2183  135.6945  153.8113 H   0  0  0  0  0  0  0  0  0  0  0  0  # atno 10765 bound_to 10752
  141.0169  133.6881  156.2311 H   0  0  0  0  0  0  0  0  0  0  0  0  # atno 11005 bound_to 11000
  144.8337  140.6748  143.6274 LP  0  0  0  0  0  0  0  0  0  0  0  0  # atno 17320 bound_to 7965
  145.4039  139.1592  143.4163 LP  0  0  0  0  0  0  0  0  0  0  0  0  # atno 17321 bound_to 7965
  140.7624  143.3198  151.2648 LP  0  0  0  0  0  0  0  0  0  0  0  0  # atno 17342 bound_to 10162
  139.6743  143.9965  152.2772 LP  0  0  0  0  0  0  0  0  0  0  0  0  # atno 17343 bound_to 10162
  157.0215  130.9981  151.3338 LP  0  0  0  0  0  0  0  0  0  0  0  0  # atno 17370 bound_to 10713
  157.5341  130.8077  149.7951 LP  0  0  0  0  0  0  0  0  0  0  0  0  # atno 17371 bound_to 10713
  140.6640  134.4938  157.5584 LP  0  0  0  0  0  0  0  0  0  0  0  0  # atno 17394 bound_to 11000
  139.9122  134.8320  156.1488 LP  0  0  0  0  0  0  0  0  0  0  0  0  # atno 17395 bound_to 11000

$$$$
