#       Name:                AV-unprocessed.smi:3187
#       Creating user name   scv26
#       Creation time:       Fri Mar 27 18:02:13 2020


#       File generated by GOLD software.
#

@<TRIPOS>MOLECULE
AV-unprocessed.smi:3187
    42    43     1
SMALL
NO_CHARGES


@<TRIPOS>ATOM
      1 ****        -0.7501   1.3815   2.2788 C.3            1 S1                 0.0000
      2 ****        -1.6886   1.7528   1.1425 C.2            1 S1                 0.0000
      3 ****        -2.9101   2.2479   1.4197 C.2            1 S1                 0.0000
      4 ****        -3.8958   2.7196   0.3760 C.3            1 S1                 0.0000
      5 ****        -3.1877   3.0415  -0.9420 C.3            1 S1                 0.0000
      6 ****        -2.2614   1.8938  -1.3764 C.3            1 S1                 0.0000
      7 ****        -1.6473   2.2247  -2.7505 C.3            1 S1                 0.0000
      8 ****        -1.1792   1.5644  -0.3016 C.3            1 S1                 0.0000
      9 ****        -0.5938   0.1491  -0.5520 C.3            1 S1                 0.0000
     10 ****         0.7352  -0.0442   0.0648 N.4            1 S1                 1.0000
     11 ****         1.2840  -1.4043  -0.1025 C.3            1 S1                 0.0000
     12 ****         2.6576  -1.5339   0.5708 C.3            1 S1                 0.0000
     13 ****         3.2122  -2.8817   0.4215 N.pl3          1 S1                 0.0000
     14 ****         3.9502  -3.3653  -0.6286 C.2            1 S1                 0.0000
     15 ****         4.2451  -4.6709  -0.3306 C.2            1 S1                 0.0000
     16 ****         3.6759  -4.9289   0.8875 N.pl3          1 S1                 1.0000
     17 ****         3.0481  -3.8399   1.3433 C.2            1 S1                 0.0000
     18 ****         0.2242   1.8501   2.1386 H              1 S1                 0.0000
     19 ****        -0.6207   0.3014   2.3414 H              1 S1                 0.0000
     20 ****        -1.1408   1.7164   3.2403 H              1 S1                 0.0000
     21 ****        -3.2342   2.3416   2.4461 H              1 S1                 0.0000
     22 ****        -4.6511   1.9463   0.2331 H              1 S1                 0.0000
     23 ****        -4.4104   3.6076   0.7439 H              1 S1                 0.0000
     24 ****        -3.9334   3.2440  -1.7117 H              1 S1                 0.0000
     25 ****        -2.6058   3.9576  -0.8289 H              1 S1                 0.0000
     26 ****        -2.8929   1.0123  -1.5007 H              1 S1                 0.0000
     27 ****        -0.9924   3.0946  -2.6913 H              1 S1                 0.0000
     28 ****        -2.4257   2.4509  -3.4801 H              1 S1                 0.0000
     29 ****        -1.0651   1.3997  -3.1578 H              1 S1                 0.0000
     30 ****        -0.3758   2.2928  -0.4217 H              1 S1                 0.0000
     31 ****        -1.2860  -0.6066  -0.1772 H              1 S1                 0.0000
     32 ****        -0.4785  -0.0452  -1.6169 H              1 S1                 0.0000
     33 ****         1.3773   0.6197  -0.3444 H              1 S1                 0.0000
     34 ****         0.5880  -2.1258   0.3282 H              1 S1                 0.0000
     35 ****         1.3663  -1.6296  -1.1668 H              1 S1                 0.0000
     36 ****         3.3694  -0.8312   0.1349 H              1 S1                 0.0000
     37 ****         2.5917  -1.3061   1.6359 H              1 S1                 0.0000
     38 ****         4.2054  -2.7621  -1.4880 H              1 S1                 0.0000
     39 ****         4.8031  -5.4161  -0.8794 H              1 S1                 0.0000
     40 ****         2.5152  -3.7544   2.2737 H              1 S1                 0.0000
     41 ****         0.6557   0.1515   1.0527 H              1 S1                 0.0000
     42 ****         3.7236  -5.8147   1.3759 H              1 S1                 0.0000
@<TRIPOS>BOND
    1    1    2 1     
    2    1   18 1     
    3    1   19 1     
    4    1   20 1     
    5    2    8 1     
    6    2    3 2     
    7    3    4 1     
    8    3   21 1     
    9    4    5 1     
   10    4   22 1     
   11    4   23 1     
   12    5    6 1     
   13    5   24 1     
   14    5   25 1     
   15    6    7 1     
   16    6    8 1     
   17    6   26 1     
   18    7   27 1     
   19    7   28 1     
   20    7   29 1     
   21    8    9 1     
   22    8   30 1     
   23    9   10 1     
   24    9   31 1     
   25    9   32 1     
   26   10   11 1     
   27   10   33 1     
   28   10   41 1     
   29   11   12 1     
   30   11   34 1     
   31   11   35 1     
   32   12   13 1     
   33   12   36 1     
   34   12   37 1     
   35   13   17 1     
   36   13   14 1     
   37   14   15 2     
   38   14   38 1     
   39   15   16 1     
   40   15   39 1     
   41   16   17 2     
   42   16   42 1     
   43   17   40 1     
@<TRIPOS>SUBSTRUCTURE
      1 S1             1
@<TRIPOS>SET
DONOR_HYDROGENS      STATIC     ATOMS    <user>   **** ""
3 33 41 42
ATOM$RED        STATIC     ATOMS    COLORGROUP SYSTEM
3 33 41 42
