AV-unprocessed.smi:1672|AV-procd|sdf|6701|dock10
  -GOLD-   22720 7443D 1   1.00000     0.00000
 Structure written by MMmdl.
 48 50  0  0  0  0  0  0  0  0  2 V2000
  144.9725  134.1136  151.2019 C   0  0  0  0  0  0  0  0  0  0  0  0
  145.1043  135.5472  151.7347 C   0  0  2  0  0  0  0  0  0  0  0  0
  145.8706  136.4501  150.7537 C   0  0  0  0  0  0  0  0  0  0  0  0
  146.0203  137.8754  151.3096 C   0  0  0  0  0  0  0  0  0  0  0  0
  146.6951  137.8663  152.6350 N   0  3  1  0  0  0  0  0  0  0  0  0
  146.9791  139.2289  153.1527 C   0  0  0  0  0  0  0  0  0  0  0  0
  147.9099  139.2009  154.3855 C   0  0  2  0  0  0  0  0  0  0  0  0
  147.1227  139.3245  155.5525 O   0  0  0  0  0  0  0  0  0  0  0  0
  148.9615  140.3290  154.4057 C   0  0  0  0  0  0  0  0  0  0  0  0
  150.1082  140.0328  155.2553 N   0  0  0  0  0  0  0  0  0  0  0  0
  150.9750  138.9903  155.1729 C   0  0  0  0  0  0  0  0  0  0  0  0
  150.8752  137.9308  154.1179 C   0  0  0  0  0  0  0  0  0  0  0  0
  152.0539  137.8199  153.3492 O   0  0  0  0  0  0  0  0  0  0  0  0
  151.9436  138.9688  156.0887 N   0  0  0  0  0  0  0  0  0  0  0  0
  151.6810  140.0972  156.8390 C   0  0  0  0  0  0  0  0  0  0  0  0
  152.3539  140.6297  157.9616 C   0  0  0  0  0  0  0  0  0  0  0  0
  151.8974  141.8166  158.5706 C   0  0  0  0  0  0  0  0  0  0  0  0
  150.7647  142.4873  158.0662 C   0  0  0  0  0  0  0  0  0  0  0  0
  150.0796  141.9739  156.9482 C   0  0  0  0  0  0  0  0  0  0  0  0
  150.5379  140.7869  156.3446 C   0  0  0  0  0  0  0  0  0  0  0  0
  145.9571  137.0288  153.6147 C   0  0  0  0  0  0  0  0  0  0  0  0
  145.8004  135.5854  153.1059 C   0  0  0  0  0  0  0  0  0  0  0  0
  145.9492  133.6470  151.0700 H   0  0  0  0  0  0  0  0  0  0  0  0
  144.4633  134.0983  150.2376 H   0  0  0  0  0  0  0  0  0  0  0  0
  144.3963  133.4916  151.8875 H   0  0  0  0  0  0  0  0  0  0  0  0
  144.0975  135.9510  151.8527 H   0  0  0  0  0  0  0  0  0  0  0  0
  146.8582  136.0304  150.5554 H   0  0  0  0  0  0  0  0  0  0  0  0
  145.3520  136.4843  149.7949 H   0  0  0  0  0  0  0  0  0  0  0  0
  146.5862  138.4742  150.5971 H   0  0  0  0  0  0  0  0  0  0  0  0
  145.0394  138.3444  151.4026 H   0  0  0  0  0  0  0  0  0  0  0  0
  147.4068  139.8207  152.3428 H   0  0  0  0  0  0  0  0  0  0  0  0
  146.0506  139.7297  153.4317 H   0  0  0  0  0  0  0  0  0  0  0  0
  148.4270  138.2457  154.4443 H   0  0  0  0  0  0  0  0  0  0  0  0
  147.6933  139.4960  156.2865 H   0  0  0  0  0  0  0  0  0  0  0  0
  149.3249  140.5125  153.3941 H   0  0  0  0  0  0  0  0  0  0  0  0
  148.5135  141.2680  154.7319 H   0  0  0  0  0  0  0  0  0  0  0  0
  150.6845  136.9706  154.5984 H   0  0  0  0  0  0  0  0  0  0  0  0
  150.0287  138.1198  153.4592 H   0  0  0  0  0  0  0  0  0  0  0  0
  151.8113  137.7645  152.4374 H   0  0  0  0  0  0  0  0  0  0  0  0
  153.2231  140.1236  158.3553 H   0  0  0  0  0  0  0  0  0  0  0  0
  152.4190  142.2139  159.4292 H   0  0  0  0  0  0  0  0  0  0  0  0
  150.4216  143.3959  158.5394 H   0  0  0  0  0  0  0  0  0  0  0  0
  149.2121  142.4888  156.5632 H   0  0  0  0  0  0  0  0  0  0  0  0
  146.4935  137.0149  154.5644 H   0  0  0  0  0  0  0  0  0  0  0  0
  144.9783  137.4701  153.8085 H   0  0  0  0  0  0  0  0  0  0  0  0
  145.2316  135.0012  153.8303 H   0  0  0  0  0  0  0  0  0  0  0  0
  146.7828  135.1161  153.0351 H   0  0  0  0  0  0  0  0  0  0  0  0
  147.5937  137.4223  152.5071 H   0  0  0  0  0  0  0  0  0  0  0  0
  1  2  1  0  0  0  0
  1 23  1  0  0  0  0
  1 24  1  0  0  0  0
  1 25  1  0  0  0  0
  2 22  1  0  0  0  0
  2  3  1  0  0  0  0
  2 26  1  0  0  0  0
  3  4  1  0  0  0  0
  3 27  1  0  0  0  0
  3 28  1  0  0  0  0
  4  5  1  0  0  0  0
  4 29  1  0  0  0  0
  4 30  1  0  0  0  0
  5  6  1  0  0  0  0
  5 21  1  0  0  0  0
  5 48  1  0  0  0  0
  6  7  1  0  0  0  0
  6 31  1  0  0  0  0
  6 32  1  0  0  0  0
  7  8  1  0  0  0  0
  7  9  1  0  0  0  0
  7 33  1  0  0  0  0
  8 34  1  0  0  0  0
  9 10  1  0  0  0  0
  9 35  1  0  0  0  0
  9 36  1  0  0  0  0
 10 20  1  0  0  0  0
 10 11  1  0  0  0  0
 11 12  1  0  0  0  0
 11 14  2  0  0  0  0
 12 13  1  0  0  0  0
 12 37  1  0  0  0  0
 12 38  1  0  0  0  0
 13 39  1  0  0  0  0
 14 15  1  0  0  0  0
 15 20  2  0  0  0  0
 15 16  1  0  0  0  0
 16 17  2  0  0  0  0
 16 40  1  0  0  0  0
 17 18  1  0  0  0  0
 17 41  1  0  0  0  0
 18 19  2  0  0  0  0
 18 42  1  0  0  0  0
 19 20  1  0  0  0  0
 19 43  1  0  0  0  0
 21 22  1  0  0  0  0
 21 44  1  0  0  0  0
 21 45  1  0  0  0  0
 22 46  1  0  0  0  0
 22 47  1  0  0  0  0
M  CHG  1   5   1
M  END
> <s_m_source_file>
AV-unprocessed.smi

> <i_m_source_file_index>
1672

> <i_lp_mmshare_version>
43012

> <i_f3d_flags>
0

> <s_epik_input>
W0NIM11bQ0hdMVtDSDJdW0NIMl1OKFtDSDJdW0NIMl0xKVtDSDJdW0NASF0oW09IXSlbQ0gyXW4oYyhuMilbQ0gyXVtPSF0pYyhjMjMpW2NIXVtjSF1bY0hdW2NIXTM=

> <s_epik_cmdline>
J2VwaWtfcHl0aG9uJywgJy1waCcsICc3LjAnLCAnLXRuJywgJzgnLCAnLW1hJywgJzIwMCcsICctbWV0YWxfYmluZGluZycsICctaW1hZScsICc8aW5maWxlLm1hZT4nLCAnLW9tYWUnLCAnPG91dGZpbGUubWFlPic=

> <r_epik_Ionization_Penalty>
0.0498263

> <r_epik_Ionization_Penalty_Charging>
0.00181365

> <r_epik_Ionization_Penalty_Neutral>
0.0480127

> <r_epik_State_Penalty>
0.0408546

> <r_epik_Charging_Adjusted_Penalty>
0.0426682

> <i_epik_Tot_Q>
1

> <i_epik_Tot_abs_Q>
1

> <r_epik_Metal_State_Penalty>
4.22946e-05

> <b_epik_Metal_Only>
0

> <s_lp_Force_Field>
OPLS_2005

> <r_lp_Energy>
22.4872

> <b_lp_Chiralities_Consistent>
1

> <s_lp_Variant>
AV-unprocessed.smi:1672-1

> <Gold.Version>
5.8.1

> <Gold.Id.Protein>
6NUR|6NUR_protein|mol2

> <Gold.PLP.Fitness>
47.0693

> <Gold.PLP.PLP>
-36.6407

> <Gold.PLP.part.hbond>
-3.0000

> <Gold.PLP.part.metal>
0.0000

> <Gold.PLP.part.buried>
2.0093

> <Gold.PLP.part.nonpolar>
-36.1337

> <Gold.PLP.part.repulsive>
0.0520

> <Gold.PLP.ligand.clash>
0.0000

> <Gold.PLP.ligand.torsion>
0.7965

> <Gold.PLP.Chemscore.Hbond>
4.0000

> <Gold.PLP.Chemscore.CHOScore>
0.0000

> <Gold.PLP.Chemscore.Metal>
0.0000

> <Gold.Chemscore.Hbonds>
donor molecule, donor type, donor heavy atom, donor atom, acceptor molecule, acceptor atom, score
      L1  H     5    48       P1  7948  2.00
      L1  H    13    39       P1  7949  0.41

> <Gold.PLP.Chemscore.Internal.Correction>
0.0216

> <Gold.Rescore>
     Score         DG    S(hbond)    S(metal)    S(lipo)     H(rot)  DE(clash)    DE(int)     intcor
     16.21     -18.61       2.69        0.00      98.42       2.88       1.51       0.88       ----

> <Gold.Chemscore.Fitness>
16.2144

> <Gold.Chemscore.DG>
-18.6079

> <Gold.Chemscore.ZeroCoef>
-5.4800

> <Gold.Chemscore.Hbond>
2.6885

> <Gold.Chemscore.Metal>
0.0000

> <Gold.Chemscore.Lipo>
98.4232

> <Gold.Chemscore.Internal_Hbond>
0.0000

> <Gold.Chemscore.DEClash>
1.5105

> <Gold.Chemscore.DEInternal>
0.8830

> <Gold.Chemscore.Rot>
2.8778

> <Gold.Chemscore.Internal.Correction>
   9.000000E+99

> <Gold.Chemscore.Hbonds>
donor molecule, donor type, donor heavy atom, donor atom, acceptor molecule, acceptor atom, score
      L1  H     5    48       P1  7948  0.99
      L1  H    13    39       P1  7949  0.40
      P1  H 10752 10764       L1    13  0.01

> <Gold.Chemscore.Hbond.Weighted>
-8.9795

> <Gold.Chemscore.Metal.Weighted>
-0.0000

> <Gold.Chemscore.Lipo.Weighted>
-11.5155

> <Gold.Chemscore.Internal_Hbond.Weighted>
0.0000

> <Gold.Chemscore.DEClash.Weighted>
1.5105

> <Gold.Chemscore.DEInternal.Weighted>
0.8830

> <Gold.Chemscore.Rot.Weighted>
7.3671

> <Gold.Chemscore.Internal.Correction.Weighted>
   9.000000E+99

> <Gold.Protein.RotatedTorsions>
[ 6907 6896 6895 6894 ] final  -50.66 input  -60.11 | X-H torsion
[ 7974 7965 7964 7962 ] final    1.92 input  175.53 | X-H torsion
[ 8008 7997 7996 7995 ] final  -49.99 input   59.86 | X-H torsion
[ 10167 10162 10161 10158 ] final -114.57 input  -65.29 | X-H torsion
[ 10718 10713 10712 10709 ] final  -37.75 input   66.30 | X-H torsion
[ 10763 10752 10751 10750 ] final  -86.15 input  -60.55 | X-H torsion
[ 11005 11000 10999 10996 ] final  119.73 input  -57.11 | X-H torsion

> <Gold.Protein.ActiveResidues>
 VAL166  LYS551  ARG553  GLY616  TRP617  ASP618  TYR619  PRO620  LYS621  CYS622 
 ASP623  PHE694  ASN695  SER759  ASP760  ASP761  ALA762  ILE779  LEU786  VAL792 
 PHE793  MET794  SER795  GLU796  ALA797  LYS798  CYS799  TRP800  GLU811  SER814 

> <Gold.Protein.RotatedAtoms>
  150.8686  134.8054  159.7136 H   0  0  0  0  0  0  0  0  0  0  0  0  # atno 6907 bound_to 6896
  152.4698  134.4984  159.9727 H   0  0  0  0  0  0  0  0  0  0  0  0  # atno 6908 bound_to 6896
  151.5076  133.3453  159.2915 H   0  0  0  0  0  0  0  0  0  0  0  0  # atno 6909 bound_to 6896
  146.2442  140.0913  142.8352 H   0  0  0  0  0  0  0  0  0  0  0  0  # atno 7974 bound_to 7965
  154.4054  140.1283  156.4593 H   0  0  0  0  0  0  0  0  0  0  0  0  # atno 8008 bound_to 7997
  155.7288  140.3491  155.5030 H   0  0  0  0  0  0  0  0  0  0  0  0  # atno 8009 bound_to 7997
  155.9146  140.1042  157.1243 H   0  0  0  0  0  0  0  0  0  0  0  0  # atno 8010 bound_to 7997
  140.0995  143.4626  152.1821 H   0  0  0  0  0  0  0  0  0  0  0  0  # atno 10167 bound_to 10162
  156.3117  130.4253  149.8044 H   0  0  0  0  0  0  0  0  0  0  0  0  # atno 10718 bound_to 10713
  154.6192  135.5459  153.7556 H   0  0  0  0  0  0  0  0  0  0  0  0  # atno 10763 bound_to 10752
  153.0230  135.6408  154.1466 H   0  0  0  0  0  0  0  0  0  0  0  0  # atno 10764 bound_to 10752
  154.1401  135.2909  155.3143 H   0  0  0  0  0  0  0  0  0  0  0  0  # atno 10765 bound_to 10752
  139.9158  134.9630  156.7700 H   0  0  0  0  0  0  0  0  0  0  0  0  # atno 11005 bound_to 11000
  145.0648  140.9113  143.4917 LP  0  0  0  0  0  0  0  0  0  0  0  0  # atno 17320 bound_to 7965
  145.1036  139.2805  143.5673 LP  0  0  0  0  0  0  0  0  0  0  0  0  # atno 17321 bound_to 7965
  139.5679  144.7446  151.3971 LP  0  0  0  0  0  0  0  0  0  0  0  0  # atno 17342 bound_to 10162
  140.6985  143.7689  150.7365 LP  0  0  0  0  0  0  0  0  0  0  0  0  # atno 17343 bound_to 10162
  156.5385  130.8289  151.3261 LP  0  0  0  0  0  0  0  0  0  0  0  0  # atno 17370 bound_to 10713
  157.7392  130.9828  150.2301 LP  0  0  0  0  0  0  0  0  0  0  0  0  # atno 17371 bound_to 10713
  140.6628  133.9629  155.7814 LP  0  0  0  0  0  0  0  0  0  0  0  0  # atno 17394 bound_to 11000
  141.0631  134.0316  157.3631 LP  0  0  0  0  0  0  0  0  0  0  0  0  # atno 17395 bound_to 11000

$$$$
