AV-unprocessed.smi:3256|AV-procd|sdf|12466|dock6
  -GOLD-   2272018363D 1   1.00000     0.00000
 Structure written by MMmdl.
 37 38  0  0  0  0  0  0  0  0  2 V2000
  150.5436  140.5731  156.1104 O   0  0  0  0  0  0  0  0  0  0  0  0
  150.0814  141.6900  155.8788 C   0  0  0  0  0  0  0  0  0  0  0  0
  149.1675  141.9228  154.9260 N   0  0  0  0  0  0  0  0  0  0  0  0
  148.6188  140.9097  154.0316 C   0  0  0  0  0  0  0  0  0  0  0  0
  147.1558  141.2152  153.6561 C   0  0  0  0  0  0  0  0  0  0  0  0
  146.3364  139.9850  153.5232 N   0  3  0  0  0  0  0  0  0  0  0  0
  146.8293  139.0925  152.4465 C   0  0  0  0  0  0  0  0  0  0  0  0
  145.9211  137.8588  152.3095 C   0  0  0  0  0  0  0  0  0  0  0  0
  145.8557  137.1749  153.5545 O   0  0  0  0  0  0  0  0  0  0  0  0
  145.3004  137.9897  154.5790 C   0  0  0  0  0  0  0  0  0  0  0  0
  146.1856  139.2297  154.7920 C   0  0  0  0  0  0  0  0  0  0  0  0
  150.3963  142.8192  156.5364 N   0  0  0  0  0  0  0  0  0  0  0  0
  151.3175  143.0054  157.6036 C   0  0  0  0  0  0  0  0  0  0  0  0
  151.8485  144.2574  157.9997 C   0  0  0  0  0  0  0  0  0  0  0  0
  152.7436  144.3034  159.0859 C   0  0  0  0  0  0  0  0  0  0  0  0
  153.0703  143.1004  159.7409 C   0  0  0  0  0  0  0  0  0  0  0  0
  152.5633  141.9023  159.3826 N   0  0  0  0  0  0  0  0  0  0  0  0
  151.7060  141.8659  158.3405 C   0  0  0  0  0  0  0  0  0  0  0  0
  148.8363  142.8687  154.8038 H   0  0  0  0  0  0  0  0  0  0  0  0
  149.2504  140.8874  153.1444 H   0  0  0  0  0  0  0  0  0  0  0  0
  148.6974  139.9242  154.4942 H   0  0  0  0  0  0  0  0  0  0  0  0
  146.7212  141.8397  154.4379 H   0  0  0  0  0  0  0  0  0  0  0  0
  147.1048  141.7972  152.7345 H   0  0  0  0  0  0  0  0  0  0  0  0
  146.8556  139.6325  151.4993 H   0  0  0  0  0  0  0  0  0  0  0  0
  147.8518  138.7819  152.6675 H   0  0  0  0  0  0  0  0  0  0  0  0
  144.9197  138.1455  151.9842 H   0  0  0  0  0  0  0  0  0  0  0  0
  146.3191  137.1808  151.5543 H   0  0  0  0  0  0  0  0  0  0  0  0
  144.2806  138.2785  154.3194 H   0  0  0  0  0  0  0  0  0  0  0  0
  145.2414  137.4079  155.4991 H   0  0  0  0  0  0  0  0  0  0  0  0
  147.1681  138.9256  155.1567 H   0  0  0  0  0  0  0  0  0  0  0  0
  145.7395  139.8588  155.5613 H   0  0  0  0  0  0  0  0  0  0  0  0
  149.8815  143.6450  156.2677 H   0  0  0  0  0  0  0  0  0  0  0  0
  151.5839  145.1803  157.5084 H   0  0  0  0  0  0  0  0  0  0  0  0
  153.1671  145.2416  159.4124 H   0  0  0  0  0  0  0  0  0  0  0  0
  153.7530  143.1015  160.5776 H   0  0  0  0  0  0  0  0  0  0  0  0
  151.3190  140.8903  158.0841 H   0  0  0  0  0  0  0  0  0  0  0  0
  145.4128  140.2820  153.2417 H   0  0  0  0  0  0  0  0  0  0  0  0
  1  2  2  0  0  0  0
  2  3  1  0  0  0  0
  2 12  1  0  0  0  0
  3  4  1  0  0  0  0
  3 19  1  0  0  0  0
  4  5  1  0  0  0  0
  4 20  1  0  0  0  0
  4 21  1  0  0  0  0
  5  6  1  0  0  0  0
  5 22  1  0  0  0  0
  5 23  1  0  0  0  0
  6 11  1  0  0  0  0
  6  7  1  0  0  0  0
  6 37  1  0  0  0  0
  7  8  1  0  0  0  0
  7 24  1  0  0  0  0
  7 25  1  0  0  0  0
  8  9  1  0  0  0  0
  8 26  1  0  0  0  0
  8 27  1  0  0  0  0
  9 10  1  0  0  0  0
 10 11  1  0  0  0  0
 10 28  1  0  0  0  0
 10 29  1  0  0  0  0
 11 30  1  0  0  0  0
 11 31  1  0  0  0  0
 12 13  1  0  0  0  0
 12 32  1  0  0  0  0
 13 18  1  0  0  0  0
 13 14  2  0  0  0  0
 14 15  1  0  0  0  0
 14 33  1  0  0  0  0
 15 16  2  0  0  0  0
 15 34  1  0  0  0  0
 16 17  1  0  0  0  0
 16 35  1  0  0  0  0
 17 18  2  0  0  0  0
 18 36  1  0  0  0  0
M  CHG  1   6   1
M  END
> <s_m_source_file>
AV-unprocessed.smi

> <i_m_source_file_index>
3256

> <i_lp_mmshare_version>
43012

> <i_f3d_flags>
0

> <s_epik_input>
W2NIXTFuW2NIXVtjSF1bY0hdYzFbTkhdQyg9TylbTkhdW0NIMl1bQ0gyXU4yW0NIMl1bQ0gyXU9bQ0gyXVtDSDJdMg==

> <s_epik_cmdline>
J2VwaWtfcHl0aG9uJywgJy1waCcsICc3LjAnLCAnLXRuJywgJzgnLCAnLW1hJywgJzIwMCcsICctbWV0YWxfYmluZGluZycsICctaW1hZScsICc8aW5maWxlLm1hZT4nLCAnLW9tYWUnLCAnPG91dGZpbGUubWFlPic=

> <r_epik_Ionization_Penalty>
0.606681

> <r_epik_Ionization_Penalty_Charging>
0.602531

> <r_epik_Ionization_Penalty_Neutral>
0.00415076

> <r_epik_State_Penalty>
0.607427

> <r_epik_Charging_Adjusted_Penalty>
1.20996

> <i_epik_Tot_Q>
1

> <i_epik_Tot_abs_Q>
1

> <r_epik_Metal_State_Penalty>
0.604583

> <b_epik_Metal_Only>
0

> <s_lp_Force_Field>
OPLS_2005

> <r_lp_Energy>
17.8709

> <b_lp_Chiralities_Consistent>
1

> <s_lp_Variant>
AV-unprocessed.smi:3256-2

> <Gold.Version>
5.8.1

> <Gold.Id.Protein>
6NUR|6NUR_protein|mol2

> <Gold.PLP.Fitness>
47.5745

> <Gold.PLP.PLP>
-36.9336

> <Gold.PLP.part.hbond>
-3.0000

> <Gold.PLP.part.metal>
0.0000

> <Gold.PLP.part.buried>
-4.5736

> <Gold.PLP.part.nonpolar>
-30.2166

> <Gold.PLP.part.repulsive>
0.4506

> <Gold.PLP.ligand.clash>
0.0000

> <Gold.PLP.ligand.torsion>
0.5079

> <Gold.PLP.Chemscore.Hbond>
3.8800

> <Gold.PLP.Chemscore.CHOScore>
0.0000

> <Gold.PLP.Chemscore.Metal>
0.0000

> <Gold.Chemscore.Hbonds>
donor molecule, donor type, donor heavy atom, donor atom, acceptor molecule, acceptor atom, score
      L1  H     3    19       P1  8028  0.88
      L1  H     6    37       P1 10175  2.00
      L1  H    12    32       P1  8028  1.00

> <Gold.PLP.Chemscore.Internal.Correction>
0.0167

> <Gold.Rescore>
     Score         DG    S(hbond)    S(metal)    S(lipo)     H(rot)  DE(clash)    DE(int)     intcor
     20.05     -21.96       2.91        0.00      91.57       1.54       0.07       1.85       ----

> <Gold.Chemscore.Fitness>
20.0458

> <Gold.Chemscore.DG>
-21.9639

> <Gold.Chemscore.ZeroCoef>
-5.4800

> <Gold.Chemscore.Hbond>
2.9115

> <Gold.Chemscore.Metal>
0.0000

> <Gold.Chemscore.Lipo>
91.5688

> <Gold.Chemscore.Internal_Hbond>
0.0000

> <Gold.Chemscore.DEClash>
0.0663

> <Gold.Chemscore.DEInternal>
1.8518

> <Gold.Chemscore.Rot>
1.5445

> <Gold.Chemscore.Internal.Correction>
   9.000000E+99

> <Gold.Chemscore.Hbonds>
donor molecule, donor type, donor heavy atom, donor atom, acceptor molecule, acceptor atom, score
      L1  H     3    19       P1  8028  0.82
      L1  H     6    37       P1 10175  0.99
      L1  H    12    32       P1  8028  0.98

> <Gold.Chemscore.Hbond.Weighted>
-9.7244

> <Gold.Chemscore.Metal.Weighted>
-0.0000

> <Gold.Chemscore.Lipo.Weighted>
-10.7136

> <Gold.Chemscore.Internal_Hbond.Weighted>
0.0000

> <Gold.Chemscore.DEClash.Weighted>
0.0663

> <Gold.Chemscore.DEInternal.Weighted>
1.8518

> <Gold.Chemscore.Rot.Weighted>
3.9540

> <Gold.Chemscore.Internal.Correction.Weighted>
   9.000000E+99

> <Gold.Protein.RotatedTorsions>
[ 6907 6896 6895 6894 ] final  135.94 input  -60.11 | X-H torsion
[ 7974 7965 7964 7962 ] final -149.32 input  175.53 | X-H torsion
[ 8008 7997 7996 7995 ] final  121.07 input   59.86 | X-H torsion
[ 10167 10162 10161 10158 ] final  101.36 input  -65.29 | X-H torsion
[ 10718 10713 10712 10709 ] final  -82.10 input   66.30 | X-H torsion
[ 10763 10752 10751 10750 ] final   66.20 input  -60.55 | X-H torsion
[ 11005 11000 10999 10996 ] final -130.33 input  -57.11 | X-H torsion

> <Gold.Protein.ActiveResidues>
 VAL166  LYS551  ARG553  GLY616  TRP617  ASP618  TYR619  PRO620  LYS621  CYS622 
 ASP623  PHE694  ASN695  SER759  ASP760  ASP761  ALA762  ILE779  LEU786  VAL792 
 PHE793  MET794  SER795  GLU796  ALA797  LYS798  CYS799  TRP800  GLU811  SER814 

> <Gold.Protein.RotatedAtoms>
  152.2949  133.5597  159.5580 H   0  0  0  0  0  0  0  0  0  0  0  0  # atno 6907 bound_to 6896
  150.7251  134.0376  159.3763 H   0  0  0  0  0  0  0  0  0  0  0  0  # atno 6908 bound_to 6896
  151.8279  135.0631  160.0484 H   0  0  0  0  0  0  0  0  0  0  0  0  # atno 6909 bound_to 6896
  144.7974  140.5080  143.5730 H   0  0  0  0  0  0  0  0  0  0  0  0  # atno 7974 bound_to 7965
  156.2670  140.2816  156.1250 H   0  0  0  0  0  0  0  0  0  0  0  0  # atno 8008 bound_to 7997
  155.1115  140.0391  157.2743 H   0  0  0  0  0  0  0  0  0  0  0  0  # atno 8009 bound_to 7997
  154.6739  140.2594  155.6985 H   0  0  0  0  0  0  0  0  0  0  0  0  # atno 8010 bound_to 7997
  139.7445  144.7002  151.0525 H   0  0  0  0  0  0  0  0  0  0  0  0  # atno 10167 bound_to 10162
  156.0039  130.4624  150.4053 H   0  0  0  0  0  0  0  0  0  0  0  0  # atno 10718 bound_to 10713
  153.0129  135.5329  154.6786 H   0  0  0  0  0  0  0  0  0  0  0  0  # atno 10763 bound_to 10752
  154.5952  135.2862  155.0596 H   0  0  0  0  0  0  0  0  0  0  0  0  # atno 10764 bound_to 10752
  154.1674  135.6537  153.5053 H   0  0  0  0  0  0  0  0  0  0  0  0  # atno 10765 bound_to 10752
  140.9354  134.1263  157.4198 H   0  0  0  0  0  0  0  0  0  0  0  0  # atno 11005 bound_to 11000
  145.5637  139.1480  143.3327 LP  0  0  0  0  0  0  0  0  0  0  0  0  # atno 17320 bound_to 7965
  146.2247  140.5773  142.9002 LP  0  0  0  0  0  0  0  0  0  0  0  0  # atno 17321 bound_to 7965
  140.7790  143.4884  150.9926 LP  0  0  0  0  0  0  0  0  0  0  0  0  # atno 17342 bound_to 10162
  139.8572  143.7362  152.3175 LP  0  0  0  0  0  0  0  0  0  0  0  0  # atno 17343 bound_to 10162
  157.2119  131.0462  151.2594 LP  0  0  0  0  0  0  0  0  0  0  0  0  # atno 17370 bound_to 10713
  157.3880  130.7267  149.6677 LP  0  0  0  0  0  0  0  0  0  0  0  0  # atno 17371 bound_to 10713
  139.8806  135.0019  156.6096 LP  0  0  0  0  0  0  0  0  0  0  0  0  # atno 17394 bound_to 11000
  140.7806  133.8663  155.8564 LP  0  0  0  0  0  0  0  0  0  0  0  0  # atno 17395 bound_to 11000

$$$$
