AV-unprocessed.smi:956|AV-procd|sdf|4263|dock5
  -GOLD-   22720 2173D 1   1.00000     0.00000
 Structure written by MMmdl.
 42 43  0  0  0  0  0  0  0  0  1 V2000
  149.0993  138.3685  158.2452 C   0  0  0  0  0  0  0  0  0  0  0  0
  148.5046  136.6442  157.9057 S   0  0  2  0  0  0  0  0  0  0  0  0
  149.0382  135.7543  159.0298 O   0  0  0  0  0  0  0  0  0  0  0  0
  149.6437  136.3417  156.5084 C   0  0  0  0  0  0  0  0  0  0  0  0
  150.5692  135.3776  156.4978 N   0  0  0  0  0  0  0  0  0  0  0  0
  151.2065  135.5080  155.2787 N   0  0  0  0  0  0  0  0  0  0  0  0
  150.5924  136.5321  154.6833 C   0  0  0  0  0  0  0  0  0  0  0  0
  149.6074  137.1013  155.3971 N   0  0  0  0  0  0  0  0  0  0  0  0
  148.7756  138.2413  155.0463 C   0  0  0  0  0  0  0  0  0  0  0  0
  149.6226  139.5112  155.0001 C   0  0  0  0  0  0  0  0  0  0  0  0
  150.4404  139.6691  154.0947 O   0  0  0  0  0  0  0  0  0  0  0  0
  149.4525  140.3756  156.0129 N   0  0  0  0  0  0  0  0  0  0  0  0
  150.3344  141.4958  156.3238 C   0  0  0  0  0  0  0  0  0  0  0  0
  151.0356  141.2922  157.6822 C   0  0  0  0  0  0  0  0  0  0  0  0
  151.7925  142.5238  158.2319 C   0  0  0  0  0  0  0  0  0  0  0  0
  152.1446  142.3435  159.7218 C   0  0  0  0  0  0  0  0  0  0  0  0
  152.9513  143.5382  160.2551 C   0  0  0  0  0  0  0  0  0  0  0  0
  152.1935  144.8573  160.0421 C   0  0  0  0  0  0  0  0  0  0  0  0
  151.8123  145.0466  158.5659 C   0  0  0  0  0  0  0  0  0  0  0  0
  151.0170  143.8432  158.0336 C   0  0  0  0  0  0  0  0  0  0  0  0
  149.6262  138.7840  157.3882 H   0  0  0  0  0  0  0  0  0  0  0  0
  149.7766  138.3717  159.0991 H   0  0  0  0  0  0  0  0  0  0  0  0
  148.2535  139.0167  158.4723 H   0  0  0  0  0  0  0  0  0  0  0  0
  150.8783  136.8857  153.7035 H   0  0  0  0  0  0  0  0  0  0  0  0
  148.3220  138.0574  154.0715 H   0  0  0  0  0  0  0  0  0  0  0  0
  147.9622  138.3497  155.7639 H   0  0  0  0  0  0  0  0  0  0  0  0
  148.7353  140.1671  156.6922 H   0  0  0  0  0  0  0  0  0  0  0  0
  151.0735  141.6582  155.5384 H   0  0  0  0  0  0  0  0  0  0  0  0
  149.7310  142.4031  156.3583 H   0  0  0  0  0  0  0  0  0  0  0  0
  150.3016  140.9580  158.4163 H   0  0  0  0  0  0  0  0  0  0  0  0
  151.7416  140.4676  157.5757 H   0  0  0  0  0  0  0  0  0  0  0  0
  152.7385  142.6118  157.6983 H   0  0  0  0  0  0  0  0  0  0  0  0
  151.2308  142.2292  160.3065 H   0  0  0  0  0  0  0  0  0  0  0  0
  152.7185  141.4277  159.8656 H   0  0  0  0  0  0  0  0  0  0  0  0
  153.1652  143.3994  161.3152 H   0  0  0  0  0  0  0  0  0  0  0  0
  153.9163  143.5834  159.7479 H   0  0  0  0  0  0  0  0  0  0  0  0
  151.2913  144.8623  160.6551 H   0  0  0  0  0  0  0  0  0  0  0  0
  152.8031  145.6957  160.3801 H   0  0  0  0  0  0  0  0  0  0  0  0
  151.2282  145.9597  158.4473 H   0  0  0  0  0  0  0  0  0  0  0  0
  152.7160  145.1787  157.9694 H   0  0  0  0  0  0  0  0  0  0  0  0
  150.7985  144.0045  156.9787 H   0  0  0  0  0  0  0  0  0  0  0  0
  150.0540  143.7860  158.5424 H   0  0  0  0  0  0  0  0  0  0  0  0
  1  2  1  0  0  0  0
  1 21  1  0  0  0  0
  1 22  1  0  0  0  0
  1 23  1  0  0  0  0
  2  3  2  0  0  0  0
  2  4  1  0  0  0  0
  4  8  1  0  0  0  0
  4  5  2  0  0  0  0
  5  6  1  0  0  0  0
  6  7  2  0  0  0  0
  7  8  1  0  0  0  0
  7 24  1  0  0  0  0
  8  9  1  0  0  0  0
  9 10  1  0  0  0  0
  9 25  1  0  0  0  0
  9 26  1  0  0  0  0
 10 11  2  0  0  0  0
 10 12  1  0  0  0  0
 12 13  1  0  0  0  0
 12 27  1  0  0  0  0
 13 14  1  0  0  0  0
 13 28  1  0  0  0  0
 13 29  1  0  0  0  0
 14 15  1  0  0  0  0
 14 30  1  0  0  0  0
 14 31  1  0  0  0  0
 15 20  1  0  0  0  0
 15 16  1  0  0  0  0
 15 32  1  0  0  0  0
 16 17  1  0  0  0  0
 16 33  1  0  0  0  0
 16 34  1  0  0  0  0
 17 18  1  0  0  0  0
 17 35  1  0  0  0  0
 17 36  1  0  0  0  0
 18 19  1  0  0  0  0
 18 37  1  0  0  0  0
 18 38  1  0  0  0  0
 19 20  1  0  0  0  0
 19 39  1  0  0  0  0
 19 40  1  0  0  0  0
 20 41  1  0  0  0  0
 20 42  1  0  0  0  0
M  END
> <s_m_source_file>
AV-unprocessed.smi

> <i_m_source_file_index>
956

> <i_lp_mmshare_version>
43012

> <i_f3d_flags>
0

> <s_epik_input>
W0NIM11bU0BdKD1PKWMxbm5bY0hdbjFbQ0gyXUMoPU8pW05IXVtDSDJdW0NIMl1bQ0hdMltDSDJdW0NIMl1bQ0gyXVtDSDJdW0NIMl0y

> <s_epik_cmdline>
J2VwaWtfcHl0aG9uJywgJy1waCcsICc3LjAnLCAnLXRuJywgJzgnLCAnLW1hJywgJzIwMCcsICctbWV0YWxfYmluZGluZycsICctaW1hZScsICc8aW5maWxlLm1hZT4nLCAnLW9tYWUnLCAnPG91dGZpbGUubWFlPic=

> <r_lp_tautomer_probability>
1

> <r_epik_Ionization_Penalty>
7.32521e-08

> <r_epik_Ionization_Penalty_Charging>
0

> <r_epik_Ionization_Penalty_Neutral>
7.32521e-08

> <r_epik_State_Penalty>
-0

> <r_epik_Charging_Adjusted_Penalty>
0

> <i_epik_Tot_Q>
0

> <i_epik_Tot_abs_Q>
0

> <r_epik_Metal_State_Penalty>
-0

> <b_epik_Metal_Only>
0

> <s_lp_Force_Field>
OPLS_2005

> <r_lp_Energy>
8.17766

> <b_lp_Chiralities_Consistent>
1

> <s_lp_Variant>
AV-unprocessed.smi:956-1

> <Gold.Version>
5.8.1

> <Gold.Id.Protein>
6NUR|6NUR_protein|mol2

> <Gold.PLP.Fitness>
44.4401

> <Gold.PLP.PLP>
-33.0400

> <Gold.PLP.part.hbond>
-3.0000

> <Gold.PLP.part.metal>
0.0000

> <Gold.PLP.part.buried>
-4.3947

> <Gold.PLP.part.nonpolar>
-25.6341

> <Gold.PLP.part.repulsive>
0.4176

> <Gold.PLP.ligand.clash>
0.0000

> <Gold.PLP.ligand.torsion>
0.9632

> <Gold.PLP.Chemscore.Hbond>
3.0000

> <Gold.PLP.Chemscore.CHOScore>
1.0537

> <Gold.PLP.Chemscore.Metal>
0.0000

> <Gold.Chemscore.Hbonds>
donor molecule, donor type, donor heavy atom, donor atom, acceptor molecule, acceptor atom, score
      P1  H  6896  6908       L1     3  0.86
      P1  H  7989  7998       L1    11  1.00
      P1  H 10752 10764       L1     6  1.00
      L1  C     7    24       P1  7948  0.10
      L1  C     7    24       P1  7949  0.91

> <Gold.PLP.Chemscore.Internal.Correction>
1.1651

> <Gold.Rescore>
     Score         DG    S(hbond)    S(metal)    S(lipo)     H(rot)  DE(clash)    DE(int)     intcor
     18.54     -19.50       2.97        0.00      84.27       2.26       0.01       0.94       ----

> <Gold.Chemscore.Fitness>
18.5402

> <Gold.Chemscore.DG>
-19.4954

> <Gold.Chemscore.ZeroCoef>
-5.4800

> <Gold.Chemscore.Hbond>
2.9729

> <Gold.Chemscore.Metal>
0.0000

> <Gold.Chemscore.Lipo>
84.2728

> <Gold.Chemscore.Internal_Hbond>
0.0000

> <Gold.Chemscore.DEClash>
0.0135

> <Gold.Chemscore.DEInternal>
0.9417

> <Gold.Chemscore.Rot>
2.2554

> <Gold.Chemscore.Internal.Correction>
   9.000000E+99

> <Gold.Chemscore.Hbonds>
donor molecule, donor type, donor heavy atom, donor atom, acceptor molecule, acceptor atom, score
      P1  H  6896  6908       L1     3  0.84
      P1  H  7989  7998       L1    11  0.99
      P1  H 10752 10764       L1     6  0.78

> <Gold.Chemscore.Hbond.Weighted>
-9.9293

> <Gold.Chemscore.Metal.Weighted>
-0.0000

> <Gold.Chemscore.Lipo.Weighted>
-9.8599

> <Gold.Chemscore.Internal_Hbond.Weighted>
0.0000

> <Gold.Chemscore.DEClash.Weighted>
0.0135

> <Gold.Chemscore.DEInternal.Weighted>
0.9417

> <Gold.Chemscore.Rot.Weighted>
5.7738

> <Gold.Chemscore.Internal.Correction.Weighted>
   9.000000E+99

> <Gold.Protein.RotatedTorsions>
[ 6907 6896 6895 6894 ] final  165.95 input  -60.11 | X-H torsion
[ 7974 7965 7964 7962 ] final  -29.43 input  175.53 | X-H torsion
[ 8008 7997 7996 7995 ] final   89.49 input   59.86 | X-H torsion
[ 10167 10162 10161 10158 ] final  172.24 input  -65.29 | X-H torsion
[ 10718 10713 10712 10709 ] final   40.72 input   66.30 | X-H torsion
[ 10763 10752 10751 10750 ] final  -38.51 input  -60.55 | X-H torsion
[ 11005 11000 10999 10996 ] final   66.89 input  -57.11 | X-H torsion

> <Gold.Protein.ActiveResidues>
 VAL166  LYS551  ARG553  GLY616  TRP617  ASP618  TYR619  PRO620  LYS621  CYS622 
 ASP623  PHE694  ASN695  SER759  ASP760  ASP761  ALA762  ILE779  LEU786  VAL792 
 PHE793  MET794  SER795  GLU796  ALA797  LYS798  CYS799  TRP800  GLU811  SER814 

> <Gold.Protein.RotatedAtoms>
  151.8864  133.3506  159.3783 H   0  0  0  0  0  0  0  0  0  0  0  0  # atno 6907 bound_to 6896
  150.7114  134.4967  159.5551 H   0  0  0  0  0  0  0  0  0  0  0  0  # atno 6908 bound_to 6896
  152.2529  134.8114  160.0494 H   0  0  0  0  0  0  0  0  0  0  0  0  # atno 6909 bound_to 6896
  146.1217  140.5411  142.8732 H   0  0  0  0  0  0  0  0  0  0  0  0  # atno 7974 bound_to 7965
  156.0005  140.3360  155.6841 H   0  0  0  0  0  0  0  0  0  0  0  0  # atno 8008 bound_to 7997
  155.6296  140.0683  157.2671 H   0  0  0  0  0  0  0  0  0  0  0  0  # atno 8009 bound_to 7997
  154.4248  140.1762  156.1446 H   0  0  0  0  0  0  0  0  0  0  0  0  # atno 8010 bound_to 7997
  139.5070  144.3396  152.0031 H   0  0  0  0  0  0  0  0  0  0  0  0  # atno 10167 bound_to 10162
  157.3854  130.7777  149.7226 H   0  0  0  0  0  0  0  0  0  0  0  0  # atno 10718 bound_to 10713
  153.9141  135.6789  153.4750 H   0  0  0  0  0  0  0  0  0  0  0  0  # atno 10763 bound_to 10752
  153.1063  135.4804  154.8954 H   0  0  0  0  0  0  0  0  0  0  0  0  # atno 10764 bound_to 10752
  154.7512  135.3185  154.8510 H   0  0  0  0  0  0  0  0  0  0  0  0  # atno 10765 bound_to 10752
  139.9804  134.6753  156.0273 H   0  0  0  0  0  0  0  0  0  0  0  0  # atno 11005 bound_to 11000
  144.7603  140.5407  143.6740 LP  0  0  0  0  0  0  0  0  0  0  0  0  # atno 17320 bound_to 7965
  145.5452  139.1476  143.3425 LP  0  0  0  0  0  0  0  0  0  0  0  0  # atno 17321 bound_to 7965
  140.2834  144.3834  150.6111 LP  0  0  0  0  0  0  0  0  0  0  0  0  # atno 17342 bound_to 10162
  140.6001  143.2167  151.7089 LP  0  0  0  0  0  0  0  0  0  0  0  0  # atno 17343 bound_to 10162
  155.9785  130.4050  150.3642 LP  0  0  0  0  0  0  0  0  0  0  0  0  # atno 17370 bound_to 10713
  157.1752  131.0378  151.2776 LP  0  0  0  0  0  0  0  0  0  0  0  0  # atno 17371 bound_to 10713
  141.1477  133.6553  156.3917 LP  0  0  0  0  0  0  0  0  0  0  0  0  # atno 17394 bound_to 11000
  140.5108  134.6397  157.5283 LP  0  0  0  0  0  0  0  0  0  0  0  0  # atno 17395 bound_to 11000

$$$$
