#       Name:                AV-unprocessed.smi:2888
#       Creating user name   scv26
#       Creation time:       Fri Mar 27 15:57:10 2020


#       File generated by GOLD software.
#

@<TRIPOS>MOLECULE
AV-unprocessed.smi:2888
    37    39     1
SMALL
NO_CHARGES


@<TRIPOS>ATOM
      1 ****        -3.5169  -1.6379  -0.0365 C.3            1 S1                 0.0000
      2 ****        -2.8166  -0.3015   0.0856 C.ar           1 S1                 0.0000
      3 ****        -3.5299   0.9143   0.0359 C.ar           1 S1                 0.0000
      4 ****        -2.7604   2.0901   0.1614 C.ar           1 S1                 0.0000
      5 ****        -3.3988   3.4623   0.1214 C.3            1 S1                 0.0000
      6 ****        -1.4186   2.0499   0.3187 N.ar           1 S1                 0.0000
      7 ****        -0.8461   0.8436   0.3484 C.ar           1 S1                 0.0000
      8 ****         0.5281   0.8411   0.5014 N.pl3          1 S1                 0.0000
      9 ****         1.3694  -0.3405   0.3579 C.3            1 S1                 0.0000
     10 ****         1.5266  -0.7896  -1.1004 C.3            1 S1                 0.0000
     11 ****         3.0511  -0.7917  -1.2677 C.3            1 S1                 0.0000
     12 ****         3.7238  -1.9069  -0.4556 C.3            1 S1                 0.0000
     13 ****         3.5975  -1.3737   0.9713 C.3            1 S1                 0.0000
     14 ****         2.8296  -0.0629   0.7525 C.3            1 S1                 0.0000
     15 ****         3.3877   0.3418  -0.4876 O.3            1 S1                 0.0000
     16 ****        -1.4749  -0.3333   0.2409 N.ar           1 S1                 0.0000
     17 ****        -4.5994  -1.5132  -0.0768 H              1 S1                 0.0000
     18 ****        -3.2790  -2.2717   0.8182 H              1 S1                 0.0000
     19 ****        -3.1977  -2.1497  -0.9447 H              1 S1                 0.0000
     20 ****        -4.6021   0.9432  -0.0920 H              1 S1                 0.0000
     21 ****        -4.4864   3.3897   0.1064 H              1 S1                 0.0000
     22 ****        -3.0799   4.0017  -0.7705 H              1 S1                 0.0000
     23 ****        -3.1091   4.0432   0.9975 H              1 S1                 0.0000
     24 ****         0.9840   1.7404   0.5535 H              1 S1                 0.0000
     25 ****         0.9627  -1.1399   0.9788 H              1 S1                 0.0000
     26 ****         1.0840  -1.7683  -1.2884 H              1 S1                 0.0000
     27 ****         1.0747  -0.0775  -1.7927 H              1 S1                 0.0000
     28 ****         3.3816  -0.7369  -2.3052 H              1 S1                 0.0000
     29 ****         3.2336  -2.8712  -0.5936 H              1 S1                 0.0000
     30 ****         4.7732  -2.0133  -0.7326 H              1 S1                 0.0000
     31 ****         3.0723  -2.0601   1.6362 H              1 S1                 0.0000
     32 ****         4.5835  -1.1769   1.3937 H              1 S1                 0.0000
     33 ****         2.9526   0.6553   1.5643 H              1 S1                 0.0000
     34 ****        -0.8783   2.8865   0.4089 LP             1 S1                 0.0000
     35 ****         2.9603   1.1761  -0.8359 LP             1 S1                 0.0000
     36 ****         4.3771   0.4742  -0.4273 LP             1 S1                 0.0000
     37 ****        -0.9736  -1.1979   0.2741 LP             1 S1                 0.0000
@<TRIPOS>BOND
    1    1    2 1     
    2    1   17 1     
    3    1   18 1     
    4    1   19 1     
    5    2   16 ar    
    6    2    3 ar    
    7    3    4 ar    
    8    3   20 1     
    9    4    5 1     
   10    4    6 ar    
   11    5   21 1     
   12    5   22 1     
   13    5   23 1     
   14    6    7 ar    
   15    7    8 1     
   16    7   16 ar    
   17    8    9 1     
   18    8   24 1     
   19    9   14 1     
   20    9   10 1     
   21    9   25 1     
   22   10   11 1     
   23   10   26 1     
   24   10   27 1     
   25   11   15 1     
   26   11   12 1     
   27   11   28 1     
   28   12   13 1     
   29   12   29 1     
   30   12   30 1     
   31   13   14 1     
   32   13   31 1     
   33   13   32 1     
   34   14   15 1     
   35   14   33 1     
   36    6   34 1     
   37   15   35 1     
   38   15   36 1     
   39   16   37 1     
@<TRIPOS>SUBSTRUCTURE
      1 S1             1
@<TRIPOS>SET
LONE_PAIRS      STATIC     ATOMS    <user>   **** ""
4 34 35 36 37
DONOR_HYDROGENS      STATIC     ATOMS    <user>   **** ""
1 24
ATOM$BLUE        STATIC     ATOMS    COLORGROUP SYSTEM
4 34 35 36 37
ATOM$RED        STATIC     ATOMS    COLORGROUP SYSTEM
1 24
