AV-unprocessed.smi:1570|AV-procd|sdf|6322|dock1
  -GOLD-   22720 6533D 1   1.00000     0.00000
 Structure written by MMmdl.
 52 54  0  0  0  0  0  0  0  0  2 V2000
  150.5953  140.3165  156.9639 C   0  0  0  0  0  0  0  0  0  0  0  0
  151.5588  141.4996  157.1223 C   0  0  0  0  0  0  0  0  0  0  0  0
  152.2350  141.4588  158.4162 N   0  0  0  0  0  0  0  0  0  0  0  0
  152.9564  140.4281  158.9161 C   0  0  0  0  0  0  0  0  0  0  0  0
  153.1735  139.3558  158.3522 O   0  0  0  0  0  0  0  0  0  0  0  0
  153.3650  140.7655  160.1624 N   0  0  0  0  0  0  0  0  0  0  0  0
  154.1311  139.9306  161.0870 C   0  0  0  0  0  0  0  0  0  0  0  0
  155.6457  139.9903  160.8017 C   0  0  2  0  0  0  0  0  0  0  0  0
  155.8494  139.5994  159.4590 O   0  0  0  0  0  0  0  0  0  0  0  0
  156.4754  139.0625  161.7161 C   0  0  0  0  0  0  0  0  0  0  0  0
  155.6789  137.9351  162.2616 N   0  3  1  0  0  0  0  0  0  0  0  0
  155.7767  136.6963  161.4523 C   0  0  0  0  0  0  0  0  0  0  0  0
  154.8586  135.6039  162.0286 C   0  0  1  0  0  0  0  0  0  0  0  0
  154.9987  134.2793  161.2702 C   0  0  0  0  0  0  0  0  0  0  0  0
  155.2001  135.3676  163.3918 O   0  0  0  0  0  0  0  0  0  0  0  0
  155.1226  136.5151  164.2373 C   0  0  2  0  0  0  0  0  0  0  0  0
  153.6695  136.9425  164.5091 C   0  0  0  0  0  0  0  0  0  0  0  0
  156.0045  137.6491  163.6786 C   0  0  0  0  0  0  0  0  0  0  0  0
  152.8797  142.0440  160.4726 C   0  0  0  0  0  0  0  0  0  0  0  0
  153.0127  142.8268  161.6326 C   0  0  0  0  0  0  0  0  0  0  0  0
  152.3812  144.0925  161.6341 C   0  0  0  0  0  0  0  0  0  0  0  0
  151.6464  144.5398  160.5054 C   0  0  0  0  0  0  0  0  0  0  0  0
  151.5279  143.7311  159.3507 C   0  0  0  0  0  0  0  0  0  0  0  0
  152.1673  142.4794  159.3750 C   0  0  0  0  0  0  0  0  0  0  0  0
  150.0940  140.3516  155.9968 H   0  0  0  0  0  0  0  0  0  0  0  0
  149.8263  140.3270  157.7369 H   0  0  0  0  0  0  0  0  0  0  0  0
  151.1240  139.3650  157.0291 H   0  0  0  0  0  0  0  0  0  0  0  0
  152.2953  141.4877  156.3175 H   0  0  0  0  0  0  0  0  0  0  0  0
  151.0168  142.4402  157.0217 H   0  0  0  0  0  0  0  0  0  0  0  0
  153.9269  140.2201  162.1194 H   0  0  0  0  0  0  0  0  0  0  0  0
  153.7728  138.9048  160.9893 H   0  0  0  0  0  0  0  0  0  0  0  0
  155.9768  141.0237  160.8958 H   0  0  0  0  0  0  0  0  0  0  0  0
  155.0458  139.2273  159.1273 H   0  0  0  0  0  0  0  0  0  0  0  0
  157.3336  138.6498  161.1855 H   0  0  0  0  0  0  0  0  0  0  0  0
  156.8844  139.6585  162.5338 H   0  0  0  0  0  0  0  0  0  0  0  0
  155.4957  136.8923  160.4185 H   0  0  0  0  0  0  0  0  0  0  0  0
  156.8118  136.3507  161.4394 H   0  0  0  0  0  0  0  0  0  0  0  0
  153.8189  135.9241  161.9584 H   0  0  0  0  0  0  0  0  0  0  0  0
  154.7336  134.3980  160.2194 H   0  0  0  0  0  0  0  0  0  0  0  0
  154.3445  133.5167  161.6931 H   0  0  0  0  0  0  0  0  0  0  0  0
  156.0211  133.9031  161.3167 H   0  0  0  0  0  0  0  0  0  0  0  0
  155.5437  136.2108  165.1960 H   0  0  0  0  0  0  0  0  0  0  0  0
  153.6335  137.7320  165.2598 H   0  0  0  0  0  0  0  0  0  0  0  0
  153.0825  136.1047  164.8859 H   0  0  0  0  0  0  0  0  0  0  0  0
  153.1747  137.3234  163.6161 H   0  0  0  0  0  0  0  0  0  0  0  0
  157.0558  137.3653  163.7496 H   0  0  0  0  0  0  0  0  0  0  0  0
  155.8795  138.5484  164.2831 H   0  0  0  0  0  0  0  0  0  0  0  0
  153.5709  142.4803  162.4896 H   0  0  0  0  0  0  0  0  0  0  0  0
  152.4582  144.7262  162.5053 H   0  0  0  0  0  0  0  0  0  0  0  0
  151.1710  145.5093  160.5281 H   0  0  0  0  0  0  0  0  0  0  0  0
  150.9674  144.0650  158.4901 H   0  0  0  0  0  0  0  0  0  0  0  0
  154.7135  138.2326  162.2445 H   0  0  0  0  0  0  0  0  0  0  0  0
  1  2  1  0  0  0  0
  1 25  1  0  0  0  0
  1 26  1  0  0  0  0
  1 27  1  0  0  0  0
  2  3  1  0  0  0  0
  2 28  1  0  0  0  0
  2 29  1  0  0  0  0
  3 24  1  0  0  0  0
  3  4  1  0  0  0  0
  4  5  2  0  0  0  0
  4  6  1  0  0  0  0
  6  7  1  0  0  0  0
  6 19  1  0  0  0  0
  7  8  1  0  0  0  0
  7 30  1  0  0  0  0
  7 31  1  0  0  0  0
  8  9  1  0  0  0  0
  8 10  1  0  0  0  0
  8 32  1  0  0  0  0
  9 33  1  0  0  0  0
 10 11  1  0  0  0  0
 10 34  1  0  0  0  0
 10 35  1  0  0  0  0
 11 18  1  0  0  0  0
 11 12  1  0  0  0  0
 11 52  1  0  0  0  0
 12 13  1  0  0  0  0
 12 36  1  0  0  0  0
 12 37  1  0  0  0  0
 13 14  1  0  0  0  0
 13 15  1  0  0  0  0
 13 38  1  0  0  0  0
 14 39  1  0  0  0  0
 14 40  1  0  0  0  0
 14 41  1  0  0  0  0
 15 16  1  0  0  0  0
 16 17  1  0  0  0  0
 16 18  1  0  0  0  0
 16 42  1  0  0  0  0
 17 43  1  0  0  0  0
 17 44  1  0  0  0  0
 17 45  1  0  0  0  0
 18 46  1  0  0  0  0
 18 47  1  0  0  0  0
 19 24  2  0  0  0  0
 19 20  1  0  0  0  0
 20 21  2  0  0  0  0
 20 48  1  0  0  0  0
 21 22  1  0  0  0  0
 21 49  1  0  0  0  0
 22 23  2  0  0  0  0
 22 50  1  0  0  0  0
 23 24  1  0  0  0  0
 23 51  1  0  0  0  0
M  CHG  1  11   1
M  END
> <s_m_source_file>
AV-unprocessed.smi

> <i_m_source_file_index>
1570

> <i_lp_mmshare_version>
43012

> <i_f3d_flags>
0

> <s_epik_input>
W2NIXTFbY0hdW2NIXVtjSF1jKGMxMiluKFtDSDJdW0NIM10pYyg9TyluMltDSDJdW0NASF0oW09IXSlbQ0gyXU4zW0NIMl1bQ0BASF0oW0NIM10pT1tDQEBIXShbQ0gzXSlbQ0gyXTM=

> <s_epik_cmdline>
J2VwaWtfcHl0aG9uJywgJy1waCcsICc3LjAnLCAnLXRuJywgJzgnLCAnLW1hJywgJzIwMCcsICctbWV0YWxfYmluZGluZycsICctaW1hZScsICc8aW5maWxlLm1hZT4nLCAnLW9tYWUnLCAnPG91dGZpbGUubWFlPic=

> <r_epik_Ionization_Penalty>
0.706332

> <r_epik_Ionization_Penalty_Charging>
0.706318

> <r_epik_Ionization_Penalty_Neutral>
1.42224e-05

> <r_epik_State_Penalty>
0.729493

> <r_epik_Charging_Adjusted_Penalty>
1.43581

> <i_epik_Tot_Q>
1

> <i_epik_Tot_abs_Q>
1

> <r_epik_Metal_State_Penalty>
0.729493

> <b_epik_Metal_Only>
0

> <s_lp_Force_Field>
OPLS_2005

> <r_lp_Energy>
53.4907

> <b_lp_Chiralities_Consistent>
1

> <s_lp_Variant>
AV-unprocessed.smi:1570-11

> <Gold.Version>
5.8.1

> <Gold.Id.Protein>
6NUR|6NUR_protein|mol2

> <Gold.PLP.Fitness>
47.2478

> <Gold.PLP.PLP>
-46.5978

> <Gold.PLP.part.hbond>
-1.8372

> <Gold.PLP.part.metal>
0.0000

> <Gold.PLP.part.buried>
-6.3137

> <Gold.PLP.part.nonpolar>
-37.4885

> <Gold.PLP.part.repulsive>
0.0124

> <Gold.PLP.ligand.clash>
0.0000

> <Gold.PLP.ligand.torsion>
1.3273

> <Gold.PLP.Chemscore.Hbond>
1.0000

> <Gold.PLP.Chemscore.CHOScore>
0.0000

> <Gold.PLP.Chemscore.Metal>
0.0000

> <Gold.Chemscore.Hbonds>
donor molecule, donor type, donor heavy atom, donor atom, acceptor molecule, acceptor atom, score
      P1  H  7997  8008       L1     5  0.80

> <Gold.PLP.Chemscore.Internal.Correction>
0.3044

> <Gold.Rescore>
     Score         DG    S(hbond)    S(metal)    S(lipo)     H(rot)  DE(clash)    DE(int)     intcor
     15.58     -18.07       0.87        0.00     129.31       2.13       0.27       2.22       ----

> <Gold.Chemscore.Fitness>
15.5817

> <Gold.Chemscore.DG>
-18.0659

> <Gold.Chemscore.ZeroCoef>
-5.4800

> <Gold.Chemscore.Hbond>
0.8713

> <Gold.Chemscore.Metal>
0.0000

> <Gold.Chemscore.Lipo>
129.3108

> <Gold.Chemscore.Internal_Hbond>
0.0000

> <Gold.Chemscore.DEClash>
0.2678

> <Gold.Chemscore.DEInternal>
2.2164

> <Gold.Chemscore.Rot>
2.1303

> <Gold.Chemscore.Internal.Correction>
   9.000000E+99

> <Gold.Chemscore.Hbonds>
donor molecule, donor type, donor heavy atom, donor atom, acceptor molecule, acceptor atom, score
      P1  H  7997  8008       L1     5  0.13

> <Gold.Chemscore.Hbond.Weighted>
-2.9101

> <Gold.Chemscore.Metal.Weighted>
-0.0000

> <Gold.Chemscore.Lipo.Weighted>
-15.1294

> <Gold.Chemscore.Internal_Hbond.Weighted>
0.0000

> <Gold.Chemscore.DEClash.Weighted>
0.2678

> <Gold.Chemscore.DEInternal.Weighted>
2.2164

> <Gold.Chemscore.Rot.Weighted>
5.4535

> <Gold.Chemscore.Internal.Correction.Weighted>
   9.000000E+99

> <Gold.Protein.RotatedTorsions>
[ 6907 6896 6895 6894 ] final  -30.27 input  -60.11 | X-H torsion
[ 7974 7965 7964 7962 ] final -102.41 input  175.53 | X-H torsion
[ 8008 7997 7996 7995 ] final  -89.66 input   59.86 | X-H torsion
[ 10167 10162 10161 10158 ] final  -22.47 input  -65.29 | X-H torsion
[ 10718 10713 10712 10709 ] final    9.25 input   66.30 | X-H torsion
[ 10763 10752 10751 10750 ] final -107.00 input  -60.55 | X-H torsion
[ 11005 11000 10999 10996 ] final  121.66 input  -57.11 | X-H torsion

> <Gold.Protein.ActiveResidues>
 VAL166  LYS551  ARG553  GLY616  TRP617  ASP618  TYR619  PRO620  LYS621  CYS622 
 ASP623  PHE694  ASN695  SER759  ASP760  ASP761  ALA762  ILE779  LEU786  VAL792 
 PHE793  MET794  SER795  GLU796  ALA797  LYS798  CYS799  TRP800  GLU811  SER814 

> <Gold.Protein.RotatedAtoms>
  151.1079  135.0010  159.8479 H   0  0  0  0  0  0  0  0  0  0  0  0  # atno 6907 bound_to 6896
  152.5441  134.1871  159.8669 H   0  0  0  0  0  0  0  0  0  0  0  0  # atno 6908 bound_to 6896
  151.1919  133.4617  159.2628 H   0  0  0  0  0  0  0  0  0  0  0  0  # atno 6909 bound_to 6896
  145.2690  140.9293  143.2997 H   0  0  0  0  0  0  0  0  0  0  0  0  # atno 7974 bound_to 7965
  154.6892  140.0539  157.0346 H   0  0  0  0  0  0  0  0  0  0  0  0  # atno 8008 bound_to 7997
  155.0840  140.3212  155.4574 H   0  0  0  0  0  0  0  0  0  0  0  0  # atno 8009 bound_to 7997
  156.2722  140.2060  156.5968 H   0  0  0  0  0  0  0  0  0  0  0  0  # atno 8010 bound_to 7997
  140.7286  143.4531  151.0487 H   0  0  0  0  0  0  0  0  0  0  0  0  # atno 10167 bound_to 10162
  156.9636  130.5942  149.5664 H   0  0  0  0  0  0  0  0  0  0  0  0  # atno 10718 bound_to 10713
  154.8048  135.4691  154.0364 H   0  0  0  0  0  0  0  0  0  0  0  0  # atno 10763 bound_to 10752
  153.1842  135.6845  153.8445 H   0  0  0  0  0  0  0  0  0  0  0  0  # atno 10764 bound_to 10752
  153.7985  135.3233  155.3365 H   0  0  0  0  0  0  0  0  0  0  0  0  # atno 10765 bound_to 10752
  139.9235  134.9639  156.7992 H   0  0  0  0  0  0  0  0  0  0  0  0  # atno 11005 bound_to 11000
  144.9351  139.4253  143.6476 LP  0  0  0  0  0  0  0  0  0  0  0  0  # atno 17320 bound_to 7965
  146.3252  139.8283  142.8913 LP  0  0  0  0  0  0  0  0  0  0  0  0  # atno 17321 bound_to 7965
  139.8209  143.7821  152.3177 LP  0  0  0  0  0  0  0  0  0  0  0  0  # atno 17342 bound_to 10162
  139.7903  144.7412  150.9964 LP  0  0  0  0  0  0  0  0  0  0  0  0  # atno 17343 bound_to 10162
  156.0312  130.5403  150.8538 LP  0  0  0  0  0  0  0  0  0  0  0  0  # atno 17370 bound_to 10713
  157.5641  131.0946  150.9516 LP  0  0  0  0  0  0  0  0  0  0  0  0  # atno 17371 bound_to 10713
  140.6403  133.9824  155.7704 LP  0  0  0  0  0  0  0  0  0  0  0  0  # atno 17394 bound_to 11000
  141.0775  134.0112  157.3435 LP  0  0  0  0  0  0  0  0  0  0  0  0  # atno 17395 bound_to 11000

$$$$
