#       Name:                AV-unprocessed.smi:1675
#       Creating user name   scv26
#       Creation time:       Fri Mar 27 07:46:25 2020


#       File generated by GOLD software.
#

@<TRIPOS>MOLECULE
AV-unprocessed.smi:1675
    45    47     1
SMALL
NO_CHARGES


@<TRIPOS>ATOM
      1 ****        -7.0341   0.9038  -0.8755 N.am           1 S1                 0.0000
      2 ****        -6.0519   0.1085  -0.4441 C.2            1 S1                 0.0000
      3 ****        -5.5714  -0.7817  -1.1426 O.2            1 S1                 0.0000
      4 ****        -5.5324   0.3469   0.9749 C.3            1 S1                 0.0000
      5 ****        -4.2339   0.9953   0.9553 N.pl3          1 S1                 0.0000
      6 ****        -2.9888   0.4050   0.8639 C.2            1 S1                 0.0000
      7 ****        -2.0888   1.4328   0.8831 C.2            1 S1                 0.0000
      8 ****        -0.6730   1.3901   0.8145 N.am           1 S1                 0.0000
      9 ****         0.1123   0.2987   0.7891 C.2            1 S1                 0.0000
     10 ****        -0.3091  -0.8576   0.8321 O.2            1 S1                 0.0000
     11 ****         1.6198   0.5747   0.7162 C.3            1 S1                 0.0000
     12 ****         2.4742  -0.6494   0.3115 C.3            1 S1                 0.0000
     13 ****         2.2356  -1.1416  -1.1370 C.3            1 S1                 0.0000
     14 ****         3.6492  -1.1319  -1.7465 C.3            1 S1                 0.0000
     15 ****         4.4974  -2.2437  -1.1015 C.3            1 S1                 0.0000
     16 ****         4.7608  -1.6916   0.3122 C.3            1 S1                 0.0000
     17 ****         3.9923  -0.3560   0.3036 C.3            1 S1                 0.0000
     18 ****         4.2426   0.1245  -1.1228 C.3            1 S1                 0.0000
     19 ****        -2.8602   2.6200   0.9817 C.2            1 S1                 0.0000
     20 ****        -4.1558   2.3481   1.0274 N.2            1 S1                 0.0000
     21 ****        -7.4032   0.7841  -1.8076 H              1 S1                 0.0000
     22 ****        -7.4013   1.6248  -0.2714 H              1 S1                 0.0000
     23 ****        -6.2337   0.9544   1.5499 H              1 S1                 0.0000
     24 ****        -5.4386  -0.6088   1.4921 H              1 S1                 0.0000
     25 ****        -2.8677  -0.6660   0.7936 H              1 S1                 0.0000
     26 ****        -0.2057   2.2850   0.7931 H              1 S1                 0.0000
     27 ****         1.7940   1.3982   0.0227 H              1 S1                 0.0000
     28 ****         1.9379   0.9278   1.6978 H              1 S1                 0.0000
     29 ****         2.2729  -1.4569   1.0177 H              1 S1                 0.0000
     30 ****         1.7760  -2.1301  -1.1683 H              1 S1                 0.0000
     31 ****         1.5865  -0.4594  -1.6879 H              1 S1                 0.0000
     32 ****         3.6558  -1.1530  -2.8367 H              1 S1                 0.0000
     33 ****         3.9761  -3.2015  -1.0839 H              1 S1                 0.0000
     34 ****         5.4359  -2.3824  -1.6396 H              1 S1                 0.0000
     35 ****         4.4177  -2.3682   1.0958 H              1 S1                 0.0000
     36 ****         5.8276  -1.5222   0.4636 H              1 S1                 0.0000
     37 ****         4.3156   0.3316   1.0859 H              1 S1                 0.0000
     38 ****         5.3004   0.2635  -1.3534 H              1 S1                 0.0000
     39 ****         3.6995   1.0346  -1.3812 H              1 S1                 0.0000
     40 ****        -2.5313   3.6479   1.0231 H              1 S1                 0.0000
     41 ****        -5.9155  -0.9305  -2.0697 LP             1 S1                 0.0000
     42 ****        -4.8364  -1.3570  -0.7838 LP             1 S1                 0.0000
     43 ****        -1.2925  -1.0295   0.8898 LP             1 S1                 0.0000
     44 ****         0.3321  -1.6246   0.8092 LP             1 S1                 0.0000
     45 ****        -4.9120   2.9985   1.0994 LP             1 S1                 0.0000
@<TRIPOS>BOND
    1    1    2 am    
    2    1   21 1     
    3    1   22 1     
    4    2    3 2     
    5    2    4 1     
    6    4    5 1     
    7    4   23 1     
    8    4   24 1     
    9    5   20 1     
   10    5    6 1     
   11    6    7 2     
   12    6   25 1     
   13    7    8 1     
   14    7   19 1     
   15    8    9 am    
   16    8   26 1     
   17    9   10 2     
   18    9   11 1     
   19   11   12 1     
   20   11   27 1     
   21   11   28 1     
   22   12   17 1     
   23   12   13 1     
   24   12   29 1     
   25   13   14 1     
   26   13   30 1     
   27   13   31 1     
   28   14   18 1     
   29   14   15 1     
   30   14   32 1     
   31   15   16 1     
   32   15   33 1     
   33   15   34 1     
   34   16   17 1     
   35   16   35 1     
   36   16   36 1     
   37   17   18 1     
   38   17   37 1     
   39   18   38 1     
   40   18   39 1     
   41   19   20 2     
   42   19   40 1     
   43    3   41 1     
   44    3   42 1     
   45   10   43 1     
   46   10   44 1     
   47   20   45 1     
@<TRIPOS>SUBSTRUCTURE
      1 S1             1
@<TRIPOS>SET
LONE_PAIRS      STATIC     ATOMS    <user>   **** ""
5 41 42 43 44 45
DONOR_HYDROGENS      STATIC     ATOMS    <user>   **** ""
3 21 22 26
ATOM$BLUE        STATIC     ATOMS    COLORGROUP SYSTEM
5 41 42 43 44 45
ATOM$RED        STATIC     ATOMS    COLORGROUP SYSTEM
3 21 22 26
