AV-unprocessed.smi:1703|AV-procd|sdf|6860|dock2
  -GOLD-   22720 8 43D 1   1.00000     0.00000
 Structure written by MMmdl.
 49 51  0  0  0  0  0  0  0  0  2 V2000
  146.6907  138.4527  152.9987 C   0  0  0  0  0  0  0  0  0  0  0  0
  146.9683  139.5922  153.9848 C   0  0  1  0  0  0  0  0  0  0  0  0
  148.4796  139.8134  154.2037 C   0  0  0  0  0  0  0  0  0  0  0  0
  148.7322  140.9725  155.0936 N   0  3  2  0  0  0  0  0  0  0  0  0
  148.5030  140.6776  156.5330 C   0  0  0  0  0  0  0  0  0  0  0  0
  149.3332  141.5937  157.4612 C   0  0  2  0  0  0  0  0  0  0  0  0
  148.6400  142.8113  157.6430 O   0  0  0  0  0  0  0  0  0  0  0  0
  150.7433  141.9129  156.9246 C   0  0  0  0  0  0  0  0  0  0  0  0
  151.7916  141.2784  157.7149 N   0  0  0  0  0  0  0  0  0  0  0  0
  152.4355  140.1054  157.4829 C   0  0  0  0  0  0  0  0  0  0  0  0
  152.1419  139.2487  156.2893 C   0  0  0  0  0  0  0  0  0  0  0  0
  153.2076  139.2177  155.3646 O   0  0  0  0  0  0  0  0  0  0  0  0
  153.3398  139.7504  158.3956 N   0  0  0  0  0  0  0  0  0  0  0  0
  153.2880  140.7935  159.2987 C   0  0  0  0  0  0  0  0  0  0  0  0
  154.0053  141.0064  160.4975 C   0  0  0  0  0  0  0  0  0  0  0  0
  153.7775  142.1643  161.2696 C   0  0  0  0  0  0  0  0  0  0  0  0
  152.8328  143.1247  160.8541 C   0  0  0  0  0  0  0  0  0  0  0  0
  152.1064  142.9311  159.6635 C   0  0  0  0  0  0  0  0  0  0  0  0
  152.3343  141.7715  158.8981 C   0  0  0  0  0  0  0  0  0  0  0  0
  148.0215  142.1763  154.5872 C   0  0  0  0  0  0  0  0  0  0  0  0
  146.5236  141.8954  154.3373 C   0  0  1  0  0  0  0  0  0  0  0  0
  145.8131  143.0962  153.7036 C   0  0  0  0  0  0  0  0  0  0  0  0
  146.3982  140.7849  153.4554 O   0  0  0  0  0  0  0  0  0  0  0  0
  147.0996  137.5100  153.3630 H   0  0  0  0  0  0  0  0  0  0  0  0
  147.1353  138.6560  152.0238 H   0  0  0  0  0  0  0  0  0  0  0  0
  145.6189  138.3152  152.8535 H   0  0  0  0  0  0  0  0  0  0  0  0
  146.4832  139.3510  154.9321 H   0  0  0  0  0  0  0  0  0  0  0  0
  148.9527  138.9155  154.6036 H   0  0  0  0  0  0  0  0  0  0  0  0
  148.9613  140.0097  153.2448 H   0  0  0  0  0  0  0  0  0  0  0  0
  147.4383  140.7642  156.7403 H   0  0  0  0  0  0  0  0  0  0  0  0
  148.7570  139.6395  156.7521 H   0  0  0  0  0  0  0  0  0  0  0  0
  149.4436  141.1391  158.4437 H   0  0  0  0  0  0  0  0  0  0  0  0
  148.6507  143.2925  156.8294 H   0  0  0  0  0  0  0  0  0  0  0  0
  150.8291  141.6081  155.8823 H   0  0  0  0  0  0  0  0  0  0  0  0
  150.9151  142.9901  156.9402 H   0  0  0  0  0  0  0  0  0  0  0  0
  151.9381  138.2287  156.6177 H   0  0  0  0  0  0  0  0  0  0  0  0
  151.2376  139.6046  155.7952 H   0  0  0  0  0  0  0  0  0  0  0  0
  153.2158  138.3724  154.9423 H   0  0  0  0  0  0  0  0  0  0  0  0
  154.7329  140.2779  160.8235 H   0  0  0  0  0  0  0  0  0  0  0  0
  154.3327  142.3178  162.1835 H   0  0  0  0  0  0  0  0  0  0  0  0
  152.6674  144.0109  161.4492 H   0  0  0  0  0  0  0  0  0  0  0  0
  151.3846  143.6676  159.3435 H   0  0  0  0  0  0  0  0  0  0  0  0
  148.1395  143.0222  155.2632 H   0  0  0  0  0  0  0  0  0  0  0  0
  148.4936  142.4722  153.6493 H   0  0  0  0  0  0  0  0  0  0  0  0
  146.0166  141.6659  155.2754 H   0  0  0  0  0  0  0  0  0  0  0  0
  145.8704  143.9714  154.3513 H   0  0  0  0  0  0  0  0  0  0  0  0
  144.7584  142.8792  153.5330 H   0  0  0  0  0  0  0  0  0  0  0  0
  146.2587  143.3594  152.7439 H   0  0  0  0  0  0  0  0  0  0  0  0
  149.7213  141.1661  155.0221 H   0  0  0  0  0  0  0  0  0  0  0  0
  1  2  1  0  0  0  0
  1 24  1  0  0  0  0
  1 25  1  0  0  0  0
  1 26  1  0  0  0  0
  2 23  1  0  0  0  0
  2  3  1  0  0  0  0
  2 27  1  0  0  0  0
  3  4  1  0  0  0  0
  3 28  1  0  0  0  0
  3 29  1  0  0  0  0
  4  5  1  0  0  0  0
  4 20  1  0  0  0  0
  4 49  1  0  0  0  0
  5  6  1  0  0  0  0
  5 30  1  0  0  0  0
  5 31  1  0  0  0  0
  6  7  1  0  0  0  0
  6  8  1  0  0  0  0
  6 32  1  0  0  0  0
  7 33  1  0  0  0  0
  8  9  1  0  0  0  0
  8 34  1  0  0  0  0
  8 35  1  0  0  0  0
  9 19  1  0  0  0  0
  9 10  1  0  0  0  0
 10 11  1  0  0  0  0
 10 13  2  0  0  0  0
 11 12  1  0  0  0  0
 11 36  1  0  0  0  0
 11 37  1  0  0  0  0
 12 38  1  0  0  0  0
 13 14  1  0  0  0  0
 14 19  2  0  0  0  0
 14 15  1  0  0  0  0
 15 16  2  0  0  0  0
 15 39  1  0  0  0  0
 16 17  1  0  0  0  0
 16 40  1  0  0  0  0
 17 18  2  0  0  0  0
 17 41  1  0  0  0  0
 18 19  1  0  0  0  0
 18 42  1  0  0  0  0
 20 21  1  0  0  0  0
 20 43  1  0  0  0  0
 20 44  1  0  0  0  0
 21 22  1  0  0  0  0
 21 23  1  0  0  0  0
 21 45  1  0  0  0  0
 22 46  1  0  0  0  0
 22 47  1  0  0  0  0
 22 48  1  0  0  0  0
M  CHG  1   4   1
M  END
> <s_m_source_file>
AV-unprocessed.smi

> <i_m_source_file_index>
1703

> <i_lp_mmshare_version>
43012

> <i_f3d_flags>
0

> <s_epik_input>
W0NIM11bQ0BASF0xW0NIMl1OKFtDSDJdW0NASF0oTzEpW0NIM10pW0NIMl1bQ0BIXShbT0hdKVtDSDJdbihjKG4yKVtDSDJdW09IXSljKGMyMylbY0hdW2NIXVtjSF1bY0hdMw==

> <s_epik_cmdline>
J2VwaWtfcHl0aG9uJywgJy1waCcsICc3LjAnLCAnLXRuJywgJzgnLCAnLW1hJywgJzIwMCcsICctbWV0YWxfYmluZGluZycsICctaW1hZScsICc8aW5maWxlLm1hZT4nLCAnLW9tYWUnLCAnPG91dGZpbGUubWFlPic=

> <r_epik_Ionization_Penalty>
0.655661

> <r_epik_Ionization_Penalty_Charging>
0.608065

> <r_epik_Ionization_Penalty_Neutral>
0.0475963

> <r_epik_State_Penalty>
0.695267

> <r_epik_Charging_Adjusted_Penalty>
1.30333

> <i_epik_Tot_Q>
1

> <i_epik_Tot_abs_Q>
1

> <r_epik_Metal_State_Penalty>
0.653591

> <b_epik_Metal_Only>
0

> <s_lp_Force_Field>
OPLS_2005

> <r_lp_Energy>
23.3655

> <b_lp_Chiralities_Consistent>
1

> <s_lp_Variant>
AV-unprocessed.smi:1703-8

> <Gold.Version>
5.8.1

> <Gold.Id.Protein>
6NUR|6NUR_protein|mol2

> <Gold.PLP.Fitness>
48.1869

> <Gold.PLP.PLP>
-43.2512

> <Gold.PLP.part.hbond>
-3.1018

> <Gold.PLP.part.metal>
0.0000

> <Gold.PLP.part.buried>
-0.2084

> <Gold.PLP.part.nonpolar>
-41.0746

> <Gold.PLP.part.repulsive>
1.4669

> <Gold.PLP.ligand.clash>
0.0000

> <Gold.PLP.ligand.torsion>
1.5983

> <Gold.PLP.Chemscore.Hbond>
2.6800

> <Gold.PLP.Chemscore.CHOScore>
0.0000

> <Gold.PLP.Chemscore.Metal>
0.0000

> <Gold.Chemscore.Hbonds>
donor molecule, donor type, donor heavy atom, donor atom, acceptor molecule, acceptor atom, score
      L1  H     7    33       P1  8028  1.00
      P1  H  7997  8008       L1    13  0.71
      P1  H  7997  8009       L1    12  0.82

> <Gold.PLP.Chemscore.Internal.Correction>
0.0923

> <Gold.Rescore>
     Score         DG    S(hbond)    S(metal)    S(lipo)     H(rot)  DE(clash)    DE(int)     intcor
     14.46     -16.89       1.50        0.00     119.54       2.96       0.80       1.64       ----

> <Gold.Chemscore.Fitness>
14.4584

> <Gold.Chemscore.DG>
-16.8936

> <Gold.Chemscore.ZeroCoef>
-5.4800

> <Gold.Chemscore.Hbond>
1.4995

> <Gold.Chemscore.Metal>
0.0000

> <Gold.Chemscore.Lipo>
119.5362

> <Gold.Chemscore.Internal_Hbond>
0.0000

> <Gold.Chemscore.DEClash>
0.8001

> <Gold.Chemscore.DEInternal>
1.6351

> <Gold.Chemscore.Rot>
2.9611

> <Gold.Chemscore.Internal.Correction>
   9.000000E+99

> <Gold.Chemscore.Hbonds>
donor molecule, donor type, donor heavy atom, donor atom, acceptor molecule, acceptor atom, score
      L1  H     7    33       P1  8028  0.55
      P1  H  7997  8008       L1    13  0.08
      P1  H  7997  8009       L1    12  0.79

> <Gold.Chemscore.Hbond.Weighted>
-5.0083

> <Gold.Chemscore.Metal.Weighted>
-0.0000

> <Gold.Chemscore.Lipo.Weighted>
-13.9857

> <Gold.Chemscore.Internal_Hbond.Weighted>
0.0000

> <Gold.Chemscore.DEClash.Weighted>
0.8001

> <Gold.Chemscore.DEInternal.Weighted>
1.6351

> <Gold.Chemscore.Rot.Weighted>
7.5803

> <Gold.Chemscore.Internal.Correction.Weighted>
   9.000000E+99

> <Gold.Protein.RotatedTorsions>
[ 6907 6896 6895 6894 ] final   53.52 input  -60.11 | X-H torsion
[ 7974 7965 7964 7962 ] final   48.35 input  175.53 | X-H torsion
[ 8008 7997 7996 7995 ] final -116.69 input   59.86 | X-H torsion
[ 10167 10162 10161 10158 ] final  -10.82 input  -65.29 | X-H torsion
[ 10718 10713 10712 10709 ] final   43.14 input   66.30 | X-H torsion
[ 10763 10752 10751 10750 ] final -131.95 input  -60.55 | X-H torsion
[ 11005 11000 10999 10996 ] final   25.56 input  -57.11 | X-H torsion

> <Gold.Protein.ActiveResidues>
 VAL166  LYS551  ARG553  GLY616  TRP617  ASP618  TYR619  PRO620  LYS621  CYS622 
 ASP623  PHE694  ASN695  SER759  ASP760  ASP761  ALA762  ILE779  LEU786  VAL792 
 PHE793  MET794  SER795  GLU796  ALA797  LYS798  CYS799  TRP800  GLU811  SER814 

> <Gold.Protein.RotatedAtoms>
  152.3346  134.7215  160.0280 H   0  0  0  0  0  0  0  0  0  0  0  0  # atno 6907 bound_to 6896
  151.7620  133.3329  159.3428 H   0  0  0  0  0  0  0  0  0  0  0  0  # atno 6908 bound_to 6896
  150.7443  134.6029  159.6090 H   0  0  0  0  0  0  0  0  0  0  0  0  # atno 6909 bound_to 6896
  146.0212  139.4653  142.9896 H   0  0  0  0  0  0  0  0  0  0  0  0  # atno 7974 bound_to 7965
  155.0719  140.0393  157.2611 H   0  0  0  0  0  0  0  0  0  0  0  0  # atno 8008 bound_to 7997
  154.6976  140.2666  155.6727 H   0  0  0  0  0  0  0  0  0  0  0  0  # atno 8009 bound_to 7997
  156.2749  140.2747  156.1575 H   0  0  0  0  0  0  0  0  0  0  0  0  # atno 8010 bound_to 7997
  140.7123  143.5707  150.9096 H   0  0  0  0  0  0  0  0  0  0  0  0  # atno 10167 bound_to 10162
  157.4126  130.7923  149.7444 H   0  0  0  0  0  0  0  0  0  0  0  0  # atno 10718 bound_to 10713
  154.8747  135.3813  154.4330 H   0  0  0  0  0  0  0  0  0  0  0  0  # atno 10763 bound_to 10752
  153.5022  135.7030  153.5831 H   0  0  0  0  0  0  0  0  0  0  0  0  # atno 10764 bound_to 10752
  153.4157  135.3914  155.2045 H   0  0  0  0  0  0  0  0  0  0  0  0  # atno 10765 bound_to 10752
  140.3465  134.2275  155.7684 H   0  0  0  0  0  0  0  0  0  0  0  0  # atno 11005 bound_to 11000
  145.7190  141.0081  143.1413 LP  0  0  0  0  0  0  0  0  0  0  0  0  # atno 17320 bound_to 7965
  144.6991  139.8847  143.7449 LP  0  0  0  0  0  0  0  0  0  0  0  0  # atno 17321 bound_to 7965
  139.9433  143.6357  152.3048 LP  0  0  0  0  0  0  0  0  0  0  0  0  # atno 17342 bound_to 10162
  139.6849  144.7652  151.1542 LP  0  0  0  0  0  0  0  0  0  0  0  0  # atno 17343 bound_to 10162
  155.9855  130.3982  150.3257 LP  0  0  0  0  0  0  0  0  0  0  0  0  # atno 17370 bound_to 10713
  157.1396  131.0293  151.2933 LP  0  0  0  0  0  0  0  0  0  0  0  0  # atno 17371 bound_to 10713
  141.2024  133.7939  157.0393 LP  0  0  0  0  0  0  0  0  0  0  0  0  # atno 17394 bound_to 11000
  140.0738  134.9687  157.1511 LP  0  0  0  0  0  0  0  0  0  0  0  0  # atno 17395 bound_to 11000

$$$$
