AV-unprocessed.smi:1703|AV-procd|sdf|6861|dock9
  -GOLD-   22720 8 53D 1   1.00000     0.00000
 Structure written by MMmdl.
 49 51  0  0  0  0  0  0  0  0  2 V2000
  146.7329  143.0271  154.0817 C   0  0  0  0  0  0  0  0  0  0  0  0
  147.1023  141.5768  154.4113 C   0  0  2  0  0  0  0  0  0  0  0  0
  148.5494  141.4501  154.9212 C   0  0  0  0  0  0  0  0  0  0  0  0
  148.8910  140.0253  155.1453 N   0  3  2  0  0  0  0  0  0  0  0  0
  150.2330  139.8180  155.7467 C   0  0  0  0  0  0  0  0  0  0  0  0
  150.3932  140.5584  157.0889 C   0  0  1  0  0  0  0  0  0  0  0  0
  150.2690  139.6205  158.1414 O   0  0  0  0  0  0  0  0  0  0  0  0
  151.7561  141.2725  157.1916 C   0  0  0  0  0  0  0  0  0  0  0  0
  152.2708  141.3109  158.5545 N   0  0  0  0  0  0  0  0  0  0  0  0
  152.9737  140.3543  159.2124 C   0  0  0  0  0  0  0  0  0  0  0  0
  153.3237  139.0416  158.5815 C   0  0  0  0  0  0  0  0  0  0  0  0
  154.7120  138.7871  158.5878 O   0  0  0  0  0  0  0  0  0  0  0  0
  153.3310  140.6523  160.4618 N   0  0  0  0  0  0  0  0  0  0  0  0
  152.8067  141.9182  160.6346 C   0  0  0  0  0  0  0  0  0  0  0  0
  152.8463  142.7837  161.7511 C   0  0  0  0  0  0  0  0  0  0  0  0
  152.2307  144.0511  161.6940 C   0  0  0  0  0  0  0  0  0  0  0  0
  151.5668  144.4700  160.5230 C   0  0  0  0  0  0  0  0  0  0  0  0
  151.5152  143.6229  159.3992 C   0  0  0  0  0  0  0  0  0  0  0  0
  152.1332  142.3592  159.4603 C   0  0  0  0  0  0  0  0  0  0  0  0
  148.6944  139.2483  153.8991 C   0  0  0  0  0  0  0  0  0  0  0  0
  147.2592  139.4178  153.3630 C   0  0  1  0  0  0  0  0  0  0  0  0
  146.2020  138.6628  154.1887 C   0  0  0  0  0  0  0  0  0  0  0  0
  146.9474  140.8041  153.2233 O   0  0  0  0  0  0  0  0  0  0  0  0
  146.8249  143.6655  154.9609 H   0  0  0  0  0  0  0  0  0  0  0  0
  145.7036  143.0957  153.7284 H   0  0  0  0  0  0  0  0  0  0  0  0
  147.3796  143.4330  153.3033 H   0  0  0  0  0  0  0  0  0  0  0  0
  146.4122  141.2197  155.1758 H   0  0  0  0  0  0  0  0  0  0  0  0
  149.2443  141.8834  154.2000 H   0  0  0  0  0  0  0  0  0  0  0  0
  148.6567  142.0170  155.8453 H   0  0  0  0  0  0  0  0  0  0  0  0
  150.4001  138.7530  155.9172 H   0  0  0  0  0  0  0  0  0  0  0  0
  150.9995  140.1354  155.0380 H   0  0  0  0  0  0  0  0  0  0  0  0
  149.6016  141.2973  157.2058 H   0  0  0  0  0  0  0  0  0  0  0  0
  150.5801  138.7810  157.8380 H   0  0  0  0  0  0  0  0  0  0  0  0
  152.4925  140.7764  156.5578 H   0  0  0  0  0  0  0  0  0  0  0  0
  151.6784  142.2924  156.8150 H   0  0  0  0  0  0  0  0  0  0  0  0
  152.8044  138.2327  159.0944 H   0  0  0  0  0  0  0  0  0  0  0  0
  152.9736  139.0335  157.5487 H   0  0  0  0  0  0  0  0  0  0  0  0
  154.8553  137.9090  158.9059 H   0  0  0  0  0  0  0  0  0  0  0  0
  153.3521  142.4720  162.6530 H   0  0  0  0  0  0  0  0  0  0  0  0
  152.2680  144.7047  162.5533 H   0  0  0  0  0  0  0  0  0  0  0  0
  151.0980  145.4425  160.4878 H   0  0  0  0  0  0  0  0  0  0  0  0
  151.0082  143.9430  158.5017 H   0  0  0  0  0  0  0  0  0  0  0  0
  149.4111  139.5899  153.1505 H   0  0  0  0  0  0  0  0  0  0  0  0
  148.9012  138.1918  154.0756 H   0  0  0  0  0  0  0  0  0  0  0  0
  147.2293  138.9990  152.3566 H   0  0  0  0  0  0  0  0  0  0  0  0
  146.3914  137.5894  154.1692 H   0  0  0  0  0  0  0  0  0  0  0  0
  145.2029  138.8271  153.7843 H   0  0  0  0  0  0  0  0  0  0  0  0
  146.1944  138.9695  155.2343 H   0  0  0  0  0  0  0  0  0  0  0  0
  148.2251  139.6615  155.8126 H   0  0  0  0  0  0  0  0  0  0  0  0
  1  2  1  0  0  0  0
  1 24  1  0  0  0  0
  1 25  1  0  0  0  0
  1 26  1  0  0  0  0
  2 23  1  0  0  0  0
  2  3  1  0  0  0  0
  2 27  1  0  0  0  0
  3  4  1  0  0  0  0
  3 28  1  0  0  0  0
  3 29  1  0  0  0  0
  4  5  1  0  0  0  0
  4 20  1  0  0  0  0
  4 49  1  0  0  0  0
  5  6  1  0  0  0  0
  5 30  1  0  0  0  0
  5 31  1  0  0  0  0
  6  7  1  0  0  0  0
  6  8  1  0  0  0  0
  6 32  1  0  0  0  0
  7 33  1  0  0  0  0
  8  9  1  0  0  0  0
  8 34  1  0  0  0  0
  8 35  1  0  0  0  0
  9 19  1  0  0  0  0
  9 10  1  0  0  0  0
 10 11  1  0  0  0  0
 10 13  2  0  0  0  0
 11 12  1  0  0  0  0
 11 36  1  0  0  0  0
 11 37  1  0  0  0  0
 12 38  1  0  0  0  0
 13 14  1  0  0  0  0
 14 19  2  0  0  0  0
 14 15  1  0  0  0  0
 15 16  2  0  0  0  0
 15 39  1  0  0  0  0
 16 17  1  0  0  0  0
 16 40  1  0  0  0  0
 17 18  2  0  0  0  0
 17 41  1  0  0  0  0
 18 19  1  0  0  0  0
 18 42  1  0  0  0  0
 20 21  1  0  0  0  0
 20 43  1  0  0  0  0
 20 44  1  0  0  0  0
 21 22  1  0  0  0  0
 21 23  1  0  0  0  0
 21 45  1  0  0  0  0
 22 46  1  0  0  0  0
 22 47  1  0  0  0  0
 22 48  1  0  0  0  0
M  CHG  1   4   1
M  END
> <s_m_source_file>
AV-unprocessed.smi

> <i_m_source_file_index>
1703

> <i_lp_mmshare_version>
43012

> <i_f3d_flags>
0

> <s_epik_input>
W0NIM11bQ0BASF0xW0NIMl1OKFtDSDJdW0NASF0oTzEpW0NIM10pW0NIMl1bQ0BIXShbT0hdKVtDSDJdbihjKG4yKVtDSDJdW09IXSljKGMyMylbY0hdW2NIXVtjSF1bY0hdMw==

> <s_epik_cmdline>
J2VwaWtfcHl0aG9uJywgJy1waCcsICc3LjAnLCAnLXRuJywgJzgnLCAnLW1hJywgJzIwMCcsICctbWV0YWxfYmluZGluZycsICctaW1hZScsICc8aW5maWxlLm1hZT4nLCAnLW9tYWUnLCAnPG91dGZpbGUubWFlPic=

> <r_epik_Ionization_Penalty>
0.655661

> <r_epik_Ionization_Penalty_Charging>
0.608065

> <r_epik_Ionization_Penalty_Neutral>
0.0475963

> <r_epik_State_Penalty>
0.695267

> <r_epik_Charging_Adjusted_Penalty>
1.30333

> <i_epik_Tot_Q>
1

> <i_epik_Tot_abs_Q>
1

> <r_epik_Metal_State_Penalty>
0.653591

> <b_epik_Metal_Only>
0

> <s_lp_Force_Field>
OPLS_2005

> <r_lp_Energy>
24.4185

> <b_lp_Chiralities_Consistent>
1

> <s_lp_Variant>
AV-unprocessed.smi:1703-9

> <Gold.Version>
5.8.1

> <Gold.Id.Protein>
6NUR|6NUR_protein|mol2

> <Gold.PLP.Fitness>
44.0762

> <Gold.PLP.PLP>
-43.8567

> <Gold.PLP.part.hbond>
-1.0000

> <Gold.PLP.part.metal>
0.0000

> <Gold.PLP.part.buried>
-5.3219

> <Gold.PLP.part.nonpolar>
-37.4428

> <Gold.PLP.part.repulsive>
0.2346

> <Gold.PLP.ligand.clash>
0.0000

> <Gold.PLP.ligand.torsion>
1.4064

> <Gold.PLP.Chemscore.Hbond>
1.0000

> <Gold.PLP.Chemscore.CHOScore>
0.0000

> <Gold.PLP.Chemscore.Metal>
0.0000

> <Gold.Chemscore.Hbonds>
donor molecule, donor type, donor heavy atom, donor atom, acceptor molecule, acceptor atom, score
      P1  H  7997  8010       L1    12  1.00

> <Gold.PLP.Chemscore.Internal.Correction>
0.0322

> <Gold.Rescore>
     Score         DG    S(hbond)    S(metal)    S(lipo)     H(rot)  DE(clash)    DE(int)     intcor
     11.54     -14.21       0.75        0.00     117.99       2.96       0.06       2.61       ----

> <Gold.Chemscore.Fitness>
11.5420

> <Gold.Chemscore.DG>
-14.2131

> <Gold.Chemscore.ZeroCoef>
-5.4800

> <Gold.Chemscore.Hbond>
0.7509

> <Gold.Chemscore.Metal>
0.0000

> <Gold.Chemscore.Lipo>
117.9947

> <Gold.Chemscore.Internal_Hbond>
0.0000

> <Gold.Chemscore.DEClash>
0.0596

> <Gold.Chemscore.DEInternal>
2.6115

> <Gold.Chemscore.Rot>
2.9611

> <Gold.Chemscore.Internal.Correction>
   9.000000E+99

> <Gold.Chemscore.Hbonds>
donor molecule, donor type, donor heavy atom, donor atom, acceptor molecule, acceptor atom, score
      P1  H  7997  8010       L1    12  0.29

> <Gold.Chemscore.Hbond.Weighted>
-2.5081

> <Gold.Chemscore.Metal.Weighted>
-0.0000

> <Gold.Chemscore.Lipo.Weighted>
-13.8054

> <Gold.Chemscore.Internal_Hbond.Weighted>
0.0000

> <Gold.Chemscore.DEClash.Weighted>
0.0596

> <Gold.Chemscore.DEInternal.Weighted>
2.6115

> <Gold.Chemscore.Rot.Weighted>
7.5803

> <Gold.Chemscore.Internal.Correction.Weighted>
   9.000000E+99

> <Gold.Protein.RotatedTorsions>
[ 6907 6896 6895 6894 ] final   79.16 input  -60.11 | X-H torsion
[ 7974 7965 7964 7962 ] final   80.87 input  175.53 | X-H torsion
[ 8008 7997 7996 7995 ] final  -12.52 input   59.86 | X-H torsion
[ 10167 10162 10161 10158 ] final  129.08 input  -65.29 | X-H torsion
[ 10718 10713 10712 10709 ] final  -87.63 input   66.30 | X-H torsion
[ 10763 10752 10751 10750 ] final  -14.13 input  -60.55 | X-H torsion
[ 11005 11000 10999 10996 ] final -104.47 input  -57.11 | X-H torsion

> <Gold.Protein.ActiveResidues>
 VAL166  LYS551  ARG553  GLY616  TRP617  ASP618  TYR619  PRO620  LYS621  CYS622 
 ASP623  PHE694  ASN695  SER759  ASP760  ASP761  ALA762  ILE779  LEU786  VAL792 
 PHE793  MET794  SER795  GLU796  ALA797  LYS798  CYS799  TRP800  GLU811  SER814 

> <Gold.Protein.RotatedAtoms>
  152.5188  134.3553  159.9265 H   0  0  0  0  0  0  0  0  0  0  0  0  # atno 6907 bound_to 6896
  151.3505  133.3921  159.2687 H   0  0  0  0  0  0  0  0  0  0  0  0  # atno 6908 bound_to 6896
  150.9731  134.9119  159.7858 H   0  0  0  0  0  0  0  0  0  0  0  0  # atno 6909 bound_to 6896
  145.6455  139.2435  143.2006 H   0  0  0  0  0  0  0  0  0  0  0  0  # atno 7974 bound_to 7965
  154.5370  140.2274  155.8705 H   0  0  0  0  0  0  0  0  0  0  0  0  # atno 8008 bound_to 7997
  156.1821  140.3097  155.9131 H   0  0  0  0  0  0  0  0  0  0  0  0  # atno 8009 bound_to 7997
  155.3334  140.0446  157.3034 H   0  0  0  0  0  0  0  0  0  0  0  0  # atno 8010 bound_to 7997
  139.5495  144.6801  151.4367 H   0  0  0  0  0  0  0  0  0  0  0  0  # atno 10167 bound_to 10162
  155.9985  130.4807  150.4896 H   0  0  0  0  0  0  0  0  0  0  0  0  # atno 10718 bound_to 10713
  153.5236  135.7015  153.5719 H   0  0  0  0  0  0  0  0  0  0  0  0  # atno 10763 bound_to 10752
  153.3757  135.3933  155.1821 H   0  0  0  0  0  0  0  0  0  0  0  0  # atno 10764 bound_to 10752
  154.8692  135.3823  154.4727 H   0  0  0  0  0  0  0  0  0  0  0  0  # atno 10765 bound_to 10752
  141.1099  133.8726  157.1615 H   0  0  0  0  0  0  0  0  0  0  0  0  # atno 11005 bound_to 11000
  146.1246  140.7265  142.9441 LP  0  0  0  0  0  0  0  0  0  0  0  0  # atno 17320 bound_to 7965
  144.7141  140.4148  143.7057 LP  0  0  0  0  0  0  0  0  0  0  0  0  # atno 17321 bound_to 7965
  140.6754  143.8202  150.7051 LP  0  0  0  0  0  0  0  0  0  0  0  0  # atno 17342 bound_to 10162
  140.1639  143.4252  152.2048 LP  0  0  0  0  0  0  0  0  0  0  0  0  # atno 17343 bound_to 10162
  157.2892  131.0623  151.2145 LP  0  0  0  0  0  0  0  0  0  0  0  0  # atno 17370 bound_to 10713
  157.3164  130.6915  149.6244 LP  0  0  0  0  0  0  0  0  0  0  0  0  # atno 17371 bound_to 10713
  139.9987  135.0036  157.0141 LP  0  0  0  0  0  0  0  0  0  0  0  0  # atno 17394 bound_to 11000
  140.4804  134.1295  155.7216 LP  0  0  0  0  0  0  0  0  0  0  0  0  # atno 17395 bound_to 11000

$$$$
