AV-unprocessed.smi:133|AV-procd|sdf|1165|dock4
  -GOLD-   2262018303D 1   1.00000     0.00000
 Structure written by MMmdl.
 47 50  0  0  0  0  0  0  0  0  1 V2000
  153.5324  138.7351  156.8321 O   0  0  0  0  0  0  0  0  0  0  0  0
  152.5761  139.2117  156.2194 C   0  0  0  0  0  0  0  0  0  0  0  0
  152.1630  138.6454  154.8514 C   0  0  0  0  0  0  0  0  0  0  0  0
  150.7501  138.2103  154.7887 N   0  0  0  0  0  0  0  0  0  0  0  0
  149.7603  139.1654  154.4469 C   0  0  0  0  0  0  0  0  0  0  0  0
  150.0562  140.3404  154.2244 O   0  0  0  0  0  0  0  0  0  0  0  0
  148.3956  138.6574  154.3686 C   0  0  0  0  0  0  0  0  0  0  0  0
  147.3935  139.4886  154.0358 F   0  0  0  0  0  0  0  0  0  0  0  0
  148.1221  137.3611  154.6209 C   0  0  0  0  0  0  0  0  0  0  0  0
  149.0926  136.4446  154.9746 N   0  0  0  0  0  0  0  0  0  0  0  0
  148.7009  135.0010  155.1899 C   0  0  2  0  0  0  0  0  0  0  0  0
  149.3325  134.0318  154.1726 C   0  0  0  0  0  0  0  0  0  0  0  0
  148.1211  133.3711  153.5348 C   0  0  0  0  0  0  0  0  0  0  0  0
  147.0249  133.6000  154.5698 C   0  0  0  0  0  0  0  0  0  0  0  0
  147.3156  134.8942  155.0740 O   0  0  0  0  0  0  0  0  0  0  0  0
  150.4461  136.8497  155.0351 C   0  0  0  0  0  0  0  0  0  0  0  0
  151.3403  136.0406  155.2876 O   0  0  0  0  0  0  0  0  0  0  0  0
  151.8374  140.2506  156.6498 N   0  0  0  0  0  0  0  0  0  0  0  0
  151.9599  140.9846  157.8602 C   0  0  0  0  0  0  0  0  0  0  0  0
  152.4309  140.4136  159.0757 C   0  0  0  0  0  0  0  0  0  0  0  0
  152.5107  141.1886  160.2537 C   0  0  0  0  0  0  0  0  0  0  0  0
  152.1043  142.5322  160.1974 C   0  0  0  0  0  0  0  0  0  0  0  0
  151.6296  143.0910  159.0183 C   0  0  0  0  0  0  0  0  0  0  0  0
  151.5420  142.3357  157.8364 C   0  0  0  0  0  0  0  0  0  0  0  0
  151.2477  144.5342  159.2039 C   0  0  0  0  0  0  0  0  0  0  0  0
  151.7405  144.8668  160.6332 C   0  0  0  0  0  0  0  0  0  0  0  0
  152.1018  143.5293  161.3238 C   0  0  0  0  0  0  0  0  0  0  0  0
  152.3724  139.3971  154.0887 H   0  0  0  0  0  0  0  0  0  0  0  0
  152.8355  137.8235  154.6009 H   0  0  0  0  0  0  0  0  0  0  0  0
  147.0953  137.0347  154.5426 H   0  0  0  0  0  0  0  0  0  0  0  0
  148.9941  134.7586  156.2124 H   0  0  0  0  0  0  0  0  0  0  0  0
  149.9714  134.5395  153.4494 H   0  0  0  0  0  0  0  0  0  0  0  0
  149.9365  133.3043  154.7159 H   0  0  0  0  0  0  0  0  0  0  0  0
  147.8638  133.8765  152.6034 H   0  0  0  0  0  0  0  0  0  0  0  0
  148.2794  132.3156  153.3123 H   0  0  0  0  0  0  0  0  0  0  0  0
  146.0236  133.5499  154.1419 H   0  0  0  0  0  0  0  0  0  0  0  0
  147.0934  132.8695  155.3777 H   0  0  0  0  0  0  0  0  0  0  0  0
  151.1473  140.5992  156.0008 H   0  0  0  0  0  0  0  0  0  0  0  0
  152.7231  139.3762  159.1305 H   0  0  0  0  0  0  0  0  0  0  0  0
  152.8690  140.7558  161.1762 H   0  0  0  0  0  0  0  0  0  0  0  0
  151.1673  142.7854  156.9282 H   0  0  0  0  0  0  0  0  0  0  0  0
  151.7114  145.1706  158.4493 H   0  0  0  0  0  0  0  0  0  0  0  0
  150.1644  144.6326  159.1264 H   0  0  0  0  0  0  0  0  0  0  0  0
  152.6483  145.4659  160.5519 H   0  0  0  0  0  0  0  0  0  0  0  0
  151.0208  145.4563  161.2020 H   0  0  0  0  0  0  0  0  0  0  0  0
  151.3453  143.2455  162.0560 H   0  0  0  0  0  0  0  0  0  0  0  0
  153.0715  143.5710  161.8209 H   0  0  0  0  0  0  0  0  0  0  0  0
  1  2  2  0  0  0  0
  2  3  1  0  0  0  0
  2 18  1  0  0  0  0
  3  4  1  0  0  0  0
  3 28  1  0  0  0  0
  3 29  1  0  0  0  0
  4 16  1  0  0  0  0
  4  5  1  0  0  0  0
  5  6  2  0  0  0  0
  5  7  1  0  0  0  0
  7  8  1  0  0  0  0
  7  9  2  0  0  0  0
  9 10  1  0  0  0  0
  9 30  1  0  0  0  0
 10 11  1  0  0  0  0
 10 16  1  0  0  0  0
 11 15  1  0  0  0  0
 11 12  1  0  0  0  0
 11 31  1  0  0  0  0
 12 13  1  0  0  0  0
 12 32  1  0  0  0  0
 12 33  1  0  0  0  0
 13 14  1  0  0  0  0
 13 34  1  0  0  0  0
 13 35  1  0  0  0  0
 14 15  1  0  0  0  0
 14 36  1  0  0  0  0
 14 37  1  0  0  0  0
 16 17  2  0  0  0  0
 18 19  1  0  0  0  0
 18 38  1  0  0  0  0
 19 24  1  0  0  0  0
 19 20  2  0  0  0  0
 20 21  1  0  0  0  0
 20 39  1  0  0  0  0
 21 22  2  0  0  0  0
 21 40  1  0  0  0  0
 22 27  1  0  0  0  0
 22 23  1  0  0  0  0
 23 24  2  0  0  0  0
 23 25  1  0  0  0  0
 24 41  1  0  0  0  0
 25 26  1  0  0  0  0
 25 42  1  0  0  0  0
 25 43  1  0  0  0  0
 26 27  1  0  0  0  0
 26 44  1  0  0  0  0
 26 45  1  0  0  0  0
 27 46  1  0  0  0  0
 27 47  1  0  0  0  0
M  END
> <s_m_source_file>
AV-unprocessed.smi

> <i_m_source_file_index>
133

> <i_lp_mmshare_version>
43012

> <i_f3d_flags>
0

> <s_epik_input>
W0NIMl0xW0NIMl1bQ0gyXWMoYzEyKVtjSF1jKFtjSF1bY0hdMilbTkhdQyg9TylbQ0gyXW4zYyg9TyljKEYpW2NIXW4oYzM9TylbQ0BASF00W0NIMl1bQ0gyXVtDSDJdTzQ=

> <s_epik_cmdline>
J2VwaWtfcHl0aG9uJywgJy1waCcsICc3LjAnLCAnLXRuJywgJzgnLCAnLW1hJywgJzIwMCcsICctbWV0YWxfYmluZGluZycsICctaW1hZScsICc8aW5maWxlLm1hZT4nLCAnLW9tYWUnLCAnPG91dGZpbGUubWFlPic=

> <r_lp_tautomer_probability>
1

> <r_epik_Ionization_Penalty>
4.05675e-06

> <r_epik_Ionization_Penalty_Charging>
3.88729e-08

> <r_epik_Ionization_Penalty_Neutral>
4.01788e-06

> <r_epik_State_Penalty>
-0

> <r_epik_Charging_Adjusted_Penalty>
3.88729e-08

> <i_epik_Tot_Q>
0

> <i_epik_Tot_abs_Q>
0

> <r_epik_Metal_State_Penalty>
-0

> <b_epik_Metal_Only>
0

> <s_epik_Chemistry_Notes>
This compound contains an acetal/aminal-like group ( X-CH(R)-Y where X, Y are N, S, or O) that may be acid/base labile, releasing an aldehyde.

> <s_lp_Force_Field>
OPLS_2005

> <r_lp_Energy>
40.9248

> <b_lp_Chiralities_Consistent>
1

> <s_lp_Variant>
AV-unprocessed.smi:133-1

> <Gold.Version>
5.8.1

> <Gold.Id.Protein>
6NUR|6NUR_protein|mol2

> <Gold.PLP.Fitness>
56.5689

> <Gold.PLP.PLP>
-49.2340

> <Gold.PLP.part.hbond>
-2.6975

> <Gold.PLP.part.metal>
0.0000

> <Gold.PLP.part.buried>
-5.4415

> <Gold.PLP.part.nonpolar>
-41.8219

> <Gold.PLP.part.repulsive>
1.1131

> <Gold.PLP.ligand.clash>
0.0000

> <Gold.PLP.ligand.torsion>
0.5825

> <Gold.PLP.Chemscore.Hbond>
2.8240

> <Gold.PLP.Chemscore.CHOScore>
0.0000

> <Gold.PLP.Chemscore.Metal>
0.0000

> <Gold.Chemscore.Hbonds>
donor molecule, donor type, donor heavy atom, donor atom, acceptor molecule, acceptor atom, score
      P1  H  7989  7998       L1     6  0.88
      P1  H  7997  8008       L1     1  0.88
      P1  H 10752 10763       L1    17  1.00

> <Gold.PLP.Chemscore.Internal.Correction>
0.0278

> <Gold.Rescore>
     Score         DG    S(hbond)    S(metal)    S(lipo)     H(rot)  DE(clash)    DE(int)     intcor
     19.70     -22.73       2.50        0.00     110.72       1.59       0.71       2.32       ----

> <Gold.Chemscore.Fitness>
19.7045

> <Gold.Chemscore.DG>
-22.7342

> <Gold.Chemscore.ZeroCoef>
-5.4800

> <Gold.Chemscore.Hbond>
2.5035

> <Gold.Chemscore.Metal>
0.0000

> <Gold.Chemscore.Lipo>
110.7248

> <Gold.Chemscore.Internal_Hbond>
0.0000

> <Gold.Chemscore.DEClash>
0.7118

> <Gold.Chemscore.DEInternal>
2.3180

> <Gold.Chemscore.Rot>
1.5869

> <Gold.Chemscore.Internal.Correction>
   9.000000E+99

> <Gold.Chemscore.Hbonds>
donor molecule, donor type, donor heavy atom, donor atom, acceptor molecule, acceptor atom, score
      P1  H  7989  7998       L1     6  0.86
      P1  H  7997  8008       L1     1  0.19
      P1  H 10752 10763       L1    17  0.99

> <Gold.Chemscore.Hbond.Weighted>
-8.3618

> <Gold.Chemscore.Metal.Weighted>
-0.0000

> <Gold.Chemscore.Lipo.Weighted>
-12.9548

> <Gold.Chemscore.Internal_Hbond.Weighted>
0.0000

> <Gold.Chemscore.DEClash.Weighted>
0.7118

> <Gold.Chemscore.DEInternal.Weighted>
2.3180

> <Gold.Chemscore.Rot.Weighted>
4.0624

> <Gold.Chemscore.Internal.Correction.Weighted>
   9.000000E+99

> <Gold.Protein.RotatedTorsions>
[ 6907 6896 6895 6894 ] final  -89.60 input  -60.11 | X-H torsion
[ 7974 7965 7964 7962 ] final  116.44 input  175.53 | X-H torsion
[ 8008 7997 7996 7995 ] final  -73.65 input   59.86 | X-H torsion
[ 10167 10162 10161 10158 ] final  145.59 input  -65.29 | X-H torsion
[ 10718 10713 10712 10709 ] final -120.44 input   66.30 | X-H torsion
[ 10763 10752 10751 10750 ] final   80.67 input  -60.55 | X-H torsion
[ 11005 11000 10999 10996 ] final -103.82 input  -57.11 | X-H torsion

> <Gold.Protein.ActiveResidues>
 VAL166  LYS551  ARG553  GLY616  TRP617  ASP618  TYR619  PRO620  LYS621  CYS622 
 ASP623  PHE694  ASN695  SER759  ASP760  ASP761  ALA762  ILE779  LEU786  VAL792 
 PHE793  MET794  SER795  GLU796  ALA797  LYS798  CYS799  TRP800  GLU811  SER814 

> <Gold.Protein.RotatedAtoms>
  150.6875  134.2562  159.4530 H   0  0  0  0  0  0  0  0  0  0  0  0  # atno 6907 bound_to 6896
  152.0495  134.9660  160.0584 H   0  0  0  0  0  0  0  0  0  0  0  0  # atno 6908 bound_to 6896
  152.1129  133.4276  159.4676 H   0  0  0  0  0  0  0  0  0  0  0  0  # atno 6909 bound_to 6896
  145.1796  139.3057  143.4425 H   0  0  0  0  0  0  0  0  0  0  0  0  # atno 7974 bound_to 7965
  154.5265  140.0775  156.8267 H   0  0  0  0  0  0  0  0  0  0  0  0  # atno 8008 bound_to 7997
  155.3465  140.3410  155.4221 H   0  0  0  0  0  0  0  0  0  0  0  0  # atno 8009 bound_to 7997
  156.1736  140.1628  156.8389 H   0  0  0  0  0  0  0  0  0  0  0  0  # atno 8010 bound_to 7997
  139.4923  144.5890  151.6719 H   0  0  0  0  0  0  0  0  0  0  0  0  # atno 10167 bound_to 10162
  156.1258  130.6358  150.9541 H   0  0  0  0  0  0  0  0  0  0  0  0  # atno 10718 bound_to 10713
  153.1053  135.4794  154.8939 H   0  0  0  0  0  0  0  0  0  0  0  0  # atno 10763 bound_to 10752
  154.7423  135.3085  154.8709 H   0  0  0  0  0  0  0  0  0  0  0  0  # atno 10764 bound_to 10752
  153.9314  135.6844  153.4799 H   0  0  0  0  0  0  0  0  0  0  0  0  # atno 10765 bound_to 10752
  141.1128  133.8672  157.1534 H   0  0  0  0  0  0  0  0  0  0  0  0  # atno 11005 bound_to 11000
  146.3455  140.1970  142.8589 LP  0  0  0  0  0  0  0  0  0  0  0  0  # atno 17320 bound_to 7965
  145.0150  140.8746  143.5201 LP  0  0  0  0  0  0  0  0  0  0  0  0  # atno 17321 bound_to 7965
  140.5513  144.0421  150.6128 LP  0  0  0  0  0  0  0  0  0  0  0  0  # atno 17342 bound_to 10162
  140.3476  143.2982  152.0522 LP  0  0  0  0  0  0  0  0  0  0  0  0  # atno 17343 bound_to 10162
  157.6440  131.0906  150.8192 LP  0  0  0  0  0  0  0  0  0  0  0  0  # atno 17370 bound_to 10713
  156.8283  130.5007  149.5334 LP  0  0  0  0  0  0  0  0  0  0  0  0  # atno 17371 bound_to 10713
  140.0032  135.0019  157.0236 LP  0  0  0  0  0  0  0  0  0  0  0  0  # atno 17394 bound_to 11000
  140.4727  134.1369  155.7205 LP  0  0  0  0  0  0  0  0  0  0  0  0  # atno 17395 bound_to 11000

$$$$
