AV-unprocessed.smi:407|AV-procd|sdf|2501|dock3
  -GOLD-   2262022443D 1   1.00000     0.00000
 Structure written by MMmdl.
 45 47  0  0  0  0  0  0  0  0  1 V2000
  150.3567  133.0074  155.2471 C   0  0  0  0  0  0  0  0  0  0  0  0
  150.1140  133.7481  156.5612 C   0  0  0  0  0  0  0  0  0  0  0  0
  149.9926  133.0922  157.5954 O   0  0  0  0  0  0  0  0  0  0  0  0
  150.0333  135.2358  156.5164 C   0  0  0  0  0  0  0  0  0  0  0  0
  150.3436  135.9129  155.3161 C   0  0  0  0  0  0  0  0  0  0  0  0
  150.2762  137.3173  155.2475 C   0  0  0  0  0  0  0  0  0  0  0  0
  149.8987  138.0785  156.3708 C   0  0  0  0  0  0  0  0  0  0  0  0
  149.8627  139.4476  156.2163 O   0  0  0  0  0  0  0  0  0  0  0  0
  149.4033  140.2376  157.3054 C   0  0  0  0  0  0  0  0  0  0  0  0
  149.7322  141.7124  157.0197 C   0  0  2  0  0  0  0  0  0  0  0  0
  149.1294  142.0454  155.7846 O   0  0  0  0  0  0  0  0  0  0  0  0
  151.2503  141.9454  156.8796 C   0  0  0  0  0  0  0  0  0  0  0  0
  151.9372  141.8381  158.1664 N   0  0  0  0  0  0  0  0  0  0  0  0
  152.7028  140.8030  158.5871 C   0  0  0  0  0  0  0  0  0  0  0  0
  152.9482  139.7808  157.9470 O   0  0  0  0  0  0  0  0  0  0  0  0
  153.1473  141.0893  159.8330 N   0  0  0  0  0  0  0  0  0  0  0  0
  154.0027  140.2584  160.6714 C   0  0  0  0  0  0  0  0  0  0  0  0
  152.6568  142.3428  160.2195 C   0  0  0  0  0  0  0  0  0  0  0  0
  152.8333  143.0766  161.4050 C   0  0  0  0  0  0  0  0  0  0  0  0
  152.1881  144.3327  161.4891 C   0  0  0  0  0  0  0  0  0  0  0  0
  151.3989  144.8177  160.4139 C   0  0  0  0  0  0  0  0  0  0  0  0
  151.2392  144.0581  159.2311 C   0  0  0  0  0  0  0  0  0  0  0  0
  151.8929  142.8146  159.1726 C   0  0  0  0  0  0  0  0  0  0  0  0
  149.5826  137.4021  157.5745 C   0  0  0  0  0  0  0  0  0  0  0  0
  149.6493  135.9969  157.6450 C   0  0  0  0  0  0  0  0  0  0  0  0
  149.5704  133.2373  154.5279 H   0  0  0  0  0  0  0  0  0  0  0  0
  150.3618  131.9298  155.4123 H   0  0  0  0  0  0  0  0  0  0  0  0
  151.3191  133.2910  154.8204 H   0  0  0  0  0  0  0  0  0  0  0  0
  150.6389  135.3630  154.4339 H   0  0  0  0  0  0  0  0  0  0  0  0
  150.5195  137.8163  154.3209 H   0  0  0  0  0  0  0  0  0  0  0  0
  148.3219  140.1131  157.3815 H   0  0  0  0  0  0  0  0  0  0  0  0
  149.8430  139.9187  158.2524 H   0  0  0  0  0  0  0  0  0  0  0  0
  149.3249  142.3370  157.8161 H   0  0  0  0  0  0  0  0  0  0  0  0
  148.9147  142.9655  155.7949 H   0  0  0  0  0  0  0  0  0  0  0  0
  151.6781  141.1914  156.2172 H   0  0  0  0  0  0  0  0  0  0  0  0
  151.4587  142.9035  156.4023 H   0  0  0  0  0  0  0  0  0  0  0  0
  153.5861  140.1762  161.6757 H   0  0  0  0  0  0  0  0  0  0  0  0
  154.9963  140.7007  160.7478 H   0  0  0  0  0  0  0  0  0  0  0  0
  154.1096  139.2490  160.2720 H   0  0  0  0  0  0  0  0  0  0  0  0
  153.4345  142.6997  162.2193 H   0  0  0  0  0  0  0  0  0  0  0  0
  152.2967  144.9297  162.3826 H   0  0  0  0  0  0  0  0  0  0  0  0
  150.9139  145.7789  160.4997 H   0  0  0  0  0  0  0  0  0  0  0  0
  150.6379  144.4233  158.4119 H   0  0  0  0  0  0  0  0  0  0  0  0
  149.2845  137.9391  158.4621 H   0  0  0  0  0  0  0  0  0  0  0  0
  149.3993  135.5223  158.5820 H   0  0  0  0  0  0  0  0  0  0  0  0
  1  2  1  0  0  0  0
  1 26  1  0  0  0  0
  1 27  1  0  0  0  0
  1 28  1  0  0  0  0
  2  3  2  0  0  0  0
  2  4  1  0  0  0  0
  4 25  1  0  0  0  0
  4  5  2  0  0  0  0
  5  6  1  0  0  0  0
  5 29  1  0  0  0  0
  6  7  2  0  0  0  0
  6 30  1  0  0  0  0
  7  8  1  0  0  0  0
  7 24  1  0  0  0  0
  8  9  1  0  0  0  0
  9 10  1  0  0  0  0
  9 31  1  0  0  0  0
  9 32  1  0  0  0  0
 10 11  1  0  0  0  0
 10 12  1  0  0  0  0
 10 33  1  0  0  0  0
 11 34  1  0  0  0  0
 12 13  1  0  0  0  0
 12 35  1  0  0  0  0
 12 36  1  0  0  0  0
 13 23  1  0  0  0  0
 13 14  1  0  0  0  0
 14 15  2  0  0  0  0
 14 16  1  0  0  0  0
 16 17  1  0  0  0  0
 16 18  1  0  0  0  0
 17 37  1  0  0  0  0
 17 38  1  0  0  0  0
 17 39  1  0  0  0  0
 18 23  2  0  0  0  0
 18 19  1  0  0  0  0
 19 20  2  0  0  0  0
 19 40  1  0  0  0  0
 20 21  1  0  0  0  0
 20 41  1  0  0  0  0
 21 22  2  0  0  0  0
 21 42  1  0  0  0  0
 22 23  1  0  0  0  0
 22 43  1  0  0  0  0
 24 25  2  0  0  0  0
 24 44  1  0  0  0  0
 25 45  1  0  0  0  0
M  END
> <s_m_source_file>
AV-unprocessed.smi

> <i_m_source_file_index>
407

> <i_lp_mmshare_version>
43012

> <i_f3d_flags>
0

> <s_epik_input>
W0NIM11DKD1PKWMxW2NIXVtjSF1jKFtjSF1bY0hdMSlPW0NIMl1bQ0BIXShbT0hdKVtDSDJdbihjKD1PKW4yW0NIM10pYyhjMjMpW2NIXVtjSF1bY0hdW2NIXTM=

> <s_epik_cmdline>
J2VwaWtfcHl0aG9uJywgJy1waCcsICc3LjAnLCAnLXRuJywgJzgnLCAnLW1hJywgJzIwMCcsICctbWV0YWxfYmluZGluZycsICctaW1hZScsICc8aW5maWxlLm1hZT4nLCAnLW9tYWUnLCAnPG91dGZpbGUubWFlPic=

> <r_lp_tautomer_probability>
1

> <r_epik_Ionization_Penalty>
2.40123e-06

> <r_epik_Ionization_Penalty_Charging>
1.9356e-09

> <r_epik_Ionization_Penalty_Neutral>
2.3993e-06

> <r_epik_State_Penalty>
-0

> <r_epik_Charging_Adjusted_Penalty>
1.9356e-09

> <i_epik_Tot_Q>
0

> <i_epik_Tot_abs_Q>
0

> <r_epik_Metal_State_Penalty>
-0

> <b_epik_Metal_Only>
0

> <s_lp_Force_Field>
OPLS_2005

> <r_lp_Energy>
53.6429

> <b_lp_Chiralities_Consistent>
1

> <s_lp_Variant>
AV-unprocessed.smi:407-1

> <Gold.Version>
5.8.1

> <Gold.Id.Protein>
6NUR|6NUR_protein|mol2

> <Gold.PLP.Fitness>
53.9326

> <Gold.PLP.PLP>
-45.5234

> <Gold.PLP.part.hbond>
-3.0000

> <Gold.PLP.part.metal>
0.0000

> <Gold.PLP.part.buried>
-7.0727

> <Gold.PLP.part.nonpolar>
-35.0998

> <Gold.PLP.part.repulsive>
0.0000

> <Gold.PLP.ligand.clash>
0.0000

> <Gold.PLP.ligand.torsion>
0.3244

> <Gold.PLP.Chemscore.Hbond>
3.0000

> <Gold.PLP.Chemscore.CHOScore>
0.0000

> <Gold.PLP.Chemscore.Metal>
0.0000

> <Gold.Chemscore.Hbonds>
donor molecule, donor type, donor heavy atom, donor atom, acceptor molecule, acceptor atom, score
      L1  H    11    34       P1  8028  1.00
      P1  H  6896  6907       L1     3  1.00
      P1  H  7997  8009       L1    15  1.00

> <Gold.PLP.Chemscore.Internal.Correction>
0.0580

> <Gold.Rescore>
     Score         DG    S(hbond)    S(metal)    S(lipo)     H(rot)  DE(clash)    DE(int)     intcor
     22.64     -22.96       2.90        0.00     116.74       2.30       0.05       0.26       ----

> <Gold.Chemscore.Fitness>
22.6410

> <Gold.Chemscore.DG>
-22.9552

> <Gold.Chemscore.ZeroCoef>
-5.4800

> <Gold.Chemscore.Hbond>
2.9043

> <Gold.Chemscore.Metal>
0.0000

> <Gold.Chemscore.Lipo>
116.7430

> <Gold.Chemscore.Internal_Hbond>
0.0000

> <Gold.Chemscore.DEClash>
0.0528

> <Gold.Chemscore.DEInternal>
0.2614

> <Gold.Chemscore.Rot>
2.2984

> <Gold.Chemscore.Internal.Correction>
   9.000000E+99

> <Gold.Chemscore.Hbonds>
donor molecule, donor type, donor heavy atom, donor atom, acceptor molecule, acceptor atom, score
      L1  H    11    34       P1  8028  1.00
      P1  H  6896  6907       L1     3  0.89
      P1  H  7997  8009       L1    15  0.59

> <Gold.Chemscore.Hbond.Weighted>
-9.7002

> <Gold.Chemscore.Metal.Weighted>
-0.0000

> <Gold.Chemscore.Lipo.Weighted>
-13.6589

> <Gold.Chemscore.Internal_Hbond.Weighted>
0.0000

> <Gold.Chemscore.DEClash.Weighted>
0.0528

> <Gold.Chemscore.DEInternal.Weighted>
0.2614

> <Gold.Chemscore.Rot.Weighted>
5.8839

> <Gold.Chemscore.Internal.Correction.Weighted>
   9.000000E+99

> <Gold.Protein.RotatedTorsions>
[ 6907 6896 6895 6894 ] final -149.66 input  -60.11 | X-H torsion
[ 7974 7965 7964 7962 ] final  134.20 input  175.53 | X-H torsion
[ 8008 7997 7996 7995 ] final  150.92 input   59.86 | X-H torsion
[ 10167 10162 10161 10158 ] final   44.49 input  -65.29 | X-H torsion
[ 10718 10713 10712 10709 ] final   -2.02 input   66.30 | X-H torsion
[ 10763 10752 10751 10750 ] final   -0.91 input  -60.55 | X-H torsion
[ 11005 11000 10999 10996 ] final  159.20 input  -57.11 | X-H torsion

> <Gold.Protein.ActiveResidues>
 VAL166  LYS551  ARG553  GLY616  TRP617  ASP618  TYR619  PRO620  LYS621  CYS622 
 ASP623  PHE694  ASN695  SER759  ASP760  ASP761  ALA762  ILE779  LEU786  VAL792 
 PHE793  MET794  SER795  GLU796  ALA797  LYS798  CYS799  TRP800  GLU811  SER814 

> <Gold.Protein.RotatedAtoms>
  151.1873  133.4688  159.2594 H   0  0  0  0  0  0  0  0  0  0  0  0  # atno 6907 bound_to 6896
  151.1198  135.0073  159.8543 H   0  0  0  0  0  0  0  0  0  0  0  0  # atno 6908 bound_to 6896
  152.5455  134.1786  159.8679 H   0  0  0  0  0  0  0  0  0  0  0  0  # atno 6909 bound_to 6896
  144.9788  139.4527  143.5396 H   0  0  0  0  0  0  0  0  0  0  0  0  # atno 7974 bound_to 7965
  156.2696  140.2062  156.6093 H   0  0  0  0  0  0  0  0  0  0  0  0  # atno 8008 bound_to 7997
  154.6844  140.0536  157.0323 H   0  0  0  0  0  0  0  0  0  0  0  0  # atno 8009 bound_to 7997
  155.0955  140.3200  155.4564 H   0  0  0  0  0  0  0  0  0  0  0  0  # atno 8010 bound_to 7997
  140.3338  144.2556  150.6164 H   0  0  0  0  0  0  0  0  0  0  0  0  # atno 10167 bound_to 10162
  156.7969  130.5380  149.5727 H   0  0  0  0  0  0  0  0  0  0  0  0  # atno 10718 bound_to 10713
  153.3380  135.6979  153.6891 H   0  0  0  0  0  0  0  0  0  0  0  0  # atno 10763 bound_to 10752
  153.5667  135.3524  155.2822 H   0  0  0  0  0  0  0  0  0  0  0  0  # atno 10764 bound_to 10752
  154.8631  135.4262  154.2586 H   0  0  0  0  0  0  0  0  0  0  0  0  # atno 10765 bound_to 10752
  140.1939  134.8387  157.2943 H   0  0  0  0  0  0  0  0  0  0  0  0  # atno 11005 bound_to 11000
  146.3402  139.9047  142.8789 LP  0  0  0  0  0  0  0  0  0  0  0  0  # atno 17320 bound_to 7965
  145.2451  141.0024  143.3913 LP  0  0  0  0  0  0  0  0  0  0  0  0  # atno 17321 bound_to 7965
  140.5373  143.2230  151.8143 LP  0  0  0  0  0  0  0  0  0  0  0  0  # atno 17342 bound_to 10162
  139.4852  144.4645  151.9500 LP  0  0  0  0  0  0  0  0  0  0  0  0  # atno 17343 bound_to 10162
  156.1125  130.6050  151.0069 LP  0  0  0  0  0  0  0  0  0  0  0  0  # atno 17370 bound_to 10713
  157.6573  131.0887  150.7919 LP  0  0  0  0  0  0  0  0  0  0  0  0  # atno 17371 bound_to 10713
  140.2129  134.4116  155.7603 LP  0  0  0  0  0  0  0  0  0  0  0  0  # atno 17394 bound_to 11000
  141.2227  133.7127  156.8367 LP  0  0  0  0  0  0  0  0  0  0  0  0  # atno 17395 bound_to 11000

$$$$
