#       Name:                AV-unprocessed.smi:1230
#       Creating user name   scv26
#       Creation time:       Fri Mar 27 04:23:07 2020


#       File generated by GOLD software.
#

@<TRIPOS>MOLECULE
AV-unprocessed.smi:1230
    46    47     1
SMALL
NO_CHARGES


@<TRIPOS>ATOM
      1 ****        -0.9001   1.7711  -3.2098 C.3            1 S1                 0.0000
      2 ****        -1.8512   1.8141  -2.0034 C.3            1 S1                 0.0000
      3 ****        -3.0280   0.8302  -2.1636 C.3            1 S1                 0.0000
      4 ****        -3.9945   0.9079  -0.9708 C.3            1 S1                 0.0000
      5 ****        -3.2603   0.6821   0.3597 C.3            1 S1                 0.0000
      6 ****        -2.0877   1.6632   0.5212 C.3            1 S1                 0.0000
      7 ****        -1.1075   1.5814  -0.6690 C.3            1 S1                 0.0000
      8 ****        -0.4834   0.3023  -0.7194 O.3            1 S1                 0.0000
      9 ****         0.6235   0.1466   0.1547 C.3            1 S1                 0.0000
     10 ****         1.1927  -1.2670  -0.0372 C.3            1 S1                 0.0000
     11 ****         2.2987  -1.5517   0.8424 N.am           1 S1                 0.0000
     12 ****         2.1467  -2.2651   2.0217 C.2            1 S1                 0.0000
     13 ****         3.1788  -2.5241   2.8594 C.2            1 S1                 0.0000
     14 ****         3.0079  -3.2594   4.0689 C.1            1 S1                 0.0000
     15 ****         2.8447  -3.8589   5.0455 N.1            1 S1                 0.0000
     16 ****         4.5274  -2.0502   2.5526 C.2            1 S1                 0.0000
     17 ****         5.5272  -2.2345   3.2444 O.2            1 S1                 0.0000
     18 ****         4.6270  -1.3291   1.3582 N.am           1 S1                 0.0000
     19 ****         3.5733  -1.0517   0.4850 C.2            1 S1                 0.0000
     20 ****         3.7801  -0.3979  -0.5375 O.2            1 S1                 0.0000
     21 ****         5.5391  -0.9766   1.1063 H              1 S1                 0.0000
     22 ****        -0.4515   0.7847  -3.3308 H              1 S1                 0.0000
     23 ****        -0.0909   2.4929  -3.0972 H              1 S1                 0.0000
     24 ****        -1.4280   2.0095  -4.1333 H              1 S1                 0.0000
     25 ****        -2.2716   2.8204  -1.9699 H              1 S1                 0.0000
     26 ****        -3.5701   1.0446  -3.0851 H              1 S1                 0.0000
     27 ****        -2.6498  -0.1884  -2.2603 H              1 S1                 0.0000
     28 ****        -4.4799   1.8847  -0.9581 H              1 S1                 0.0000
     29 ****        -4.7889   0.1702  -1.0869 H              1 S1                 0.0000
     30 ****        -3.9560   0.7955   1.1915 H              1 S1                 0.0000
     31 ****        -2.8904  -0.3430   0.4049 H              1 S1                 0.0000
     32 ****        -2.4800   2.6786   0.5905 H              1 S1                 0.0000
     33 ****        -1.5751   1.4787   1.4645 H              1 S1                 0.0000
     34 ****        -0.3463   2.3567  -0.5636 H              1 S1                 0.0000
     35 ****         1.3812   0.8983  -0.0701 H              1 S1                 0.0000
     36 ****         0.3198   0.2847   1.1923 H              1 S1                 0.0000
     37 ****         0.4316  -2.0194   0.1754 H              1 S1                 0.0000
     38 ****         1.5263  -1.4497  -1.0611 H              1 S1                 0.0000
     39 ****         1.1653  -2.6310   2.2899 H              1 S1                 0.0000
     40 ****        -0.1655   0.1477  -1.6549 LP             1 S1                 0.0000
     41 ****        -1.1673  -0.3874  -0.4816 LP             1 S1                 0.0000
     42 ****         2.7037  -4.3768   5.8892 LP             1 S1                 0.0000
     43 ****         5.4559  -2.7483   4.0993 LP             1 S1                 0.0000
     44 ****         6.4116  -1.8706   2.9520 LP             1 S1                 0.0000
     45 ****         3.0265  -0.1966  -1.1633 LP             1 S1                 0.0000
     46 ****         4.7017  -0.0682  -0.7424 LP             1 S1                 0.0000
@<TRIPOS>BOND
    1    1    2 1     
    2    1   22 1     
    3    1   23 1     
    4    1   24 1     
    5    2    7 1     
    6    2    3 1     
    7    2   25 1     
    8    3    4 1     
    9    3   26 1     
   10    3   27 1     
   11    4    5 1     
   12    4   28 1     
   13    4   29 1     
   14    5    6 1     
   15    5   30 1     
   16    5   31 1     
   17    6    7 1     
   18    6   32 1     
   19    6   33 1     
   20    7    8 1     
   21    7   34 1     
   22    8    9 1     
   23    9   10 1     
   24    9   35 1     
   25    9   36 1     
   26   10   11 1     
   27   10   37 1     
   28   10   38 1     
   29   11   19 1     
   30   11   12 1     
   31   12   13 2     
   32   12   39 1     
   33   13   14 1     
   34   13   16 1     
   35   14   15 3     
   36   16   17 2     
   37   16   18 1     
   38   18   21 1     
   39   18   19 1     
   40   19   20 2     
   41    8   40 1     
   42    8   41 1     
   43   15   42 1     
   44   17   43 1     
   45   17   44 1     
   46   20   45 1     
   47   20   46 1     
@<TRIPOS>SUBSTRUCTURE
      1 S1             1
@<TRIPOS>SET
LONE_PAIRS      STATIC     ATOMS    <user>   **** ""
7 40 41 42 43 44 45 46
DONOR_HYDROGENS      STATIC     ATOMS    <user>   **** ""
1 21
ATOM$BLUE        STATIC     ATOMS    COLORGROUP SYSTEM
7 40 41 42 43 44 45 46
ATOM$RED        STATIC     ATOMS    COLORGROUP SYSTEM
1 21
