#       Name:                AV-unprocessed.smi:150
#       Creating user name   scv26
#       Creation time:       Thu Mar 26 18:46:19 2020


#       File generated by GOLD software.
#

@<TRIPOS>MOLECULE
AV-unprocessed.smi:150
    64    66     1
SMALL
NO_CHARGES


@<TRIPOS>ATOM
      1 ****        -6.1962  -0.1443  -0.0378 C.3            1 S1                 0.0000
      2 ****        -5.4051   0.7850   0.8958 C.3            1 S1                 0.0000
      3 ****        -5.9070   2.2323   0.7549 C.3            1 S1                 0.0000
      4 ****        -3.8890   0.6503   0.6305 C.3            1 S1                 0.0000
      5 ****        -2.9423   1.4415   1.5764 C.3            1 S1                 0.0000
      6 ****        -2.9623   0.9611   3.0487 C.3            1 S1                 0.0000
      7 ****        -4.0864   1.4648   3.7380 O.3            1 S1                 0.0000
      8 ****        -1.5730   1.5125   1.0423 N.pl3          1 S1                 0.0000
      9 ****        -0.7249   2.6173   1.4800 C.3            1 S1                 0.0000
     10 ****        -0.8849   0.4032   0.6596 C.ar           1 S1                 0.0000
     11 ****        -1.1283  -0.7945   1.2540 N.ar           1 S1                 0.0000
     12 ****        -0.4446  -1.8836   0.8920 C.ar           1 S1                 0.0000
     13 ****         0.5168  -1.9978  -0.0254 N.ar           1 S1                 0.0000
     14 ****         0.7739  -0.7994  -0.6224 C.ar           1 S1                 0.0000
     15 ****         0.1258   0.4377  -0.3437 C.ar           1 S1                 0.0000
     16 ****         0.6442   1.4358  -1.1608 N.2            1 S1                 0.0000
     17 ****         1.5482   0.8255  -1.8767 C.2            1 S1                 0.0000
     18 ****         1.6995  -0.5168  -1.6120 N.pl3          1 S1                 0.0000
     19 ****         2.6285  -1.4326  -2.2569 C.3            1 S1                 0.0000
     20 ****         4.0029  -1.5410  -1.5501 C.3            1 S1                 0.0000
     21 ****         3.7847  -2.0775  -0.2570 O.3            1 S1                 0.0000
     22 ****         4.9281  -2.5012  -2.3245 C.3            1 S1                 0.0000
     23 ****         6.3599  -2.5101  -1.7605 C.3            1 S1                 0.0000
     24 ****         6.8839  -1.1880  -1.7448 O.3            1 S1                 0.0000
     25 ****         6.1511  -0.3170  -0.8921 C.3            1 S1                 0.0000
     26 ****         4.7044  -0.1735  -1.3972 C.3            1 S1                 0.0000
     27 ****        -6.0467   0.1232  -1.0844 H              1 S1                 0.0000
     28 ****        -7.2657  -0.0928   0.1688 H              1 S1                 0.0000
     29 ****        -5.8896  -1.1831   0.0875 H              1 S1                 0.0000
     30 ****        -5.6138   0.4513   1.9115 H              1 S1                 0.0000
     31 ****        -5.6831   2.6351  -0.2333 H              1 S1                 0.0000
     32 ****        -5.4552   2.8912   1.4956 H              1 S1                 0.0000
     33 ****        -6.9864   2.2868   0.8981 H              1 S1                 0.0000
     34 ****        -3.6352  -0.4088   0.6617 H              1 S1                 0.0000
     35 ****        -3.6971   0.9671  -0.3957 H              1 S1                 0.0000
     36 ****        -3.2748   2.4793   1.5712 H              1 S1                 0.0000
     37 ****        -2.9599  -0.1270   3.1140 H              1 S1                 0.0000
     38 ****        -2.0791   1.3126   3.5828 H              1 S1                 0.0000
     39 ****        -4.0554   1.1536   4.6298 H              1 S1                 0.0000
     40 ****        -0.4771   3.2594   0.6348 H              1 S1                 0.0000
     41 ****         0.2047   2.2573   1.9236 H              1 S1                 0.0000
     42 ****        -1.2296   3.2315   2.2263 H              1 S1                 0.0000
     43 ****        -0.7043  -2.7932   1.4132 H              1 S1                 0.0000
     44 ****         2.1380   1.3428  -2.6194 H              1 S1                 0.0000
     45 ****         2.1555  -2.4138  -2.3193 H              1 S1                 0.0000
     46 ****         2.7654  -1.0981  -3.2862 H              1 S1                 0.0000
     47 ****         4.6192  -2.1653   0.1774 H              1 S1                 0.0000
     48 ****         4.5190  -3.5125  -2.3221 H              1 S1                 0.0000
     49 ****         4.9730  -2.1933  -3.3700 H              1 S1                 0.0000
     50 ****         6.3862  -2.9371  -0.7568 H              1 S1                 0.0000
     51 ****         7.0014  -3.1333  -2.3838 H              1 S1                 0.0000
     52 ****         6.1747  -0.6887   0.1333 H              1 S1                 0.0000
     53 ****         6.6396   0.6575  -0.8840 H              1 S1                 0.0000
     54 ****         4.7233   0.3302  -2.3645 H              1 S1                 0.0000
     55 ****         4.1471   0.4774  -0.7226 H              1 S1                 0.0000
     56 ****        -4.9245   1.1430   3.2974 LP             1 S1                 0.0000
     57 ****        -4.0677   2.4646   3.7288 LP             1 S1                 0.0000
     58 ****        -1.8250  -0.8611   1.9683 LP             1 S1                 0.0000
     59 ****         0.9879  -2.8517  -0.2466 LP             1 S1                 0.0000
     60 ****         0.3838   2.4008  -1.1925 LP             1 S1                 0.0000
     61 ****         3.3486  -2.9741  -0.3333 LP             1 S1                 0.0000
     62 ****         3.1947  -1.4635   0.2675 LP             1 S1                 0.0000
     63 ****         6.8570  -0.8222  -2.6751 LP             1 S1                 0.0000
     64 ****         7.8316  -1.2233  -1.4277 LP             1 S1                 0.0000
@<TRIPOS>BOND
    1    1    2 1     
    2    1   27 1     
    3    1   28 1     
    4    1   29 1     
    5    2    3 1     
    6    2    4 1     
    7    2   30 1     
    8    3   31 1     
    9    3   32 1     
   10    3   33 1     
   11    4    5 1     
   12    4   34 1     
   13    4   35 1     
   14    5    6 1     
   15    5    8 1     
   16    5   36 1     
   17    6    7 1     
   18    6   37 1     
   19    6   38 1     
   20    7   39 1     
   21    8    9 1     
   22    8   10 1     
   23    9   40 1     
   24    9   41 1     
   25    9   42 1     
   26   10   15 ar    
   27   10   11 ar    
   28   11   12 ar    
   29   12   13 ar    
   30   12   43 1     
   31   13   14 ar    
   32   14   18 1     
   33   14   15 ar    
   34   15   16 1     
   35   16   17 2     
   36   17   18 1     
   37   17   44 1     
   38   18   19 1     
   39   19   20 1     
   40   19   45 1     
   41   19   46 1     
   42   20   26 1     
   43   20   21 1     
   44   20   22 1     
   45   21   47 1     
   46   22   23 1     
   47   22   48 1     
   48   22   49 1     
   49   23   24 1     
   50   23   50 1     
   51   23   51 1     
   52   24   25 1     
   53   25   26 1     
   54   25   52 1     
   55   25   53 1     
   56   26   54 1     
   57   26   55 1     
   58    7   56 1     
   59    7   57 1     
   60   11   58 1     
   61   13   59 1     
   62   16   60 1     
   63   21   61 1     
   64   21   62 1     
   65   24   63 1     
   66   24   64 1     
@<TRIPOS>SUBSTRUCTURE
      1 S1             1
@<TRIPOS>SET
LONE_PAIRS      STATIC     ATOMS    <user>   **** ""
9 56 57 58 59 60 61 62 63 64
DONOR_HYDROGENS      STATIC     ATOMS    <user>   **** ""
2 39 47
ATOM$BLUE        STATIC     ATOMS    COLORGROUP SYSTEM
9 56 57 58 59 60 61 62 63 64
ATOM$RED        STATIC     ATOMS    COLORGROUP SYSTEM
2 39 47
