#       Name:                AV-unprocessed.smi:2079
#       Creating user name   scv26
#       Creation time:       Fri Mar 27 11:17:56 2020


#       File generated by GOLD software.
#

@<TRIPOS>MOLECULE
AV-unprocessed.smi:2079
    47    48     1
SMALL
NO_CHARGES


@<TRIPOS>ATOM
      1 ****        -7.6233   2.5703  -1.0061 C.3            1 S1                 0.0000
      2 ****        -6.1837   2.1868  -0.9711 C.2            1 S1                 0.0000
      3 ****        -5.5296   1.0062  -1.1855 C.2            1 S1                 0.0000
      4 ****        -4.1663   1.3577  -0.9977 C.2            1 S1                 0.0000
      5 ****        -3.1376   0.3919  -1.1415 N.am           1 S1                 0.0000
      6 ****        -1.8135   0.5854  -1.0172 C.2            1 S1                 0.0000
      7 ****        -1.2760   1.6548  -0.7274 O.2            1 S1                 0.0000
      8 ****        -1.1272  -0.5436  -1.2477 N.am           1 S1                 0.0000
      9 ****         0.3275  -0.6490  -1.2185 C.3            1 S1                 0.0000
     10 ****         0.8601  -0.7546   0.2266 C.3            1 S1                 0.0000
     11 ****         2.3489  -0.7177   0.3182 N.4            1 S1                 1.0000
     12 ****         2.9796  -1.8978  -0.3428 C.3            1 S1                 0.0000
     13 ****         4.5116  -1.8007  -0.3620 C.3            1 S1                 0.0000
     14 ****         5.0587  -1.6491   1.0565 C.3            1 S1                 0.0000
     15 ****         4.4092  -0.4325   1.7189 C.3            1 S1                 0.0000
     16 ****         2.8673  -0.5265   1.7142 C.3            1 S1                 0.0000
     17 ****         2.2977   0.7249   2.4153 C.3            1 S1                 0.0000
     18 ****        -4.0034   2.6358  -0.6922 N.2            1 S1                 0.0000
     19 ****        -5.2955   3.1740  -0.6743 O.3            1 S1                 0.0000
     20 ****        -8.2611   1.6872  -1.0480 H              1 S1                 0.0000
     21 ****        -7.8368   3.1839  -1.8812 H              1 S1                 0.0000
     22 ****        -7.8943   3.1411  -0.1178 H              1 S1                 0.0000
     23 ****        -5.9603   0.0487  -1.4388 H              1 S1                 0.0000
     24 ****        -3.4425  -0.5402  -1.3794 H              1 S1                 0.0000
     25 ****        -1.6438  -1.3799  -1.4792 H              1 S1                 0.0000
     26 ****         0.5825  -1.5337  -1.7999 H              1 S1                 0.0000
     27 ****         0.7728   0.2053  -1.7316 H              1 S1                 0.0000
     28 ****         0.4350   0.0819   0.7752 H              1 S1                 0.0000
     29 ****         0.4856  -1.6605   0.7056 H              1 S1                 0.0000
     30 ****         2.6693  -2.8103   0.1690 H              1 S1                 0.0000
     31 ****         2.6483  -1.9880  -1.3754 H              1 S1                 0.0000
     32 ****         4.9357  -2.6889  -0.8312 H              1 S1                 0.0000
     33 ****         4.8203  -0.9503  -0.9715 H              1 S1                 0.0000
     34 ****         4.8472  -2.5479   1.6374 H              1 S1                 0.0000
     35 ****         6.1429  -1.5354   1.0339 H              1 S1                 0.0000
     36 ****         4.7768  -0.3443   2.7420 H              1 S1                 0.0000
     37 ****         4.7251   0.4744   1.2009 H              1 S1                 0.0000
     38 ****         2.5787  -1.4007   2.3004 H              1 S1                 0.0000
     39 ****         2.8231   0.9195   3.3507 H              1 S1                 0.0000
     40 ****         1.2476   0.6115   2.6827 H              1 S1                 0.0000
     41 ****         2.4003   1.6136   1.7915 H              1 S1                 0.0000
     42 ****         2.6428   0.0968  -0.2021 H              1 S1                 0.0000
     43 ****        -1.8354   2.4674  -0.5639 LP             1 S1                 0.0000
     44 ****        -0.2801   1.7106  -0.6556 LP             1 S1                 0.0000
     45 ****        -3.1432   3.1133  -0.5130 LP             1 S1                 0.0000
     46 ****        -5.4937   3.5431   0.2337 LP             1 S1                 0.0000
     47 ****        -5.3651   3.9046  -1.3535 LP             1 S1                 0.0000
@<TRIPOS>BOND
    1    1    2 1     
    2    1   20 1     
    3    1   21 1     
    4    1   22 1     
    5    2   19 1     
    6    2    3 2     
    7    3    4 1     
    8    3   23 1     
    9    4    5 1     
   10    4   18 2     
   11    5    6 am    
   12    5   24 1     
   13    6    7 2     
   14    6    8 am    
   15    8    9 1     
   16    8   25 1     
   17    9   10 1     
   18    9   26 1     
   19    9   27 1     
   20   10   11 1     
   21   10   28 1     
   22   10   29 1     
   23   11   16 1     
   24   11   12 1     
   25   11   42 1     
   26   12   13 1     
   27   12   30 1     
   28   12   31 1     
   29   13   14 1     
   30   13   32 1     
   31   13   33 1     
   32   14   15 1     
   33   14   34 1     
   34   14   35 1     
   35   15   16 1     
   36   15   36 1     
   37   15   37 1     
   38   16   17 1     
   39   16   38 1     
   40   17   39 1     
   41   17   40 1     
   42   17   41 1     
   43   18   19 1     
   44    7   43 1     
   45    7   44 1     
   46   18   45 1     
   47   19   46 1     
   48   19   47 1     
@<TRIPOS>SUBSTRUCTURE
      1 S1             1
@<TRIPOS>SET
LONE_PAIRS      STATIC     ATOMS    <user>   **** ""
5 43 44 45 46 47
DONOR_HYDROGENS      STATIC     ATOMS    <user>   **** ""
3 24 25 42
ATOM$BLUE        STATIC     ATOMS    COLORGROUP SYSTEM
5 43 44 45 46 47
ATOM$RED        STATIC     ATOMS    COLORGROUP SYSTEM
3 24 25 42
