#       Name:                AV-unprocessed.smi:671
#       Creating user name   scv26
#       Creation time:       Fri Mar 27 00:24:15 2020


#       File generated by GOLD software.
#

@<TRIPOS>MOLECULE
AV-unprocessed.smi:671
    52    53     1
SMALL
NO_CHARGES


@<TRIPOS>ATOM
      1 ****         4.0424  -0.2056   6.0223 C.3            1 S1                 0.0000
      2 ****         3.8931  -1.6835   5.8835 C.2            1 S1                 0.0000
      3 ****         4.0887  -2.5716   6.8948 N.pl3          1 S1                 1.0000
      4 ****         3.8907  -3.8236   6.4573 N.pl3          1 S1                 0.0000
      5 ****         4.0551  -4.9398   7.3888 C.3            1 S1                 0.0000
      6 ****         3.5531  -3.8132   5.1373 C.2            1 S1                 0.0000
      7 ****         3.2724  -5.0368   4.3270 C.3            1 S1                 0.0000
      8 ****         3.5489  -2.4610   4.7711 C.2            1 S1                 0.0000
      9 ****         3.2358  -1.9314   3.3999 C.3            1 S1                 0.0000
     10 ****         1.7217  -1.8840   3.0915 C.3            1 S1                 0.0000
     11 ****         0.9631  -0.8964   3.9917 C.3            1 S1                 0.0000
     12 ****         1.5018  -1.5114   1.6920 N.am           1 S1                 0.0000
     13 ****         1.5854  -2.2918   0.5986 C.2            1 S1                 0.0000
     14 ****         1.8751  -3.4839   0.6731 O.2            1 S1                 0.0000
     15 ****         1.3267  -1.6612  -0.5590 N.am           1 S1                 0.0000
     16 ****         1.3019  -2.2825  -1.8794 C.3            1 S1                 0.0000
     17 ****         1.6364  -1.2385  -2.9612 C.3            1 S1                 0.0000
     18 ****         0.3321  -0.9753  -3.7130 C.3            1 S1                 0.0000
     19 ****        -0.4150  -2.3016  -3.6284 C.3            1 S1                 0.0000
     20 ****        -0.1086  -2.8191  -2.2189 C.3            1 S1                 0.0000
     21 ****        -0.2407  -4.3433  -2.0918 C.3            1 S1                 0.0000
     22 ****         4.8620   0.1489   5.3968 H              1 S1                 0.0000
     23 ****         4.2534   0.0645   7.0575 H              1 S1                 0.0000
     24 ****         3.1264   0.2979   5.7143 H              1 S1                 0.0000
     25 ****         4.7207  -5.6803   6.9443 H              1 S1                 0.0000
     26 ****         3.0808  -5.3910   7.5778 H              1 S1                 0.0000
     27 ****         4.4826  -4.5881   8.3289 H              1 S1                 0.0000
     28 ****         2.7595  -4.7816   3.4006 H              1 S1                 0.0000
     29 ****         2.6419  -5.7274   4.8873 H              1 S1                 0.0000
     30 ****         4.2054  -5.5415   4.0762 H              1 S1                 0.0000
     31 ****         3.6613  -0.9350   3.2743 H              1 S1                 0.0000
     32 ****         3.7437  -2.5512   2.6602 H              1 S1                 0.0000
     33 ****         1.2877  -2.8699   3.2653 H              1 S1                 0.0000
     34 ****         1.0400  -1.1742   5.0428 H              1 S1                 0.0000
     35 ****        -0.0980  -0.8748   3.7411 H              1 S1                 0.0000
     36 ****         1.3500   0.1173   3.8844 H              1 S1                 0.0000
     37 ****         1.2831  -0.5388   1.5285 H              1 S1                 0.0000
     38 ****         1.1083  -0.6769  -0.5197 H              1 S1                 0.0000
     39 ****         2.0459  -3.0800  -1.9286 H              1 S1                 0.0000
     40 ****         2.0710  -0.3209  -2.5615 H              1 S1                 0.0000
     41 ****         2.3674  -1.6618  -3.6516 H              1 S1                 0.0000
     42 ****        -0.2389  -0.1979  -3.2044 H              1 S1                 0.0000
     43 ****         0.4978  -0.6501  -4.7404 H              1 S1                 0.0000
     44 ****        -1.4845  -2.1924  -3.8109 H              1 S1                 0.0000
     45 ****        -0.0188  -2.9884  -4.3778 H              1 S1                 0.0000
     46 ****        -0.8345  -2.3583  -1.5459 H              1 S1                 0.0000
     47 ****         0.4538  -4.8592  -2.7555 H              1 S1                 0.0000
     48 ****        -1.2495  -4.6703  -2.3448 H              1 S1                 0.0000
     49 ****        -0.0331  -4.6705  -1.0731 H              1 S1                 0.0000
     50 ****         4.3502  -2.3878   7.8552 H              1 S1                 0.0000
     51 ****         2.0565  -3.8996   1.5643 LP             1 S1                 0.0000
     52 ****         1.9294  -4.0381  -0.1575 LP             1 S1                 0.0000
@<TRIPOS>BOND
    1    1    2 1     
    2    1   22 1     
    3    1   23 1     
    4    1   24 1     
    5    2    8 1     
    6    2    3 2     
    7    3    4 1     
    8    3   50 1     
    9    4    5 1     
   10    4    6 1     
   11    5   25 1     
   12    5   26 1     
   13    5   27 1     
   14    6    7 1     
   15    6    8 2     
   16    7   28 1     
   17    7   29 1     
   18    7   30 1     
   19    8    9 1     
   20    9   10 1     
   21    9   31 1     
   22    9   32 1     
   23   10   11 1     
   24   10   12 1     
   25   10   33 1     
   26   11   34 1     
   27   11   35 1     
   28   11   36 1     
   29   12   13 am    
   30   12   37 1     
   31   13   14 2     
   32   13   15 am    
   33   15   16 1     
   34   15   38 1     
   35   16   20 1     
   36   16   17 1     
   37   16   39 1     
   38   17   18 1     
   39   17   40 1     
   40   17   41 1     
   41   18   19 1     
   42   18   42 1     
   43   18   43 1     
   44   19   20 1     
   45   19   44 1     
   46   19   45 1     
   47   20   21 1     
   48   20   46 1     
   49   21   47 1     
   50   21   48 1     
   51   21   49 1     
   52   14   51 1     
   53   14   52 1     
@<TRIPOS>SUBSTRUCTURE
      1 S1             1
@<TRIPOS>SET
LONE_PAIRS      STATIC     ATOMS    <user>   **** ""
2 51 52
DONOR_HYDROGENS      STATIC     ATOMS    <user>   **** ""
3 50 37 38
ATOM$BLUE        STATIC     ATOMS    COLORGROUP SYSTEM
2 51 52
ATOM$RED        STATIC     ATOMS    COLORGROUP SYSTEM
3 50 37 38
