AV-unprocessed.smi:877|AV-procd|sdf|4027|dock3
  -GOLD-   22720 1513D 1   1.00000     0.00000
 Structure written by MMmdl.
 43 45  0  0  0  0  0  0  0  0  1 V2000
  144.8110  144.3078  154.5597 C   0  0  0  0  0  0  0  0  0  0  0  0
  144.7806  143.4292  155.6749 O   0  0  0  0  0  0  0  0  0  0  0  0
  145.9121  142.6916  155.9504 C   0  0  0  0  0  0  0  0  0  0  0  0
  146.2923  142.2707  157.2498 C   0  0  0  0  0  0  0  0  0  0  0  0
  147.4664  141.5168  157.4407 C   0  0  0  0  0  0  0  0  0  0  0  0
  148.2781  141.1726  156.3411 C   0  0  0  0  0  0  0  0  0  0  0  0
  149.5448  140.3596  156.5461 C   0  0  0  0  0  0  0  0  0  0  0  0
  150.4672  140.9531  157.5750 C   0  0  0  0  0  0  0  0  0  0  0  0
  150.5381  142.2706  157.7768 N   0  0  0  0  0  0  0  0  0  0  0  0
  151.4789  142.3786  158.7812 C   0  0  0  0  0  0  0  0  0  0  0  0
  151.9907  143.5185  159.4416 C   0  0  0  0  0  0  0  0  0  0  0  0
  152.9616  143.3804  160.4551 C   0  0  0  0  0  0  0  0  0  0  0  0
  153.4340  142.1036  160.8212 C   0  0  0  0  0  0  0  0  0  0  0  0
  152.9386  140.9553  160.1739 C   0  0  0  0  0  0  0  0  0  0  0  0
  151.9688  141.0984  159.1631 C   0  0  0  0  0  0  0  0  0  0  0  0
  151.2887  140.1969  158.3490 N   0  0  0  0  0  0  0  0  0  0  0  0
  151.4556  138.7488  158.3513 C   0  0  0  0  0  0  0  0  0  0  0  0
  152.8043  138.3003  157.7537 C   0  0  2  0  0  0  0  0  0  0  0  0
  152.9257  138.8179  156.4424 O   0  0  0  0  0  0  0  0  0  0  0  0
  152.9165  136.7680  157.6908 C   0  0  0  0  0  0  0  0  0  0  0  0
  154.1508  136.3925  157.1178 O   0  0  0  0  0  0  0  0  0  0  0  0
  147.9059  141.5899  155.0475 C   0  0  0  0  0  0  0  0  0  0  0  0
  146.7313  142.3422  154.8575 C   0  0  0  0  0  0  0  0  0  0  0  0
  143.8520  144.8191  154.4788 H   0  0  0  0  0  0  0  0  0  0  0  0
  144.9746  143.7642  153.6282 H   0  0  0  0  0  0  0  0  0  0  0  0
  145.5825  145.0703  154.6744 H   0  0  0  0  0  0  0  0  0  0  0  0
  145.6989  142.5129  158.1183 H   0  0  0  0  0  0  0  0  0  0  0  0
  147.7396  141.2024  158.4375 H   0  0  0  0  0  0  0  0  0  0  0  0
  149.2473  139.3488  156.8189 H   0  0  0  0  0  0  0  0  0  0  0  0
  150.0896  140.2752  155.6054 H   0  0  0  0  0  0  0  0  0  0  0  0
  151.6345  144.5008  159.1687 H   0  0  0  0  0  0  0  0  0  0  0  0
  153.3450  144.2583  160.9541 H   0  0  0  0  0  0  0  0  0  0  0  0
  154.1771  142.0056  161.5992 H   0  0  0  0  0  0  0  0  0  0  0  0
  153.2984  139.9763  160.4542 H   0  0  0  0  0  0  0  0  0  0  0  0
  151.3445  138.3844  159.3728 H   0  0  0  0  0  0  0  0  0  0  0  0
  150.6323  138.3039  157.7911 H   0  0  0  0  0  0  0  0  0  0  0  0
  153.6169  138.6995  158.3609 H   0  0  0  0  0  0  0  0  0  0  0  0
  152.1779  139.3689  156.2675 H   0  0  0  0  0  0  0  0  0  0  0  0
  152.8792  136.3454  158.6953 H   0  0  0  0  0  0  0  0  0  0  0  0
  152.0920  136.3301  157.1266 H   0  0  0  0  0  0  0  0  0  0  0  0
  154.8390  136.6132  157.7272 H   0  0  0  0  0  0  0  0  0  0  0  0
  148.5172  141.3308  154.1959 H   0  0  0  0  0  0  0  0  0  0  0  0
  146.4550  142.6541  153.8610 H   0  0  0  0  0  0  0  0  0  0  0  0
  1  2  1  0  0  0  0
  1 24  1  0  0  0  0
  1 25  1  0  0  0  0
  1 26  1  0  0  0  0
  2  3  1  0  0  0  0
  3 23  1  0  0  0  0
  3  4  2  0  0  0  0
  4  5  1  0  0  0  0
  4 27  1  0  0  0  0
  5  6  2  0  0  0  0
  5 28  1  0  0  0  0
  6  7  1  0  0  0  0
  6 22  1  0  0  0  0
  7  8  1  0  0  0  0
  7 29  1  0  0  0  0
  7 30  1  0  0  0  0
  8 16  1  0  0  0  0
  8  9  2  0  0  0  0
  9 10  1  0  0  0  0
 10 15  2  0  0  0  0
 10 11  1  0  0  0  0
 11 12  2  0  0  0  0
 11 31  1  0  0  0  0
 12 13  1  0  0  0  0
 12 32  1  0  0  0  0
 13 14  2  0  0  0  0
 13 33  1  0  0  0  0
 14 15  1  0  0  0  0
 14 34  1  0  0  0  0
 15 16  1  0  0  0  0
 16 17  1  0  0  0  0
 17 18  1  0  0  0  0
 17 35  1  0  0  0  0
 17 36  1  0  0  0  0
 18 19  1  0  0  0  0
 18 20  1  0  0  0  0
 18 37  1  0  0  0  0
 19 38  1  0  0  0  0
 20 21  1  0  0  0  0
 20 39  1  0  0  0  0
 20 40  1  0  0  0  0
 21 41  1  0  0  0  0
 22 23  2  0  0  0  0
 22 42  1  0  0  0  0
 23 43  1  0  0  0  0
M  END
> <s_m_source_file>
AV-unprocessed.smi

> <i_m_source_file_index>
877

> <i_lp_mmshare_version>
43012

> <i_f3d_flags>
0

> <s_epik_input>
W0NIM11PYzFbY0hdW2NIXWMoW2NIXVtjSF0xKVtDSDJdYyhuMiluKFtDSDJdW0NASF0oW09IXSlbQ0gyXVtPSF0pYyhjMjMpW2NIXVtjSF1bY0hdW2NIXTM=

> <s_epik_cmdline>
J2VwaWtfcHl0aG9uJywgJy1waCcsICc3LjAnLCAnLXRuJywgJzgnLCAnLW1hJywgJzIwMCcsICctbWV0YWxfYmluZGluZycsICctaW1hZScsICc8aW5maWxlLm1hZT4nLCAnLW9tYWUnLCAnPG91dGZpbGUubWFlPic=

> <r_lp_tautomer_probability>
1

> <r_epik_Ionization_Penalty>
0.0616669

> <r_epik_Ionization_Penalty_Charging>
0

> <r_epik_Ionization_Penalty_Neutral>
0.0616669

> <r_epik_State_Penalty>
0.0535415

> <r_epik_Charging_Adjusted_Penalty>
0.0535415

> <i_epik_Tot_Q>
0

> <i_epik_Tot_abs_Q>
0

> <r_epik_Metal_State_Penalty>
5.60326e-05

> <b_epik_Metal_Only>
0

> <s_lp_Force_Field>
OPLS_2005

> <r_lp_Energy>
20.6154

> <b_lp_Chiralities_Consistent>
1

> <s_lp_Variant>
AV-unprocessed.smi:877-1

> <Gold.Version>
5.8.1

> <Gold.Id.Protein>
6NUR|6NUR_protein|mol2

> <Gold.PLP.Fitness>
45.2691

> <Gold.PLP.PLP>
-44.0687

> <Gold.PLP.part.hbond>
-1.0000

> <Gold.PLP.part.metal>
0.0000

> <Gold.PLP.part.buried>
-8.2171

> <Gold.PLP.part.nonpolar>
-36.4775

> <Gold.PLP.part.repulsive>
0.4511

> <Gold.PLP.ligand.clash>
0.0000

> <Gold.PLP.ligand.torsion>
0.9215

> <Gold.PLP.Chemscore.Hbond>
1.0000

> <Gold.PLP.Chemscore.CHOScore>
0.0000

> <Gold.PLP.Chemscore.Metal>
0.0000

> <Gold.Chemscore.Hbonds>
donor molecule, donor type, donor heavy atom, donor atom, acceptor molecule, acceptor atom, score
      P1  H  7997  8009       L1    19  0.67
      P1  H 10752 10764       L1    21  0.94

> <Gold.PLP.Chemscore.Internal.Correction>
0.0434

> <Gold.Rescore>
     Score         DG    S(hbond)    S(metal)    S(lipo)     H(rot)  DE(clash)    DE(int)     intcor
     14.95     -16.05       1.49        0.00     116.78       3.15       0.03       1.07       ----

> <Gold.Chemscore.Fitness>
14.9461

> <Gold.Chemscore.DG>
-16.0462

> <Gold.Chemscore.ZeroCoef>
-5.4800

> <Gold.Chemscore.Hbond>
1.4862

> <Gold.Chemscore.Metal>
0.0000

> <Gold.Chemscore.Lipo>
116.7795

> <Gold.Chemscore.Internal_Hbond>
0.0000

> <Gold.Chemscore.DEClash>
0.0262

> <Gold.Chemscore.DEInternal>
1.0739

> <Gold.Chemscore.Rot>
3.1488

> <Gold.Chemscore.Internal.Correction>
   9.000000E+99

> <Gold.Chemscore.Hbonds>
donor molecule, donor type, donor heavy atom, donor atom, acceptor molecule, acceptor atom, score
      P1  H  7997  8009       L1    19  0.06
      P1  H 10752 10764       L1    21  0.83

> <Gold.Chemscore.Hbond.Weighted>
-4.9639

> <Gold.Chemscore.Metal.Weighted>
-0.0000

> <Gold.Chemscore.Lipo.Weighted>
-13.6632

> <Gold.Chemscore.Internal_Hbond.Weighted>
0.0000

> <Gold.Chemscore.DEClash.Weighted>
0.0262

> <Gold.Chemscore.DEInternal.Weighted>
1.0739

> <Gold.Chemscore.Rot.Weighted>
8.0608

> <Gold.Chemscore.Internal.Correction.Weighted>
   9.000000E+99

> <Gold.Protein.RotatedTorsions>
[ 6907 6896 6895 6894 ] final    7.14 input  -60.11 | X-H torsion
[ 7974 7965 7964 7962 ] final -133.32 input  175.53 | X-H torsion
[ 8008 7997 7996 7995 ] final  164.57 input   59.86 | X-H torsion
[ 10167 10162 10161 10158 ] final -128.90 input  -65.29 | X-H torsion
[ 10718 10713 10712 10709 ] final  104.24 input   66.30 | X-H torsion
[ 10763 10752 10751 10750 ] final   36.56 input  -60.55 | X-H torsion
[ 11005 11000 10999 10996 ] final    3.28 input  -57.11 | X-H torsion

> <Gold.Protein.ActiveResidues>
 VAL166  LYS551  ARG553  GLY616  TRP617  ASP618  TYR619  PRO620  LYS621  CYS622 
 ASP623  PHE694  ASN695  SER759  ASP760  ASP761  ALA762  ILE779  LEU786  VAL792 
 PHE793  MET794  SER795  GLU796  ALA797  LYS798  CYS799  TRP800  GLU811  SER814 

> <Gold.Protein.RotatedAtoms>
  151.6851  135.0955  160.0222 H   0  0  0  0  0  0  0  0  0  0  0  0  # atno 6907 bound_to 6896
  152.3812  133.6545  159.6171 H   0  0  0  0  0  0  0  0  0  0  0  0  # atno 6908 bound_to 6896
  150.7749  133.9027  159.3387 H   0  0  0  0  0  0  0  0  0  0  0  0  # atno 6909 bound_to 6896
  144.9204  140.7006  143.4969 H   0  0  0  0  0  0  0  0  0  0  0  0  # atno 7974 bound_to 7965
  156.1870  140.1693  156.8167 H   0  0  0  0  0  0  0  0  0  0  0  0  # atno 8008 bound_to 7997
  154.5425  140.0734  156.8566 H   0  0  0  0  0  0  0  0  0  0  0  0  # atno 8009 bound_to 7997
  155.3186  140.3372  155.4244 H   0  0  0  0  0  0  0  0  0  0  0  0  # atno 8010 bound_to 7997
  139.9454  143.6115  152.2491 H   0  0  0  0  0  0  0  0  0  0  0  0  # atno 10167 bound_to 10162
  157.6746  131.0799  150.5677 H   0  0  0  0  0  0  0  0  0  0  0  0  # atno 10718 bound_to 10713
  153.0072  135.6302  154.2005 H   0  0  0  0  0  0  0  0  0  0  0  0  # atno 10763 bound_to 10752
  154.1749  135.2816  155.3071 H   0  0  0  0  0  0  0  0  0  0  0  0  # atno 10764 bound_to 10752
  154.5880  135.5626  153.7310 H   0  0  0  0  0  0  0  0  0  0  0  0  # atno 10765 bound_to 10752
  140.5949  133.9890  155.8105 H   0  0  0  0  0  0  0  0  0  0  0  0  # atno 11005 bound_to 11000
  145.3306  139.1761  143.4539 LP  0  0  0  0  0  0  0  0  0  0  0  0  # atno 17320 bound_to 7965
  146.3202  140.3335  142.8642 LP  0  0  0  0  0  0  0  0  0  0  0  0  # atno 17321 bound_to 7965
  139.6671  144.7662  151.1853 LP  0  0  0  0  0  0  0  0  0  0  0  0  # atno 17342 bound_to 10162
  140.7598  143.5922  150.8785 LP  0  0  0  0  0  0  0  0  0  0  0  0  # atno 17343 bound_to 10162
  156.5979  130.4346  149.5909 LP  0  0  0  0  0  0  0  0  0  0  0  0  # atno 17370 bound_to 10713
  156.2530  130.6918  151.1662 LP  0  0  0  0  0  0  0  0  0  0  0  0  # atno 17371 bound_to 10713
  141.0910  133.9916  157.3236 LP  0  0  0  0  0  0  0  0  0  0  0  0  # atno 17394 bound_to 11000
  139.9258  135.0201  156.8227 LP  0  0  0  0  0  0  0  0  0  0  0  0  # atno 17395 bound_to 11000

$$$$
