AV-unprocessed.smi:3239|AV-procd|sdf|12380|dock6
  -GOLD-   2272018243D 1   1.00000     0.00000
 Structure written by MMmdl.
 35 35  0  0  0  0  0  0  0  0  1 V2000
  151.9109  145.6206  159.4995 C   0  0  0  0  0  0  0  0  0  0  0  0
  152.1846  144.4394  159.3540 C   0  0  0  0  0  0  0  0  0  0  0  0
  152.5167  143.0134  159.1972 C   0  0  0  0  0  0  0  0  0  0  0  0
  151.8319  142.3987  158.0657 N   0  0  0  0  0  0  0  0  0  0  0  0
  152.0580  141.1579  157.6015 C   0  0  0  0  0  0  0  0  0  0  0  0
  152.8737  140.3827  158.1015 O   0  0  0  0  0  0  0  0  0  0  0  0
  151.1916  140.7262  156.4537 C   0  0  0  0  0  0  0  0  0  0  0  0
  151.3231  139.4508  155.8596 C   0  0  0  0  0  0  0  0  0  0  0  0
  150.4649  139.0967  154.8006 C   0  0  0  0  0  0  0  0  0  0  0  0
  149.4941  140.0245  154.3704 C   0  0  0  0  0  0  0  0  0  0  0  0
  148.6408  139.6602  153.3179 N   0  0  0  0  0  0  0  0  0  0  0  0
  147.1874  139.6930  153.4498 C   0  0  1  0  0  0  0  0  0  0  0  0
  146.5100  139.1009  152.2011 C   0  0  0  0  0  0  0  0  0  0  0  0
  146.7610  138.9514  154.7265 C   0  0  0  0  0  0  0  0  0  0  0  0
  147.1896  139.6829  155.8633 O   0  0  0  0  0  0  0  0  0  0  0  0
  146.9287  139.0024  157.0781 C   0  0  0  0  0  0  0  0  0  0  0  0
  149.3543  141.2427  154.9437 N   0  0  0  0  0  0  0  0  0  0  0  0
  150.1797  141.5776  155.9584 C   0  0  0  0  0  0  0  0  0  0  0  0
  151.6740  146.6526  159.6298 H   0  0  0  0  0  0  0  0  0  0  0  0
  153.5929  142.9343  159.0437 H   0  0  0  0  0  0  0  0  0  0  0  0
  152.2869  142.4953  160.1297 H   0  0  0  0  0  0  0  0  0  0  0  0
  151.1235  142.9538  157.6083 H   0  0  0  0  0  0  0  0  0  0  0  0
  152.0649  138.7449  156.2040 H   0  0  0  0  0  0  0  0  0  0  0  0
  150.5517  138.1273  154.3317 H   0  0  0  0  0  0  0  0  0  0  0  0
  149.0337  139.4788  152.4057 H   0  0  0  0  0  0  0  0  0  0  0  0
  146.8740  140.7317  153.5607 H   0  0  0  0  0  0  0  0  0  0  0  0
  145.4239  139.1467  152.2843 H   0  0  0  0  0  0  0  0  0  0  0  0
  146.7874  138.0564  152.0569 H   0  0  0  0  0  0  0  0  0  0  0  0
  146.7878  139.6452  151.2983 H   0  0  0  0  0  0  0  0  0  0  0  0
  145.6782  138.8149  154.7468 H   0  0  0  0  0  0  0  0  0  0  0  0
  147.2160  137.9595  154.7490 H   0  0  0  0  0  0  0  0  0  0  0  0
  147.2783  139.6039  157.9172 H   0  0  0  0  0  0  0  0  0  0  0  0
  147.4471  138.0434  157.1126 H   0  0  0  0  0  0  0  0  0  0  0  0
  145.8601  138.8284  157.2108 H   0  0  0  0  0  0  0  0  0  0  0  0
  150.0247  142.5599  156.3805 H   0  0  0  0  0  0  0  0  0  0  0  0
  1  2  3  0  0  0  0
  1 19  1  0  0  0  0
  2  3  1  0  0  0  0
  3  4  1  0  0  0  0
  3 20  1  0  0  0  0
  3 21  1  0  0  0  0
  4  5  1  0  0  0  0
  4 22  1  0  0  0  0
  5  6  2  0  0  0  0
  5  7  1  0  0  0  0
  7 18  1  0  0  0  0
  7  8  2  0  0  0  0
  8  9  1  0  0  0  0
  8 23  1  0  0  0  0
  9 10  2  0  0  0  0
  9 24  1  0  0  0  0
 10 11  1  0  0  0  0
 10 17  1  0  0  0  0
 11 12  1  0  0  0  0
 11 25  1  0  0  0  0
 12 13  1  0  0  0  0
 12 14  1  0  0  0  0
 12 26  1  0  0  0  0
 13 27  1  0  0  0  0
 13 28  1  0  0  0  0
 13 29  1  0  0  0  0
 14 15  1  0  0  0  0
 14 30  1  0  0  0  0
 14 31  1  0  0  0  0
 15 16  1  0  0  0  0
 16 32  1  0  0  0  0
 16 33  1  0  0  0  0
 16 34  1  0  0  0  0
 17 18  2  0  0  0  0
 18 35  1  0  0  0  0
M  END
> <s_m_source_file>
AV-unprocessed.smi

> <i_m_source_file_index>
3239

> <i_lp_mmshare_version>
43012

> <i_f3d_flags>
0

> <s_epik_input>
W0NIXSNDW0NIMl1bTkhdQyg9TyljMVtjSF1bY0hdYyhuW2NIXTEpW05IXVtDQEhdKFtDSDNdKVtDSDJdT1tDSDNd

> <s_epik_cmdline>
J2VwaWtfcHl0aG9uJywgJy1waCcsICc3LjAnLCAnLXRuJywgJzgnLCAnLW1hJywgJzIwMCcsICctbWV0YWxfYmluZGluZycsICctaW1hZScsICc8aW5maWxlLm1hZT4nLCAnLW9tYWUnLCAnPG91dGZpbGUubWFlPic=

> <r_lp_tautomer_probability>
1

> <r_epik_Ionization_Penalty>
0.00321854

> <r_epik_Ionization_Penalty_Charging>
0

> <r_epik_Ionization_Penalty_Neutral>
0.00321854

> <r_epik_State_Penalty>
0.00226446

> <r_epik_Charging_Adjusted_Penalty>
0.00226446

> <i_epik_Tot_Q>
0

> <i_epik_Tot_abs_Q>
0

> <r_epik_Metal_State_Penalty>
-0

> <b_epik_Metal_Only>
0

> <s_lp_Force_Field>
OPLS_2005

> <r_lp_Energy>
6.06936

> <b_lp_Chiralities_Consistent>
1

> <s_lp_Variant>
AV-unprocessed.smi:3239-2

> <Gold.Version>
5.8.1

> <Gold.Id.Protein>
6NUR|6NUR_protein|mol2

> <Gold.PLP.Fitness>
41.2610

> <Gold.PLP.PLP>
-34.4153

> <Gold.PLP.part.hbond>
-1.5455

> <Gold.PLP.part.metal>
0.0000

> <Gold.PLP.part.buried>
-2.3148

> <Gold.PLP.part.nonpolar>
-30.5719

> <Gold.PLP.part.repulsive>
0.3076

> <Gold.PLP.ligand.clash>
0.0000

> <Gold.PLP.ligand.torsion>
0.6617

> <Gold.PLP.Chemscore.Hbond>
1.7425

> <Gold.PLP.Chemscore.CHOScore>
0.9459

> <Gold.PLP.Chemscore.Metal>
0.0000

> <Gold.Chemscore.Hbonds>
donor molecule, donor type, donor heavy atom, donor atom, acceptor molecule, acceptor atom, score
      L1  H    11    25       P1  7957  0.83
      P1  H  7997  8009       L1     6  0.87
      L1  C    18    35       P1  8028  0.96

> <Gold.PLP.Chemscore.Internal.Correction>
0.1039

> <Gold.Rescore>
     Score         DG    S(hbond)    S(metal)    S(lipo)     H(rot)  DE(clash)    DE(int)     intcor
     14.41     -16.68       1.77        0.00      80.61       1.62       0.17       2.09       ----

> <Gold.Chemscore.Fitness>
14.4126

> <Gold.Chemscore.DG>
-16.6753

> <Gold.Chemscore.ZeroCoef>
-5.4800

> <Gold.Chemscore.Hbond>
1.7689

> <Gold.Chemscore.Metal>
0.0000

> <Gold.Chemscore.Lipo>
80.6147

> <Gold.Chemscore.Internal_Hbond>
0.0000

> <Gold.Chemscore.DEClash>
0.1739

> <Gold.Chemscore.DEInternal>
2.0888

> <Gold.Chemscore.Rot>
1.6190

> <Gold.Chemscore.Internal.Correction>
   9.000000E+99

> <Gold.Chemscore.Hbonds>
donor molecule, donor type, donor heavy atom, donor atom, acceptor molecule, acceptor atom, score
      L1  H    11    25       P1  7957  0.77
      P1  H  7997  8009       L1     6  0.70

> <Gold.Chemscore.Hbond.Weighted>
-5.9081

> <Gold.Chemscore.Metal.Weighted>
-0.0000

> <Gold.Chemscore.Lipo.Weighted>
-9.4319

> <Gold.Chemscore.Internal_Hbond.Weighted>
0.0000

> <Gold.Chemscore.DEClash.Weighted>
0.1739

> <Gold.Chemscore.DEInternal.Weighted>
2.0888

> <Gold.Chemscore.Rot.Weighted>
4.1447

> <Gold.Chemscore.Internal.Correction.Weighted>
   9.000000E+99

> <Gold.Protein.RotatedTorsions>
[ 6907 6896 6895 6894 ] final -139.89 input  -60.11 | X-H torsion
[ 7974 7965 7964 7962 ] final   12.19 input  175.53 | X-H torsion
[ 8008 7997 7996 7995 ] final  160.66 input   59.86 | X-H torsion
[ 10167 10162 10161 10158 ] final -175.63 input  -65.29 | X-H torsion
[ 10718 10713 10712 10709 ] final   42.64 input   66.30 | X-H torsion
[ 10763 10752 10751 10750 ] final   26.27 input  -60.55 | X-H torsion
[ 11005 11000 10999 10996 ] final  178.41 input  -57.11 | X-H torsion

> <Gold.Protein.ActiveResidues>
 VAL166  LYS551  ARG553  GLY616  TRP617  ASP618  TYR619  PRO620  LYS621  CYS622 
 ASP623  PHE694  ASN695  SER759  ASP760  ASP761  ALA762  ILE779  LEU786  VAL792 
 PHE793  MET794  SER795  GLU796  ALA797  LYS798  CYS799  TRP800  GLU811  SER814 

> <Gold.Protein.RotatedAtoms>
  151.0536  133.5603  159.2639 H   0  0  0  0  0  0  0  0  0  0  0  0  # atno 6907 bound_to 6896
  151.2605  135.0651  159.9106 H   0  0  0  0  0  0  0  0  0  0  0  0  # atno 6908 bound_to 6896
  152.5386  134.0282  159.8066 H   0  0  0  0  0  0  0  0  0  0  0  0  # atno 6909 bound_to 6896
  146.2356  139.9373  142.8488 H   0  0  0  0  0  0  0  0  0  0  0  0  # atno 7974 bound_to 7965
  156.2157  140.1798  156.7594 H   0  0  0  0  0  0  0  0  0  0  0  0  # atno 8008 bound_to 7997
  154.5788  140.0670  156.9103 H   0  0  0  0  0  0  0  0  0  0  0  0  # atno 8009 bound_to 7997
  155.2540  140.3331  155.4282 H   0  0  0  0  0  0  0  0  0  0  0  0  # atno 8010 bound_to 7997
  139.5571  144.1962  152.1177 H   0  0  0  0  0  0  0  0  0  0  0  0  # atno 10167 bound_to 10162
  157.4071  130.7893  149.7398 H   0  0  0  0  0  0  0  0  0  0  0  0  # atno 10718 bound_to 10713
  153.0634  135.6564  154.0411 H   0  0  0  0  0  0  0  0  0  0  0  0  # atno 10763 bound_to 10752
  154.0073  135.2931  155.3397 H   0  0  0  0  0  0  0  0  0  0  0  0  # atno 10764 bound_to 10752
  154.6981  135.5255  153.8556 H   0  0  0  0  0  0  0  0  0  0  0  0  # atno 10765 bound_to 10752
  140.3948  134.6830  157.4528 H   0  0  0  0  0  0  0  0  0  0  0  0  # atno 11005 bound_to 11000
  145.1986  140.9844  143.4169 LP  0  0  0  0  0  0  0  0  0  0  0  0  # atno 17320 bound_to 7965
  144.9793  139.3799  143.6270 LP  0  0  0  0  0  0  0  0  0  0  0  0  # atno 17321 bound_to 7965
  140.1468  144.5151  150.6711 LP  0  0  0  0  0  0  0  0  0  0  0  0  # atno 17342 bound_to 10162
  140.6845  143.2343  151.5296 LP  0  0  0  0  0  0  0  0  0  0  0  0  # atno 17343 bound_to 10162
  155.9840  130.3996  150.3336 LP  0  0  0  0  0  0  0  0  0  0  0  0  # atno 17370 bound_to 10713
  157.1470  131.0311  151.2902 LP  0  0  0  0  0  0  0  0  0  0  0  0  # atno 17371 bound_to 10713
  140.0380  134.6309  155.9018 LP  0  0  0  0  0  0  0  0  0  0  0  0  # atno 17394 bound_to 11000
  141.1878  133.6561  156.5297 LP  0  0  0  0  0  0  0  0  0  0  0  0  # atno 17395 bound_to 11000

$$$$
