AV-unprocessed.smi:286|AV-procd|sdf|2175|dock1
  -GOLD-   2262021533D 1   1.00000     0.00000
 Structure written by MMmdl.
 46 48  0  0  0  0  0  0  0  0  1 V2000
  152.5306  137.3136  156.4428 O   0  0  0  0  0  0  0  0  0  0  0  0
  151.6800  138.0373  155.9222 C   0  0  0  0  0  0  0  0  0  0  0  0
  150.6756  137.5480  154.9850 C   0  0  0  0  0  0  0  0  0  0  0  0
  150.6253  136.2385  154.6874 F   0  0  0  0  0  0  0  0  0  0  0  0
  149.7902  138.3903  154.4102 C   0  0  0  0  0  0  0  0  0  0  0  0
  149.7743  139.7530  154.6479 N   0  0  0  0  0  0  0  0  0  0  0  0
  148.7185  140.5998  153.9706 C   0  0  2  0  0  0  0  0  0  0  0  0
  148.0949  141.6631  154.8873 C   0  0  0  0  0  0  0  0  0  0  0  0
  146.6674  141.6834  154.3851 C   0  0  0  0  0  0  0  0  0  0  0  0
  146.4394  140.2220  154.0135 C   0  0  0  0  0  0  0  0  0  0  0  0
  147.6926  139.7708  153.5061 O   0  0  0  0  0  0  0  0  0  0  0  0
  150.6859  140.3098  155.5763 C   0  0  0  0  0  0  0  0  0  0  0  0
  150.6773  141.5140  155.8361 O   0  0  0  0  0  0  0  0  0  0  0  0
  151.6097  139.4275  156.1860 N   0  0  0  0  0  0  0  0  0  0  0  0
  152.5835  139.9885  157.1089 C   0  0  0  0  0  0  0  0  0  0  0  0
  151.9425  140.5027  158.4236 C   0  0  1  0  0  0  0  0  0  0  0  0
  152.3698  139.6166  159.4413 O   0  0  0  0  0  0  0  0  0  0  0  0
  152.3660  141.9455  158.8148 C   0  0  0  0  0  0  0  0  0  0  0  0
  152.0887  142.2471  160.3103 C   0  0  0  0  0  0  0  0  0  0  0  0
  152.4923  143.6774  160.7038 C   0  0  0  0  0  0  0  0  0  0  0  0
  151.7807  144.7156  159.8279 C   0  0  0  0  0  0  0  0  0  0  0  0
  152.0535  144.4470  158.3428 C   0  0  0  0  0  0  0  0  0  0  0  0
  151.6518  143.0158  157.9508 C   0  0  0  0  0  0  0  0  0  0  0  0
  149.0669  137.9708  153.7264 H   0  0  0  0  0  0  0  0  0  0  0  0
  149.2036  141.0499  153.1035 H   0  0  0  0  0  0  0  0  0  0  0  0
  148.1297  141.3633  155.9339 H   0  0  0  0  0  0  0  0  0  0  0  0
  148.6079  142.6192  154.7813 H   0  0  0  0  0  0  0  0  0  0  0  0
  145.9572  142.0515  155.1259 H   0  0  0  0  0  0  0  0  0  0  0  0
  146.5923  142.3113  153.4964 H   0  0  0  0  0  0  0  0  0  0  0  0
  146.1732  139.6392  154.8955 H   0  0  0  0  0  0  0  0  0  0  0  0
  145.6455  140.0970  153.2770 H   0  0  0  0  0  0  0  0  0  0  0  0
  153.3672  139.2489  157.2839 H   0  0  0  0  0  0  0  0  0  0  0  0
  153.1056  140.7690  156.5579 H   0  0  0  0  0  0  0  0  0  0  0  0
  150.8539  140.4586  158.3649 H   0  0  0  0  0  0  0  0  0  0  0  0
  153.3054  139.7061  159.5437 H   0  0  0  0  0  0  0  0  0  0  0  0
  153.4407  142.0380  158.6496 H   0  0  0  0  0  0  0  0  0  0  0  0
  151.0295  142.0975  160.5240 H   0  0  0  0  0  0  0  0  0  0  0  0
  152.6310  141.5526  160.9521 H   0  0  0  0  0  0  0  0  0  0  0  0
  152.2577  143.8545  161.7537 H   0  0  0  0  0  0  0  0  0  0  0  0
  153.5724  143.7927  160.6047 H   0  0  0  0  0  0  0  0  0  0  0  0
  150.7068  144.6811  160.0162 H   0  0  0  0  0  0  0  0  0  0  0  0
  152.1115  145.7199  160.0938 H   0  0  0  0  0  0  0  0  0  0  0  0
  151.5090  145.1661  157.7301 H   0  0  0  0  0  0  0  0  0  0  0  0
  153.1124  144.6002  158.1312 H   0  0  0  0  0  0  0  0  0  0  0  0
  151.8741  142.8840  156.8938 H   0  0  0  0  0  0  0  0  0  0  0  0
  150.5711  142.9035  158.0489 H   0  0  0  0  0  0  0  0  0  0  0  0
  1  2  2  0  0  0  0
  2 14  1  0  0  0  0
  2  3  1  0  0  0  0
  3  4  1  0  0  0  0
  3  5  2  0  0  0  0
  5  6  1  0  0  0  0
  5 24  1  0  0  0  0
  6  7  1  0  0  0  0
  6 12  1  0  0  0  0
  7 11  1  0  0  0  0
  7  8  1  0  0  0  0
  7 25  1  0  0  0  0
  8  9  1  0  0  0  0
  8 26  1  0  0  0  0
  8 27  1  0  0  0  0
  9 10  1  0  0  0  0
  9 28  1  0  0  0  0
  9 29  1  0  0  0  0
 10 11  1  0  0  0  0
 10 30  1  0  0  0  0
 10 31  1  0  0  0  0
 12 13  2  0  0  0  0
 12 14  1  0  0  0  0
 14 15  1  0  0  0  0
 15 16  1  0  0  0  0
 15 32  1  0  0  0  0
 15 33  1  0  0  0  0
 16 17  1  0  0  0  0
 16 18  1  0  0  0  0
 16 34  1  0  0  0  0
 17 35  1  0  0  0  0
 18 23  1  0  0  0  0
 18 19  1  0  0  0  0
 18 36  1  0  0  0  0
 19 20  1  0  0  0  0
 19 37  1  0  0  0  0
 19 38  1  0  0  0  0
 20 21  1  0  0  0  0
 20 39  1  0  0  0  0
 20 40  1  0  0  0  0
 21 22  1  0  0  0  0
 21 41  1  0  0  0  0
 21 42  1  0  0  0  0
 22 23  1  0  0  0  0
 22 43  1  0  0  0  0
 22 44  1  0  0  0  0
 23 45  1  0  0  0  0
 23 46  1  0  0  0  0
M  END
> <s_m_source_file>
AV-unprocessed.smi

> <i_m_source_file_index>
286

> <i_lp_mmshare_version>
43012

> <i_f3d_flags>
0

> <s_epik_input>
TzFbQ0gyXVtDSDJdW0NIMl1bQ0BIXTFuKFtjSF1jKEYpYzI9TyljKD1PKW4yW0NIMl1bQ0BIXShbT0hdKVtDSF0zW0NIMl1bQ0gyXVtDSDJdW0NIMl1bQ0gyXTM=

> <s_epik_cmdline>
J2VwaWtfcHl0aG9uJywgJy1waCcsICc3LjAnLCAnLXRuJywgJzgnLCAnLW1hJywgJzIwMCcsICctbWV0YWxfYmluZGluZycsICctaW1hZScsICc8aW5maWxlLm1hZT4nLCAnLW9tYWUnLCAnPG91dGZpbGUubWFlPic=

> <r_lp_tautomer_probability>
1

> <r_epik_Ionization_Penalty>
3.15564e-07

> <r_epik_Ionization_Penalty_Charging>
2.06416e-08

> <r_epik_Ionization_Penalty_Neutral>
2.94923e-07

> <r_epik_State_Penalty>
-0

> <r_epik_Charging_Adjusted_Penalty>
2.06416e-08

> <i_epik_Tot_Q>
0

> <i_epik_Tot_abs_Q>
0

> <r_epik_Metal_State_Penalty>
-0

> <b_epik_Metal_Only>
0

> <s_epik_Chemistry_Notes>
This compound contains an acetal/aminal-like group ( X-CH(R)-Y where X, Y are N, S, or O) that may be acid/base labile, releasing an aldehyde.

> <s_lp_Force_Field>
OPLS_2005

> <r_lp_Energy>
37.1896

> <b_lp_Chiralities_Consistent>
1

> <s_lp_Variant>
AV-unprocessed.smi:286-3

> <Gold.Version>
5.8.1

> <Gold.Id.Protein>
6NUR|6NUR_protein|mol2

> <Gold.PLP.Fitness>
42.2150

> <Gold.PLP.PLP>
-42.2417

> <Gold.PLP.part.hbond>
-0.9108

> <Gold.PLP.part.metal>
0.0000

> <Gold.PLP.part.buried>
1.7672

> <Gold.PLP.part.nonpolar>
-42.2815

> <Gold.PLP.part.repulsive>
1.0190

> <Gold.PLP.ligand.clash>
0.0000

> <Gold.PLP.ligand.torsion>
1.5479

> <Gold.PLP.Chemscore.Hbond>
0.0000

> <Gold.PLP.Chemscore.CHOScore>
0.9987

> <Gold.PLP.Chemscore.Metal>
0.0000

> <Gold.Chemscore.Hbonds>
donor molecule, donor type, donor heavy atom, donor atom, acceptor molecule, acceptor atom, score
      L1  C     5    24       P1  7948  1.00

> <Gold.PLP.Chemscore.Internal.Correction>
0.0730

> <Gold.Rescore>
     Score         DG    S(hbond)    S(metal)    S(lipo)     H(rot)  DE(clash)    DE(int)     intcor
      7.11     -12.22       0.00        0.00     107.37       2.28       0.65       4.46       ----

> <Gold.Chemscore.Fitness>
7.1073

> <Gold.Chemscore.DG>
-12.2173

> <Gold.Chemscore.ZeroCoef>
-5.4800

> <Gold.Chemscore.Hbond>
0.0000

> <Gold.Chemscore.Metal>
0.0000

> <Gold.Chemscore.Lipo>
107.3740

> <Gold.Chemscore.Internal_Hbond>
0.0000

> <Gold.Chemscore.DEClash>
0.6456

> <Gold.Chemscore.DEInternal>
4.4645

> <Gold.Chemscore.Rot>
2.2756

> <Gold.Chemscore.Internal.Correction>
   9.000000E+99

> <Gold.Chemscore.Hbond.Weighted>
-0.0000

> <Gold.Chemscore.Metal.Weighted>
-0.0000

> <Gold.Chemscore.Lipo.Weighted>
-12.5628

> <Gold.Chemscore.Internal_Hbond.Weighted>
0.0000

> <Gold.Chemscore.DEClash.Weighted>
0.6456

> <Gold.Chemscore.DEInternal.Weighted>
4.4645

> <Gold.Chemscore.Rot.Weighted>
5.8254

> <Gold.Chemscore.Internal.Correction.Weighted>
   9.000000E+99

> <Gold.Protein.RotatedTorsions>
[ 6907 6896 6895 6894 ] final  -10.73 input  -60.11 | X-H torsion
[ 7974 7965 7964 7962 ] final   27.18 input  175.53 | X-H torsion
[ 8008 7997 7996 7995 ] final  -26.24 input   59.86 | X-H torsion
[ 10167 10162 10161 10158 ] final  142.92 input  -65.29 | X-H torsion
[ 10718 10713 10712 10709 ] final  -24.14 input   66.30 | X-H torsion
[ 10763 10752 10751 10750 ] final   57.59 input  -60.55 | X-H torsion
[ 11005 11000 10999 10996 ] final -128.26 input  -57.11 | X-H torsion

> <Gold.Protein.ActiveResidues>
 VAL166  LYS551  ARG553  GLY616  TRP617  ASP618  TYR619  PRO620  LYS621  CYS622 
 ASP623  PHE694  ASN695  SER759  ASP760  ASP761  ALA762  ILE779  LEU786  VAL792 
 PHE793  MET794  SER795  GLU796  ALA797  LYS798  CYS799  TRP800  GLU811  SER814 

> <Gold.Protein.RotatedAtoms>
  151.3973  135.0965  159.9544 H   0  0  0  0  0  0  0  0  0  0  0  0  # atno 6907 bound_to 6896
  152.5061  133.8922  159.7410 H   0  0  0  0  0  0  0  0  0  0  0  0  # atno 6908 bound_to 6896
  150.9388  133.6624  159.2823 H   0  0  0  0  0  0  0  0  0  0  0  0  # atno 6909 bound_to 6896
  146.1798  139.7226  142.8909 H   0  0  0  0  0  0  0  0  0  0  0  0  # atno 7974 bound_to 7965
  154.4435  140.1905  156.0744 H   0  0  0  0  0  0  0  0  0  0  0  0  # atno 8008 bound_to 7997
  156.0487  140.3311  155.7299 H   0  0  0  0  0  0  0  0  0  0  0  0  # atno 8009 bound_to 7997
  155.5591  140.0602  157.2824 H   0  0  0  0  0  0  0  0  0  0  0  0  # atno 8010 bound_to 7997
  139.4982  144.6075  151.6346 H   0  0  0  0  0  0  0  0  0  0  0  0  # atno 10167 bound_to 10162
  156.4816  130.4546  149.6808 H   0  0  0  0  0  0  0  0  0  0  0  0  # atno 10718 bound_to 10713
  152.9853  135.5636  154.5415 H   0  0  0  0  0  0  0  0  0  0  0  0  # atno 10763 bound_to 10752
  154.4869  135.2791  155.1529 H   0  0  0  0  0  0  0  0  0  0  0  0  # atno 10764 bound_to 10752
  154.3015  135.6306  153.5480 H   0  0  0  0  0  0  0  0  0  0  0  0  # atno 10765 bound_to 10752
  140.9531  134.1039  157.4043 H   0  0  0  0  0  0  0  0  0  0  0  0  # atno 11005 bound_to 11000
  145.4109  141.0396  143.3017 LP  0  0  0  0  0  0  0  0  0  0  0  0  # atno 17320 bound_to 7965
  144.8295  139.5652  143.6950 LP  0  0  0  0  0  0  0  0  0  0  0  0  # atno 17321 bound_to 7965
  140.5740  144.0060  150.6232 LP  0  0  0  0  0  0  0  0  0  0  0  0  # atno 17342 bound_to 10162
  140.3187  143.3151  152.0806 LP  0  0  0  0  0  0  0  0  0  0  0  0  # atno 17343 bound_to 10162
  156.3515  130.7435  151.2395 LP  0  0  0  0  0  0  0  0  0  0  0  0  # atno 17370 bound_to 10713
  157.7482  131.0375  150.4461 LP  0  0  0  0  0  0  0  0  0  0  0  0  # atno 17371 bound_to 10713
  139.8853  135.0071  156.6429 LP  0  0  0  0  0  0  0  0  0  0  0  0  # atno 17394 bound_to 11000
  140.7575  133.8845  155.8393 LP  0  0  0  0  0  0  0  0  0  0  0  0  # atno 17395 bound_to 11000

$$$$
