#       Name:                AV-unprocessed.smi:2756
#       Creating user name   scv26
#       Creation time:       Fri Mar 27 15:06:48 2020


#       File generated by GOLD software.
#

@<TRIPOS>MOLECULE
AV-unprocessed.smi:2756
    23    23     1
SMALL
NO_CHARGES


@<TRIPOS>ATOM
      1 ****         0.0685   2.1492   0.5298 N.pl3          1 S1                 0.0000
      2 ****        -0.5635   0.9165   0.3735 C.ar           1 S1                 0.0000
      3 ****        -1.9139   0.9472   0.3782 N.ar           1 S1                 0.0000
      4 ****        -2.5808  -0.2163   0.2246 C.ar           1 S1                 0.0000
      5 ****        -1.9395  -1.4589   0.0633 C.ar           1 S1                 0.0000
      6 ****        -0.5325  -1.4879   0.0617 C.ar           1 S1                 0.0000
      7 ****         0.1806  -0.2805   0.2209 C.ar           1 S1                 0.0000
      8 ****         1.7048  -0.2998   0.2265 C.3            1 S1                 0.0000
      9 ****         2.2017   0.0221  -1.1846 C.2            1 S1                 0.0000
     10 ****         2.7507   1.1328  -1.3549 O.co2          1 S1                 0.0000
     11 ****         2.0303  -0.8489  -2.0661 O.co2          1 S1                -1.0000
     12 ****         1.0769   2.2120   0.5371 H              1 S1                 0.0000
     13 ****        -0.4411   3.0118   0.4066 H              1 S1                 0.0000
     14 ****        -3.6589  -0.1548   0.2310 H              1 S1                 0.0000
     15 ****        -2.5121  -2.3663  -0.0576 H              1 S1                 0.0000
     16 ****        -0.0090  -2.4246  -0.0621 H              1 S1                 0.0000
     17 ****         2.1007   0.4142   0.9499 H              1 S1                 0.0000
     18 ****         2.0687  -1.2841   0.5235 H              1 S1                 0.0000
     19 ****        -2.4069   1.8097   0.4925 LP             1 S1                 0.0000
     20 ****         3.0967   1.3863  -2.2583 LP             1 S1                 0.0000
     21 ****         2.8437   1.7674  -0.5878 LP             1 S1                 0.0000
     22 ****         2.3445  -0.6829  -3.0009 LP             1 S1                 0.0000
     23 ****         1.5791  -1.7112  -1.8360 LP             1 S1                 0.0000
@<TRIPOS>BOND
    1    1    2 1     
    2    1   12 1     
    3    1   13 1     
    4    2    7 ar    
    5    2    3 ar    
    6    3    4 ar    
    7    4    5 ar    
    8    4   14 1     
    9    5    6 ar    
   10    5   15 1     
   11    6    7 ar    
   12    6   16 1     
   13    7    8 1     
   14    8    9 1     
   15    8   17 1     
   16    8   18 1     
   17    9   10 ar    
   18    9   11 ar    
   19    3   19 1     
   20   10   20 1     
   21   10   21 1     
   22   11   22 1     
   23   11   23 1     
@<TRIPOS>SUBSTRUCTURE
      1 S1             1
@<TRIPOS>SET
LONE_PAIRS      STATIC     ATOMS    <user>   **** ""
5 19 20 21 22 23
DONOR_HYDROGENS      STATIC     ATOMS    <user>   **** ""
2 12 13
ATOM$BLUE        STATIC     ATOMS    COLORGROUP SYSTEM
5 19 20 21 22 23
ATOM$RED        STATIC     ATOMS    COLORGROUP SYSTEM
2 12 13
