AV-unprocessed.smi:2026|AV-procd|sdf|8204|dock4
  -GOLD-   2272010463D 1   1.00000     0.00000
 Structure written by MMmdl.
 47 49  0  0  0  0  0  0  0  0  2 V2000
  152.4430  145.0333  160.7885 C   0  0  0  0  0  0  0  0  0  0  0  0
  152.0970  143.8097  159.9573 C   0  0  0  0  0  0  0  0  0  0  0  0
  151.3357  143.9878  158.7803 C   0  0  0  0  0  0  0  0  0  0  0  0
  151.0333  142.8497  158.0421 C   0  0  0  0  0  0  0  0  0  0  0  0
  150.3150  142.6961  156.8547 N   0  3  0  0  0  0  0  0  0  0  0  0
  150.2841  141.3792  156.5098 C   0  0  0  0  0  0  0  0  0  0  0  0
  150.9704  140.6891  157.4604 N   0  0  0  0  0  0  0  0  0  0  0  0
  151.2379  139.2467  157.5570 C   0  0  0  0  0  0  0  0  0  0  0  0
  149.9696  138.4276  157.8662 C   0  0  1  0  0  0  0  0  0  0  0  0
  149.1592  138.3856  156.7076 O   0  0  0  0  0  0  0  0  0  0  0  0
  150.3115  136.9824  158.2827 C   0  0  0  0  0  0  0  0  0  0  0  0
  149.1057  136.1727  158.4838 N   0  0  0  0  0  0  0  0  0  0  0  0
  148.6953  135.2022  157.6485 C   0  0  0  0  0  0  0  0  0  0  0  0
  149.2607  134.8338  156.6201 O   0  0  0  0  0  0  0  0  0  0  0  0
  147.5494  134.6959  158.1232 N   0  0  0  0  0  0  0  0  0  0  0  0
  147.1146  135.3350  159.3508 C   0  0  0  0  0  0  0  0  0  0  0  0
  145.7644  136.0463  159.1507 C   0  0  0  0  0  0  0  0  0  0  0  0
  147.0765  134.3264  160.5129 C   0  0  0  0  0  0  0  0  0  0  0  0
  148.2539  136.3306  159.5059 C   0  0  0  0  0  0  0  0  0  0  0  0
  148.3409  137.1428  160.4273 O   0  0  0  0  0  0  0  0  0  0  0  0
  151.4585  141.5660  158.4369 C   0  0  0  0  0  0  0  0  0  0  0  0
  152.2123  141.3743  159.5930 C   0  0  0  0  0  0  0  0  0  0  0  0
  152.5319  142.5195  160.3570 C   0  0  0  0  0  0  0  0  0  0  0  0
  153.3558  142.3399  161.6208 C   0  0  0  0  0  0  0  0  0  0  0  0
  151.9940  145.9366  160.3746 H   0  0  0  0  0  0  0  0  0  0  0  0
  153.5227  145.1812  160.8196 H   0  0  0  0  0  0  0  0  0  0  0  0
  152.0786  144.9195  161.8097 H   0  0  0  0  0  0  0  0  0  0  0  0
  151.0037  144.9672  158.4679 H   0  0  0  0  0  0  0  0  0  0  0  0
  149.8042  140.9584  155.6379 H   0  0  0  0  0  0  0  0  0  0  0  0
  151.7240  138.9014  156.6444 H   0  0  0  0  0  0  0  0  0  0  0  0
  151.9665  139.1141  158.3578 H   0  0  0  0  0  0  0  0  0  0  0  0
  149.4156  138.9301  158.6604 H   0  0  0  0  0  0  0  0  0  0  0  0
  148.5916  137.6323  156.7643 H   0  0  0  0  0  0  0  0  0  0  0  0
  150.9859  136.5183  157.5605 H   0  0  0  0  0  0  0  0  0  0  0  0
  150.8678  136.9955  159.2218 H   0  0  0  0  0  0  0  0  0  0  0  0
  147.0281  133.9547  157.6778 H   0  0  0  0  0  0  0  0  0  0  0  0
  145.4396  136.5420  160.0662 H   0  0  0  0  0  0  0  0  0  0  0  0
  144.9862  135.3369  158.8674 H   0  0  0  0  0  0  0  0  0  0  0  0
  145.8187  136.8037  158.3671 H   0  0  0  0  0  0  0  0  0  0  0  0
  146.7692  134.8062  161.4430 H   0  0  0  0  0  0  0  0  0  0  0  0
  148.0522  133.8693  160.6845 H   0  0  0  0  0  0  0  0  0  0  0  0
  146.3690  133.5218  160.3096 H   0  0  0  0  0  0  0  0  0  0  0  0
  152.5473  140.3945  159.8983 H   0  0  0  0  0  0  0  0  0  0  0  0
  153.6537  141.3000  161.7592 H   0  0  0  0  0  0  0  0  0  0  0  0
  152.7819  142.6419  162.4974 H   0  0  0  0  0  0  0  0  0  0  0  0
  154.2639  142.9416  161.5760 H   0  0  0  0  0  0  0  0  0  0  0  0
  149.8796  143.4338  156.3161 H   0  0  0  0  0  0  0  0  0  0  0  0
  1  2  1  0  0  0  0
  1 25  1  0  0  0  0
  1 26  1  0  0  0  0
  1 27  1  0  0  0  0
  2 23  1  0  0  0  0
  2  3  2  0  0  0  0
  3  4  1  0  0  0  0
  3 28  1  0  0  0  0
  4 21  2  0  0  0  0
  4  5  1  0  0  0  0
  5  6  2  0  0  0  0
  5 47  1  0  0  0  0
  6  7  1  0  0  0  0
  6 29  1  0  0  0  0
  7  8  1  0  0  0  0
  7 21  1  0  0  0  0
  8  9  1  0  0  0  0
  8 30  1  0  0  0  0
  8 31  1  0  0  0  0
  9 10  1  0  0  0  0
  9 11  1  0  0  0  0
  9 32  1  0  0  0  0
 10 33  1  0  0  0  0
 11 12  1  0  0  0  0
 11 34  1  0  0  0  0
 11 35  1  0  0  0  0
 12 19  1  0  0  0  0
 12 13  1  0  0  0  0
 13 14  2  0  0  0  0
 13 15  1  0  0  0  0
 15 16  1  0  0  0  0
 15 36  1  0  0  0  0
 16 17  1  0  0  0  0
 16 18  1  0  0  0  0
 16 19  1  0  0  0  0
 17 37  1  0  0  0  0
 17 38  1  0  0  0  0
 17 39  1  0  0  0  0
 18 40  1  0  0  0  0
 18 41  1  0  0  0  0
 18 42  1  0  0  0  0
 19 20  2  0  0  0  0
 21 22  1  0  0  0  0
 22 23  2  0  0  0  0
 22 43  1  0  0  0  0
 23 24  1  0  0  0  0
 24 44  1  0  0  0  0
 24 45  1  0  0  0  0
 24 46  1  0  0  0  0
M  CHG  1   5   1
M  END
> <s_m_source_file>
AV-unprocessed.smi

> <i_m_source_file_index>
2026

> <i_lp_mmshare_version>
43012

> <i_f3d_flags>
0

> <s_epik_input>
W0NIM11jKFtjSF0xKWMoW0NIM10pW2NIXWMoYzEyKW4oW2NIXW4yKVtDSDJdW0NASF0oW09IXSlbQ0gyXU4oQzM9TylDKD1PKVtOSF1DMyhbQ0gzXSlbQ0gzXQ==

> <s_epik_cmdline>
J2VwaWtfcHl0aG9uJywgJy1waCcsICc3LjAnLCAnLXRuJywgJzgnLCAnLW1hJywgJzIwMCcsICctbWV0YWxfYmluZGluZycsICctaW1hZScsICc8aW5maWxlLm1hZT4nLCAnLW9tYWUnLCAnPG91dGZpbGUubWFlPic=

> <r_lp_tautomer_probability>
1

> <r_epik_Ionization_Penalty>
1.08255

> <r_epik_Ionization_Penalty_Charging>
1.08249

> <r_epik_Ionization_Penalty_Neutral>
6.65731e-05

> <r_epik_State_Penalty>
1.13805

> <r_epik_Charging_Adjusted_Penalty>
2.22054

> <i_epik_Tot_Q>
1

> <i_epik_Tot_abs_Q>
1

> <r_epik_Metal_State_Penalty>
1.29676

> <b_epik_Metal_Only>
0

> <s_lp_Force_Field>
OPLS_2005

> <r_lp_Energy>
29.7067

> <b_lp_Chiralities_Consistent>
1

> <s_lp_Variant>
AV-unprocessed.smi:2026-4

> <Gold.Version>
5.8.1

> <Gold.Id.Protein>
6NUR|6NUR_protein|mol2

> <Gold.PLP.Fitness>
49.6935

> <Gold.PLP.PLP>
-40.4636

> <Gold.PLP.part.hbond>
-3.0000

> <Gold.PLP.part.metal>
0.0000

> <Gold.PLP.part.buried>
-5.5611

> <Gold.PLP.part.nonpolar>
-32.5164

> <Gold.PLP.part.repulsive>
0.1090

> <Gold.PLP.ligand.clash>
0.0000

> <Gold.PLP.ligand.torsion>
0.2965

> <Gold.PLP.Chemscore.Hbond>
3.2640

> <Gold.PLP.Chemscore.CHOScore>
0.0000

> <Gold.PLP.Chemscore.Metal>
0.0000

> <Gold.Chemscore.Hbonds>
donor molecule, donor type, donor heavy atom, donor atom, acceptor molecule, acceptor atom, score
      L1  H     5    47       P1  8028  2.00
      P1  H  6931  6943       L1    20  0.74
      P1  H  6934  6947       L1    20  0.27

> <Gold.PLP.Chemscore.Internal.Correction>
0.0309

> <Gold.Rescore>
     Score         DG    S(hbond)    S(metal)    S(lipo)     H(rot)  DE(clash)    DE(int)     intcor
     18.19     -18.48       2.40        0.00      97.21       2.49       0.00       0.29       ----

> <Gold.Chemscore.Fitness>
18.1945

> <Gold.Chemscore.DG>
-18.4833

> <Gold.Chemscore.ZeroCoef>
-5.4800

> <Gold.Chemscore.Hbond>
2.3987

> <Gold.Chemscore.Metal>
0.0000

> <Gold.Chemscore.Lipo>
97.2078

> <Gold.Chemscore.Internal_Hbond>
0.0000

> <Gold.Chemscore.DEClash>
0.0029

> <Gold.Chemscore.DEInternal>
0.2858

> <Gold.Chemscore.Rot>
2.4929

> <Gold.Chemscore.Internal.Correction>
   9.000000E+99

> <Gold.Chemscore.Hbonds>
donor molecule, donor type, donor heavy atom, donor atom, acceptor molecule, acceptor atom, score
      L1  H     5    47       P1  8028  1.00
      P1  H  6931  6943       L1    20  0.73
      P1  H  6934  6947       L1    20  0.27

> <Gold.Chemscore.Hbond.Weighted>
-8.0118

> <Gold.Chemscore.Metal.Weighted>
-0.0000

> <Gold.Chemscore.Lipo.Weighted>
-11.3733

> <Gold.Chemscore.Internal_Hbond.Weighted>
0.0000

> <Gold.Chemscore.DEClash.Weighted>
0.0029

> <Gold.Chemscore.DEInternal.Weighted>
0.2858

> <Gold.Chemscore.Rot.Weighted>
6.3819

> <Gold.Chemscore.Internal.Correction.Weighted>
   9.000000E+99

> <Gold.Protein.RotatedTorsions>
[ 6907 6896 6895 6894 ] final  128.31 input  -60.11 | X-H torsion
[ 7974 7965 7964 7962 ] final  101.54 input  175.53 | X-H torsion
[ 8008 7997 7996 7995 ] final  -46.88 input   59.86 | X-H torsion
[ 10167 10162 10161 10158 ] final  165.44 input  -65.29 | X-H torsion
[ 10718 10713 10712 10709 ] final  -96.26 input   66.30 | X-H torsion
[ 10763 10752 10751 10750 ] final  -33.44 input  -60.55 | X-H torsion
[ 11005 11000 10999 10996 ] final   41.78 input  -57.11 | X-H torsion

> <Gold.Protein.ActiveResidues>
 VAL166  LYS551  ARG553  GLY616  TRP617  ASP618  TYR619  PRO620  LYS621  CYS622 
 ASP623  PHE694  ASN695  SER759  ASP760  ASP761  ALA762  ILE779  LEU786  VAL792 
 PHE793  MET794  SER795  GLU796  ALA797  LYS798  CYS799  TRP800  GLU811  SER814 

> <Gold.Protein.RotatedAtoms>
  152.3731  133.6445  159.6102 H   0  0  0  0  0  0  0  0  0  0  0  0  # atno 6907 bound_to 6896
  150.7683  133.9237  159.3415 H   0  0  0  0  0  0  0  0  0  0  0  0  # atno 6908 bound_to 6896
  151.7057  135.0923  160.0310 H   0  0  0  0  0  0  0  0  0  0  0  0  # atno 6909 bound_to 6896
  145.3710  139.2398  143.3455 H   0  0  0  0  0  0  0  0  0  0  0  0  # atno 7974 bound_to 7965
  154.4011  140.1360  156.4083 H   0  0  0  0  0  0  0  0  0  0  0  0  # atno 8008 bound_to 7997
  155.7758  140.3483  155.5251 H   0  0  0  0  0  0  0  0  0  0  0  0  # atno 8009 bound_to 7997
  155.8722  140.0973  157.1532 H   0  0  0  0  0  0  0  0  0  0  0  0  # atno 8010 bound_to 7997
  139.4906  144.4132  151.9275 H   0  0  0  0  0  0  0  0  0  0  0  0  # atno 10167 bound_to 10162
  156.0059  130.5144  150.6199 H   0  0  0  0  0  0  0  0  0  0  0  0  # atno 10718 bound_to 10713
  153.8303  135.6866  153.4815 H   0  0  0  0  0  0  0  0  0  0  0  0  # atno 10763 bound_to 10752
  153.1515  135.4616  154.9641 H   0  0  0  0  0  0  0  0  0  0  0  0  # atno 10764 bound_to 10752
  154.7889  135.3295  154.7767 H   0  0  0  0  0  0  0  0  0  0  0  0  # atno 10765 bound_to 10752
  140.1802  134.4113  155.8205 H   0  0  0  0  0  0  0  0  0  0  0  0  # atno 11005 bound_to 11000
  146.2885  140.4361  142.8748 LP  0  0  0  0  0  0  0  0  0  0  0  0  # atno 17320 bound_to 7965
  144.8577  140.7094  143.6128 LP  0  0  0  0  0  0  0  0  0  0  0  0  # atno 17321 bound_to 7965
  140.3573  144.3015  150.5939 LP  0  0  0  0  0  0  0  0  0  0  0  0  # atno 17342 bound_to 10162
  140.5433  143.2219  151.8049 LP  0  0  0  0  0  0  0  0  0  0  0  0  # atno 17343 bound_to 10162
  157.4017  131.0811  151.1303 LP  0  0  0  0  0  0  0  0  0  0  0  0  # atno 17370 bound_to 10713
  157.1962  130.6374  149.5722 LP  0  0  0  0  0  0  0  0  0  0  0  0  # atno 17371 bound_to 10713
  141.2222  133.6997  156.7917 LP  0  0  0  0  0  0  0  0  0  0  0  0  # atno 17394 bound_to 11000
  140.2276  134.8710  157.3443 LP  0  0  0  0  0  0  0  0  0  0  0  0  # atno 17395 bound_to 11000

$$$$
