#       Name:                AV-unprocessed.smi:753
#       Creating user name   scv26
#       Creation time:       Fri Mar 27 00:59:37 2020


#       File generated by GOLD software.
#

@<TRIPOS>MOLECULE
AV-unprocessed.smi:753
    46    48     1
SMALL
NO_CHARGES


@<TRIPOS>ATOM
      1 ****        -4.1221   3.4206  -2.2118 C.3            1 S1                 0.0000
      2 ****        -3.5342   2.0259  -2.1635 C.ar           1 S1                 0.0000
      3 ****        -3.6230   1.2454  -0.9917 C.ar           1 S1                 0.0000
      4 ****        -3.0573  -0.0438  -1.0005 C.ar           1 S1                 0.0000
      5 ****        -2.4266  -0.5018  -2.1757 C.ar           1 S1                 0.0000
      6 ****        -1.7772  -1.8734  -2.2322 C.3            1 S1                 0.0000
      7 ****        -0.2388  -1.8306  -2.1687 C.3            1 S1                 0.0000
      8 ****         0.2468  -1.1697  -0.9601 N.am           1 S1                 0.0000
      9 ****         0.6644   0.1056  -0.8787 C.2            1 S1                 0.0000
     10 ****         0.6951   0.8747  -1.8374 O.2            1 S1                 0.0000
     11 ****         1.0438   0.4925   0.3514 N.am           1 S1                 0.0000
     12 ****         1.5434   1.8059   0.7664 C.3            1 S1                 0.0000
     13 ****         2.0931   1.7611   2.2095 C.3            1 S1                 0.0000
     14 ****         1.2449   2.8184   2.9400 C.3            1 S1                 0.0000
     15 ****        -0.1947   2.2970   3.1137 C.3            1 S1                 0.0000
     16 ****        -0.7675   2.3957   1.6873 C.3            1 S1                 0.0000
     17 ****         0.4444   2.8961   0.8717 C.3            1 S1                 0.0000
     18 ****         1.0714   3.8755   1.8581 C.3            1 S1                 0.0000
     19 ****        -2.3964   0.3567  -3.2949 C.ar           1 S1                 0.0000
     20 ****        -2.9373   1.5939  -3.2963 N.ar           1 S1                 0.0000
     21 ****        -4.3030   3.8048  -1.2075 H              1 S1                 0.0000
     22 ****        -5.0692   3.4118  -2.7513 H              1 S1                 0.0000
     23 ****        -3.4438   4.1082  -2.7182 H              1 S1                 0.0000
     24 ****        -4.1097   1.6239  -0.1049 H              1 S1                 0.0000
     25 ****        -3.1002  -0.6640  -0.1173 H              1 S1                 0.0000
     26 ****        -2.1607  -2.4847  -1.4141 H              1 S1                 0.0000
     27 ****        -2.0909  -2.3686  -3.1518 H              1 S1                 0.0000
     28 ****         0.1543  -2.8473  -2.1788 H              1 S1                 0.0000
     29 ****         0.1603  -1.3440  -3.0603 H              1 S1                 0.0000
     30 ****         0.2578  -1.7219  -0.1151 H              1 S1                 0.0000
     31 ****         0.9622  -0.1970   1.0845 H              1 S1                 0.0000
     32 ****         2.3389   2.1322   0.0933 H              1 S1                 0.0000
     33 ****         2.0091   0.7783   2.6761 H              1 S1                 0.0000
     34 ****         3.1477   2.0397   2.2217 H              1 S1                 0.0000
     35 ****         1.6958   3.1750   3.8663 H              1 S1                 0.0000
     36 ****        -0.2188   1.2778   3.5011 H              1 S1                 0.0000
     37 ****        -0.7611   2.9293   3.7987 H              1 S1                 0.0000
     38 ****        -1.1761   1.4503   1.3308 H              1 S1                 0.0000
     39 ****        -1.5752   3.1282   1.6548 H              1 S1                 0.0000
     40 ****         0.1692   3.3342  -0.0881 H              1 S1                 0.0000
     41 ****         0.4025   4.6876   2.1489 H              1 S1                 0.0000
     42 ****         2.0155   4.2973   1.5090 H              1 S1                 0.0000
     43 ****        -1.9177   0.0458  -4.2119 H              1 S1                 0.0000
     44 ****         0.3989   0.5612  -2.7396 LP             1 S1                 0.0000
     45 ****         1.0164   1.8138  -1.7150 LP             1 S1                 0.0000
     46 ****        -2.8974   2.1728  -4.1107 LP             1 S1                 0.0000
@<TRIPOS>BOND
    1    1    2 1     
    2    1   21 1     
    3    1   22 1     
    4    1   23 1     
    5    2   20 ar    
    6    2    3 ar    
    7    3    4 ar    
    8    3   24 1     
    9    4    5 ar    
   10    4   25 1     
   11    5    6 1     
   12    5   19 ar    
   13    6    7 1     
   14    6   26 1     
   15    6   27 1     
   16    7    8 1     
   17    7   28 1     
   18    7   29 1     
   19    8    9 am    
   20    8   30 1     
   21    9   10 2     
   22    9   11 am    
   23   11   12 1     
   24   11   31 1     
   25   12   17 1     
   26   12   13 1     
   27   12   32 1     
   28   13   14 1     
   29   13   33 1     
   30   13   34 1     
   31   14   18 1     
   32   14   15 1     
   33   14   35 1     
   34   15   16 1     
   35   15   36 1     
   36   15   37 1     
   37   16   17 1     
   38   16   38 1     
   39   16   39 1     
   40   17   18 1     
   41   17   40 1     
   42   18   41 1     
   43   18   42 1     
   44   19   20 ar    
   45   19   43 1     
   46   10   44 1     
   47   10   45 1     
   48   20   46 1     
@<TRIPOS>SUBSTRUCTURE
      1 S1             1
@<TRIPOS>SET
LONE_PAIRS      STATIC     ATOMS    <user>   **** ""
3 44 45 46
DONOR_HYDROGENS      STATIC     ATOMS    <user>   **** ""
2 30 31
ATOM$BLUE        STATIC     ATOMS    COLORGROUP SYSTEM
3 44 45 46
ATOM$RED        STATIC     ATOMS    COLORGROUP SYSTEM
2 30 31
