#       Name:                AV-unprocessed.smi:862
#       Creating user name   scv26
#       Creation time:       Fri Mar 27 01:45:42 2020


#       File generated by GOLD software.
#

@<TRIPOS>MOLECULE
AV-unprocessed.smi:862
    47    49     1
SMALL
NO_CHARGES


@<TRIPOS>ATOM
      1 ****        -4.2832  -3.0676   1.8407 N.am           1 S1                 0.0000
      2 ****        -3.9617  -2.4761   0.6861 C.2            1 S1                 0.0000
      3 ****        -4.1371  -3.0482  -0.3880 O.2            1 S1                 0.0000
      4 ****        -3.4825  -1.2111   0.7962 N.am           1 S1                 0.0000
      5 ****        -2.9927  -0.5740   2.0299 C.3            1 S1                 0.0000
      6 ****        -1.4550  -0.5170   1.9788 C.3            1 S1                 0.0000
      7 ****        -0.9645   0.2361   0.7242 C.3            1 S1                 0.0000
      8 ****         0.5104   0.1616   0.6360 N.4            1 S1                 1.0000
      9 ****         1.1568   1.1907  -0.2087 C.3            1 S1                 0.0000
     10 ****         1.2369   2.5607   0.4725 C.3            1 S1                 0.0000
     11 ****         2.4074   3.2839  -0.2089 C.3            1 S1                 0.0000
     12 ****         3.2415   2.2019  -0.9135 C.3            1 S1                 0.0000
     13 ****         2.6263   0.8604  -0.4893 C.3            1 S1                 0.0000
     14 ****         2.7985  -0.1993  -1.4715 N.pl3          1 S1                 0.0000
     15 ****         3.4088  -1.4299  -1.2643 C.2            1 S1                 0.0000
     16 ****         3.3318  -2.1158  -2.4554 C.2            1 S1                 0.0000
     17 ****         2.6790  -1.3339  -3.4044 N.2            1 S1                 0.0000
     18 ****         2.3937  -0.2158  -2.7510 C.2            1 S1                 0.0000
     19 ****        -1.6363  -0.3259  -0.5500 C.3            1 S1                 0.0000
     20 ****        -3.1652  -0.3980  -0.3843 C.3            1 S1                 0.0000
     21 ****        -4.6562  -4.0061   1.8327 H              1 S1                 0.0000
     22 ****        -4.1637  -2.5751   2.7136 H              1 S1                 0.0000
     23 ****        -3.4014   0.4352   2.0984 H              1 S1                 0.0000
     24 ****        -3.3115  -1.0770   2.9424 H              1 S1                 0.0000
     25 ****        -1.0735  -0.0325   2.8783 H              1 S1                 0.0000
     26 ****        -1.0580  -1.5334   1.9826 H              1 S1                 0.0000
     27 ****        -1.2540   1.2815   0.8387 H              1 S1                 0.0000
     28 ****         0.8921   0.2474   1.5671 H              1 S1                 0.0000
     29 ****         0.6254   1.2945  -1.1551 H              1 S1                 0.0000
     30 ****         0.3051   3.1220   0.3956 H              1 S1                 0.0000
     31 ****         1.4598   2.4382   1.5337 H              1 S1                 0.0000
     32 ****         2.0403   4.0056  -0.9396 H              1 S1                 0.0000
     33 ****         3.0007   3.8353   0.5210 H              1 S1                 0.0000
     34 ****         3.1715   2.3450  -1.9923 H              1 S1                 0.0000
     35 ****         4.2977   2.2611  -0.6489 H              1 S1                 0.0000
     36 ****         3.1037   0.5469   0.4413 H              1 S1                 0.0000
     37 ****         3.8367  -1.7107  -0.3131 H              1 S1                 0.0000
     38 ****         3.6909  -3.1047  -2.6999 H              1 S1                 0.0000
     39 ****         1.8736   0.6095  -3.2151 H              1 S1                 0.0000
     40 ****        -1.3979   0.2905  -1.4167 H              1 S1                 0.0000
     41 ****        -1.2493  -1.3235  -0.7650 H              1 S1                 0.0000
     42 ****        -3.6219  -0.7866  -1.2958 H              1 S1                 0.0000
     43 ****        -3.5767   0.6040  -0.2544 H              1 S1                 0.0000
     44 ****         0.7524  -0.7506   0.2758 H              1 S1                 0.0000
     45 ****        -4.5254  -3.9695  -0.4062 LP             1 S1                 0.0000
     46 ****        -3.8914  -2.5922  -1.2434 LP             1 S1                 0.0000
     47 ****         2.4734  -1.5620  -4.3561 LP             1 S1                 0.0000
@<TRIPOS>BOND
    1    1    2 am    
    2    1   21 1     
    3    1   22 1     
    4    2    3 2     
    5    2    4 am    
    6    4   20 1     
    7    4    5 1     
    8    5    6 1     
    9    5   23 1     
   10    5   24 1     
   11    6    7 1     
   12    6   25 1     
   13    6   26 1     
   14    7    8 1     
   15    7   19 1     
   16    7   27 1     
   17    8    9 1     
   18    8   28 1     
   19    8   44 1     
   20    9   13 1     
   21    9   10 1     
   22    9   29 1     
   23   10   11 1     
   24   10   30 1     
   25   10   31 1     
   26   11   12 1     
   27   11   32 1     
   28   11   33 1     
   29   12   13 1     
   30   12   34 1     
   31   12   35 1     
   32   13   14 1     
   33   13   36 1     
   34   14   18 1     
   35   14   15 1     
   36   15   16 2     
   37   15   37 1     
   38   16   17 1     
   39   16   38 1     
   40   17   18 2     
   41   18   39 1     
   42   19   20 1     
   43   19   40 1     
   44   19   41 1     
   45   20   42 1     
   46   20   43 1     
   47    3   45 1     
   48    3   46 1     
   49   17   47 1     
@<TRIPOS>SUBSTRUCTURE
      1 S1             1
@<TRIPOS>SET
LONE_PAIRS      STATIC     ATOMS    <user>   **** ""
3 45 46 47
DONOR_HYDROGENS      STATIC     ATOMS    <user>   **** ""
4 21 22 28 44
ATOM$BLUE        STATIC     ATOMS    COLORGROUP SYSTEM
3 45 46 47
ATOM$RED        STATIC     ATOMS    COLORGROUP SYSTEM
4 21 22 28 44
