AV-unprocessed.smi:837|AV-procd|sdf|3898|dock7
  -GOLD-   22720 1353D 1   1.00000     0.00000
 Structure written by MMmdl.
 50 52  0  0  0  0  0  0  0  0  2 V2000
  146.1187  133.9797  156.7306 C   0  0  0  0  0  0  0  0  0  0  0  0
  146.6873  133.3593  158.0247 C   0  0  2  0  0  0  0  0  0  0  0  0
  145.6843  133.5109  159.1892 C   0  0  0  0  0  0  0  0  0  0  0  0
  146.1868  132.8194  160.4659 C   0  0  0  0  0  0  0  0  0  0  0  0
  147.5695  133.3407  160.8815 C   0  0  0  0  0  0  0  0  0  0  0  0
  148.5861  133.1967  159.7351 C   0  0  0  0  0  0  0  0  0  0  0  0
  148.1139  133.8602  158.4168 C   0  0  1  0  0  0  0  0  0  0  0  0
  149.0734  133.5849  157.3612 N   0  0  0  0  0  0  0  0  0  0  0  0
  149.6569  134.6874  156.8770 C   0  0  0  0  0  0  0  0  0  0  0  0
  150.4910  134.7099  155.9727 O   0  0  0  0  0  0  0  0  0  0  0  0
  149.1660  135.7503  157.5377 N   0  0  0  0  0  0  0  0  0  0  0  0
  149.5329  137.1414  157.2441 C   0  0  0  0  0  0  0  0  0  0  0  0
  151.0129  137.4335  157.5259 C   0  0  0  0  0  0  0  0  0  0  0  0
  151.7735  136.5379  157.8947 O   0  0  0  0  0  0  0  0  0  0  0  0
  151.4078  138.7026  157.3460 N   0  0  0  0  0  0  0  0  0  0  0  0
  152.7577  139.2055  157.5855 C   0  0  0  0  0  0  0  0  0  0  0  0
  152.8501  140.1335  158.8148 C   0  0  0  0  0  0  0  0  0  0  0  0
  152.5956  141.5967  158.4943 C   0  0  0  0  0  0  0  0  0  0  0  0
  153.3670  142.6122  159.1028 C   0  0  0  0  0  0  0  0  0  0  0  0
  153.0994  143.9622  158.7957 C   0  0  0  0  0  0  0  0  0  0  0  0
  152.0688  144.2672  157.8835 C   0  0  0  0  0  0  0  0  0  0  0  0
  151.3539  143.2693  157.3186 N   0  3  0  0  0  0  0  0  0  0  0  0
  151.5778  141.9641  157.5880 C   0  0  0  0  0  0  0  0  0  0  0  0
  148.2590  135.3832  158.4536 C   0  0  0  0  0  0  0  0  0  0  0  0
  147.6251  136.1290  159.2002 O   0  0  0  0  0  0  0  0  0  0  0  0
  145.9469  135.0513  156.8357 H   0  0  0  0  0  0  0  0  0  0  0  0
  145.1638  133.5230  156.4697 H   0  0  0  0  0  0  0  0  0  0  0  0
  146.7875  133.8306  155.8829 H   0  0  0  0  0  0  0  0  0  0  0  0
  146.7763  132.2894  157.8289 H   0  0  0  0  0  0  0  0  0  0  0  0
  145.4938  134.5648  159.3928 H   0  0  0  0  0  0  0  0  0  0  0  0
  144.7225  133.0815  158.9063 H   0  0  0  0  0  0  0  0  0  0  0  0
  145.4742  132.9738  161.2766 H   0  0  0  0  0  0  0  0  0  0  0  0
  146.2376  131.7423  160.3013 H   0  0  0  0  0  0  0  0  0  0  0  0
  147.4921  134.3833  161.1901 H   0  0  0  0  0  0  0  0  0  0  0  0
  147.9221  132.7931  161.7559 H   0  0  0  0  0  0  0  0  0  0  0  0
  149.5443  133.6126  160.0508 H   0  0  0  0  0  0  0  0  0  0  0  0
  148.7673  132.1356  159.5575 H   0  0  0  0  0  0  0  0  0  0  0  0
  149.2652  132.6500  157.0317 H   0  0  0  0  0  0  0  0  0  0  0  0
  149.3254  137.3814  156.2000 H   0  0  0  0  0  0  0  0  0  0  0  0
  148.9072  137.8143  157.8337 H   0  0  0  0  0  0  0  0  0  0  0  0
  150.7203  139.3717  157.0305 H   0  0  0  0  0  0  0  0  0  0  0  0
  153.4568  138.3737  157.6832 H   0  0  0  0  0  0  0  0  0  0  0  0
  153.0588  139.7565  156.6943 H   0  0  0  0  0  0  0  0  0  0  0  0
  152.1390  139.8098  159.5757 H   0  0  0  0  0  0  0  0  0  0  0  0
  153.8360  140.0385  159.2711 H   0  0  0  0  0  0  0  0  0  0  0  0
  154.1496  142.3622  159.8048 H   0  0  0  0  0  0  0  0  0  0  0  0
  153.6750  144.7518  159.2568 H   0  0  0  0  0  0  0  0  0  0  0  0
  151.7963  145.2709  157.5916 H   0  0  0  0  0  0  0  0  0  0  0  0
  150.9382  141.2593  157.0771 H   0  0  0  0  0  0  0  0  0  0  0  0
  150.6123  143.5118  156.6609 H   0  0  0  0  0  0  0  0  0  0  0  0
  1  2  1  0  0  0  0
  1 26  1  0  0  0  0
  1 27  1  0  0  0  0
  1 28  1  0  0  0  0
  2  7  1  0  0  0  0
  2  3  1  0  0  0  0
  2 29  1  0  0  0  0
  3  4  1  0  0  0  0
  3 30  1  0  0  0  0
  3 31  1  0  0  0  0
  4  5  1  0  0  0  0
  4 32  1  0  0  0  0
  4 33  1  0  0  0  0
  5  6  1  0  0  0  0
  5 34  1  0  0  0  0
  5 35  1  0  0  0  0
  6  7  1  0  0  0  0
  6 36  1  0  0  0  0
  6 37  1  0  0  0  0
  7 24  1  0  0  0  0
  7  8  1  0  0  0  0
  8  9  1  0  0  0  0
  8 38  1  0  0  0  0
  9 10  2  0  0  0  0
  9 11  1  0  0  0  0
 11 12  1  0  0  0  0
 11 24  1  0  0  0  0
 12 13  1  0  0  0  0
 12 39  1  0  0  0  0
 12 40  1  0  0  0  0
 13 14  2  0  0  0  0
 13 15  1  0  0  0  0
 15 16  1  0  0  0  0
 15 41  1  0  0  0  0
 16 17  1  0  0  0  0
 16 42  1  0  0  0  0
 16 43  1  0  0  0  0
 17 18  1  0  0  0  0
 17 44  1  0  0  0  0
 17 45  1  0  0  0  0
 18 23  1  0  0  0  0
 18 19  2  0  0  0  0
 19 20  1  0  0  0  0
 19 46  1  0  0  0  0
 20 21  2  0  0  0  0
 20 47  1  0  0  0  0
 21 22  1  0  0  0  0
 21 48  1  0  0  0  0
 22 23  2  0  0  0  0
 22 50  1  0  0  0  0
 23 49  1  0  0  0  0
 24 25  2  0  0  0  0
M  CHG  1  22   1
M  END
> <s_m_source_file>
AV-unprocessed.smi

> <i_m_source_file_index>
837

> <i_lp_mmshare_version>
43012

> <i_f3d_flags>
0

> <s_epik_input>
W0NIMl0xW0NIMl1bQ0gyXVtDSDJdW0NAQEhdKFtDSDNdKVtDQEBdMTJbTkhdQyg9TylOKEMyPU8pW0NIMl1DKD1PKVtOSF1bQ0gyXVtDSDJdYzNbY0hdW2NIXVtjSF1uW2NIXTM=

> <s_epik_cmdline>
J2VwaWtfcHl0aG9uJywgJy1waCcsICc3LjAnLCAnLXRuJywgJzgnLCAnLW1hJywgJzIwMCcsICctbWV0YWxfYmluZGluZycsICctaW1hZScsICc8aW5maWxlLm1hZT4nLCAnLW9tYWUnLCAnPG91dGZpbGUubWFlPic=

> <r_lp_tautomer_probability>
1

> <r_epik_Ionization_Penalty>
2.28139

> <r_epik_Ionization_Penalty_Charging>
2.28135

> <r_epik_Ionization_Penalty_Neutral>
4.65525e-05

> <r_epik_State_Penalty>
2.43066

> <r_epik_Charging_Adjusted_Penalty>
4.71201

> <i_epik_Tot_Q>
1

> <i_epik_Tot_abs_Q>
1

> <r_epik_Metal_State_Penalty>
2.4646

> <b_epik_Metal_Only>
0

> <s_lp_Force_Field>
OPLS_2005

> <r_lp_Energy>
25.0324

> <b_lp_Chiralities_Consistent>
1

> <s_lp_Variant>
AV-unprocessed.smi:837-7

> <Gold.Version>
5.8.1

> <Gold.Id.Protein>
6NUR|6NUR_protein|mol2

> <Gold.PLP.Fitness>
54.0166

> <Gold.PLP.PLP>
-42.7018

> <Gold.PLP.part.hbond>
-4.0000

> <Gold.PLP.part.metal>
0.0000

> <Gold.PLP.part.buried>
-5.5759

> <Gold.PLP.part.nonpolar>
-33.9593

> <Gold.PLP.part.repulsive>
0.2010

> <Gold.PLP.ligand.clash>
0.0000

> <Gold.PLP.ligand.torsion>
0.5288

> <Gold.PLP.Chemscore.Hbond>
4.1130

> <Gold.PLP.Chemscore.CHOScore>
0.0000

> <Gold.PLP.Chemscore.Metal>
0.0000

> <Gold.Chemscore.Hbonds>
donor molecule, donor type, donor heavy atom, donor atom, acceptor molecule, acceptor atom, score
      L1  H    22    50       P1  8028  0.55

> <Gold.PLP.Chemscore.Internal.Correction>
0.0332

> <Gold.Rescore>
     Score         DG    S(hbond)    S(metal)    S(lipo)     H(rot)  DE(clash)    DE(int)     intcor
     19.54     -22.60       2.88        0.00     107.21       1.96       0.08       2.98       ----

> <Gold.Chemscore.Fitness>
19.5413

> <Gold.Chemscore.DG>
-22.6048

> <Gold.Chemscore.ZeroCoef>
-5.4800

> <Gold.Chemscore.Hbond>
2.8768

> <Gold.Chemscore.Metal>
0.0000

> <Gold.Chemscore.Lipo>
107.2101

> <Gold.Chemscore.Internal_Hbond>
0.0000

> <Gold.Chemscore.DEClash>
0.0806

> <Gold.Chemscore.DEInternal>
2.9829

> <Gold.Chemscore.Rot>
1.9638

> <Gold.Chemscore.Internal.Correction>
   9.000000E+99

> <Gold.Chemscore.Hbonds>
donor molecule, donor type, donor heavy atom, donor atom, acceptor molecule, acceptor atom, score
      L1  H    22    50       P1  8028  0.27
      P1  H  6896  6907       L1    14  0.01

> <Gold.Chemscore.Hbond.Weighted>
-9.6086

> <Gold.Chemscore.Metal.Weighted>
-0.0000

> <Gold.Chemscore.Lipo.Weighted>
-12.5436

> <Gold.Chemscore.Internal_Hbond.Weighted>
0.0000

> <Gold.Chemscore.DEClash.Weighted>
0.0806

> <Gold.Chemscore.DEInternal.Weighted>
2.9829

> <Gold.Chemscore.Rot.Weighted>
5.0274

> <Gold.Chemscore.Internal.Correction.Weighted>
   9.000000E+99

> <Gold.Protein.RotatedTorsions>
[ 6907 6896 6895 6894 ] final  -11.25 input  -60.11 | X-H torsion
[ 7974 7965 7964 7962 ] final  -64.03 input  175.53 | X-H torsion
[ 8008 7997 7996 7995 ] final -129.84 input   59.86 | X-H torsion
[ 10167 10162 10161 10158 ] final -161.69 input  -65.29 | X-H torsion
[ 10718 10713 10712 10709 ] final -118.03 input   66.30 | X-H torsion
[ 10763 10752 10751 10750 ] final   90.28 input  -60.55 | X-H torsion
[ 11005 11000 10999 10996 ] final  -13.57 input  -57.11 | X-H torsion

> <Gold.Protein.ActiveResidues>
 VAL166  LYS551  ARG553  GLY616  TRP617  ASP618  TYR619  PRO620  LYS621  CYS622 
 ASP623  PHE694  ASN695  SER759  ASP760  ASP761  ALA762  ILE779  LEU786  VAL792 
 PHE793  MET794  SER795  GLU796  ALA797  LYS798  CYS799  TRP800  GLU811  SER814 

> <Gold.Protein.RotatedAtoms>
  151.3892  135.0953  159.9520 H   0  0  0  0  0  0  0  0  0  0  0  0  # atno 6907 bound_to 6896
  152.5085  133.8996  159.7445 H   0  0  0  0  0  0  0  0  0  0  0  0  # atno 6908 bound_to 6896
  150.9446  133.6562  159.2812 H   0  0  0  0  0  0  0  0  0  0  0  0  # atno 6909 bound_to 6896
  145.7717  140.8809  143.0376 H   0  0  0  0  0  0  0  0  0  0  0  0  # atno 7974 bound_to 7965
  155.2858  140.0446  157.3019 H   0  0  0  0  0  0  0  0  0  0  0  0  # atno 8008 bound_to 7997
  154.5570  140.2334  155.8363 H   0  0  0  0  0  0  0  0  0  0  0  0  # atno 8009 bound_to 7997
  156.2015  140.3024  155.9544 H   0  0  0  0  0  0  0  0  0  0  0  0  # atno 8010 bound_to 7997
  139.6447  144.0195  152.2118 H   0  0  0  0  0  0  0  0  0  0  0  0  # atno 10167 bound_to 10162
  156.1076  130.6223  150.9239 H   0  0  0  0  0  0  0  0  0  0  0  0  # atno 10718 bound_to 10713
  153.1959  135.4439  155.0207 H   0  0  0  0  0  0  0  0  0  0  0  0  # atno 10763 bound_to 10752
  154.8118  135.3298  154.7286 H   0  0  0  0  0  0  0  0  0  0  0  0  # atno 10764 bound_to 10752
  153.7736  135.6983  153.4957 H   0  0  0  0  0  0  0  0  0  0  0  0  # atno 10765 bound_to 10752
  140.7775  133.8389  155.9262 H   0  0  0  0  0  0  0  0  0  0  0  0  # atno 11005 bound_to 11000
  144.6811  139.9865  143.7484 LP  0  0  0  0  0  0  0  0  0  0  0  0  # atno 17320 bound_to 7965
  146.0163  139.3212  143.0840 LP  0  0  0  0  0  0  0  0  0  0  0  0  # atno 17321 bound_to 7965
  139.9893  144.6373  150.7829 LP  0  0  0  0  0  0  0  0  0  0  0  0  # atno 17342 bound_to 10162
  140.7508  143.2962  151.3198 LP  0  0  0  0  0  0  0  0  0  0  0  0  # atno 17343 bound_to 10162
  157.6254  131.0926  150.8543 LP  0  0  0  0  0  0  0  0  0  0  0  0  # atno 17370 bound_to 10713
  156.8659  130.5129  149.5300 LP  0  0  0  0  0  0  0  0  0  0  0  0  # atno 17371 bound_to 10713
  140.9515  134.1773  157.4724 LP  0  0  0  0  0  0  0  0  0  0  0  0  # atno 17394 bound_to 11000
  139.8747  134.9911  156.5532 LP  0  0  0  0  0  0  0  0  0  0  0  0  # atno 17395 bound_to 11000

$$$$
