#       Name:                AV-unprocessed.smi:2652
#       Creating user name   scv26
#       Creation time:       Fri Mar 27 14:30:52 2020


#       File generated by GOLD software.
#

@<TRIPOS>MOLECULE
AV-unprocessed.smi:2652
    45    46     1
SMALL
NO_CHARGES


@<TRIPOS>ATOM
      1 ****        -3.3654   0.8021   2.1278 C.3            1 S1                 0.0000
      2 ****        -3.2479   2.1761   1.4901 C.2            1 S1                 0.0000
      3 ****        -3.6642   3.3236   2.0360 C.2            1 S1                 0.0000
      4 ****        -3.3300   4.7112   1.0294 S.3            1 S1                 0.0000
      5 ****        -2.5727   3.6435  -0.2066 C.2            1 S1                 0.0000
      6 ****        -2.0970   4.0734  -1.2562 O.2            1 S1                 0.0000
      7 ****        -2.6373   2.3222   0.2361 N.am           1 S1                 0.0000
      8 ****        -2.1187   1.1944  -0.5498 C.3            1 S1                 0.0000
      9 ****        -0.6460   0.8718  -0.2610 C.2            1 S1                 0.0000
     10 ****        -0.0176   1.5253   0.5719 O.2            1 S1                 0.0000
     11 ****        -0.1442  -0.1531  -0.9751 N.am           1 S1                 0.0000
     12 ****         1.1858  -0.7851  -0.9997 C.3            1 S1                 0.0000
     13 ****         1.6972  -0.5921  -2.4509 C.2            1 S1                 0.0000
     14 ****         2.4268   0.3961  -2.6901 O.co2          1 S1                 0.0000
     15 ****         1.3160  -1.4100  -3.3185 O.co2          1 S1                -1.0000
     16 ****         2.2038  -0.2132   0.0394 C.3            1 S1                 0.0000
     17 ****         3.5220  -1.0093   0.1040 C.3            1 S1                 0.0000
     18 ****         3.2600  -2.4912   0.4076 C.3            1 S1                 0.0000
     19 ****         2.2832  -3.0998  -0.6085 C.3            1 S1                 0.0000
     20 ****         0.9720  -2.2921  -0.6754 C.3            1 S1                 0.0000
     21 ****        -3.5185   0.8971   3.2032 H              1 S1                 0.0000
     22 ****        -2.4645   0.2065   1.9801 H              1 S1                 0.0000
     23 ****        -4.2160   0.2627   1.7107 H              1 S1                 0.0000
     24 ****        -4.1483   3.4386   2.9947 H              1 S1                 0.0000
     25 ****        -2.7239   0.3023  -0.3872 H              1 S1                 0.0000
     26 ****        -2.2167   1.4175  -1.6136 H              1 S1                 0.0000
     27 ****        -0.7903  -0.5663  -1.6316 H              1 S1                 0.0000
     28 ****         2.4263   0.8365  -0.1584 H              1 S1                 0.0000
     29 ****         1.7606  -0.2443   1.0355 H              1 S1                 0.0000
     30 ****         4.0672  -0.9158  -0.8355 H              1 S1                 0.0000
     31 ****         4.1686  -0.5862   0.8730 H              1 S1                 0.0000
     32 ****         4.1989  -3.0453   0.4010 H              1 S1                 0.0000
     33 ****         2.8485  -2.5898   1.4129 H              1 S1                 0.0000
     34 ****         2.7530  -3.1384  -1.5919 H              1 S1                 0.0000
     35 ****         2.0654  -4.1327  -0.3362 H              1 S1                 0.0000
     36 ****         0.4658  -2.3784   0.2873 H              1 S1                 0.0000
     37 ****         0.2964  -2.7571  -1.3949 H              1 S1                 0.0000
     38 ****        -2.1212   5.0538  -1.4515 LP             1 S1                 0.0000
     39 ****        -1.6859   3.4425  -1.9142 LP             1 S1                 0.0000
     40 ****        -0.4663   2.2709   1.0645 LP             1 S1                 0.0000
     41 ****         0.9416   1.3105   0.7558 LP             1 S1                 0.0000
     42 ****         2.7419   0.5708  -3.6229 LP             1 S1                 0.0000
     43 ****         2.6948   1.0110  -1.9484 LP             1 S1                 0.0000
     44 ****         1.5950  -1.2941  -4.2718 LP             1 S1                 0.0000
     45 ****         0.7326  -2.1793  -3.0583 LP             1 S1                 0.0000
@<TRIPOS>BOND
    1    1    2 1     
    2    1   21 1     
    3    1   22 1     
    4    1   23 1     
    5    2    7 1     
    6    2    3 2     
    7    3    4 1     
    8    3   24 1     
    9    4    5 1     
   10    5    6 2     
   11    5    7 am    
   12    7    8 1     
   13    8    9 1     
   14    8   25 1     
   15    8   26 1     
   16    9   10 2     
   17    9   11 am    
   18   11   12 1     
   19   11   27 1     
   20   12   20 1     
   21   12   13 1     
   22   12   16 1     
   23   13   14 ar    
   24   13   15 ar    
   25   16   17 1     
   26   16   28 1     
   27   16   29 1     
   28   17   18 1     
   29   17   30 1     
   30   17   31 1     
   31   18   19 1     
   32   18   32 1     
   33   18   33 1     
   34   19   20 1     
   35   19   34 1     
   36   19   35 1     
   37   20   36 1     
   38   20   37 1     
   39    6   38 1     
   40    6   39 1     
   41   10   40 1     
   42   10   41 1     
   43   14   42 1     
   44   14   43 1     
   45   15   44 1     
   46   15   45 1     
@<TRIPOS>SUBSTRUCTURE
      1 S1             1
@<TRIPOS>SET
LONE_PAIRS      STATIC     ATOMS    <user>   **** ""
8 38 39 40 41 42 43 44 45
DONOR_HYDROGENS      STATIC     ATOMS    <user>   **** ""
1 27
ATOM$BLUE        STATIC     ATOMS    COLORGROUP SYSTEM
8 38 39 40 41 42 43 44 45
ATOM$RED        STATIC     ATOMS    COLORGROUP SYSTEM
1 27
