AV-unprocessed.smi:496|AV-procd|sdf|2717|dock1
  -GOLD-   2262023163D 1   1.00000     0.00000
 Structure written by MMmdl.
 42 44  0  0  0  0  0  0  0  0  1 V2000
  152.0737  138.1671  154.3689 C   0  0  0  0  0  0  0  0  0  0  0  0
  151.1153  138.5881  155.3240 O   0  0  0  0  0  0  0  0  0  0  0  0
  150.3794  139.7191  154.8912 C   0  0  0  0  0  0  0  0  0  0  0  0
  149.5931  140.2827  156.0812 C   0  0  0  0  0  0  0  0  0  0  0  0
  150.4019  140.3299  157.2908 N   0  0  0  0  0  0  0  0  0  0  0  0
  150.7355  139.3151  158.1320 C   0  0  0  0  0  0  0  0  0  0  0  0
  150.2927  137.8912  157.9141 C   0  0  1  0  0  0  0  0  0  0  0  0
  151.4785  136.9303  157.7435 C   0  0  0  0  0  0  0  0  0  0  0  0
  149.4802  137.5052  159.0650 N   0  0  0  0  0  0  0  0  0  0  0  0
  148.9161  136.3038  159.2638 C   0  0  0  0  0  0  0  0  0  0  0  0
  149.0404  135.3554  158.4889 O   0  0  0  0  0  0  0  0  0  0  0  0
  148.1099  136.1724  160.4920 C   0  0  0  0  0  0  0  0  0  0  0  0
  147.5957  135.0711  161.1252 C   0  0  0  0  0  0  0  0  0  0  0  0
  146.8996  135.5475  162.2704 C   0  0  0  0  0  0  0  0  0  0  0  0
  147.0357  136.9058  162.2542 C   0  0  0  0  0  0  0  0  0  0  0  0
  147.7682  137.3019  161.1779 O   0  0  0  0  0  0  0  0  0  0  0  0
  151.4867  139.6632  159.1806 N   0  0  0  0  0  0  0  0  0  0  0  0
  151.6680  141.0186  158.9954 C   0  0  0  0  0  0  0  0  0  0  0  0
  152.3817  141.9627  159.7678 C   0  0  0  0  0  0  0  0  0  0  0  0
  152.4309  143.3159  159.3739 C   0  0  0  0  0  0  0  0  0  0  0  0
  151.7687  143.7429  158.2049 C   0  0  0  0  0  0  0  0  0  0  0  0
  151.0514  142.8181  157.4218 C   0  0  0  0  0  0  0  0  0  0  0  0
  151.0043  141.4680  157.8198 C   0  0  0  0  0  0  0  0  0  0  0  0
  152.6162  137.3024  154.7509 H   0  0  0  0  0  0  0  0  0  0  0  0
  152.7987  138.9557  154.1630 H   0  0  0  0  0  0  0  0  0  0  0  0
  151.5956  137.8770  153.4323 H   0  0  0  0  0  0  0  0  0  0  0  0
  151.0589  140.4726  154.4907 H   0  0  0  0  0  0  0  0  0  0  0  0
  149.6934  139.4346  154.0915 H   0  0  0  0  0  0  0  0  0  0  0  0
  149.2507  141.2916  155.8497 H   0  0  0  0  0  0  0  0  0  0  0  0
  148.6906  139.7016  156.2693 H   0  0  0  0  0  0  0  0  0  0  0  0
  149.6912  137.8285  157.0093 H   0  0  0  0  0  0  0  0  0  0  0  0
  152.0938  137.2164  156.8905 H   0  0  0  0  0  0  0  0  0  0  0  0
  151.1340  135.9096  157.5744 H   0  0  0  0  0  0  0  0  0  0  0  0
  152.1180  136.9228  158.6269 H   0  0  0  0  0  0  0  0  0  0  0  0
  149.3165  138.2220  159.7571 H   0  0  0  0  0  0  0  0  0  0  0  0
  147.7069  134.0451  160.8058 H   0  0  0  0  0  0  0  0  0  0  0  0
  146.3668  134.9700  163.0115 H   0  0  0  0  0  0  0  0  0  0  0  0
  146.6940  137.7025  162.8984 H   0  0  0  0  0  0  0  0  0  0  0  0
  152.8936  141.6449  160.6641 H   0  0  0  0  0  0  0  0  0  0  0  0
  152.9799  144.0292  159.9709 H   0  0  0  0  0  0  0  0  0  0  0  0
  151.8119  144.7812  157.9094 H   0  0  0  0  0  0  0  0  0  0  0  0
  150.5453  143.1445  156.5255 H   0  0  0  0  0  0  0  0  0  0  0  0
  1  2  1  0  0  0  0
  1 24  1  0  0  0  0
  1 25  1  0  0  0  0
  1 26  1  0  0  0  0
  2  3  1  0  0  0  0
  3  4  1  0  0  0  0
  3 27  1  0  0  0  0
  3 28  1  0  0  0  0
  4  5  1  0  0  0  0
  4 29  1  0  0  0  0
  4 30  1  0  0  0  0
  5 23  1  0  0  0  0
  5  6  1  0  0  0  0
  6  7  1  0  0  0  0
  6 17  2  0  0  0  0
  7  8  1  0  0  0  0
  7  9  1  0  0  0  0
  7 31  1  0  0  0  0
  8 32  1  0  0  0  0
  8 33  1  0  0  0  0
  8 34  1  0  0  0  0
  9 10  1  0  0  0  0
  9 35  1  0  0  0  0
 10 11  2  0  0  0  0
 10 12  1  0  0  0  0
 12 16  1  0  0  0  0
 12 13  2  0  0  0  0
 13 14  1  0  0  0  0
 13 36  1  0  0  0  0
 14 15  2  0  0  0  0
 14 37  1  0  0  0  0
 15 16  1  0  0  0  0
 15 38  1  0  0  0  0
 17 18  1  0  0  0  0
 18 23  2  0  0  0  0
 18 19  1  0  0  0  0
 19 20  2  0  0  0  0
 19 39  1  0  0  0  0
 20 21  1  0  0  0  0
 20 40  1  0  0  0  0
 21 22  2  0  0  0  0
 21 41  1  0  0  0  0
 22 23  1  0  0  0  0
 22 42  1  0  0  0  0
M  END
> <s_m_source_file>
AV-unprocessed.smi

> <i_m_source_file_index>
496

> <i_lp_mmshare_version>
43012

> <i_f3d_flags>
0

> <s_epik_input>
W2NIXTFbY0hdW2NIXVtjSF1jKGMxMiluKFtDSDJdW0NIMl1PW0NIM10pYyhuMilbQ0BIXShbQ0gzXSlbTkhdQyg9TyljM1tjSF1bY0hdW2NIXW8z

> <s_epik_cmdline>
J2VwaWtfcHl0aG9uJywgJy1waCcsICc3LjAnLCAnLXRuJywgJzgnLCAnLW1hJywgJzIwMCcsICctbWV0YWxfYmluZGluZycsICctaW1hZScsICc8aW5maWxlLm1hZT4nLCAnLW9tYWUnLCAnPG91dGZpbGUubWFlPic=

> <r_epik_Ionization_Penalty>
0.116528

> <r_epik_Ionization_Penalty_Charging>
0

> <r_epik_Ionization_Penalty_Neutral>
0.116528

> <r_epik_State_Penalty>
0.106132

> <r_epik_Charging_Adjusted_Penalty>
0.106132

> <i_epik_Tot_Q>
0

> <i_epik_Tot_abs_Q>
0

> <r_epik_Metal_State_Penalty>
0.0963468

> <b_epik_Metal_Only>
0

> <s_lp_Force_Field>
OPLS_2005

> <r_lp_Energy>
8.49443

> <b_lp_Chiralities_Consistent>
1

> <s_lp_Variant>
AV-unprocessed.smi:496-2

> <Gold.Version>
5.8.1

> <Gold.Id.Protein>
6NUR|6NUR_protein|mol2

> <Gold.PLP.Fitness>
51.8058

> <Gold.PLP.PLP>
-44.3211

> <Gold.PLP.part.hbond>
-3.0000

> <Gold.PLP.part.metal>
0.0000

> <Gold.PLP.part.buried>
-4.9224

> <Gold.PLP.part.nonpolar>
-37.1345

> <Gold.PLP.part.repulsive>
0.2576

> <Gold.PLP.ligand.clash>
0.0000

> <Gold.PLP.ligand.torsion>
0.4296

> <Gold.PLP.Chemscore.Hbond>
2.7200

> <Gold.PLP.Chemscore.CHOScore>
0.0000

> <Gold.PLP.Chemscore.Metal>
0.0000

> <Gold.Chemscore.Hbonds>
donor molecule, donor type, donor heavy atom, donor atom, acceptor molecule, acceptor atom, score
      P1  H  6896  6907       L1    11  0.63
      P1  H  6931  6943       L1    16  0.90
      P1  H  6934  6947       L1    16  0.80

> <Gold.PLP.Chemscore.Internal.Correction>
0.1840

> <Gold.Rescore>
     Score         DG    S(hbond)    S(metal)    S(lipo)     H(rot)  DE(clash)    DE(int)     intcor
     16.83     -21.00       2.17        0.00     111.07       1.85       0.15       4.02       ----

> <Gold.Chemscore.Fitness>
16.8330

> <Gold.Chemscore.DG>
-21.0023

> <Gold.Chemscore.ZeroCoef>
-5.4800

> <Gold.Chemscore.Hbond>
2.1730

> <Gold.Chemscore.Metal>
0.0000

> <Gold.Chemscore.Lipo>
111.0706

> <Gold.Chemscore.Internal_Hbond>
0.0000

> <Gold.Chemscore.DEClash>
0.1469

> <Gold.Chemscore.DEInternal>
4.0223

> <Gold.Chemscore.Rot>
1.8480

> <Gold.Chemscore.Internal.Correction>
   9.000000E+99

> <Gold.Chemscore.Hbonds>
donor molecule, donor type, donor heavy atom, donor atom, acceptor molecule, acceptor atom, score
      P1  H  6896  6907       L1    11  0.23
      P1  H  6931  6943       L1    16  0.34
      P1  H  6934  6947       L1    16  0.28

> <Gold.Chemscore.Hbond.Weighted>
-7.2578

> <Gold.Chemscore.Metal.Weighted>
-0.0000

> <Gold.Chemscore.Lipo.Weighted>
-12.9953

> <Gold.Chemscore.Internal_Hbond.Weighted>
0.0000

> <Gold.Chemscore.DEClash.Weighted>
0.1469

> <Gold.Chemscore.DEInternal.Weighted>
4.0223

> <Gold.Chemscore.Rot.Weighted>
4.7308

> <Gold.Chemscore.Internal.Correction.Weighted>
   9.000000E+99

> <Gold.Protein.RotatedTorsions>
[ 6907 6896 6895 6894 ] final  -96.49 input  -60.11 | X-H torsion
[ 7974 7965 7964 7962 ] final   45.99 input  175.53 | X-H torsion
[ 8008 7997 7996 7995 ] final   89.19 input   59.86 | X-H torsion
[ 10167 10162 10161 10158 ] final -102.40 input  -65.29 | X-H torsion
[ 10718 10713 10712 10709 ] final  -33.68 input   66.30 | X-H torsion
[ 10763 10752 10751 10750 ] final   25.24 input  -60.55 | X-H torsion
[ 11005 11000 10999 10996 ] final  146.99 input  -57.11 | X-H torsion

> <Gold.Protein.ActiveResidues>
 VAL166  LYS551  ARG553  GLY616  TRP617  ASP618  TYR619  PRO620  LYS621  CYS622 
 ASP623  PHE694  ASN695  SER759  ASP760  ASP761  ALA762  ILE779  LEU786  VAL792 
 PHE793  MET794  SER795  GLU796  ALA797  LYS798  CYS799  TRP800  GLU811  SER814 

> <Gold.Protein.RotatedAtoms>
  150.6990  134.1495  159.4134 H   0  0  0  0  0  0  0  0  0  0  0  0  # atno 6907 bound_to 6896
  151.9478  135.0181  160.0549 H   0  0  0  0  0  0  0  0  0  0  0  0  # atno 6908 bound_to 6896
  152.2038  133.4825  159.5109 H   0  0  0  0  0  0  0  0  0  0  0  0  # atno 6909 bound_to 6896
  146.0430  139.4904  142.9766 H   0  0  0  0  0  0  0  0  0  0  0  0  # atno 7974 bound_to 7965
  155.9970  140.3363  155.6808 H   0  0  0  0  0  0  0  0  0  0  0  0  # atno 8008 bound_to 7997
  155.6343  140.0688  157.2657 H   0  0  0  0  0  0  0  0  0  0  0  0  # atno 8009 bound_to 7997
  154.4237  140.1754  156.1493 H   0  0  0  0  0  0  0  0  0  0  0  0  # atno 8010 bound_to 7997
  140.2311  143.3606  152.0886 H   0  0  0  0  0  0  0  0  0  0  0  0  # atno 10167 bound_to 10162
  156.3597  130.4322  149.7634 H   0  0  0  0  0  0  0  0  0  0  0  0  # atno 10718 bound_to 10713
  153.0706  135.6587  154.0257 H   0  0  0  0  0  0  0  0  0  0  0  0  # atno 10763 bound_to 10752
  153.9903  135.2946  155.3414 H   0  0  0  0  0  0  0  0  0  0  0  0  # atno 10764 bound_to 10752
  154.7079  135.5217  153.8692 H   0  0  0  0  0  0  0  0  0  0  0  0  # atno 10765 bound_to 10752
  140.0839  134.9081  157.1544 H   0  0  0  0  0  0  0  0  0  0  0  0  # atno 11005 bound_to 11000
  145.6852  141.0180  143.1585 LP  0  0  0  0  0  0  0  0  0  0  0  0  # atno 17320 bound_to 7965
  144.7084  139.8468  143.7422 LP  0  0  0  0  0  0  0  0  0  0  0  0  # atno 17321 bound_to 7965
  139.5110  144.6893  151.5803 LP  0  0  0  0  0  0  0  0  0  0  0  0  # atno 17342 bound_to 10162
  140.6184  143.9304  150.6507 LP  0  0  0  0  0  0  0  0  0  0  0  0  # atno 17343 bound_to 10162
  156.4803  130.8038  151.3052 LP  0  0  0  0  0  0  0  0  0  0  0  0  # atno 17370 bound_to 10713
  157.7472  131.0008  150.2939 LP  0  0  0  0  0  0  0  0  0  0  0  0  # atno 17371 bound_to 10713
  140.3449  134.2663  155.7206 LP  0  0  0  0  0  0  0  0  0  0  0  0  # atno 17394 bound_to 11000
  141.2056  133.7856  157.0225 LP  0  0  0  0  0  0  0  0  0  0  0  0  # atno 17395 bound_to 11000

$$$$
