AV-unprocessed.smi:910|AV-procd|sdf|4119|dock6
  -GOLD-   22720 2 13D 1   1.00000     0.00000
 Structure written by MMmdl.
 46 47  0  0  0  0  0  0  0  0  1 V2000
  154.0357  141.0382  160.0221 C   0  0  0  0  0  0  0  0  0  0  0  0
  152.9053  141.8321  159.4466 C   0  0  0  0  0  0  0  0  0  0  0  0
  152.4654  141.6529  158.1427 N   0  0  0  0  0  0  0  0  0  0  0  0
  151.4635  142.5230  158.0044 C   0  0  0  0  0  0  0  0  0  0  0  0
  150.6807  142.7316  156.8417 N   0  0  0  0  0  0  0  0  0  0  0  0
  150.5036  141.8871  155.8125 C   0  0  0  0  0  0  0  0  0  0  0  0
  150.9843  140.7564  155.7298 O   0  0  0  0  0  0  0  0  0  0  0  0
  149.7354  142.4368  154.8614 N   0  0  0  0  0  0  0  0  0  0  0  0
  149.4186  141.8237  153.5754 C   0  0  0  0  0  0  0  0  0  0  0  0
  147.9158  141.5354  153.4425 C   0  0  0  0  0  0  0  0  0  0  0  0
  147.2113  142.7664  153.5135 O   0  0  0  0  0  0  0  0  0  0  0  0
  145.8152  142.6366  153.7455 C   0  0  1  0  0  0  0  0  0  0  0  0
  145.5827  141.9736  155.1185 C   0  0  0  0  0  0  0  0  0  0  0  0
  144.0910  141.9410  155.4822 C   0  0  0  0  0  0  0  0  0  0  0  0
  143.4824  143.3500  155.4414 C   0  0  0  0  0  0  0  0  0  0  0  0
  143.7040  144.0076  154.0707 C   0  0  0  0  0  0  0  0  0  0  0  0
  145.1983  144.0522  153.6929 C   0  0  2  0  0  0  0  0  0  0  0  0
  145.3922  144.7044  152.3134 C   0  0  0  0  0  0  0  0  0  0  0  0
  151.2149  143.2579  159.1207 O   0  0  0  0  0  0  0  0  0  0  0  0
  152.1367  142.8085  160.0284 C   0  0  0  0  0  0  0  0  0  0  0  0
  152.1337  143.4248  161.3860 C   0  0  0  0  0  0  0  0  0  0  0  0
  154.6581  141.6530  160.6726 H   0  0  0  0  0  0  0  0  0  0  0  0
  154.6782  140.6330  159.2396 H   0  0  0  0  0  0  0  0  0  0  0  0
  153.6647  140.2008  160.6130 H   0  0  0  0  0  0  0  0  0  0  0  0
  150.2244  143.6294  156.7770 H   0  0  0  0  0  0  0  0  0  0  0  0
  149.3816  143.3693  155.0158 H   0  0  0  0  0  0  0  0  0  0  0  0
  149.7558  142.4672  152.7613 H   0  0  0  0  0  0  0  0  0  0  0  0
  149.9819  140.8940  153.4930 H   0  0  0  0  0  0  0  0  0  0  0  0
  147.7157  141.0326  152.4951 H   0  0  0  0  0  0  0  0  0  0  0  0
  147.5917  140.8658  154.2394 H   0  0  0  0  0  0  0  0  0  0  0  0
  145.3505  142.0332  152.9634 H   0  0  0  0  0  0  0  0  0  0  0  0
  145.9784  140.9582  155.1228 H   0  0  0  0  0  0  0  0  0  0  0  0
  146.1308  142.5213  155.8863 H   0  0  0  0  0  0  0  0  0  0  0  0
  143.5584  141.2916  154.7864 H   0  0  0  0  0  0  0  0  0  0  0  0
  143.9592  141.5077  156.4741 H   0  0  0  0  0  0  0  0  0  0  0  0
  142.4159  143.3007  155.6623 H   0  0  0  0  0  0  0  0  0  0  0  0
  143.9322  143.9669  156.2202 H   0  0  0  0  0  0  0  0  0  0  0  0
  143.1484  143.4560  153.3108 H   0  0  0  0  0  0  0  0  0  0  0  0
  143.2915  145.0170  154.0811 H   0  0  0  0  0  0  0  0  0  0  0  0
  145.7109  144.6738  154.4288 H   0  0  0  0  0  0  0  0  0  0  0  0
  144.9140  144.1193  151.5273 H   0  0  0  0  0  0  0  0  0  0  0  0
  146.4491  144.7959  152.0608 H   0  0  0  0  0  0  0  0  0  0  0  0
  144.9639  145.7067  152.2897 H   0  0  0  0  0  0  0  0  0  0  0  0
  152.2811  142.6670  162.1556 H   0  0  0  0  0  0  0  0  0  0  0  0
  151.1875  143.9280  161.5858 H   0  0  0  0  0  0  0  0  0  0  0  0
  152.9339  144.1594  161.4770 H   0  0  0  0  0  0  0  0  0  0  0  0
  1  2  1  0  0  0  0
  1 22  1  0  0  0  0
  1 23  1  0  0  0  0
  1 24  1  0  0  0  0
  2 20  2  0  0  0  0
  2  3  1  0  0  0  0
  3  4  2  0  0  0  0
  4  5  1  0  0  0  0
  4 19  1  0  0  0  0
  5  6  1  0  0  0  0
  5 25  1  0  0  0  0
  6  7  2  0  0  0  0
  6  8  1  0  0  0  0
  8  9  1  0  0  0  0
  8 26  1  0  0  0  0
  9 10  1  0  0  0  0
  9 27  1  0  0  0  0
  9 28  1  0  0  0  0
 10 11  1  0  0  0  0
 10 29  1  0  0  0  0
 10 30  1  0  0  0  0
 11 12  1  0  0  0  0
 12 17  1  0  0  0  0
 12 13  1  0  0  0  0
 12 31  1  0  0  0  0
 13 14  1  0  0  0  0
 13 32  1  0  0  0  0
 13 33  1  0  0  0  0
 14 15  1  0  0  0  0
 14 34  1  0  0  0  0
 14 35  1  0  0  0  0
 15 16  1  0  0  0  0
 15 36  1  0  0  0  0
 15 37  1  0  0  0  0
 16 17  1  0  0  0  0
 16 38  1  0  0  0  0
 16 39  1  0  0  0  0
 17 18  1  0  0  0  0
 17 40  1  0  0  0  0
 18 41  1  0  0  0  0
 18 42  1  0  0  0  0
 18 43  1  0  0  0  0
 19 20  1  0  0  0  0
 20 21  1  0  0  0  0
 21 44  1  0  0  0  0
 21 45  1  0  0  0  0
 21 46  1  0  0  0  0
M  END
> <s_m_source_file>
AV-unprocessed.smi

> <i_m_source_file_index>
910

> <i_lp_mmshare_version>
43012

> <i_f3d_flags>
0

> <s_epik_input>
W0NIM11jMW5jKG9jMVtDSDNdKVtOSF1DKD1PKVtOSF1bQ0gyXVtDSDJdT1tDQEBIXTJbQ0gyXVtDSDJdW0NIMl1bQ0gyXVtDQEhdMltDSDNd

> <s_epik_cmdline>
J2VwaWtfcHl0aG9uJywgJy1waCcsICc3LjAnLCAnLXRuJywgJzgnLCAnLW1hJywgJzIwMCcsICctbWV0YWxfYmluZGluZycsICctaW1hZScsICc8aW5maWxlLm1hZT4nLCAnLW9tYWUnLCAnPG91dGZpbGUubWFlPic=

> <r_lp_tautomer_probability>
0.785861

> <r_epik_Ionization_Penalty>
4.15957e-05

> <r_epik_Ionization_Penalty_Charging>
0

> <r_epik_Ionization_Penalty_Neutral>
4.15957e-05

> <r_epik_State_Penalty>
0.0240523

> <r_epik_Charging_Adjusted_Penalty>
0.0240523

> <i_epik_Tot_Q>
0

> <i_epik_Tot_abs_Q>
0

> <r_epik_Metal_State_Penalty>
0.057053

> <b_epik_Metal_Only>
0

> <s_lp_Force_Field>
OPLS_2005

> <r_lp_Energy>
8.26637

> <b_lp_Chiralities_Consistent>
1

> <s_lp_Variant>
AV-unprocessed.smi:910-4

> <Gold.Version>
5.8.1

> <Gold.Id.Protein>
6NUR|6NUR_protein|mol2

> <Gold.PLP.Fitness>
46.0118

> <Gold.PLP.PLP>
-40.7110

> <Gold.PLP.part.hbond>
-1.9810

> <Gold.PLP.part.metal>
0.0000

> <Gold.PLP.part.buried>
-6.1088

> <Gold.PLP.part.nonpolar>
-34.5036

> <Gold.PLP.part.repulsive>
0.4875

> <Gold.PLP.ligand.clash>
0.0000

> <Gold.PLP.ligand.torsion>
0.1667

> <Gold.PLP.Chemscore.Hbond>
1.8723

> <Gold.PLP.Chemscore.CHOScore>
0.0000

> <Gold.PLP.Chemscore.Metal>
0.0000

> <Gold.Chemscore.Hbonds>
donor molecule, donor type, donor heavy atom, donor atom, acceptor molecule, acceptor atom, score
      L1  H     5    25       P1  8028  0.84
      L1  H     8    26       P1  8028  1.00
      P1  H  7989  7998       L1     7  0.19
      P1  H  8022  8030       L1    11  0.03

> <Gold.PLP.Chemscore.Internal.Correction>
0.0173

> <Gold.Rescore>
     Score         DG    S(hbond)    S(metal)    S(lipo)     H(rot)  DE(clash)    DE(int)     intcor
     17.14     -18.35       1.90        0.00      91.89       1.66       0.08       1.13       ----

> <Gold.Chemscore.Fitness>
17.1386

> <Gold.Chemscore.DG>
-18.3463

> <Gold.Chemscore.ZeroCoef>
-5.4800

> <Gold.Chemscore.Hbond>
1.9039

> <Gold.Chemscore.Metal>
0.0000

> <Gold.Chemscore.Lipo>
91.8881

> <Gold.Chemscore.Internal_Hbond>
0.0000

> <Gold.Chemscore.DEClash>
0.0779

> <Gold.Chemscore.DEInternal>
1.1298

> <Gold.Chemscore.Rot>
1.6576

> <Gold.Chemscore.Internal.Correction>
   9.000000E+99

> <Gold.Chemscore.Hbonds>
donor molecule, donor type, donor heavy atom, donor atom, acceptor molecule, acceptor atom, score
      L1  H     5    25       P1  8028  0.79
      L1  H     8    26       P1  8028  0.96
      P1  H  7989  7998       L1     7  0.03
      P1  H  8022  8030       L1    11  0.04

> <Gold.Chemscore.Hbond.Weighted>
-6.3590

> <Gold.Chemscore.Metal.Weighted>
-0.0000

> <Gold.Chemscore.Lipo.Weighted>
-10.7509

> <Gold.Chemscore.Internal_Hbond.Weighted>
0.0000

> <Gold.Chemscore.DEClash.Weighted>
0.0779

> <Gold.Chemscore.DEInternal.Weighted>
1.1298

> <Gold.Chemscore.Rot.Weighted>
4.2436

> <Gold.Chemscore.Internal.Correction.Weighted>
   9.000000E+99

> <Gold.Protein.RotatedTorsions>
[ 6907 6896 6895 6894 ] final  -85.08 input  -60.11 | X-H torsion
[ 7974 7965 7964 7962 ] final  128.90 input  175.53 | X-H torsion
[ 8008 7997 7996 7995 ] final -168.30 input   59.86 | X-H torsion
[ 10167 10162 10161 10158 ] final -123.19 input  -65.29 | X-H torsion
[ 10718 10713 10712 10709 ] final  -83.14 input   66.30 | X-H torsion
[ 10763 10752 10751 10750 ] final -133.13 input  -60.55 | X-H torsion
[ 11005 11000 10999 10996 ] final -140.83 input  -57.11 | X-H torsion

> <Gold.Protein.ActiveResidues>
 VAL166  LYS551  ARG553  GLY616  TRP617  ASP618  TYR619  PRO620  LYS621  CYS622 
 ASP623  PHE694  ASN695  SER759  ASP760  ASP761  ALA762  ILE779  LEU786  VAL792 
 PHE793  MET794  SER795  GLU796  ALA797  LYS798  CYS799  TRP800  GLU811  SER814 

> <Gold.Protein.RotatedAtoms>
  150.6872  134.3260  159.4806 H   0  0  0  0  0  0  0  0  0  0  0  0  # atno 6907 bound_to 6896
  152.1130  134.9258  160.0575 H   0  0  0  0  0  0  0  0  0  0  0  0  # atno 6908 bound_to 6896
  152.0493  133.3977  159.4407 H   0  0  0  0  0  0  0  0  0  0  0  0  # atno 6909 bound_to 6896
  145.0345  139.4017  143.5133 H   0  0  0  0  0  0  0  0  0  0  0  0  # atno 7974 bound_to 7965
  155.8895  140.1022  157.1429 H   0  0  0  0  0  0  0  0  0  0  0  0  # atno 8008 bound_to 7997
  154.4013  140.1313  156.4361 H   0  0  0  0  0  0  0  0  0  0  0  0  # atno 8009 bound_to 7997
  155.7550  140.3464  155.5172 H   0  0  0  0  0  0  0  0  0  0  0  0  # atno 8010 bound_to 7997
  140.0062  143.5489  152.2283 H   0  0  0  0  0  0  0  0  0  0  0  0  # atno 10167 bound_to 10162
  156.0022  130.4656  150.4213 H   0  0  0  0  0  0  0  0  0  0  0  0  # atno 10718 bound_to 10713
  154.8736  135.3776  154.4522 H   0  0  0  0  0  0  0  0  0  0  0  0  # atno 10763 bound_to 10752
  153.5197  135.7029  153.5743 H   0  0  0  0  0  0  0  0  0  0  0  0  # atno 10764 bound_to 10752
  153.3995  135.3952  155.1944 H   0  0  0  0  0  0  0  0  0  0  0  0  # atno 10765 bound_to 10752
  140.8384  134.2432  157.4822 H   0  0  0  0  0  0  0  0  0  0  0  0  # atno 11005 bound_to 11000
  146.3502  139.9913  142.8685 LP  0  0  0  0  0  0  0  0  0  0  0  0  # atno 17320 bound_to 7965
  145.1727  140.9729  143.4312 LP  0  0  0  0  0  0  0  0  0  0  0  0  # atno 17321 bound_to 7965
  139.6237  144.7633  151.2684 LP  0  0  0  0  0  0  0  0  0  0  0  0  # atno 17342 bound_to 10162
  140.7400  143.6602  150.8171 LP  0  0  0  0  0  0  0  0  0  0  0  0  # atno 17343 bound_to 10162
  157.2268  131.0495  151.2515 LP  0  0  0  0  0  0  0  0  0  0  0  0  # atno 17370 bound_to 10713
  157.3748  130.7200  149.6589 LP  0  0  0  0  0  0  0  0  0  0  0  0  # atno 17371 bound_to 10713
  139.8703  134.9622  156.4423 LP  0  0  0  0  0  0  0  0  0  0  0  0  # atno 17394 bound_to 11000
  140.8922  133.7840  155.9585 LP  0  0  0  0  0  0  0  0  0  0  0  0  # atno 17395 bound_to 11000

$$$$
