AV-unprocessed.smi:103|AV-procd|sdf|985|dock1
  -GOLD-   2262017553D 1   1.00000     0.00000
 Structure written by MMmdl.
 53 55  0  0  0  0  0  0  0  0  1 V2000
  145.5043  135.7487  161.6290 C   0  0  0  0  0  0  0  0  0  0  0  0
  146.8876  136.3382  161.3866 C   0  0  0  0  0  0  0  0  0  0  0  0
  147.3097  137.2818  162.0554 O   0  0  0  0  0  0  0  0  0  0  0  0
  147.5429  135.7138  160.3912 O   0  0  0  0  0  0  0  0  0  0  0  0
  148.7786  136.2250  159.9088 C   0  0  0  0  0  0  0  0  0  0  0  0
  148.5564  137.1484  158.6967 C   0  0  2  0  0  0  0  0  0  0  0  0
  147.5057  138.0705  158.9534 O   0  0  0  0  0  0  0  0  0  0  0  0
  146.9719  138.5113  157.7496 C   0  0  1  0  0  0  0  0  0  0  0  0
  147.7179  139.7594  157.3191 N   0  0  0  0  0  0  0  0  0  0  0  0
  147.3216  141.0727  157.5011 C   0  0  0  0  0  0  0  0  0  0  0  0
  145.7872  141.6363  158.2333 S   0  0  0  0  0  0  0  0  0  0  0  0
  145.5439  143.2598  157.4041 C   0  0  0  0  0  0  0  0  0  0  0  0
  144.7306  140.7056  157.8077 O   0  0  0  0  0  0  0  0  0  0  0  0
  146.0515  141.8589  159.6636 O   0  0  0  0  0  0  0  0  0  0  0  0
  148.0925  142.0006  157.0068 N   0  0  0  0  0  0  0  0  0  0  0  0
  149.1712  141.2840  156.5188 C   0  0  0  0  0  0  0  0  0  0  0  0
  150.3835  141.6566  155.8850 C   0  0  0  0  0  0  0  0  0  0  0  0
  150.7099  142.9300  155.6229 N   0  0  0  0  0  0  0  0  0  0  0  0
  151.2545  140.6851  155.5302 N   0  0  0  0  0  0  0  0  0  0  0  0
  150.9522  139.4097  155.7849 C   0  0  0  0  0  0  0  0  0  0  0  0
  149.8577  138.9132  156.3650 N   0  0  0  0  0  0  0  0  0  0  0  0
  148.9689  139.8872  156.7244 C   0  0  0  0  0  0  0  0  0  0  0  0
  147.0380  137.3099  156.7909 C   0  0  1  0  0  0  0  0  0  0  0  0
  147.2921  137.6630  155.4365 O   0  0  0  0  0  0  0  0  0  0  0  0
  146.4169  138.4234  154.7586 C   0  0  0  0  0  0  0  0  0  0  0  0
  146.8606  138.6795  153.3251 C   0  0  0  0  0  0  0  0  0  0  0  0
  145.3716  138.8970  155.2041 O   0  0  0  0  0  0  0  0  0  0  0  0
  148.1467  136.4379  157.3875 C   0  0  2  0  0  0  0  0  0  0  0  0
  147.6479  135.1247  157.6246 O   0  0  0  0  0  0  0  0  0  0  0  0
  148.4986  134.0983  157.8083 C   0  0  0  0  0  0  0  0  0  0  0  0
  147.7770  132.7723  158.0086 C   0  0  0  0  0  0  0  0  0  0  0  0
  149.7277  134.1679  157.8149 O   0  0  0  0  0  0  0  0  0  0  0  0
  144.9237  135.7501  160.7065 H   0  0  0  0  0  0  0  0  0  0  0  0
  144.9654  136.3307  162.3770 H   0  0  0  0  0  0  0  0  0  0  0  0
  145.5884  134.7219  161.9856 H   0  0  0  0  0  0  0  0  0  0  0  0
  149.2182  136.8028  160.7220 H   0  0  0  0  0  0  0  0  0  0  0  0
  149.4856  135.4269  159.6768 H   0  0  0  0  0  0  0  0  0  0  0  0
  149.4716  137.7120  158.5214 H   0  0  0  0  0  0  0  0  0  0  0  0
  145.9443  138.8405  157.8783 H   0  0  0  0  0  0  0  0  0  0  0  0
  144.6363  143.7282  157.7841 H   0  0  0  0  0  0  0  0  0  0  0  0
  145.4540  143.1160  156.3284 H   0  0  0  0  0  0  0  0  0  0  0  0
  146.3983  143.9036  157.6121 H   0  0  0  0  0  0  0  0  0  0  0  0
  150.0775  143.6741  155.8804 H   0  0  0  0  0  0  0  0  0  0  0  0
  151.5886  143.1436  155.1736 H   0  0  0  0  0  0  0  0  0  0  0  0
  151.6899  138.6829  155.4782 H   0  0  0  0  0  0  0  0  0  0  0  0
  146.0888  136.7767  156.8721 H   0  0  0  0  0  0  0  0  0  0  0  0
  147.2833  137.7741  152.8885 H   0  0  0  0  0  0  0  0  0  0  0  0
  147.6182  139.4631  153.3002 H   0  0  0  0  0  0  0  0  0  0  0  0
  146.0147  138.9946  152.7137 H   0  0  0  0  0  0  0  0  0  0  0  0
  149.0153  136.3883  156.7292 H   0  0  0  0  0  0  0  0  0  0  0  0
  146.8581  132.9173  158.5769 H   0  0  0  0  0  0  0  0  0  0  0  0
  148.4111  132.0719  158.5524 H   0  0  0  0  0  0  0  0  0  0  0  0
  147.5234  132.3321  157.0442 H   0  0  0  0  0  0  0  0  0  0  0  0
  1  2  1  0  0  0  0
  1 33  1  0  0  0  0
  1 34  1  0  0  0  0
  1 35  1  0  0  0  0
  2  3  2  0  0  0  0
  2  4  1  0  0  0  0
  4  5  1  0  0  0  0
  5  6  1  0  0  0  0
  5 36  1  0  0  0  0
  5 37  1  0  0  0  0
  6 28  1  0  0  0  0
  6  7  1  0  0  0  0
  6 38  1  0  0  0  0
  7  8  1  0  0  0  0
  8  9  1  0  0  0  0
  8 23  1  0  0  0  0
  8 39  1  0  0  0  0
  9 22  1  0  0  0  0
  9 10  1  0  0  0  0
 10 11  1  0  0  0  0
 10 15  2  0  0  0  0
 11 12  1  0  0  0  0
 11 13  2  0  0  0  0
 11 14  2  0  0  0  0
 12 40  1  0  0  0  0
 12 41  1  0  0  0  0
 12 42  1  0  0  0  0
 15 16  1  0  0  0  0
 16 22  2  0  0  0  0
 16 17  1  0  0  0  0
 17 18  1  0  0  0  0
 17 19  2  0  0  0  0
 18 43  1  0  0  0  0
 18 44  1  0  0  0  0
 19 20  1  0  0  0  0
 20 21  2  0  0  0  0
 20 45  1  0  0  0  0
 21 22  1  0  0  0  0
 23 24  1  0  0  0  0
 23 28  1  0  0  0  0
 23 46  1  0  0  0  0
 24 25  1  0  0  0  0
 25 26  1  0  0  0  0
 25 27  2  0  0  0  0
 26 47  1  0  0  0  0
 26 48  1  0  0  0  0
 26 49  1  0  0  0  0
 28 29  1  0  0  0  0
 28 50  1  0  0  0  0
 29 30  1  0  0  0  0
 30 31  1  0  0  0  0
 30 32  2  0  0  0  0
 31 51  1  0  0  0  0
 31 52  1  0  0  0  0
 31 53  1  0  0  0  0
M  END
> <s_m_source_file>
AV-unprocessed.smi

> <i_m_source_file_index>
103

> <i_lp_mmshare_version>
43012

> <i_f3d_flags>
0

> <s_epik_input>
W0NIM11DKD1PKU9bQ0gyXVtDQEBIXTFPW0NASF0oW0NAQEhdKE9DKD1PKVtDSDNdKVtDQEhdMU9DKD1PKVtDSDNdKW4oYyhuMilTKD1PKSg9TylbQ0gzXSljKGMyMyluW2NIXW5jM1tOSDJd

> <s_epik_cmdline>
J2VwaWtfcHl0aG9uJywgJy1waCcsICc3LjAnLCAnLXRuJywgJzgnLCAnLW1hJywgJzIwMCcsICctbWV0YWxfYmluZGluZycsICctaW1hZScsICc8aW5maWxlLm1hZT4nLCAnLW9tYWUnLCAnPG91dGZpbGUubWFlPic=

> <r_lp_tautomer_probability>
1

> <r_epik_Ionization_Penalty>
1.51338e-05

> <r_epik_Ionization_Penalty_Charging>
0

> <r_epik_Ionization_Penalty_Neutral>
1.51338e-05

> <r_epik_State_Penalty>
-0

> <r_epik_Charging_Adjusted_Penalty>
0

> <i_epik_Tot_Q>
0

> <i_epik_Tot_abs_Q>
0

> <r_epik_Metal_State_Penalty>
-0

> <b_epik_Metal_Only>
0

> <s_epik_Chemistry_Notes>
This compound has an ester and may undergo hydrolysis at high or low pH. This compound contains an acetal/aminal-like group ( X-CH(R)-Y where X, Y are N, S, or O) that may be acid/base labile, releasing an aldehyde.

> <s_lp_Force_Field>
OPLS_2005

> <r_lp_Energy>
17.8584

> <b_lp_Chiralities_Consistent>
1

> <s_lp_Variant>
AV-unprocessed.smi:103-9

> <Gold.Version>
5.8.1

> <Gold.Id.Protein>
6NUR|6NUR_protein|mol2

> <Gold.PLP.Fitness>
38.4722

> <Gold.PLP.PLP>
-25.3376

> <Gold.PLP.part.hbond>
-7.0000

> <Gold.PLP.part.metal>
0.0000

> <Gold.PLP.part.buried>
-2.1439

> <Gold.PLP.part.nonpolar>
-16.3284

> <Gold.PLP.part.repulsive>
0.5779

> <Gold.PLP.ligand.clash>
0.0000

> <Gold.PLP.ligand.torsion>
2.3040

> <Gold.PLP.Chemscore.Hbond>
5.0659

> <Gold.PLP.Chemscore.CHOScore>
0.0000

> <Gold.PLP.Chemscore.Metal>
0.0000

> <Gold.Chemscore.Hbonds>
donor molecule, donor type, donor heavy atom, donor atom, acceptor molecule, acceptor atom, score
      L1  H    18    43       P1  8028  1.00
      P1  H  6896  6907       L1    32  1.00
      P1  H  6931  6943       L1     3  0.82
      P1  H  6934  6946       L1    14  1.00
      P1  H  6934  6947       L1     3  0.63
      P1  H  7989  7998       L1    19  0.73

> <Gold.PLP.Chemscore.Internal.Correction>
2.5448

> <Gold.Rescore>
     Score         DG    S(hbond)    S(metal)    S(lipo)     H(rot)  DE(clash)    DE(int)     intcor
      7.79     -13.90       4.79        0.00      28.02       4.25       1.48       4.62       ----

> <Gold.Chemscore.Fitness>
7.7919

> <Gold.Chemscore.DG>
-13.8984

> <Gold.Chemscore.ZeroCoef>
-5.4800

> <Gold.Chemscore.Hbond>
4.7930

> <Gold.Chemscore.Metal>
0.0000

> <Gold.Chemscore.Lipo>
28.0220

> <Gold.Chemscore.Internal_Hbond>
0.0000

> <Gold.Chemscore.DEClash>
1.4832

> <Gold.Chemscore.DEInternal>
4.6233

> <Gold.Chemscore.Rot>
4.2456

> <Gold.Chemscore.Internal.Correction>
   9.000000E+99

> <Gold.Chemscore.Hbonds>
donor molecule, donor type, donor heavy atom, donor atom, acceptor molecule, acceptor atom, score
      L1  H    18    43       P1  8028  0.97
      P1  H  6896  6907       L1    32  0.97
      P1  H  6931  6943       L1     3  0.80
      P1  H  6934  6946       L1    14  1.00
      P1  H  6934  6947       L1     3  0.46
      P1  H  7989  7998       L1    19  0.32

> <Gold.Chemscore.Hbond.Weighted>
-16.0085

> <Gold.Chemscore.Metal.Weighted>
-0.0000

> <Gold.Chemscore.Lipo.Weighted>
-3.2786

> <Gold.Chemscore.Internal_Hbond.Weighted>
0.0000

> <Gold.Chemscore.DEClash.Weighted>
1.4832

> <Gold.Chemscore.DEInternal.Weighted>
4.6233

> <Gold.Chemscore.Rot.Weighted>
10.8687

> <Gold.Chemscore.Internal.Correction.Weighted>
   9.000000E+99

> <Gold.Protein.RotatedTorsions>
[ 6907 6896 6895 6894 ] final  -97.40 input  -60.11 | X-H torsion
[ 7974 7965 7964 7962 ] final -122.66 input  175.53 | X-H torsion
[ 8008 7997 7996 7995 ] final   -6.54 input   59.86 | X-H torsion
[ 10167 10162 10161 10158 ] final  168.44 input  -65.29 | X-H torsion
[ 10718 10713 10712 10709 ] final    2.31 input   66.30 | X-H torsion
[ 10763 10752 10751 10750 ] final   35.61 input  -60.55 | X-H torsion
[ 11005 11000 10999 10996 ] final   54.19 input  -57.11 | X-H torsion

> <Gold.Protein.ActiveResidues>
 VAL166  LYS551  ARG553  GLY616  TRP617  ASP618  TYR619  PRO620  LYS621  CYS622 
 ASP623  PHE694  ASN695  SER759  ASP760  ASP761  ALA762  ILE779  LEU786  VAL792 
 PHE793  MET794  SER795  GLU796  ALA797  LYS798  CYS799  TRP800  GLU811  SER814 

> <Gold.Protein.RotatedAtoms>
  150.7015  134.1354  159.4084 H   0  0  0  0  0  0  0  0  0  0  0  0  # atno 6907 bound_to 6896
  151.9339  135.0241  160.0540 H   0  0  0  0  0  0  0  0  0  0  0  0  # atno 6908 bound_to 6896
  152.2151  133.4906  159.5168 H   0  0  0  0  0  0  0  0  0  0  0  0  # atno 6909 bound_to 6896
  145.0270  140.8036  143.4346 H   0  0  0  0  0  0  0  0  0  0  0  0  # atno 7974 bound_to 7965
  154.5928  140.2430  155.7898 H   0  0  0  0  0  0  0  0  0  0  0  0  # atno 8008 bound_to 7997
  156.2258  140.2983  156.0018 H   0  0  0  0  0  0  0  0  0  0  0  0  # atno 8009 bound_to 7997
  155.2345  140.0405  157.2957 H   0  0  0  0  0  0  0  0  0  0  0  0  # atno 8010 bound_to 7997
  139.4968  144.3814  151.9618 H   0  0  0  0  0  0  0  0  0  0  0  0  # atno 10167 bound_to 10162
  156.8612  130.5587  149.5663 H   0  0  0  0  0  0  0  0  0  0  0  0  # atno 10718 bound_to 10713
  153.0112  135.6328  154.1854 H   0  0  0  0  0  0  0  0  0  0  0  0  # atno 10763 bound_to 10752
  154.1596  135.2824  155.3114 H   0  0  0  0  0  0  0  0  0  0  0  0  # atno 10764 bound_to 10752
  154.5992  135.5593  153.7417 H   0  0  0  0  0  0  0  0  0  0  0  0  # atno 10765 bound_to 10752
  140.0707  134.5474  155.9050 H   0  0  0  0  0  0  0  0  0  0  0  0  # atno 11005 bound_to 11000
  145.1820  139.2346  143.5287 LP  0  0  0  0  0  0  0  0  0  0  0  0  # atno 17320 bound_to 7965
  146.3493  140.1597  142.8591 LP  0  0  0  0  0  0  0  0  0  0  0  0  # atno 17321 bound_to 7965
  140.3250  144.3383  150.6000 LP  0  0  0  0  0  0  0  0  0  0  0  0  # atno 17342 bound_to 10162
  140.5691  143.2183  151.7630 LP  0  0  0  0  0  0  0  0  0  0  0  0  # atno 17343 bound_to 10162
  156.0776  130.5794  150.9502 LP  0  0  0  0  0  0  0  0  0  0  0  0  # atno 17370 bound_to 10713
  157.6249  131.0926  150.8552 LP  0  0  0  0  0  0  0  0  0  0  0  0  # atno 17371 bound_to 10713
  141.2010  133.6616  156.5929 LP  0  0  0  0  0  0  0  0  0  0  0  0  # atno 17394 bound_to 11000
  140.3632  134.7669  157.4548 LP  0  0  0  0  0  0  0  0  0  0  0  0  # atno 17395 bound_to 11000

$$$$
