AV-unprocessed.smi:2623|AV-procd|sdf|10231|dock10
  -GOLD-   2272014243D 1   1.00000     0.00000
 Structure written by MMmdl.
 41 43  0  0  0  0  0  0  0  0  2 V2000
  147.1812  138.4039  151.1388 O   0  0  0  0  0  0  0  0  0  0  0  0
  146.8535  139.2827  152.1916 C   0  0  0  0  0  0  0  0  0  0  0  0
  147.9896  139.4780  153.1402 C   0  0  0  0  0  0  0  0  0  0  0  0
  148.8709  138.5184  153.5392 N   0  3  0  0  0  0  0  0  0  0  0  0
  149.7867  139.0629  154.4403 C   0  0  0  0  0  0  0  0  0  0  0  0
  150.8588  138.4824  155.1113 C   0  0  0  0  0  0  0  0  0  0  0  0
  151.6002  139.3237  155.9665 C   0  0  0  0  0  0  0  0  0  0  0  0
  151.2668  140.6843  156.1277 C   0  0  0  0  0  0  0  0  0  0  0  0
  150.1777  141.2614  155.4422 C   0  0  0  0  0  0  0  0  0  0  0  0
  149.4478  140.4226  154.5995 C   0  0  0  0  0  0  0  0  0  0  0  0
  148.3333  140.6335  153.7783 N   0  0  0  0  0  0  0  0  0  0  0  0
  147.7101  141.9653  153.7156 C   0  0  0  0  0  0  0  0  0  0  0  0
  146.4829  142.0955  154.6398 C   0  0  2  0  0  0  0  0  0  0  0  0
  145.6990  140.9215  154.5724 O   0  0  0  0  0  0  0  0  0  0  0  0
  145.5994  143.2974  154.2755 C   0  0  0  0  0  0  0  0  0  0  0  0
  144.7229  143.5671  155.3617 O   0  0  0  0  0  0  0  0  0  0  0  0
  143.8678  144.6430  155.2593 C   0  0  0  0  0  0  0  0  0  0  0  0
  143.0106  144.8848  156.3531 C   0  0  0  0  0  0  0  0  0  0  0  0
  142.1049  145.9628  156.3349 C   0  0  0  0  0  0  0  0  0  0  0  0
  142.0470  146.8138  155.2159 C   0  0  0  0  0  0  0  0  0  0  0  0
  142.8953  146.5837  154.1171 C   0  0  0  0  0  0  0  0  0  0  0  0
  143.8017  145.5055  154.1354 C   0  0  0  0  0  0  0  0  0  0  0  0
  146.6334  137.6366  151.2055 H   0  0  0  0  0  0  0  0  0  0  0  0
  146.5600  140.2459  151.7739 H   0  0  0  0  0  0  0  0  0  0  0  0
  145.9900  138.8900  152.7284 H   0  0  0  0  0  0  0  0  0  0  0  0
  151.1168  137.4407  154.9887 H   0  0  0  0  0  0  0  0  0  0  0  0
  152.4419  138.9180  156.5091 H   0  0  0  0  0  0  0  0  0  0  0  0
  151.8589  141.2987  156.7907 H   0  0  0  0  0  0  0  0  0  0  0  0
  149.9354  142.3059  155.5711 H   0  0  0  0  0  0  0  0  0  0  0  0
  148.4732  142.6887  154.0053 H   0  0  0  0  0  0  0  0  0  0  0  0
  147.4553  142.1989  152.6818 H   0  0  0  0  0  0  0  0  0  0  0  0
  146.8123  142.2045  155.6737 H   0  0  0  0  0  0  0  0  0  0  0  0
  145.0882  140.9287  155.2932 H   0  0  0  0  0  0  0  0  0  0  0  0
  146.2206  144.1668  154.0523 H   0  0  0  0  0  0  0  0  0  0  0  0
  145.0110  143.0631  153.3863 H   0  0  0  0  0  0  0  0  0  0  0  0
  143.0477  144.2368  157.2165 H   0  0  0  0  0  0  0  0  0  0  0  0
  141.4548  146.1362  157.1797 H   0  0  0  0  0  0  0  0  0  0  0  0
  141.3531  147.6416  155.2004 H   0  0  0  0  0  0  0  0  0  0  0  0
  142.8512  147.2355  153.2571 H   0  0  0  0  0  0  0  0  0  0  0  0
  144.4351  145.3614  153.2732 H   0  0  0  0  0  0  0  0  0  0  0  0
  148.8407  137.5587  153.2195 H   0  0  0  0  0  0  0  0  0  0  0  0
  1  2  1  0  0  0  0
  1 23  1  0  0  0  0
  2  3  1  0  0  0  0
  2 24  1  0  0  0  0
  2 25  1  0  0  0  0
  3 11  1  0  0  0  0
  3  4  2  0  0  0  0
  4  5  1  0  0  0  0
  4 41  1  0  0  0  0
  5 10  2  0  0  0  0
  5  6  1  0  0  0  0
  6  7  2  0  0  0  0
  6 26  1  0  0  0  0
  7  8  1  0  0  0  0
  7 27  1  0  0  0  0
  8  9  2  0  0  0  0
  8 28  1  0  0  0  0
  9 10  1  0  0  0  0
  9 29  1  0  0  0  0
 10 11  1  0  0  0  0
 11 12  1  0  0  0  0
 12 13  1  0  0  0  0
 12 30  1  0  0  0  0
 12 31  1  0  0  0  0
 13 14  1  0  0  0  0
 13 15  1  0  0  0  0
 13 32  1  0  0  0  0
 14 33  1  0  0  0  0
 15 16  1  0  0  0  0
 15 34  1  0  0  0  0
 15 35  1  0  0  0  0
 16 17  1  0  0  0  0
 17 22  1  0  0  0  0
 17 18  2  0  0  0  0
 18 19  1  0  0  0  0
 18 36  1  0  0  0  0
 19 20  2  0  0  0  0
 19 37  1  0  0  0  0
 20 21  1  0  0  0  0
 20 38  1  0  0  0  0
 21 22  2  0  0  0  0
 21 39  1  0  0  0  0
 22 40  1  0  0  0  0
M  CHG  1   4   1
M  END
> <s_m_source_file>
AV-unprocessed.smi

> <i_m_source_file_index>
2623

> <i_lp_mmshare_version>
43012

> <i_f3d_flags>
0

> <s_epik_input>
W2NIXTFbY0hdW2NIXVtjSF1jKGMxMiluKGMobjIpW0NIMl1bT0hdKVtDSDJdW0NASF0oW09IXSlbQ0gyXU9jM1tjSF1bY0hdW2NIXVtjSF1bY0hdMw==

> <s_epik_cmdline>
J2VwaWtfcHl0aG9uJywgJy1waCcsICc3LjAnLCAnLXRuJywgJzgnLCAnLW1hJywgJzIwMCcsICctbWV0YWxfYmluZGluZycsICctaW1hZScsICc8aW5maWxlLm1hZT4nLCAnLW9tYWUnLCAnPG91dGZpbGUubWFlPic=

> <r_lp_tautomer_probability>
1

> <r_epik_Ionization_Penalty>
1.40416

> <r_epik_Ionization_Penalty_Charging>
1.4033

> <r_epik_Ionization_Penalty_Neutral>
0.000858184

> <r_epik_State_Penalty>
1.48564

> <r_epik_Charging_Adjusted_Penalty>
2.88894

> <i_epik_Tot_Q>
1

> <i_epik_Tot_abs_Q>
1

> <r_epik_Metal_State_Penalty>
5.52809

> <b_epik_Metal_Only>
0

> <s_lp_Force_Field>
OPLS_2005

> <r_lp_Energy>
17.9205

> <b_lp_Chiralities_Consistent>
1

> <s_lp_Variant>
AV-unprocessed.smi:2623-3

> <Gold.Version>
5.8.1

> <Gold.Id.Protein>
6NUR|6NUR_protein|mol2

> <Gold.PLP.Fitness>
54.5463

> <Gold.PLP.PLP>
-47.2275

> <Gold.PLP.part.hbond>
-6.0000

> <Gold.PLP.part.metal>
0.0000

> <Gold.PLP.part.buried>
1.6433

> <Gold.PLP.part.nonpolar>
-41.8766

> <Gold.PLP.part.repulsive>
0.2118

> <Gold.PLP.ligand.clash>
0.0000

> <Gold.PLP.ligand.torsion>
0.9001

> <Gold.PLP.Chemscore.Hbond>
3.0000

> <Gold.PLP.Chemscore.CHOScore>
0.0000

> <Gold.PLP.Chemscore.Metal>
0.0000

> <Gold.Chemscore.Hbonds>
donor molecule, donor type, donor heavy atom, donor atom, acceptor molecule, acceptor atom, score
      L1  H     4    41       P1  7948  2.00
      P1  H  7954  7966       L1     1  0.90

> <Gold.PLP.Chemscore.Internal.Correction>
0.1192

> <Gold.Rescore>
     Score         DG    S(hbond)    S(metal)    S(lipo)     H(rot)  DE(clash)    DE(int)     intcor
     13.02     -16.47       1.91        0.00     107.79       3.13       2.41       1.04       ----

> <Gold.Chemscore.Fitness>
13.0176

> <Gold.Chemscore.DG>
-16.4660

> <Gold.Chemscore.ZeroCoef>
-5.4800

> <Gold.Chemscore.Hbond>
1.9126

> <Gold.Chemscore.Metal>
0.0000

> <Gold.Chemscore.Lipo>
107.7946

> <Gold.Chemscore.Internal_Hbond>
0.0000

> <Gold.Chemscore.DEClash>
2.4078

> <Gold.Chemscore.DEInternal>
1.0406

> <Gold.Chemscore.Rot>
3.1305

> <Gold.Chemscore.Internal.Correction>
   9.000000E+99

> <Gold.Chemscore.Hbonds>
donor molecule, donor type, donor heavy atom, donor atom, acceptor molecule, acceptor atom, score
      L1  H     4    41       P1  7948  0.95
      P1  H  7954  7966       L1     1  0.18

> <Gold.Chemscore.Hbond.Weighted>
-6.3882

> <Gold.Chemscore.Metal.Weighted>
-0.0000

> <Gold.Chemscore.Lipo.Weighted>
-12.6120

> <Gold.Chemscore.Internal_Hbond.Weighted>
0.0000

> <Gold.Chemscore.DEClash.Weighted>
2.4078

> <Gold.Chemscore.DEInternal.Weighted>
1.0406

> <Gold.Chemscore.Rot.Weighted>
8.0141

> <Gold.Chemscore.Internal.Correction.Weighted>
   9.000000E+99

> <Gold.Protein.RotatedTorsions>
[ 6907 6896 6895 6894 ] final -144.82 input  -60.11 | X-H torsion
[ 7974 7965 7964 7962 ] final   83.92 input  175.53 | X-H torsion
[ 8008 7997 7996 7995 ] final -141.62 input   59.86 | X-H torsion
[ 10167 10162 10161 10158 ] final   72.88 input  -65.29 | X-H torsion
[ 10718 10713 10712 10709 ] final   49.37 input   66.30 | X-H torsion
[ 10763 10752 10751 10750 ] final  102.01 input  -60.55 | X-H torsion
[ 11005 11000 10999 10996 ] final  139.71 input  -57.11 | X-H torsion

> <Gold.Protein.ActiveResidues>
 VAL166  LYS551  ARG553  GLY616  TRP617  ASP618  TYR619  PRO620  LYS621  CYS622 
 ASP623  PHE694  ASN695  SER759  ASP760  ASP761  ALA762  ILE779  LEU786  VAL792 
 PHE793  MET794  SER795  GLU796  ALA797  LYS798  CYS799  TRP800  GLU811  SER814 

> <Gold.Protein.RotatedAtoms>
  151.1193  133.5115  159.2602 H   0  0  0  0  0  0  0  0  0  0  0  0  # atno 6907 bound_to 6896
  151.1879  135.0389  159.8830 H   0  0  0  0  0  0  0  0  0  0  0  0  # atno 6908 bound_to 6896
  152.5455  134.1037  159.8382 H   0  0  0  0  0  0  0  0  0  0  0  0  # atno 6909 bound_to 6896
  145.6056  139.2359  143.2221 H   0  0  0  0  0  0  0  0  0  0  0  0  # atno 7974 bound_to 7965
  155.4808  140.0560  157.2967 H   0  0  0  0  0  0  0  0  0  0  0  0  # atno 8008 bound_to 7997
  154.4661  140.2019  156.0068 H   0  0  0  0  0  0  0  0  0  0  0  0  # atno 8009 bound_to 7997
  156.0976  140.3224  155.7903 H   0  0  0  0  0  0  0  0  0  0  0  0  # atno 8010 bound_to 7997
  140.0305  144.5469  150.7511 H   0  0  0  0  0  0  0  0  0  0  0  0  # atno 10167 bound_to 10162
  157.4780  130.8297  149.8061 H   0  0  0  0  0  0  0  0  0  0  0  0  # atno 10718 bound_to 10713
  153.3341  135.4025  155.1519 H   0  0  0  0  0  0  0  0  0  0  0  0  # atno 10763 bound_to 10752
  154.8629  135.3617  154.5432 H   0  0  0  0  0  0  0  0  0  0  0  0  # atno 10764 bound_to 10752
  153.5872  135.7075  153.5497 H   0  0  0  0  0  0  0  0  0  0  0  0  # atno 10765 bound_to 10752
  140.0274  134.9368  157.0596 H   0  0  0  0  0  0  0  0  0  0  0  0  # atno 11005 bound_to 11000
  146.1543  140.6880  142.9307 LP  0  0  0  0  0  0  0  0  0  0  0  0  # atno 17320 bound_to 7965
  144.7291  140.4618  143.6951 LP  0  0  0  0  0  0  0  0  0  0  0  0  # atno 17321 bound_to 7965
  140.7304  143.2683  151.3972 LP  0  0  0  0  0  0  0  0  0  0  0  0  # atno 17342 bound_to 10162
  139.6079  144.1158  152.2269 LP  0  0  0  0  0  0  0  0  0  0  0  0  # atno 17343 bound_to 10162
  156.0107  130.3835  150.2276 LP  0  0  0  0  0  0  0  0  0  0  0  0  # atno 17370 bound_to 10713
  157.0461  131.0049  151.3268 LP  0  0  0  0  0  0  0  0  0  0  0  0  # atno 17371 bound_to 10713
  140.4283  134.1808  155.7167 LP  0  0  0  0  0  0  0  0  0  0  0  0  # atno 17394 bound_to 11000
  141.1811  133.8412  157.1254 LP  0  0  0  0  0  0  0  0  0  0  0  0  # atno 17395 bound_to 11000

$$$$
