AV-unprocessed.smi:862|AV-procd|sdf|3978|dock4
  -GOLD-   22720 1453D 1   1.00000     0.00000
 Structure written by MMmdl.
 44 46  0  0  0  0  0  0  0  0  2 V2000
  147.2375  131.8891  151.7151 N   0  0  0  0  0  0  0  0  0  0  0  0
  146.3108  132.7516  151.2872 C   0  0  0  0  0  0  0  0  0  0  0  0
  145.9893  132.7975  150.1012 O   0  0  0  0  0  0  0  0  0  0  0  0
  145.7437  133.5192  152.2518 N   0  0  0  0  0  0  0  0  0  0  0  0
  145.9536  133.3856  153.7029 C   0  0  0  0  0  0  0  0  0  0  0  0
  146.8809  134.5197  154.1777 C   0  0  0  0  0  0  0  0  0  0  0  0
  146.3047  135.9067  153.8077 C   0  0  0  0  0  0  0  0  0  0  0  0
  147.2620  136.9937  154.1110 N   0  3  0  0  0  0  0  0  0  0  0  0
  146.7948  138.3741  153.8380 C   0  0  2  0  0  0  0  0  0  0  0  0
  147.0391  138.8318  152.3953 C   0  0  0  0  0  0  0  0  0  0  0  0
  147.0458  140.3653  152.4568 C   0  0  0  0  0  0  0  0  0  0  0  0
  147.2363  140.7481  153.9351 C   0  0  0  0  0  0  0  0  0  0  0  0
  147.4936  139.4401  154.7024 C   0  0  2  0  0  0  0  0  0  0  0  0
  148.9190  139.1834  154.9034 N   0  0  0  0  0  0  0  0  0  0  0  0
  149.8547  138.7067  153.9893 C   0  0  0  0  0  0  0  0  0  0  0  0
  151.0495  138.5979  154.6636 C   0  0  0  0  0  0  0  0  0  0  0  0
  150.8753  138.9855  155.9886 N   0  0  0  0  0  0  0  0  0  0  0  0
  149.5935  139.3184  156.0548 C   0  0  0  0  0  0  0  0  0  0  0  0
  145.9138  135.9576  152.3159 C   0  0  0  0  0  0  0  0  0  0  0  0
  145.0273  134.7596  151.9319 C   0  0  0  0  0  0  0  0  0  0  0  0
  147.6924  131.2769  151.0533 H   0  0  0  0  0  0  0  0  0  0  0  0
  147.4711  131.8424  152.6958 H   0  0  0  0  0  0  0  0  0  0  0  0
  144.9908  133.4548  154.2109 H   0  0  0  0  0  0  0  0  0  0  0  0
  146.3679  132.4227  154.0016 H   0  0  0  0  0  0  0  0  0  0  0  0
  147.0236  134.4369  155.2550 H   0  0  0  0  0  0  0  0  0  0  0  0
  147.8653  134.3937  153.7241 H   0  0  0  0  0  0  0  0  0  0  0  0
  145.3942  136.0702  154.3852 H   0  0  0  0  0  0  0  0  0  0  0  0
  147.5132  136.9229  155.0867 H   0  0  0  0  0  0  0  0  0  0  0  0
  145.7263  138.4389  154.0451 H   0  0  0  0  0  0  0  0  0  0  0  0
  148.0082  138.4749  152.0444 H   0  0  0  0  0  0  0  0  0  0  0  0
  146.2841  138.4551  151.7046 H   0  0  0  0  0  0  0  0  0  0  0  0
  147.8412  140.7738  151.8326 H   0  0  0  0  0  0  0  0  0  0  0  0
  146.1039  140.7701  152.0847 H   0  0  0  0  0  0  0  0  0  0  0  0
  148.0279  141.4853  154.0753 H   0  0  0  0  0  0  0  0  0  0  0  0
  146.3165  141.2046  154.3031 H   0  0  0  0  0  0  0  0  0  0  0  0
  147.0291  139.4898  155.6888 H   0  0  0  0  0  0  0  0  0  0  0  0
  149.6086  138.4911  152.9604 H   0  0  0  0  0  0  0  0  0  0  0  0
  152.0118  138.2675  154.3010 H   0  0  0  0  0  0  0  0  0  0  0  0
  149.1312  139.6614  156.9687 H   0  0  0  0  0  0  0  0  0  0  0  0
  145.3905  136.8895  152.0977 H   0  0  0  0  0  0  0  0  0  0  0  0
  146.8110  135.9539  151.6946 H   0  0  0  0  0  0  0  0  0  0  0  0
  144.7471  134.8226  150.8793 H   0  0  0  0  0  0  0  0  0  0  0  0
  144.0894  134.7910  152.4884 H   0  0  0  0  0  0  0  0  0  0  0  0
  148.0949  136.8438  153.5594 H   0  0  0  0  0  0  0  0  0  0  0  0
  1  2  1  0  0  0  0
  1 21  1  0  0  0  0
  1 22  1  0  0  0  0
  2  3  2  0  0  0  0
  2  4  1  0  0  0  0
  4 20  1  0  0  0  0
  4  5  1  0  0  0  0
  5  6  1  0  0  0  0
  5 23  1  0  0  0  0
  5 24  1  0  0  0  0
  6  7  1  0  0  0  0
  6 25  1  0  0  0  0
  6 26  1  0  0  0  0
  7  8  1  0  0  0  0
  7 19  1  0  0  0  0
  7 27  1  0  0  0  0
  8  9  1  0  0  0  0
  8 28  1  0  0  0  0
  8 44  1  0  0  0  0
  9 13  1  0  0  0  0
  9 10  1  0  0  0  0
  9 29  1  0  0  0  0
 10 11  1  0  0  0  0
 10 30  1  0  0  0  0
 10 31  1  0  0  0  0
 11 12  1  0  0  0  0
 11 32  1  0  0  0  0
 11 33  1  0  0  0  0
 12 13  1  0  0  0  0
 12 34  1  0  0  0  0
 12 35  1  0  0  0  0
 13 14  1  0  0  0  0
 13 36  1  0  0  0  0
 14 18  1  0  0  0  0
 14 15  1  0  0  0  0
 15 16  2  0  0  0  0
 15 37  1  0  0  0  0
 16 17  1  0  0  0  0
 16 38  1  0  0  0  0
 17 18  2  0  0  0  0
 18 39  1  0  0  0  0
 19 20  1  0  0  0  0
 19 40  1  0  0  0  0
 19 41  1  0  0  0  0
 20 42  1  0  0  0  0
 20 43  1  0  0  0  0
M  CHG  1   8   1
M  END
> <s_m_source_file>
AV-unprocessed.smi

> <i_m_source_file_index>
862

> <i_lp_mmshare_version>
43012

> <i_f3d_flags>
0

> <s_epik_input>
W05IMl1DKD1PKU4xW0NIMl1bQ0gyXVtDSF0oW0NIMl1bQ0gyXTEpW05IXVtDQEBIXTJbQ0gyXVtDSDJdW0NIMl1bQ0BIXTJuM1tjSF1bY0hdbltjSF0z

> <s_epik_cmdline>
J2VwaWtfcHl0aG9uJywgJy1waCcsICc3LjAnLCAnLXRuJywgJzgnLCAnLW1hJywgJzIwMCcsICctbWV0YWxfYmluZGluZycsICctaW1hZScsICc8aW5maWxlLm1hZT4nLCAnLW9tYWUnLCAnPG91dGZpbGUubWFlPic=

> <r_lp_tautomer_probability>
1

> <r_epik_Ionization_Penalty>
0.0731506

> <r_epik_Ionization_Penalty_Charging>
0.0731

> <r_epik_Ionization_Penalty_Neutral>
5.05966e-05

> <r_epik_State_Penalty>
0.128895

> <r_epik_Charging_Adjusted_Penalty>
0.201995

> <i_epik_Tot_Q>
1

> <i_epik_Tot_abs_Q>
1

> <r_epik_Metal_State_Penalty>
0.113934

> <b_epik_Metal_Only>
0

> <s_lp_Force_Field>
OPLS_2005

> <r_lp_Energy>
57.2527

> <b_lp_Chiralities_Consistent>
1

> <s_lp_Variant>
AV-unprocessed.smi:862-3

> <Gold.Version>
5.8.1

> <Gold.Id.Protein>
6NUR|6NUR_protein|mol2

> <Gold.PLP.Fitness>
36.3354

> <Gold.PLP.PLP>
-23.2779

> <Gold.PLP.part.hbond>
-1.8583

> <Gold.PLP.part.metal>
0.0000

> <Gold.PLP.part.buried>
1.0511

> <Gold.PLP.part.nonpolar>
-23.0034

> <Gold.PLP.part.repulsive>
0.1991

> <Gold.PLP.ligand.clash>
0.0000

> <Gold.PLP.ligand.torsion>
0.8623

> <Gold.PLP.Chemscore.Hbond>
2.9920

> <Gold.PLP.Chemscore.CHOScore>
1.9138

> <Gold.PLP.Chemscore.Metal>
0.0000

> <Gold.Chemscore.Hbonds>
donor molecule, donor type, donor heavy atom, donor atom, acceptor molecule, acceptor atom, score
      L1  H     1    21       P1 10747  0.99
      L1  H     8    44       P1  7948  2.00
      L1  C    15    37       P1  7948  0.94
      L1  C    15    37       P1  7957  0.94

> <Gold.PLP.Chemscore.Internal.Correction>
0.0648

> <Gold.Rescore>
     Score         DG    S(hbond)    S(metal)    S(lipo)     H(rot)  DE(clash)    DE(int)     intcor
     13.10     -14.20       1.81        0.00      58.80       1.64       0.47       0.62       ----

> <Gold.Chemscore.Fitness>
13.1045

> <Gold.Chemscore.DG>
-14.1976

> <Gold.Chemscore.ZeroCoef>
-5.4800

> <Gold.Chemscore.Hbond>
1.8083

> <Gold.Chemscore.Metal>
0.0000

> <Gold.Chemscore.Lipo>
58.7952

> <Gold.Chemscore.Internal_Hbond>
0.0000

> <Gold.Chemscore.DEClash>
0.4689

> <Gold.Chemscore.DEInternal>
0.6243

> <Gold.Chemscore.Rot>
1.6411

> <Gold.Chemscore.Internal.Correction>
   9.000000E+99

> <Gold.Chemscore.Hbonds>
donor molecule, donor type, donor heavy atom, donor atom, acceptor molecule, acceptor atom, score
      L1  H     1    21       P1 10747  0.91
      L1  H     8    44       P1  7948  0.91

> <Gold.Chemscore.Hbond.Weighted>
-6.0399

> <Gold.Chemscore.Metal.Weighted>
-0.0000

> <Gold.Chemscore.Lipo.Weighted>
-6.8790

> <Gold.Chemscore.Internal_Hbond.Weighted>
0.0000

> <Gold.Chemscore.DEClash.Weighted>
0.4689

> <Gold.Chemscore.DEInternal.Weighted>
0.6243

> <Gold.Chemscore.Rot.Weighted>
4.2013

> <Gold.Chemscore.Internal.Correction.Weighted>
   9.000000E+99

> <Gold.Protein.RotatedTorsions>
[ 6907 6896 6895 6894 ] final   95.39 input  -60.11 | X-H torsion
[ 7974 7965 7964 7962 ] final    7.74 input  175.53 | X-H torsion
[ 8008 7997 7996 7995 ] final   58.41 input   59.86 | X-H torsion
[ 10167 10162 10161 10158 ] final   46.66 input  -65.29 | X-H torsion
[ 10718 10713 10712 10709 ] final -163.83 input   66.30 | X-H torsion
[ 10763 10752 10751 10750 ] final   94.12 input  -60.55 | X-H torsion
[ 11005 11000 10999 10996 ] final  -99.10 input  -57.11 | X-H torsion

> <Gold.Protein.ActiveResidues>
 VAL166  LYS551  ARG553  GLY616  TRP617  ASP618  TYR619  PRO620  LYS621  CYS622 
 ASP623  PHE694  ASN695  SER759  ASP760  ASP761  ALA762  ILE779  LEU786  VAL792 
 PHE793  MET794  SER795  GLU796  ALA797  LYS798  CYS799  TRP800  GLU811  SER814 

> <Gold.Protein.RotatedAtoms>
  152.5444  134.1047  159.8332 H   0  0  0  0  0  0  0  0  0  0  0  0  # atno 6907 bound_to 6896
  151.1120  133.5158  159.2612 H   0  0  0  0  0  0  0  0  0  0  0  0  # atno 6908 bound_to 6896
  151.1873  135.0396  159.8872 H   0  0  0  0  0  0  0  0  0  0  0  0  # atno 6909 bound_to 6896
  146.2423  140.0038  142.8413 H   0  0  0  0  0  0  0  0  0  0  0  0  # atno 7974 bound_to 7965
  155.5496  140.3486  155.4465 H   0  0  0  0  0  0  0  0  0  0  0  0  # atno 8008 bound_to 7997
  156.0593  140.1336  156.9986 H   0  0  0  0  0  0  0  0  0  0  0  0  # atno 8009 bound_to 7997
  154.4472  140.0988  156.6477 H   0  0  0  0  0  0  0  0  0  0  0  0  # atno 8010 bound_to 7997
  140.3116  144.2814  150.6199 H   0  0  0  0  0  0  0  0  0  0  0  0  # atno 10167 bound_to 10162
  156.6303  130.8927  151.2976 H   0  0  0  0  0  0  0  0  0  0  0  0  # atno 10718 bound_to 10713
  153.2380  135.4301  155.0667 H   0  0  0  0  0  0  0  0  0  0  0  0  # atno 10763 bound_to 10752
  154.8328  135.3396  154.6690 H   0  0  0  0  0  0  0  0  0  0  0  0  # atno 10764 bound_to 10752
  153.7115  135.7022  153.5092 H   0  0  0  0  0  0  0  0  0  0  0  0  # atno 10765 bound_to 10752
  141.1321  133.8296  157.0928 H   0  0  0  0  0  0  0  0  0  0  0  0  # atno 11005 bound_to 11000
  145.1391  140.9561  143.4499 LP  0  0  0  0  0  0  0  0  0  0  0  0  # atno 17320 bound_to 7965
  145.0313  139.3338  143.6023 LP  0  0  0  0  0  0  0  0  0  0  0  0  # atno 17321 bound_to 7965
  140.5563  143.2198  151.7842 LP  0  0  0  0  0  0  0  0  0  0  0  0  # atno 17342 bound_to 10162
  139.4892  144.4409  151.9765 LP  0  0  0  0  0  0  0  0  0  0  0  0  # atno 17343 bound_to 10162
  157.7202  130.9548  150.1408 LP  0  0  0  0  0  0  0  0  0  0  0  0  # atno 17370 bound_to 10713
  156.2240  130.3676  149.8522 LP  0  0  0  0  0  0  0  0  0  0  0  0  # atno 17371 bound_to 10713
  140.0382  134.9868  157.0911 LP  0  0  0  0  0  0  0  0  0  0  0  0  # atno 17394 bound_to 11000
  140.4177  134.1913  155.7164 LP  0  0  0  0  0  0  0  0  0  0  0  0  # atno 17395 bound_to 11000

$$$$
