AV-unprocessed.smi:2764|AV-procd|sdf|10643|dock3
  -GOLD-   2272015 93D 1   1.00000     0.00000
 Structure written by MMmdl.
 47 49  0  0  0  0  0  0  0  0  2 V2000
  149.6651  140.3432  156.2779 O   0  0  0  0  0  0  0  0  0  0  0  0
  149.5036  141.5477  156.0802 C   0  0  0  0  0  0  0  0  0  0  0  0
  150.1231  142.5368  156.7484 N   0  0  0  0  0  0  0  0  0  0  0  0
  151.0831  142.4258  157.7894 C   0  0  0  0  0  0  0  0  0  0  0  0
  151.0765  141.1925  158.4800 C   0  0  0  0  0  0  0  0  0  0  0  0
  151.9905  140.9816  159.5310 C   0  0  0  0  0  0  0  0  0  0  0  0
  152.8877  142.0122  159.8629 C   0  0  0  0  0  0  0  0  0  0  0  0
  153.7850  141.8555  160.8647 F   0  0  0  0  0  0  0  0  0  0  0  0
  152.8289  143.2100  159.1269 C   0  0  0  0  0  0  0  0  0  0  0  0
  151.9530  143.4134  158.1197 N   0  0  0  0  0  0  0  0  0  0  0  0
  148.6710  142.0368  155.1492 N   0  0  0  0  0  0  0  0  0  0  0  0
  147.8350  141.2338  154.2567 C   0  0  2  0  0  0  0  0  0  0  0  0
  147.0663  142.1055  153.2447 C   0  0  0  0  0  0  0  0  0  0  0  0
  145.9574  142.9311  153.9199 C   0  0  0  0  0  0  0  0  0  0  0  0
  145.0155  142.0612  154.6726 N   0  3  2  0  0  0  0  0  0  0  0  0
  143.8606  142.8246  155.2165 C   0  0  0  0  0  0  0  0  0  0  0  0
  144.2084  144.2894  155.5566 C   0  0  1  0  0  0  0  0  0  0  0  0
  144.1027  145.2846  154.4034 C   0  0  0  0  0  0  0  0  0  0  0  0
  143.5257  146.5555  155.0360 C   0  0  0  0  0  0  0  0  0  0  0  0
  143.4768  146.2930  156.4300 O   0  0  0  0  0  0  0  0  0  0  0  0
  143.2619  144.9026  156.5876 C   0  0  0  0  0  0  0  0  0  0  0  0
  145.7272  141.2531  155.6986 C   0  0  0  0  0  0  0  0  0  0  0  0
  146.8364  140.3909  155.0676 C   0  0  0  0  0  0  0  0  0  0  0  0
  149.8834  143.4797  156.4802 H   0  0  0  0  0  0  0  0  0  0  0  0
  150.3803  140.4114  158.2105 H   0  0  0  0  0  0  0  0  0  0  0  0
  152.0021  140.0464  160.0709 H   0  0  0  0  0  0  0  0  0  0  0  0
  153.5012  144.0253  159.3504 H   0  0  0  0  0  0  0  0  0  0  0  0
  148.5967  143.0399  155.0629 H   0  0  0  0  0  0  0  0  0  0  0  0
  148.4889  140.5517  153.7100 H   0  0  0  0  0  0  0  0  0  0  0  0
  147.7479  142.7650  152.7063 H   0  0  0  0  0  0  0  0  0  0  0  0
  146.6170  141.4601  152.4887 H   0  0  0  0  0  0  0  0  0  0  0  0
  146.3912  143.6718  154.5938 H   0  0  0  0  0  0  0  0  0  0  0  0
  145.4160  143.4833  153.1507 H   0  0  0  0  0  0  0  0  0  0  0  0
  143.0007  142.7587  154.5483 H   0  0  0  0  0  0  0  0  0  0  0  0
  143.5457  142.3509  156.1475 H   0  0  0  0  0  0  0  0  0  0  0  0
  145.2165  144.3388  155.9719 H   0  0  0  0  0  0  0  0  0  0  0  0
  145.0787  145.4714  153.9551 H   0  0  0  0  0  0  0  0  0  0  0  0
  143.4346  144.9287  153.6183 H   0  0  0  0  0  0  0  0  0  0  0  0
  144.1302  147.4386  154.8280 H   0  0  0  0  0  0  0  0  0  0  0  0
  142.5155  146.7411  154.6687 H   0  0  0  0  0  0  0  0  0  0  0  0
  142.2200  144.6650  156.3654 H   0  0  0  0  0  0  0  0  0  0  0  0
  143.4808  144.5774  157.6050 H   0  0  0  0  0  0  0  0  0  0  0  0
  146.1474  141.9148  156.4575 H   0  0  0  0  0  0  0  0  0  0  0  0
  145.0316  140.5929  156.2112 H   0  0  0  0  0  0  0  0  0  0  0  0
  146.3789  139.6501  154.4106 H   0  0  0  0  0  0  0  0  0  0  0  0
  147.3586  139.8261  155.8410 H   0  0  0  0  0  0  0  0  0  0  0  0
  144.6358  141.4142  153.9962 H   0  0  0  0  0  0  0  0  0  0  0  0
  1  2  2  0  0  0  0
  2  3  1  0  0  0  0
  2 11  1  0  0  0  0
  3  4  1  0  0  0  0
  3 24  1  0  0  0  0
  4 10  1  0  0  0  0
  4  5  2  0  0  0  0
  5  6  1  0  0  0  0
  5 25  1  0  0  0  0
  6  7  2  0  0  0  0
  6 26  1  0  0  0  0
  7  8  1  0  0  0  0
  7  9  1  0  0  0  0
  9 10  2  0  0  0  0
  9 27  1  0  0  0  0
 11 12  1  0  0  0  0
 11 28  1  0  0  0  0
 12 23  1  0  0  0  0
 12 13  1  0  0  0  0
 12 29  1  0  0  0  0
 13 14  1  0  0  0  0
 13 30  1  0  0  0  0
 13 31  1  0  0  0  0
 14 15  1  0  0  0  0
 14 32  1  0  0  0  0
 14 33  1  0  0  0  0
 15 16  1  0  0  0  0
 15 22  1  0  0  0  0
 15 47  1  0  0  0  0
 16 17  1  0  0  0  0
 16 34  1  0  0  0  0
 16 35  1  0  0  0  0
 17 21  1  0  0  0  0
 17 18  1  0  0  0  0
 17 36  1  0  0  0  0
 18 19  1  0  0  0  0
 18 37  1  0  0  0  0
 18 38  1  0  0  0  0
 19 20  1  0  0  0  0
 19 39  1  0  0  0  0
 19 40  1  0  0  0  0
 20 21  1  0  0  0  0
 21 41  1  0  0  0  0
 21 42  1  0  0  0  0
 22 23  1  0  0  0  0
 22 43  1  0  0  0  0
 22 44  1  0  0  0  0
 23 45  1  0  0  0  0
 23 46  1  0  0  0  0
M  CHG  1  15   1
M  END
> <s_m_source_file>
AV-unprocessed.smi

> <i_m_source_file_index>
2764

> <i_lp_mmshare_version>
43012

> <i_f3d_flags>
0

> <s_epik_input>
bjFbY0hdYyhGKVtjSF1bY0hdYzFbTkhdQyg9TylbTkhdW0NIXTJbQ0gyXVtDSDJdTihbQ0gyXVtDSDJdMilbQ0gyXVtDQEBIXTNbQ0gyXVtDSDJdT1tDSDJdMw==

> <s_epik_cmdline>
J2VwaWtfcHl0aG9uJywgJy1waCcsICc3LjAnLCAnLXRuJywgJzgnLCAnLW1hJywgJzIwMCcsICctbWV0YWxfYmluZGluZycsICctaW1hZScsICc8aW5maWxlLm1hZT4nLCAnLW9tYWUnLCAnPG91dGZpbGUubWFlPic=

> <r_epik_Ionization_Penalty>
0.0075076

> <r_epik_Ionization_Penalty_Charging>
0.00747775

> <r_epik_Ionization_Penalty_Neutral>
2.98483e-05

> <r_epik_State_Penalty>
0.00558817

> <r_epik_Charging_Adjusted_Penalty>
0.0130659

> <i_epik_Tot_Q>
1

> <i_epik_Tot_abs_Q>
1

> <r_epik_Metal_State_Penalty>
-0

> <b_epik_Metal_Only>
0

> <s_lp_Force_Field>
OPLS_2005

> <r_lp_Energy>
38.1344

> <b_lp_Chiralities_Consistent>
1

> <s_lp_Variant>
AV-unprocessed.smi:2764-4

> <Gold.Version>
5.8.1

> <Gold.Id.Protein>
6NUR|6NUR_protein|mol2

> <Gold.PLP.Fitness>
51.2595

> <Gold.PLP.PLP>
-40.8306

> <Gold.PLP.part.hbond>
-3.0000

> <Gold.PLP.part.metal>
0.0000

> <Gold.PLP.part.buried>
-7.3897

> <Gold.PLP.part.nonpolar>
-31.5434

> <Gold.PLP.part.repulsive>
0.3130

> <Gold.PLP.ligand.clash>
0.0000

> <Gold.PLP.ligand.torsion>
0.8077

> <Gold.PLP.Chemscore.Hbond>
4.0000

> <Gold.PLP.Chemscore.CHOScore>
0.0000

> <Gold.PLP.Chemscore.Metal>
0.0000

> <Gold.Chemscore.Hbonds>
donor molecule, donor type, donor heavy atom, donor atom, acceptor molecule, acceptor atom, score
      L1  H     3    24       P1  8028  1.00
      L1  H    11    28       P1  8028  1.00
      L1  H    15    47       P1 10175  2.00

> <Gold.PLP.Chemscore.Internal.Correction>
0.0443

> <Gold.Rescore>
     Score         DG    S(hbond)    S(metal)    S(lipo)     H(rot)  DE(clash)    DE(int)     intcor
     17.91     -21.20       2.75        0.00      88.59       1.49       0.90       2.39       ----

> <Gold.Chemscore.Fitness>
17.9071

> <Gold.Chemscore.DG>
-21.2019

> <Gold.Chemscore.ZeroCoef>
-5.4800

> <Gold.Chemscore.Hbond>
2.7454

> <Gold.Chemscore.Metal>
0.0000

> <Gold.Chemscore.Lipo>
88.5858

> <Gold.Chemscore.Internal_Hbond>
0.0000

> <Gold.Chemscore.DEClash>
0.8999

> <Gold.Chemscore.DEInternal>
2.3949

> <Gold.Chemscore.Rot>
1.4891

> <Gold.Chemscore.Internal.Correction>
   9.000000E+99

> <Gold.Chemscore.Hbonds>
donor molecule, donor type, donor heavy atom, donor atom, acceptor molecule, acceptor atom, score
      L1  H     3    24       P1  8028  0.98
      L1  H    11    28       P1  8028  0.98
      L1  H    15    47       P1 10175  0.34

> <Gold.Chemscore.Hbond.Weighted>
-9.1695

> <Gold.Chemscore.Metal.Weighted>
-0.0000

> <Gold.Chemscore.Lipo.Weighted>
-10.3645

> <Gold.Chemscore.Internal_Hbond.Weighted>
0.0000

> <Gold.Chemscore.DEClash.Weighted>
0.8999

> <Gold.Chemscore.DEInternal.Weighted>
2.3949

> <Gold.Chemscore.Rot.Weighted>
3.8121

> <Gold.Chemscore.Internal.Correction.Weighted>
   9.000000E+99

> <Gold.Protein.RotatedTorsions>
[ 6907 6896 6895 6894 ] final   30.61 input  -60.11 | X-H torsion
[ 7974 7965 7964 7962 ] final -138.29 input  175.53 | X-H torsion
[ 8008 7997 7996 7995 ] final -106.86 input   59.86 | X-H torsion
[ 10167 10162 10161 10158 ] final  -53.21 input  -65.29 | X-H torsion
[ 10718 10713 10712 10709 ] final   69.51 input   66.30 | X-H torsion
[ 10763 10752 10751 10750 ] final  111.74 input  -60.55 | X-H torsion
[ 11005 11000 10999 10996 ] final  134.02 input  -57.11 | X-H torsion

> <Gold.Protein.ActiveResidues>
 VAL166  LYS551  ARG553  GLY616  TRP617  ASP618  TYR619  PRO620  LYS621  CYS622 
 ASP623  PHE694  ASN695  SER759  ASP760  ASP761  ALA762  ILE779  LEU786  VAL792 
 PHE793  MET794  SER795  GLU796  ALA797  LYS798  CYS799  TRP800  GLU811  SER814 

> <Gold.Protein.RotatedAtoms>
  152.0485  134.9668  160.0574 H   0  0  0  0  0  0  0  0  0  0  0  0  # atno 6907 bound_to 6896
  152.1078  133.4279  159.4625 H   0  0  0  0  0  0  0  0  0  0  0  0  # atno 6908 bound_to 6896
  150.6842  134.2603  159.4590 H   0  0  0  0  0  0  0  0  0  0  0  0  # atno 6909 bound_to 6896
  144.8770  140.6452  143.5230 H   0  0  0  0  0  0  0  0  0  0  0  0  # atno 7974 bound_to 7965
  154.9208  140.0407  157.1997 H   0  0  0  0  0  0  0  0  0  0  0  0  # atno 8008 bound_to 7997
  154.8256  140.2891  155.5735 H   0  0  0  0  0  0  0  0  0  0  0  0  # atno 8009 bound_to 7997
  156.2983  140.2510  156.3171 H   0  0  0  0  0  0  0  0  0  0  0  0  # atno 8010 bound_to 7997
  140.6497  143.2558  151.4759 H   0  0  0  0  0  0  0  0  0  0  0  0  # atno 10167 bound_to 10162
  157.6350  130.9429  150.0524 H   0  0  0  0  0  0  0  0  0  0  0  0  # atno 10718 bound_to 10713
  153.4678  135.3707  155.2374 H   0  0  0  0  0  0  0  0  0  0  0  0  # atno 10763 bound_to 10752
  154.8757  135.3924  154.3848 H   0  0  0  0  0  0  0  0  0  0  0  0  # atno 10764 bound_to 10752
  153.4432  135.7084  153.6220 H   0  0  0  0  0  0  0  0  0  0  0  0  # atno 10765 bound_to 10752
  139.9888  134.9522  156.9807 H   0  0  0  0  0  0  0  0  0  0  0  0  # atno 11005 bound_to 11000
  145.4023  139.1595  143.4170 LP  0  0  0  0  0  0  0  0  0  0  0  0  # atno 17320 bound_to 7965
  146.2969  140.4121  142.8718 LP  0  0  0  0  0  0  0  0  0  0  0  0  # atno 17321 bound_to 7965
  139.5710  144.1928  152.1837 LP  0  0  0  0  0  0  0  0  0  0  0  0  # atno 17342 bound_to 10162
  140.1224  144.5361  150.6854 LP  0  0  0  0  0  0  0  0  0  0  0  0  # atno 17343 bound_to 10162
  156.1582  130.3643  149.9338 LP  0  0  0  0  0  0  0  0  0  0  0  0  # atno 17370 bound_to 10713
  156.7343  130.9055  151.3628 LP  0  0  0  0  0  0  0  0  0  0  0  0  # atno 17371 bound_to 10713
  140.4949  134.1156  155.7239 LP  0  0  0  0  0  0  0  0  0  0  0  0  # atno 17394 bound_to 11000
  141.1548  133.8903  157.2005 LP  0  0  0  0  0  0  0  0  0  0  0  0  # atno 17395 bound_to 11000

$$$$
