AV-unprocessed.smi:48|AV-procd|sdf|451|dock7
  -GOLD-   2262016323D 1   1.00000     0.00000
 Structure written by MMmdl.
 30 32  0  0  0  0  0  0  0  0  1 V2000
  149.4908  141.0837  153.3173 O   0  0  0  0  0  0  0  0  0  0  0  0
  149.1530  140.4874  154.5515 C   0  0  0  0  0  0  0  0  0  0  0  0
  150.3378  139.6668  155.0840 C   0  0  1  0  0  0  0  0  0  0  0  0
  151.2082  140.5084  155.8267 O   0  0  0  0  0  0  0  0  0  0  0  0
  151.9336  139.7467  156.7393 C   0  0  1  0  0  0  0  0  0  0  0  0
  152.0181  140.5338  158.0104 N   0  0  0  0  0  0  0  0  0  0  0  0
  151.0770  141.3390  158.5438 C   0  0  0  0  0  0  0  0  0  0  0  0
  151.3672  141.9426  159.6957 N   0  0  0  0  0  0  0  0  0  0  0  0
  152.6451  141.4678  159.9426 C   0  0  0  0  0  0  0  0  0  0  0  0
  153.5661  141.6919  160.9947 C   0  0  0  0  0  0  0  0  0  0  0  0
  153.1752  142.7379  162.3102 Cl  0  0  0  0  0  0  0  0  0  0  0  0
  154.7655  141.0644  160.9468 N   0  0  0  0  0  0  0  0  0  0  0  0
  155.0428  140.2573  159.9153 C   0  0  0  0  0  0  0  0  0  0  0  0
  154.2810  139.9516  158.8590 N   0  0  0  0  0  0  0  0  0  0  0  0
  153.0718  140.5860  158.9093 C   0  0  0  0  0  0  0  0  0  0  0  0
  151.2066  138.3934  156.9097 C   0  0  1  0  0  0  0  0  0  0  0  0
  150.9089  138.0441  158.2502 O   0  0  0  0  0  0  0  0  0  0  0  0
  149.9305  138.6000  156.1044 C   0  0  2  0  0  0  0  0  0  0  0  0
  149.5562  137.4050  155.4488 O   0  0  0  0  0  0  0  0  0  0  0  0
  150.9013  139.2052  154.2701 H   0  0  0  0  0  0  0  0  0  0  0  0
  152.9675  139.6342  156.4097 H   0  0  0  0  0  0  0  0  0  0  0  0
  151.8346  137.6235  156.4581 H   0  0  0  0  0  0  0  0  0  0  0  0
  149.1199  138.9652  156.7373 H   0  0  0  0  0  0  0  0  0  0  0  0
  149.3550  140.4494  152.6301 H   0  0  0  0  0  0  0  0  0  0  0  0
  148.8419  141.2469  155.2694 H   0  0  0  0  0  0  0  0  0  0  0  0
  148.2956  139.8371  154.3755 H   0  0  0  0  0  0  0  0  0  0  0  0
  150.1250  141.4940  158.0572 H   0  0  0  0  0  0  0  0  0  0  0  0
  156.0151  139.7879  159.9392 H   0  0  0  0  0  0  0  0  0  0  0  0
  150.3263  138.6961  158.6084 H   0  0  0  0  0  0  0  0  0  0  0  0
  150.0045  137.3691  154.6174 H   0  0  0  0  0  0  0  0  0  0  0  0
  1  2  1  0  0  0  0
  1 24  1  0  0  0  0
  2  3  1  0  0  0  0
  2 25  1  0  0  0  0
  2 26  1  0  0  0  0
  3 20  1  0  0  0  0
  3 18  1  0  0  0  0
  3  4  1  0  0  0  0
  4  5  1  0  0  0  0
  5 21  1  0  0  0  0
  5  6  1  0  0  0  0
  5 16  1  0  0  0  0
  6 15  1  0  0  0  0
  6  7  1  0  0  0  0
  7  8  2  0  0  0  0
  7 27  1  0  0  0  0
  8  9  1  0  0  0  0
  9 15  2  0  0  0  0
  9 10  1  0  0  0  0
 10 11  1  0  0  0  0
 10 12  2  0  0  0  0
 12 13  1  0  0  0  0
 13 14  2  0  0  0  0
 13 28  1  0  0  0  0
 14 15  1  0  0  0  0
 16 22  1  0  0  0  0
 16 17  1  0  0  0  0
 16 18  1  0  0  0  0
 17 29  1  0  0  0  0
 18 23  1  0  0  0  0
 18 19  1  0  0  0  0
 19 30  1  0  0  0  0
M  END
> <s_m_source_file>
AV-unprocessed.smi

> <i_m_source_file_index>
48

> <i_lp_mmshare_version>
43012

> <i_f3d_flags>
0

> <s_epik_input>
W09IXVtDSDJdW0NASF0xT1tDQEhdKFtDQEhdKFtPSF0pW0NAQEhdMVtPSF0pbihbY0hdbjIpYyhjMjMpbltjSF1uYzNDbA==

> <s_epik_cmdline>
J2VwaWtfcHl0aG9uJywgJy1waCcsICc3LjAnLCAnLXRuJywgJzgnLCAnLW1hJywgJzIwMCcsICctbWV0YWxfYmluZGluZycsICctaW1hZScsICc8aW5maWxlLm1hZT4nLCAnLW9tYWUnLCAnPG91dGZpbGUubWFlPic=

> <r_lp_tautomer_probability>
1

> <r_epik_Ionization_Penalty>
3.45505e-06

> <r_epik_Ionization_Penalty_Charging>
0

> <r_epik_Ionization_Penalty_Neutral>
3.45505e-06

> <r_epik_State_Penalty>
-0

> <r_epik_Charging_Adjusted_Penalty>
0

> <i_epik_Tot_Q>
0

> <i_epik_Tot_abs_Q>
0

> <r_epik_Metal_State_Penalty>
-0

> <b_epik_Metal_Only>
0

> <s_epik_Chemistry_Notes>
This compound contains an acetal/aminal-like group ( X-CH(R)-Y where X, Y are N, S, or O) that may be acid/base labile, releasing an aldehyde.

> <s_lp_Force_Field>
OPLS_2005

> <r_lp_Energy>
37.1345

> <b_lp_Chiralities_Consistent>
1

> <s_lp_Variant>
AV-unprocessed.smi:48-5

> <Gold.Version>
5.8.1

> <Gold.Id.Protein>
6NUR|6NUR_protein|mol2

> <Gold.PLP.Fitness>
40.6515

> <Gold.PLP.PLP>
-33.5368

> <Gold.PLP.part.hbond>
-5.6835

> <Gold.PLP.part.metal>
0.0000

> <Gold.PLP.part.buried>
-4.2268

> <Gold.PLP.part.nonpolar>
-23.1956

> <Gold.PLP.part.repulsive>
0.0076

> <Gold.PLP.ligand.clash>
0.0000

> <Gold.PLP.ligand.torsion>
0.9357

> <Gold.PLP.Chemscore.Hbond>
2.9921

> <Gold.PLP.Chemscore.CHOScore>
0.0000

> <Gold.PLP.Chemscore.Metal>
0.0000

> <Gold.Chemscore.Hbonds>
donor molecule, donor type, donor heavy atom, donor atom, acceptor molecule, acceptor atom, score
      L1  H     1    24       P1  7957  0.94
      P1  H  7989  7998       L1     1  0.11
      P1  H  7997  8008       L1    14  1.00
      P1  H  8011  8017       L1     1  0.85

> <Gold.PLP.Chemscore.Internal.Correction>
0.0097

> <Gold.Rescore>
     Score         DG    S(hbond)    S(metal)    S(lipo)     H(rot)  DE(clash)    DE(int)     intcor
      7.27      -8.31       1.98        0.00      50.91       3.80       0.02       1.02       ----

> <Gold.Chemscore.Fitness>
7.2734

> <Gold.Chemscore.DG>
-8.3120

> <Gold.Chemscore.ZeroCoef>
-5.4800

> <Gold.Chemscore.Hbond>
1.9782

> <Gold.Chemscore.Metal>
0.0000

> <Gold.Chemscore.Lipo>
50.9147

> <Gold.Chemscore.Internal_Hbond>
0.0000

> <Gold.Chemscore.DEClash>
0.0222

> <Gold.Chemscore.DEInternal>
1.0163

> <Gold.Chemscore.Rot>
3.8017

> <Gold.Chemscore.Internal.Correction>
   9.000000E+99

> <Gold.Chemscore.Hbonds>
donor molecule, donor type, donor heavy atom, donor atom, acceptor molecule, acceptor atom, score
      L1  H     1    24       P1  7957  0.86
      P1  H  7989  7998       L1     1  0.01
      P1  H  7997  8008       L1    14  0.77
      P1  H  8011  8017       L1     1  0.14

> <Gold.Chemscore.Hbond.Weighted>
-6.6073

> <Gold.Chemscore.Metal.Weighted>
-0.0000

> <Gold.Chemscore.Lipo.Weighted>
-5.9570

> <Gold.Chemscore.Internal_Hbond.Weighted>
0.0000

> <Gold.Chemscore.DEClash.Weighted>
0.0222

> <Gold.Chemscore.DEInternal.Weighted>
1.0163

> <Gold.Chemscore.Rot.Weighted>
9.7324

> <Gold.Chemscore.Internal.Correction.Weighted>
   9.000000E+99

> <Gold.Protein.RotatedTorsions>
[ 6907 6896 6895 6894 ] final  -95.50 input  -60.11 | X-H torsion
[ 7974 7965 7964 7962 ] final   58.65 input  175.53 | X-H torsion
[ 8008 7997 7996 7995 ] final -113.52 input   59.86 | X-H torsion
[ 10167 10162 10161 10158 ] final  -17.06 input  -65.29 | X-H torsion
[ 10718 10713 10712 10709 ] final   14.80 input   66.30 | X-H torsion
[ 10763 10752 10751 10750 ] final   99.92 input  -60.55 | X-H torsion
[ 11005 11000 10999 10996 ] final   41.84 input  -57.11 | X-H torsion

> <Gold.Protein.ActiveResidues>
 VAL166  LYS551  ARG553  GLY616  TRP617  ASP618  TYR619  PRO620  LYS621  CYS622 
 ASP623  PHE694  ASN695  SER759  ASP760  ASP761  ALA762  ILE779  LEU786  VAL792 
 PHE793  MET794  SER795  GLU796  ALA797  LYS798  CYS799  TRP800  GLU811  SER814 

> <Gold.Protein.RotatedAtoms>
  150.6965  134.1648  159.4189 H   0  0  0  0  0  0  0  0  0  0  0  0  # atno 6907 bound_to 6896
  151.9627  135.0113  160.0558 H   0  0  0  0  0  0  0  0  0  0  0  0  # atno 6908 bound_to 6896
  152.1912  133.4739  159.5045 H   0  0  0  0  0  0  0  0  0  0  0  0  # atno 6909 bound_to 6896
  145.9159  139.3690  143.0508 H   0  0  0  0  0  0  0  0  0  0  0  0  # atno 7974 bound_to 7965
  155.0220  140.0393  157.2441 H   0  0  0  0  0  0  0  0  0  0  0  0  # atno 8008 bound_to 7997
  154.7370  140.2741  155.6383 H   0  0  0  0  0  0  0  0  0  0  0  0  # atno 8009 bound_to 7997
  156.2855  140.2673  156.2087 H   0  0  0  0  0  0  0  0  0  0  0  0  # atno 8010 bound_to 7997
  140.7242  143.5053  150.9818 H   0  0  0  0  0  0  0  0  0  0  0  0  # atno 10167 bound_to 10162
  157.0444  130.6244  149.5756 H   0  0  0  0  0  0  0  0  0  0  0  0  # atno 10718 bound_to 10713
  153.3074  135.4097  155.1306 H   0  0  0  0  0  0  0  0  0  0  0  0  # atno 10763 bound_to 10752
  154.8566  135.3556  154.5770 H   0  0  0  0  0  0  0  0  0  0  0  0  # atno 10764 bound_to 10752
  153.6197  135.7065  153.5374 H   0  0  0  0  0  0  0  0  0  0  0  0  # atno 10765 bound_to 10752
  140.1796  134.4120  155.8208 H   0  0  0  0  0  0  0  0  0  0  0  0  # atno 11005 bound_to 11000
  145.8613  140.9474  143.0699 LP  0  0  0  0  0  0  0  0  0  0  0  0  # atno 17320 bound_to 7965
  144.6748  140.0534  143.7478 LP  0  0  0  0  0  0  0  0  0  0  0  0  # atno 17321 bound_to 7965
  139.8764  143.7127  152.3161 LP  0  0  0  0  0  0  0  0  0  0  0  0  # atno 17342 bound_to 10162
  139.7394  144.7563  151.0676 LP  0  0  0  0  0  0  0  0  0  0  0  0  # atno 17343 bound_to 10162
  156.0028  130.5110  150.7723 LP  0  0  0  0  0  0  0  0  0  0  0  0  # atno 17370 bound_to 10713
  157.5079  131.0923  151.0234 LP  0  0  0  0  0  0  0  0  0  0  0  0  # atno 17371 bound_to 10713
  141.2222  133.6994  156.7908 LP  0  0  0  0  0  0  0  0  0  0  0  0  # atno 17394 bound_to 11000
  140.2282  134.8705  157.3449 LP  0  0  0  0  0  0  0  0  0  0  0  0  # atno 17395 bound_to 11000

$$$$
