AV-unprocessed.smi:2344|AV-procd|sdf|9357|dock7
  -GOLD-   2272012583D 1   1.00000     0.00000
 Structure written by MMmdl.
 35 36  0  0  0  0  0  0  0  0  1 V2000
  146.4156  138.1771  152.5755 C   0  0  0  0  0  0  0  0  0  0  0  0
  147.1870  139.2355  153.3355 C   0  0  0  0  0  0  0  0  0  0  0  0
  148.4681  138.9633  153.8506 C   0  0  0  0  0  0  0  0  0  0  0  0
  149.1495  139.9793  154.5481 C   0  0  0  0  0  0  0  0  0  0  0  0
  148.5357  141.2414  154.7136 C   0  0  0  0  0  0  0  0  0  0  0  0
  149.3055  142.1945  155.4321 N   0  0  0  0  0  0  0  0  0  0  0  0
  150.4280  141.9901  156.1437 C   0  0  0  0  0  0  0  0  0  0  0  0
  150.9841  140.9031  156.3032 O   0  0  0  0  0  0  0  0  0  0  0  0
  150.8846  143.1358  156.6694 N   0  0  0  0  0  0  0  0  0  0  0  0
  152.0888  143.2566  157.4833 C   0  0  2  0  0  0  0  0  0  0  0  0
  152.0816  142.2361  158.5882 C   0  0  0  0  0  0  0  0  0  0  0  0
  152.2075  142.7838  159.7947 C   0  0  0  0  0  0  0  0  0  0  0  0
  152.3170  144.2866  159.7471 C   0  0  2  0  0  0  0  0  0  0  0  0
  151.2642  144.9908  160.6204 C   0  0  0  0  0  0  0  0  0  0  0  0
  151.2100  144.4045  161.9039 O   0  0  0  0  0  0  0  0  0  0  0  0
  152.1710  144.6098  158.2383 C   0  0  0  0  0  0  0  0  0  0  0  0
  147.3010  141.4945  154.2124 N   0  0  0  0  0  0  0  0  0  0  0  0
  146.6488  140.5206  153.5437 C   0  0  0  0  0  0  0  0  0  0  0  0
  152.9779  143.0957  156.8713 H   0  0  0  0  0  0  0  0  0  0  0  0
  153.3179  144.5617  160.0830 H   0  0  0  0  0  0  0  0  0  0  0  0
  146.4917  137.2128  153.0788 H   0  0  0  0  0  0  0  0  0  0  0  0
  146.8153  138.0720  151.5669 H   0  0  0  0  0  0  0  0  0  0  0  0
  145.3595  138.4383  152.5010 H   0  0  0  0  0  0  0  0  0  0  0  0
  148.9234  137.9932  153.7153 H   0  0  0  0  0  0  0  0  0  0  0  0
  150.1335  139.7868  154.9504 H   0  0  0  0  0  0  0  0  0  0  0  0
  148.9661  143.1440  155.3930 H   0  0  0  0  0  0  0  0  0  0  0  0
  150.3686  143.9848  156.4903 H   0  0  0  0  0  0  0  0  0  0  0  0
  151.9978  141.1770  158.3934 H   0  0  0  0  0  0  0  0  0  0  0  0
  152.2403  142.2346  160.7241 H   0  0  0  0  0  0  0  0  0  0  0  0
  151.5121  146.0465  160.7338 H   0  0  0  0  0  0  0  0  0  0  0  0
  150.2771  144.9378  160.1594 H   0  0  0  0  0  0  0  0  0  0  0  0
  151.2136  145.0939  162.5505 H   0  0  0  0  0  0  0  0  0  0  0  0
  153.0186  145.1978  157.8840 H   0  0  0  0  0  0  0  0  0  0  0  0
  151.2795  145.2136  158.0598 H   0  0  0  0  0  0  0  0  0  0  0  0
  145.6704  140.7774  153.1653 H   0  0  0  0  0  0  0  0  0  0  0  0
  1  2  1  0  0  0  0
  1 21  1  0  0  0  0
  1 22  1  0  0  0  0
  1 23  1  0  0  0  0
  2 18  1  0  0  0  0
  2  3  2  0  0  0  0
  3  4  1  0  0  0  0
  3 24  1  0  0  0  0
  4  5  2  0  0  0  0
  4 25  1  0  0  0  0
  5  6  1  0  0  0  0
  5 17  1  0  0  0  0
  6  7  1  0  0  0  0
  6 26  1  0  0  0  0
  7  8  2  0  0  0  0
  7  9  1  0  0  0  0
  9 10  1  0  0  0  0
  9 27  1  0  0  0  0
 10 19  1  0  0  0  0
 10 16  1  0  0  0  0
 10 11  1  0  0  0  0
 11 12  2  0  0  0  0
 11 28  1  0  0  0  0
 12 13  1  0  0  0  0
 12 29  1  0  0  0  0
 13 20  1  0  0  0  0
 13 14  1  0  0  0  0
 13 16  1  0  0  0  0
 14 15  1  0  0  0  0
 14 30  1  0  0  0  0
 14 31  1  0  0  0  0
 15 32  1  0  0  0  0
 16 33  1  0  0  0  0
 16 34  1  0  0  0  0
 17 18  2  0  0  0  0
 18 35  1  0  0  0  0
M  END
> <s_m_source_file>
AV-unprocessed.smi

> <i_m_source_file_index>
2344

> <i_lp_mmshare_version>
43012

> <i_f3d_flags>
0

> <s_epik_input>
W0NIM11jMVtjSF1bY0hdYyhuW2NIXTEpW05IXUMoPU8pW05IXVtDQEBIXTJbQ0hdPVtDSF1bQ0BASF0oW0NIMl0yKVtDSDJdW09IXQ==

> <s_epik_cmdline>
J2VwaWtfcHl0aG9uJywgJy1waCcsICc3LjAnLCAnLXRuJywgJzgnLCAnLW1hJywgJzIwMCcsICctbWV0YWxfYmluZGluZycsICctaW1hZScsICc8aW5maWxlLm1hZT4nLCAnLW9tYWUnLCAnPG91dGZpbGUubWFlPic=

> <r_lp_tautomer_probability>
1

> <r_epik_Ionization_Penalty>
5.7643e-05

> <r_epik_Ionization_Penalty_Charging>
0

> <r_epik_Ionization_Penalty_Neutral>
5.7643e-05

> <r_epik_State_Penalty>
-0

> <r_epik_Charging_Adjusted_Penalty>
0

> <i_epik_Tot_Q>
0

> <i_epik_Tot_abs_Q>
0

> <r_epik_Metal_State_Penalty>
-0

> <b_epik_Metal_Only>
0

> <s_lp_Force_Field>
OPLS_2005

> <r_lp_Energy>
16.9507

> <b_lp_Chiralities_Consistent>
1

> <s_lp_Variant>
AV-unprocessed.smi:2344-1

> <Gold.Version>
5.8.1

> <Gold.Id.Protein>
6NUR|6NUR_protein|mol2

> <Gold.PLP.Fitness>
45.7110

> <Gold.PLP.PLP>
-39.4159

> <Gold.PLP.part.hbond>
-3.7005

> <Gold.PLP.part.metal>
0.0000

> <Gold.PLP.part.buried>
-2.9532

> <Gold.PLP.part.nonpolar>
-33.9554

> <Gold.PLP.part.repulsive>
0.4590

> <Gold.PLP.ligand.clash>
1.7372

> <Gold.PLP.ligand.torsion>
0.2611

> <Gold.PLP.Chemscore.Hbond>
1.8480

> <Gold.PLP.Chemscore.CHOScore>
0.9988

> <Gold.PLP.Chemscore.Metal>
0.0000

> <Gold.Chemscore.Hbonds>
donor molecule, donor type, donor heavy atom, donor atom, acceptor molecule, acceptor atom, score
      L1  H     6    26       P1  8028  1.00
      L1  H     9    27       P1  8028  0.93
      L1  C    18    35       P1 10175  1.00

> <Gold.PLP.Chemscore.Internal.Correction>
0.0143

> <Gold.Rescore>
     Score         DG    S(hbond)    S(metal)    S(lipo)     H(rot)  DE(clash)    DE(int)     intcor
     13.89     -20.08       2.19        0.00     102.07       1.82       2.80       3.40       ----

> <Gold.Chemscore.Fitness>
13.8905

> <Gold.Chemscore.DG>
-20.0835

> <Gold.Chemscore.ZeroCoef>
-5.4800

> <Gold.Chemscore.Hbond>
2.1905

> <Gold.Chemscore.Metal>
0.0000

> <Gold.Chemscore.Lipo>
102.0712

> <Gold.Chemscore.Internal_Hbond>
0.0000

> <Gold.Chemscore.DEClash>
2.7958

> <Gold.Chemscore.DEInternal>
3.3971

> <Gold.Chemscore.Rot>
1.8184

> <Gold.Chemscore.Internal.Correction>
   9.000000E+99

> <Gold.Chemscore.Hbonds>
donor molecule, donor type, donor heavy atom, donor atom, acceptor molecule, acceptor atom, score
      L1  H     6    26       P1  8028  0.98
      L1  H     9    27       P1  8028  0.91

> <Gold.Chemscore.Hbond.Weighted>
-7.3162

> <Gold.Chemscore.Metal.Weighted>
-0.0000

> <Gold.Chemscore.Lipo.Weighted>
-11.9423

> <Gold.Chemscore.Internal_Hbond.Weighted>
0.0000

> <Gold.Chemscore.DEClash.Weighted>
2.7958

> <Gold.Chemscore.DEInternal.Weighted>
3.3971

> <Gold.Chemscore.Rot.Weighted>
4.6551

> <Gold.Chemscore.Internal.Correction.Weighted>
   9.000000E+99

> <Gold.Protein.RotatedTorsions>
[ 6907 6896 6895 6894 ] final  -46.58 input  -60.11 | X-H torsion
[ 7974 7965 7964 7962 ] final -151.53 input  175.53 | X-H torsion
[ 8008 7997 7996 7995 ] final   66.06 input   59.86 | X-H torsion
[ 10167 10162 10161 10158 ] final  -32.42 input  -65.29 | X-H torsion
[ 10718 10713 10712 10709 ] final -106.96 input   66.30 | X-H torsion
[ 10763 10752 10751 10750 ] final   -4.56 input  -60.55 | X-H torsion
[ 11005 11000 10999 10996 ] final  -63.47 input  -57.11 | X-H torsion

> <Gold.Protein.ActiveResidues>
 VAL166  LYS551  ARG553  GLY616  TRP617  ASP618  TYR619  PRO620  LYS621  CYS622 
 ASP623  PHE694  ASN695  SER759  ASP760  ASP761  ALA762  ILE779  LEU786  VAL792 
 PHE793  MET794  SER795  GLU796  ALA797  LYS798  CYS799  TRP800  GLU811  SER814 

> <Gold.Protein.RotatedAtoms>
  150.9098  134.8514  159.7417 H   0  0  0  0  0  0  0  0  0  0  0  0  # atno 6907 bound_to 6896
  152.4938  134.4376  159.9543 H   0  0  0  0  0  0  0  0  0  0  0  0  # atno 6908 bound_to 6896
  151.4420  133.3601  159.2818 H   0  0  0  0  0  0  0  0  0  0  0  0  # atno 6909 bound_to 6896
  144.7844  140.4784  143.5816 H   0  0  0  0  0  0  0  0  0  0  0  0  # atno 7974 bound_to 7965
  155.6715  140.3497  155.4820 H   0  0  0  0  0  0  0  0  0  0  0  0  # atno 8008 bound_to 7997
  155.9684  140.1151  157.0857 H   0  0  0  0  0  0  0  0  0  0  0  0  # atno 8009 bound_to 7997
  154.4160  140.1162  156.5259 H   0  0  0  0  0  0  0  0  0  0  0  0  # atno 8010 bound_to 7997
  140.7221  143.3696  151.1803 H   0  0  0  0  0  0  0  0  0  0  0  0  # atno 10167 bound_to 10162
  156.0414  130.5639  150.7755 H   0  0  0  0  0  0  0  0  0  0  0  0  # atno 10718 bound_to 10713
  153.3865  135.7000  153.6526 H   0  0  0  0  0  0  0  0  0  0  0  0  # atno 10763 bound_to 10752
  153.5116  135.3631  155.2590 H   0  0  0  0  0  0  0  0  0  0  0  0  # atno 10764 bound_to 10752
  154.8698  135.4136  154.3174 H   0  0  0  0  0  0  0  0  0  0  0  0  # atno 10765 bound_to 10752
  141.1394  133.6652  156.5685 H   0  0  0  0  0  0  0  0  0  0  0  0  # atno 11005 bound_to 11000
  145.5961  139.1499  143.3155 LP  0  0  0  0  0  0  0  0  0  0  0  0  # atno 17320 bound_to 7965
  146.2069  140.6084  142.9077 LP  0  0  0  0  0  0  0  0  0  0  0  0  # atno 17321 bound_to 7965
  139.7265  143.9140  152.3004 LP  0  0  0  0  0  0  0  0  0  0  0  0  # atno 17342 bound_to 10162
  139.8915  144.6963  150.8765 LP  0  0  0  0  0  0  0  0  0  0  0  0  # atno 17343 bound_to 10162
  157.5237  131.0933  151.0045 LP  0  0  0  0  0  0  0  0  0  0  0  0  # atno 17370 bound_to 10713
  157.0369  130.5734  149.5351 LP  0  0  0  0  0  0  0  0  0  0  0  0  # atno 17371 bound_to 10713
  140.3931  134.7422  157.4734 LP  0  0  0  0  0  0  0  0  0  0  0  0  # atno 17394 bound_to 11000
  140.0551  134.6075  155.8815 LP  0  0  0  0  0  0  0  0  0  0  0  0  # atno 17395 bound_to 11000

$$$$
