AV-unprocessed.smi:3216|AV-procd|sdf|12287|dock7
  -GOLD-   2272018123D 1   1.00000     0.00000
 Structure written by MMmdl.
 37 37  0  0  0  0  0  0  0  0  2 V2000
  152.7488  144.4860  158.1110 C   0  0  0  0  0  0  0  0  0  0  0  0
  151.5852  143.7723  158.8207 C   0  0  0  0  0  0  0  0  0  0  0  0
  151.9303  143.5052  160.2931 C   0  0  0  0  0  0  0  0  0  0  0  0
  151.1776  142.4642  158.1097 C   0  0  0  0  0  0  0  0  0  0  0  0
  149.8844  142.5686  157.4403 N   0  0  0  0  0  0  0  0  0  0  0  0
  148.9188  141.6384  157.4807 C   0  0  0  0  0  0  0  0  0  0  0  0
  149.0257  140.5802  158.1020 O   0  0  0  0  0  0  0  0  0  0  0  0
  147.6385  141.9649  156.7099 C   0  0  0  0  0  0  0  0  0  0  0  0
  147.9073  142.3001  155.2965 N   0  3  0  0  0  0  0  0  0  0  0  0
  149.0691  141.5961  154.7214 C   0  0  0  0  0  0  0  0  0  0  0  0
  148.7676  140.1030  154.5261 C   0  0  0  0  0  0  0  0  0  0  0  0
  149.9629  139.2910  154.6487 N   0  0  0  0  0  0  0  0  0  0  0  0
  150.1126  137.9411  154.4092 C   0  0  0  0  0  0  0  0  0  0  0  0
  151.4162  137.6257  154.6658 C   0  0  0  0  0  0  0  0  0  0  0  0
  151.9915  138.8639  155.0668 C   0  0  0  0  0  0  0  0  0  0  0  0
  151.1183  139.8584  155.0574 N   0  0  0  0  0  0  0  0  0  0  0  0
  153.6377  143.8552  158.0773 H   0  0  0  0  0  0  0  0  0  0  0  0
  153.0165  145.4077  158.6286 H   0  0  0  0  0  0  0  0  0  0  0  0
  152.4914  144.7548  157.0864 H   0  0  0  0  0  0  0  0  0  0  0  0
  150.7282  144.4473  158.8097 H   0  0  0  0  0  0  0  0  0  0  0  0
  152.7762  142.8230  160.3850 H   0  0  0  0  0  0  0  0  0  0  0  0
  151.0855  143.0609  160.8205 H   0  0  0  0  0  0  0  0  0  0  0  0
  152.1897  144.4291  160.8108 H   0  0  0  0  0  0  0  0  0  0  0  0
  151.9250  142.2013  157.3601 H   0  0  0  0  0  0  0  0  0  0  0  0
  151.1566  141.6359  158.8203 H   0  0  0  0  0  0  0  0  0  0  0  0
  149.7145  143.4123  156.9114 H   0  0  0  0  0  0  0  0  0  0  0  0
  146.9692  141.1050  156.7594 H   0  0  0  0  0  0  0  0  0  0  0  0
  147.1319  142.8035  157.1899 H   0  0  0  0  0  0  0  0  0  0  0  0
  147.0872  142.0690  154.7541 H   0  0  0  0  0  0  0  0  0  0  0  0
  149.3295  142.0526  153.7653 H   0  0  0  0  0  0  0  0  0  0  0  0
  149.9255  141.7242  155.3851 H   0  0  0  0  0  0  0  0  0  0  0  0
  148.0391  139.7588  155.2619 H   0  0  0  0  0  0  0  0  0  0  0  0
  148.3305  139.9296  153.5417 H   0  0  0  0  0  0  0  0  0  0  0  0
  149.2898  137.3239  154.0795 H   0  0  0  0  0  0  0  0  0  0  0  0
  151.8871  136.6574  154.5824 H   0  0  0  0  0  0  0  0  0  0  0  0
  153.0101  139.0677  155.3628 H   0  0  0  0  0  0  0  0  0  0  0  0
  148.0644  143.2959  155.2306 H   0  0  0  0  0  0  0  0  0  0  0  0
  1  2  1  0  0  0  0
  1 17  1  0  0  0  0
  1 18  1  0  0  0  0
  1 19  1  0  0  0  0
  2  3  1  0  0  0  0
  2  4  1  0  0  0  0
  2 20  1  0  0  0  0
  3 21  1  0  0  0  0
  3 22  1  0  0  0  0
  3 23  1  0  0  0  0
  4  5  1  0  0  0  0
  4 24  1  0  0  0  0
  4 25  1  0  0  0  0
  5  6  1  0  0  0  0
  5 26  1  0  0  0  0
  6  7  2  0  0  0  0
  6  8  1  0  0  0  0
  8  9  1  0  0  0  0
  8 27  1  0  0  0  0
  8 28  1  0  0  0  0
  9 10  1  0  0  0  0
  9 29  1  0  0  0  0
  9 37  1  0  0  0  0
 10 11  1  0  0  0  0
 10 30  1  0  0  0  0
 10 31  1  0  0  0  0
 11 12  1  0  0  0  0
 11 32  1  0  0  0  0
 11 33  1  0  0  0  0
 12 16  1  0  0  0  0
 12 13  1  0  0  0  0
 13 14  2  0  0  0  0
 13 34  1  0  0  0  0
 14 15  1  0  0  0  0
 14 35  1  0  0  0  0
 15 16  2  0  0  0  0
 15 36  1  0  0  0  0
M  CHG  1   9   1
M  END
> <s_m_source_file>
AV-unprocessed.smi

> <i_m_source_file_index>
3216

> <i_lp_mmshare_version>
43012

> <i_f3d_flags>
0

> <s_epik_input>
W0NIM11bQ0hdKFtDSDNdKVtDSDJdW05IXUMoPU8pW0NIMl1bTkhdW0NIMl1bQ0gyXW4xW2NIXVtjSF1bY0hdbjE=

> <s_epik_cmdline>
J2VwaWtfcHl0aG9uJywgJy1waCcsICc3LjAnLCAnLXRuJywgJzgnLCAnLW1hJywgJzIwMCcsICctbWV0YWxfYmluZGluZycsICctaW1hZScsICc8aW5maWxlLm1hZT4nLCAnLW9tYWUnLCAnPG91dGZpbGUubWFlPic=

> <r_lp_tautomer_probability>
1

> <r_epik_Ionization_Penalty>
0.20724

> <r_epik_Ionization_Penalty_Charging>
0.207237

> <r_epik_Ionization_Penalty_Neutral>
3.19342e-06

> <r_epik_State_Penalty>
0.197611

> <r_epik_Charging_Adjusted_Penalty>
0.404848

> <i_epik_Tot_Q>
1

> <i_epik_Tot_abs_Q>
1

> <r_epik_Metal_State_Penalty>
0.197786

> <b_epik_Metal_Only>
0

> <s_lp_Force_Field>
OPLS_2005

> <r_lp_Energy>
2.0828

> <b_lp_Chiralities_Consistent>
1

> <s_lp_Variant>
AV-unprocessed.smi:3216-1

> <Gold.Version>
5.8.1

> <Gold.Id.Protein>
6NUR|6NUR_protein|mol2

> <Gold.PLP.Fitness>
50.0957

> <Gold.PLP.PLP>
-37.5744

> <Gold.PLP.part.hbond>
-3.0000

> <Gold.PLP.part.metal>
0.0000

> <Gold.PLP.part.buried>
-3.9488

> <Gold.PLP.part.nonpolar>
-31.4630

> <Gold.PLP.part.repulsive>
0.1927

> <Gold.PLP.ligand.clash>
0.0000

> <Gold.PLP.ligand.torsion>
1.2829

> <Gold.PLP.Chemscore.Hbond>
4.0000

> <Gold.PLP.Chemscore.CHOScore>
1.0000

> <Gold.PLP.Chemscore.Metal>
0.0000

> <Gold.Chemscore.Hbonds>
donor molecule, donor type, donor heavy atom, donor atom, acceptor molecule, acceptor atom, score
      L1  H     5    26       P1  8028  1.00
      L1  H     9    37       P1  8028  2.00
      P1  H  7989  7998       L1    16  1.00
      L1  C    13    34       P1  7948  0.95

> <Gold.PLP.Chemscore.Internal.Correction>
0.0870

> <Gold.Rescore>
     Score         DG    S(hbond)    S(metal)    S(lipo)     H(rot)  DE(clash)    DE(int)     intcor
     18.61     -19.94       2.92        0.00      90.96       2.32       0.08       1.25       ----

> <Gold.Chemscore.Fitness>
18.6089

> <Gold.Chemscore.DG>
-19.9369

> <Gold.Chemscore.ZeroCoef>
-5.4800

> <Gold.Chemscore.Hbond>
2.9194

> <Gold.Chemscore.Metal>
0.0000

> <Gold.Chemscore.Lipo>
90.9603

> <Gold.Chemscore.Internal_Hbond>
0.0000

> <Gold.Chemscore.DEClash>
0.0779

> <Gold.Chemscore.DEInternal>
1.2501

> <Gold.Chemscore.Rot>
2.3189

> <Gold.Chemscore.Internal.Correction>
   9.000000E+99

> <Gold.Chemscore.Hbonds>
donor molecule, donor type, donor heavy atom, donor atom, acceptor molecule, acceptor atom, score
      L1  H     5    26       P1  8028  0.96
      L1  H     9    37       P1  8028  0.80
      P1  H  7989  7998       L1    16  0.14

> <Gold.Chemscore.Hbond.Weighted>
-9.7509

> <Gold.Chemscore.Metal.Weighted>
-0.0000

> <Gold.Chemscore.Lipo.Weighted>
-10.6424

> <Gold.Chemscore.Internal_Hbond.Weighted>
0.0000

> <Gold.Chemscore.DEClash.Weighted>
0.0779

> <Gold.Chemscore.DEInternal.Weighted>
1.2501

> <Gold.Chemscore.Rot.Weighted>
5.9363

> <Gold.Chemscore.Internal.Correction.Weighted>
   9.000000E+99

> <Gold.Protein.RotatedTorsions>
[ 6907 6896 6895 6894 ] final    3.49 input  -60.11 | X-H torsion
[ 7974 7965 7964 7962 ] final   51.27 input  175.53 | X-H torsion
[ 8008 7997 7996 7995 ] final   77.93 input   59.86 | X-H torsion
[ 10167 10162 10161 10158 ] final  -31.61 input  -65.29 | X-H torsion
[ 10718 10713 10712 10709 ] final    6.51 input   66.30 | X-H torsion
[ 10763 10752 10751 10750 ] final   58.05 input  -60.55 | X-H torsion
[ 11005 11000 10999 10996 ] final  -32.58 input  -57.11 | X-H torsion

> <Gold.Protein.ActiveResidues>
 VAL166  LYS551  ARG553  GLY616  TRP617  ASP618  TYR619  PRO620  LYS621  CYS622 
 ASP623  PHE694  ASN695  SER759  ASP760  ASP761  ALA762  ILE779  LEU786  VAL792 
 PHE793  MET794  SER795  GLU796  ALA797  LYS798  CYS799  TRP800  GLU811  SER814 

> <Gold.Protein.RotatedAtoms>
  151.6260  135.1027  160.0111 H   0  0  0  0  0  0  0  0  0  0  0  0  # atno 6907 bound_to 6896
  152.4132  133.6993  159.6425 H   0  0  0  0  0  0  0  0  0  0  0  0  # atno 6908 bound_to 6896
  150.8021  133.8503  159.3244 H   0  0  0  0  0  0  0  0  0  0  0  0  # atno 6909 bound_to 6896
  145.9930  139.4359  143.0062 H   0  0  0  0  0  0  0  0  0  0  0  0  # atno 7974 bound_to 7965
  155.8486  140.3459  155.5678 H   0  0  0  0  0  0  0  0  0  0  0  0  # atno 8008 bound_to 7997
  155.8063  140.0892  157.1949 H   0  0  0  0  0  0  0  0  0  0  0  0  # atno 8009 bound_to 7997
  154.4007  140.1456  156.3321 H   0  0  0  0  0  0  0  0  0  0  0  0  # atno 8010 bound_to 7997
  140.7234  143.3757  151.1693 H   0  0  0  0  0  0  0  0  0  0  0  0  # atno 10167 bound_to 10162
  156.9233  130.5799  149.5648 H   0  0  0  0  0  0  0  0  0  0  0  0  # atno 10718 bound_to 10713
  152.9862  135.5620  154.5490 H   0  0  0  0  0  0  0  0  0  0  0  0  # atno 10763 bound_to 10752
  154.4931  135.2793  155.1483 H   0  0  0  0  0  0  0  0  0  0  0  0  # atno 10764 bound_to 10752
  154.2944  135.6320  153.5452 H   0  0  0  0  0  0  0  0  0  0  0  0  # atno 10765 bound_to 10752
  140.9564  133.7190  156.1299 H   0  0  0  0  0  0  0  0  0  0  0  0  # atno 11005 bound_to 11000
  145.7601  140.9938  143.1204 LP  0  0  0  0  0  0  0  0  0  0  0  0  # atno 17320 bound_to 7965
  144.6895  139.9320  143.7472 LP  0  0  0  0  0  0  0  0  0  0  0  0  # atno 17321 bound_to 7965
  139.7337  143.9032  152.3028 LP  0  0  0  0  0  0  0  0  0  0  0  0  # atno 17342 bound_to 10162
  139.8830  144.7007  150.8856 LP  0  0  0  0  0  0  0  0  0  0  0  0  # atno 17343 bound_to 10162
  156.0481  130.5554  150.8926 LP  0  0  0  0  0  0  0  0  0  0  0  0  # atno 17370 bound_to 10713
  157.5894  131.0945  150.9144 LP  0  0  0  0  0  0  0  0  0  0  0  0  # atno 17371 bound_to 10713
  140.7530  134.4023  157.5538 LP  0  0  0  0  0  0  0  0  0  0  0  0  # atno 17394 bound_to 11000
  139.8863  134.8912  156.2590 LP  0  0  0  0  0  0  0  0  0  0  0  0  # atno 17395 bound_to 11000

$$$$
