AV-unprocessed.smi:447|AV-procd|sdf|2600|dock6
  -GOLD-   2262022593D 1   1.00000     0.00000
 Structure written by MMmdl.
 45 47  0  0  0  0  0  0  0  0  1 V2000
  155.8768  136.9564  157.0167 C   0  0  0  0  0  0  0  0  0  0  0  0
  154.4137  137.0031  157.4430 C   0  0  0  0  0  0  0  0  0  0  0  0
  153.6751  136.0451  157.2170 O   0  0  0  0  0  0  0  0  0  0  0  0
  154.0128  138.1259  158.0582 N   0  0  0  0  0  0  0  0  0  0  0  0
  152.6564  138.4034  158.5276 C   0  0  1  0  0  0  0  0  0  0  0  0
  152.4067  137.7398  159.8893 C   0  0  0  0  0  0  0  0  0  0  0  0
  152.4817  139.9004  158.5821 C   0  0  0  0  0  0  0  0  0  0  0  0
  153.2420  140.6746  159.3631 N   0  0  0  0  0  0  0  0  0  0  0  0
  152.7560  141.9416  159.1111 C   0  0  0  0  0  0  0  0  0  0  0  0
  153.1511  143.1969  159.6267 C   0  0  0  0  0  0  0  0  0  0  0  0
  152.4958  144.3760  159.2148 C   0  0  0  0  0  0  0  0  0  0  0  0
  151.4390  144.3168  158.2832 C   0  0  0  0  0  0  0  0  0  0  0  0
  151.0301  143.0760  157.7578 C   0  0  0  0  0  0  0  0  0  0  0  0
  151.6873  141.9021  158.1731 C   0  0  0  0  0  0  0  0  0  0  0  0
  151.5344  140.5555  157.8592 N   0  0  0  0  0  0  0  0  0  0  0  0
  150.5471  140.0131  156.9340 C   0  0  0  0  0  0  0  0  0  0  0  0
  150.6919  140.5843  155.5084 C   0  0  1  0  0  0  0  0  0  0  0  0
  151.8215  140.0285  154.8628 O   0  0  0  0  0  0  0  0  0  0  0  0
  149.4176  140.3847  154.7033 C   0  0  0  0  0  0  0  0  0  0  0  0
  148.6389  141.4995  154.3246 C   0  0  0  0  0  0  0  0  0  0  0  0
  147.4542  141.3196  153.5843 C   0  0  0  0  0  0  0  0  0  0  0  0
  147.0399  140.0236  153.2212 C   0  0  0  0  0  0  0  0  0  0  0  0
  147.8102  138.9073  153.5997 C   0  0  0  0  0  0  0  0  0  0  0  0
  148.9953  139.0866  154.3394 C   0  0  0  0  0  0  0  0  0  0  0  0
  156.0731  137.7081  156.2519 H   0  0  0  0  0  0  0  0  0  0  0  0
  156.1300  135.9780  156.6070 H   0  0  0  0  0  0  0  0  0  0  0  0
  156.5301  137.1488  157.8681 H   0  0  0  0  0  0  0  0  0  0  0  0
  154.6923  138.8605  158.1945 H   0  0  0  0  0  0  0  0  0  0  0  0
  151.9535  137.9827  157.8107 H   0  0  0  0  0  0  0  0  0  0  0  0
  151.3932  137.9391  160.2389 H   0  0  0  0  0  0  0  0  0  0  0  0
  153.0992  138.1094  160.6464 H   0  0  0  0  0  0  0  0  0  0  0  0
  152.5270  136.6578  159.8265 H   0  0  0  0  0  0  0  0  0  0  0  0
  153.9599  143.2524  160.3403 H   0  0  0  0  0  0  0  0  0  0  0  0
  152.8054  145.3304  159.6149 H   0  0  0  0  0  0  0  0  0  0  0  0
  150.9425  145.2244  157.9723 H   0  0  0  0  0  0  0  0  0  0  0  0
  150.2212  143.0271  157.0441 H   0  0  0  0  0  0  0  0  0  0  0  0
  150.6009  138.9250  156.9344 H   0  0  0  0  0  0  0  0  0  0  0  0
  149.5563  140.2524  157.3225 H   0  0  0  0  0  0  0  0  0  0  0  0
  150.8818  141.6558  155.5841 H   0  0  0  0  0  0  0  0  0  0  0  0
  151.5908  139.1704  154.5412 H   0  0  0  0  0  0  0  0  0  0  0  0
  148.9466  142.4975  154.6009 H   0  0  0  0  0  0  0  0  0  0  0  0
  146.8621  142.1757  153.2955 H   0  0  0  0  0  0  0  0  0  0  0  0
  146.1309  139.8855  152.6544 H   0  0  0  0  0  0  0  0  0  0  0  0
  147.4918  137.9128  153.3235 H   0  0  0  0  0  0  0  0  0  0  0  0
  149.5783  138.2241  154.6288 H   0  0  0  0  0  0  0  0  0  0  0  0
  1  2  1  0  0  0  0
  1 25  1  0  0  0  0
  1 26  1  0  0  0  0
  1 27  1  0  0  0  0
  2  3  2  0  0  0  0
  2  4  1  0  0  0  0
  4  5  1  0  0  0  0
  4 28  1  0  0  0  0
  5  6  1  0  0  0  0
  5  7  1  0  0  0  0
  5 29  1  0  0  0  0
  6 30  1  0  0  0  0
  6 31  1  0  0  0  0
  6 32  1  0  0  0  0
  7 15  1  0  0  0  0
  7  8  2  0  0  0  0
  8  9  1  0  0  0  0
  9 14  2  0  0  0  0
  9 10  1  0  0  0  0
 10 11  2  0  0  0  0
 10 33  1  0  0  0  0
 11 12  1  0  0  0  0
 11 34  1  0  0  0  0
 12 13  2  0  0  0  0
 12 35  1  0  0  0  0
 13 14  1  0  0  0  0
 13 36  1  0  0  0  0
 14 15  1  0  0  0  0
 15 16  1  0  0  0  0
 16 17  1  0  0  0  0
 16 37  1  0  0  0  0
 16 38  1  0  0  0  0
 17 18  1  0  0  0  0
 17 19  1  0  0  0  0
 17 39  1  0  0  0  0
 18 40  1  0  0  0  0
 19 24  1  0  0  0  0
 19 20  2  0  0  0  0
 20 21  1  0  0  0  0
 20 41  1  0  0  0  0
 21 22  2  0  0  0  0
 21 42  1  0  0  0  0
 22 23  1  0  0  0  0
 22 43  1  0  0  0  0
 23 24  2  0  0  0  0
 23 44  1  0  0  0  0
 24 45  1  0  0  0  0
M  END
> <s_m_source_file>
AV-unprocessed.smi

> <i_m_source_file_index>
447

> <i_lp_mmshare_version>
43012

> <i_f3d_flags>
0

> <s_epik_input>
W0NIM11DKD1PKVtOSF1bQ0BIXShbQ0gzXSljKG4xKW4oYyhjMTIpW2NIXVtjSF1bY0hdW2NIXTIpW0NIMl1bQ0BIXShbT0hdKWMzW2NIXVtjSF1bY0hdW2NIXVtjSF0z

> <s_epik_cmdline>
J2VwaWtfcHl0aG9uJywgJy1waCcsICc3LjAnLCAnLXRuJywgJzgnLCAnLW1hJywgJzIwMCcsICctbWV0YWxfYmluZGluZycsICctaW1hZScsICc8aW5maWxlLm1hZT4nLCAnLW9tYWUnLCAnPG91dGZpbGUubWFlPic=

> <r_epik_Ionization_Penalty>
0.13301

> <r_epik_Ionization_Penalty_Charging>
0

> <r_epik_Ionization_Penalty_Neutral>
0.13301

> <r_epik_State_Penalty>
0.122384

> <r_epik_Charging_Adjusted_Penalty>
0.122384

> <i_epik_Tot_Q>
0

> <i_epik_Tot_abs_Q>
0

> <r_epik_Metal_State_Penalty>
0.0997374

> <b_epik_Metal_Only>
0

> <s_lp_Force_Field>
OPLS_2005

> <r_lp_Energy>
8.36794

> <b_lp_Chiralities_Consistent>
1

> <s_lp_Variant>
AV-unprocessed.smi:447-4

> <Gold.Version>
5.8.1

> <Gold.Id.Protein>
6NUR|6NUR_protein|mol2

> <Gold.PLP.Fitness>
52.4556

> <Gold.PLP.PLP>
-47.5839

> <Gold.PLP.part.hbond>
-1.8409

> <Gold.PLP.part.metal>
0.0000

> <Gold.PLP.part.buried>
-5.2386

> <Gold.PLP.part.nonpolar>
-41.4868

> <Gold.PLP.part.repulsive>
0.1181

> <Gold.PLP.ligand.clash>
0.0000

> <Gold.PLP.ligand.torsion>
0.5241

> <Gold.PLP.Chemscore.Hbond>
1.9424

> <Gold.PLP.Chemscore.CHOScore>
0.0000

> <Gold.PLP.Chemscore.Metal>
0.0000

> <Gold.Chemscore.Hbonds>
donor molecule, donor type, donor heavy atom, donor atom, acceptor molecule, acceptor atom, score
      P1  H  7989  7998       L1    18  0.72
      P1  H 10752 10765       L1     3  1.00

> <Gold.PLP.Chemscore.Internal.Correction>
0.0928

> <Gold.Rescore>
     Score         DG    S(hbond)    S(metal)    S(lipo)     H(rot)  DE(clash)    DE(int)     intcor
     19.13     -19.84       1.63        0.00     127.68       2.35       0.09       0.62       ----

> <Gold.Chemscore.Fitness>
19.1323

> <Gold.Chemscore.DG>
-19.8376

> <Gold.Chemscore.ZeroCoef>
-5.4800

> <Gold.Chemscore.Hbond>
1.6293

> <Gold.Chemscore.Metal>
0.0000

> <Gold.Chemscore.Lipo>
127.6835

> <Gold.Chemscore.Internal_Hbond>
0.0000

> <Gold.Chemscore.DEClash>
0.0884

> <Gold.Chemscore.DEInternal>
0.6169

> <Gold.Chemscore.Rot>
2.3528

> <Gold.Chemscore.Internal.Correction>
   9.000000E+99

> <Gold.Chemscore.Hbonds>
donor molecule, donor type, donor heavy atom, donor atom, acceptor molecule, acceptor atom, score
      P1  H  7989  7998       L1    18  0.02
      P1  H 10752 10765       L1     3  0.91

> <Gold.Chemscore.Hbond.Weighted>
-5.4417

> <Gold.Chemscore.Metal.Weighted>
-0.0000

> <Gold.Chemscore.Lipo.Weighted>
-14.9390

> <Gold.Chemscore.Internal_Hbond.Weighted>
0.0000

> <Gold.Chemscore.DEClash.Weighted>
0.0884

> <Gold.Chemscore.DEInternal.Weighted>
0.6169

> <Gold.Chemscore.Rot.Weighted>
6.0231

> <Gold.Chemscore.Internal.Correction.Weighted>
   9.000000E+99

> <Gold.Protein.RotatedTorsions>
[ 6907 6896 6895 6894 ] final  118.16 input  -60.11 | X-H torsion
[ 7974 7965 7964 7962 ] final  -86.33 input  175.53 | X-H torsion
[ 8008 7997 7996 7995 ] final -108.95 input   59.86 | X-H torsion
[ 10167 10162 10161 10158 ] final -173.99 input  -65.29 | X-H torsion
[ 10718 10713 10712 10709 ] final -113.60 input   66.30 | X-H torsion
[ 10763 10752 10751 10750 ] final -120.40 input  -60.55 | X-H torsion
[ 11005 11000 10999 10996 ] final   49.86 input  -57.11 | X-H torsion

> <Gold.Protein.ActiveResidues>
 VAL166  LYS551  ARG553  GLY616  TRP617  ASP618  TYR619  PRO620  LYS621  CYS622 
 ASP623  PHE694  ASN695  SER759  ASP760  ASP761  ALA762  ILE779  LEU786  VAL792 
 PHE793  MET794  SER795  GLU796  ALA797  LYS798  CYS799  TRP800  GLU811  SER814 

> <Gold.Protein.RotatedAtoms>
  152.4562  133.7729  159.6808 H   0  0  0  0  0  0  0  0  0  0  0  0  # atno 6907 bound_to 6896
  150.8490  133.7807  159.3039 H   0  0  0  0  0  0  0  0  0  0  0  0  # atno 6908 bound_to 6896
  151.5408  135.1071  159.9978 H   0  0  0  0  0  0  0  0  0  0  0  0  # atno 6909 bound_to 6896
  145.4814  140.9557  143.1862 H   0  0  0  0  0  0  0  0  0  0  0  0  # atno 7974 bound_to 7965
  154.9519  140.0400  157.2148 H   0  0  0  0  0  0  0  0  0  0  0  0  # atno 8008 bound_to 7997
  154.7970  140.2845  155.5927 H   0  0  0  0  0  0  0  0  0  0  0  0  # atno 8009 bound_to 7997
  156.2957  140.2562  156.2830 H   0  0  0  0  0  0  0  0  0  0  0  0  # atno 8010 bound_to 7997
  139.5658  144.1759  152.1310 H   0  0  0  0  0  0  0  0  0  0  0  0  # atno 10167 bound_to 10162
  156.0777  130.5982  150.8664 H   0  0  0  0  0  0  0  0  0  0  0  0  # atno 10718 bound_to 10713
  154.8643  135.4204  154.2453 H   0  0  0  0  0  0  0  0  0  0  0  0  # atno 10763 bound_to 10752
  153.3410  135.6993  153.6873 H   0  0  0  0  0  0  0  0  0  0  0  0  # atno 10764 bound_to 10752
  153.5851  135.3565  155.2863 H   0  0  0  0  0  0  0  0  0  0  0  0  # atno 10765 bound_to 10752
  140.1067  134.5009  155.8714 H   0  0  0  0  0  0  0  0  0  0  0  0  # atno 11005 bound_to 11000
  144.7887  139.6373  143.7123 LP  0  0  0  0  0  0  0  0  0  0  0  0  # atno 17320 bound_to 7965
  146.2339  139.5867  142.9537 LP  0  0  0  0  0  0  0  0  0  0  0  0  # atno 17321 bound_to 7965
  140.1282  144.5312  150.6819 LP  0  0  0  0  0  0  0  0  0  0  0  0  # atno 17342 bound_to 10162
  140.6941  143.2393  151.5049 LP  0  0  0  0  0  0  0  0  0  0  0  0  # atno 17343 bound_to 10162
  157.5880  131.0945  150.9165 LP  0  0  0  0  0  0  0  0  0  0  0  0  # atno 17370 bound_to 10713
  156.9347  130.5362  149.5279 LP  0  0  0  0  0  0  0  0  0  0  0  0  # atno 17371 bound_to 10713
  141.2120  133.6713  156.6624 LP  0  0  0  0  0  0  0  0  0  0  0  0  # atno 17394 bound_to 11000
  140.3147  134.8057  157.4204 LP  0  0  0  0  0  0  0  0  0  0  0  0  # atno 17395 bound_to 11000

$$$$
