#       Name:                AV-unprocessed.smi:2059
#       Creating user name   scv26
#       Creation time:       Fri Mar 27 11:02:18 2020


#       File generated by GOLD software.
#

@<TRIPOS>MOLECULE
AV-unprocessed.smi:2059
    35    36     1
SMALL
NO_CHARGES


@<TRIPOS>ATOM
      1 ****         0.3968  -6.4065  -2.9232 C.3            1 S1                 0.0000
      2 ****         0.7742  -5.0578  -2.4143 C.2            1 S1                 0.0000
      3 ****         0.0484  -4.0255  -1.8904 C.2            1 S1                 0.0000
      4 ****         1.0356  -3.0423  -1.6105 C.2            1 S1                 0.0000
      5 ****         0.6548  -1.7952  -1.0364 N.am           1 S1                 0.0000
      6 ****         1.3814  -0.7150  -0.6771 C.2            1 S1                 0.0000
      7 ****         2.5968  -0.8148  -0.8743 O.2            1 S1                 0.0000
      8 ****         0.7291   0.3573  -0.1411 N.pl3          1 S1                -1.0000
      9 ****         1.3593   1.6152   0.2665 C.3            1 S1                 0.0000
     10 ****         0.3156   2.7469   0.3446 C.3            1 S1                 0.0000
     11 ****         0.9317   3.9341   1.0995 C.3            1 S1                 0.0000
     12 ****         2.0964   3.2029   2.3145 S.o2           1 S1                 0.0000
     13 ****         3.4388   3.7597   2.0833 O.2            1 S1                 0.0000
     14 ****         1.4916   3.2316   3.6554 O.2            1 S1                 0.0000
     15 ****         2.0121   1.4928   1.6522 C.3            1 S1                 0.0000
     16 ****         2.2558  -3.4448  -1.9377 N.2            1 S1                 0.0000
     17 ****         2.0948  -4.7361  -2.4525 O.3            1 S1                 0.0000
     18 ****        -0.6477  -6.4263  -3.2344 H              1 S1                 0.0000
     19 ****         0.5340  -7.1621  -2.1498 H              1 S1                 0.0000
     20 ****         1.0095  -6.6842  -3.7811 H              1 S1                 0.0000
     21 ****        -1.0190  -3.9824  -1.7325 H              1 S1                 0.0000
     22 ****        -0.3340  -1.7068  -0.8562 H              1 S1                 0.0000
     23 ****         2.1277   1.9321  -0.4406 H              1 S1                 0.0000
     24 ****        -0.0354   3.0430  -0.6445 H              1 S1                 0.0000
     25 ****        -0.5569   2.3979   0.8996 H              1 S1                 0.0000
     26 ****         1.4995   4.5799   0.4280 H              1 S1                 0.0000
     27 ****         0.1848   4.5396   1.6125 H              1 S1                 0.0000
     28 ****         1.3941   0.9033   2.3305 H              1 S1                 0.0000
     29 ****         3.0081   1.0519   1.6151 H              1 S1                 0.0000
     30 ****         2.9716  -1.6519  -1.2727 LP             1 S1                 0.0000
     31 ****         3.2058  -0.0585  -0.6356 LP             1 S1                 0.0000
     32 ****        -0.2599   0.2777  -0.0165 LP             1 S1                 0.0000
     33 ****         3.1097  -2.9341  -1.8378 LP             1 S1                 0.0000
     34 ****         2.4213  -4.7651  -3.3973 LP             1 S1                 0.0000
     35 ****         2.6160  -5.3864  -1.8998 LP             1 S1                 0.0000
@<TRIPOS>BOND
    1    1    2 1     
    2    1   18 1     
    3    1   19 1     
    4    1   20 1     
    5    2   17 1     
    6    2    3 2     
    7    3    4 1     
    8    3   21 1     
    9    4    5 1     
   10    4   16 2     
   11    5    6 am    
   12    5   22 1     
   13    6    7 2     
   14    6    8 1     
   15    8    9 1     
   16    9   15 1     
   17    9   10 1     
   18    9   23 1     
   19   10   11 1     
   20   10   24 1     
   21   10   25 1     
   22   11   12 1     
   23   11   26 1     
   24   11   27 1     
   25   12   13 2     
   26   12   14 2     
   27   12   15 1     
   28   15   28 1     
   29   15   29 1     
   30   16   17 1     
   31    7   30 1     
   32    7   31 1     
   33    8   32 1     
   34   16   33 1     
   35   17   34 1     
   36   17   35 1     
@<TRIPOS>SUBSTRUCTURE
      1 S1             1
@<TRIPOS>SET
LONE_PAIRS      STATIC     ATOMS    <user>   **** ""
8 30 31 32 13 14 33 34 35
DONOR_HYDROGENS      STATIC     ATOMS    <user>   **** ""
1 22
ATOM$BLUE        STATIC     ATOMS    COLORGROUP SYSTEM
8 30 31 32 13 14 33 34 35
ATOM$RED        STATIC     ATOMS    COLORGROUP SYSTEM
1 22
