AV-unprocessed.smi:115|AV-procd|sdf|1126|dock6
  -GOLD-   2262018253D 1   1.00000     0.00000
 Structure written by MMmdl.
 55 57  0  0  0  0  0  0  0  0  1 V2000
  149.1085  132.5314  157.8071 C   0  0  0  0  0  0  0  0  0  0  0  0
  148.8484  133.7214  158.5309 O   0  0  0  0  0  0  0  0  0  0  0  0
  147.6667  134.3769  158.0983 C   0  0  0  0  0  0  0  0  0  0  0  0
  147.9674  135.1465  156.7959 C   0  0  1  0  0  0  0  0  0  0  0  0
  146.7219  135.7600  156.1332 C   0  0  0  0  0  0  0  0  0  0  0  0
  149.0571  136.1279  156.9291 N   0  0  0  0  0  0  0  0  0  0  0  0
  148.9025  137.3843  157.5142 C   0  0  0  0  0  0  0  0  0  0  0  0
  147.6085  137.8821  158.0768 C   0  0  0  0  0  0  0  0  0  0  0  0
  150.1036  138.0238  157.4600 C   0  0  0  0  0  0  0  0  0  0  0  0
  151.0496  137.1605  156.8474 C   0  0  0  0  0  0  0  0  0  0  0  0
  152.4771  137.4434  156.5484 C   0  0  0  0  0  0  0  0  0  0  0  0
  153.4015  136.7129  156.9073 O   0  0  0  0  0  0  0  0  0  0  0  0
  152.7483  138.7211  155.7321 C   0  0  0  0  0  0  0  0  0  0  0  0
  151.8302  139.8071  156.0523 N   0  0  0  0  0  0  0  0  0  0  0  0
  150.8340  140.1391  155.1003 C   0  0  0  0  0  0  0  0  0  0  0  0
  150.7222  139.5366  154.0312 O   0  0  0  0  0  0  0  0  0  0  0  0
  149.9756  141.2538  155.4861 C   0  0  0  0  0  0  0  0  0  0  0  0
  148.9973  141.6566  154.6575 F   0  0  0  0  0  0  0  0  0  0  0  0
  150.1506  141.8954  156.6615 C   0  0  0  0  0  0  0  0  0  0  0  0
  151.1356  141.5503  157.5719 N   0  0  0  0  0  0  0  0  0  0  0  0
  151.3130  142.3083  158.8692 C   0  0  1  0  0  0  0  0  0  0  0  0
  152.6808  142.9995  158.8956 C   0  0  0  0  0  0  0  0  0  0  0  0
  152.3455  144.3704  158.3509 C   0  0  0  0  0  0  0  0  0  0  0  0
  150.9502  144.5948  158.9230 C   0  0  0  0  0  0  0  0  0  0  0  0
  150.3378  143.3076  158.9545 O   0  0  0  0  0  0  0  0  0  0  0  0
  152.0194  140.4897  157.2781 C   0  0  0  0  0  0  0  0  0  0  0  0
  152.9270  140.1890  158.0571 O   0  0  0  0  0  0  0  0  0  0  0  0
  150.4021  135.9806  156.5542 C   0  0  0  0  0  0  0  0  0  0  0  0
  150.9394  134.7160  155.9421 C   0  0  0  0  0  0  0  0  0  0  0  0
  150.0218  132.0686  158.1806 H   0  0  0  0  0  0  0  0  0  0  0  0
  149.2461  132.7376  156.7449 H   0  0  0  0  0  0  0  0  0  0  0  0
  148.2958  131.8133  157.9228 H   0  0  0  0  0  0  0  0  0  0  0  0
  146.8788  133.6380  157.9621 H   0  0  0  0  0  0  0  0  0  0  0  0
  147.3400  135.0716  158.8739 H   0  0  0  0  0  0  0  0  0  0  0  0
  148.3157  134.3766  156.1101 H   0  0  0  0  0  0  0  0  0  0  0  0
  145.9679  134.9960  155.9434 H   0  0  0  0  0  0  0  0  0  0  0  0
  146.9769  136.2102  155.1734 H   0  0  0  0  0  0  0  0  0  0  0  0
  146.2559  136.5318  156.7424 H   0  0  0  0  0  0  0  0  0  0  0  0
  147.7454  138.8453  158.5688 H   0  0  0  0  0  0  0  0  0  0  0  0
  147.2088  137.1885  158.8169 H   0  0  0  0  0  0  0  0  0  0  0  0
  146.8659  138.0155  157.2899 H   0  0  0  0  0  0  0  0  0  0  0  0
  150.2809  139.0252  157.8240 H   0  0  0  0  0  0  0  0  0  0  0  0
  153.7672  139.0765  155.8925 H   0  0  0  0  0  0  0  0  0  0  0  0
  152.6751  138.5266  154.6609 H   0  0  0  0  0  0  0  0  0  0  0  0
  149.4881  142.7183  156.8839 H   0  0  0  0  0  0  0  0  0  0  0  0
  151.1662  141.5801  159.6686 H   0  0  0  0  0  0  0  0  0  0  0  0
  153.0144  143.0708  159.9315 H   0  0  0  0  0  0  0  0  0  0  0  0
  153.4331  142.4617  158.3175 H   0  0  0  0  0  0  0  0  0  0  0  0
  153.0589  145.1379  158.6517 H   0  0  0  0  0  0  0  0  0  0  0  0
  152.3097  144.3457  157.2611 H   0  0  0  0  0  0  0  0  0  0  0  0
  151.0165  144.9737  159.9435 H   0  0  0  0  0  0  0  0  0  0  0  0
  150.3644  145.3017  158.3352 H   0  0  0  0  0  0  0  0  0  0  0  0
  151.9875  134.5631  156.1926 H   0  0  0  0  0  0  0  0  0  0  0  0
  150.8544  134.7453  154.8558 H   0  0  0  0  0  0  0  0  0  0  0  0
  150.4296  133.8276  156.3022 H   0  0  0  0  0  0  0  0  0  0  0  0
  1  2  1  0  0  0  0
  1 30  1  0  0  0  0
  1 31  1  0  0  0  0
  1 32  1  0  0  0  0
  2  3  1  0  0  0  0
  3  4  1  0  0  0  0
  3 33  1  0  0  0  0
  3 34  1  0  0  0  0
  4  5  1  0  0  0  0
  4  6  1  0  0  0  0
  4 35  1  0  0  0  0
  5 36  1  0  0  0  0
  5 37  1  0  0  0  0
  5 38  1  0  0  0  0
  6 28  1  0  0  0  0
  6  7  1  0  0  0  0
  7  8  1  0  0  0  0
  7  9  2  0  0  0  0
  8 39  1  0  0  0  0
  8 40  1  0  0  0  0
  8 41  1  0  0  0  0
  9 10  1  0  0  0  0
  9 42  1  0  0  0  0
 10 11  1  0  0  0  0
 10 28  2  0  0  0  0
 11 12  2  0  0  0  0
 11 13  1  0  0  0  0
 13 14  1  0  0  0  0
 13 43  1  0  0  0  0
 13 44  1  0  0  0  0
 14 26  1  0  0  0  0
 14 15  1  0  0  0  0
 15 16  2  0  0  0  0
 15 17  1  0  0  0  0
 17 18  1  0  0  0  0
 17 19  2  0  0  0  0
 19 20  1  0  0  0  0
 19 45  1  0  0  0  0
 20 21  1  0  0  0  0
 20 26  1  0  0  0  0
 21 25  1  0  0  0  0
 21 22  1  0  0  0  0
 21 46  1  0  0  0  0
 22 23  1  0  0  0  0
 22 47  1  0  0  0  0
 22 48  1  0  0  0  0
 23 24  1  0  0  0  0
 23 49  1  0  0  0  0
 23 50  1  0  0  0  0
 24 25  1  0  0  0  0
 24 51  1  0  0  0  0
 24 52  1  0  0  0  0
 26 27  2  0  0  0  0
 28 29  1  0  0  0  0
 29 53  1  0  0  0  0
 29 54  1  0  0  0  0
 29 55  1  0  0  0  0
M  END
> <s_m_source_file>
AV-unprocessed.smi

> <i_m_source_file_index>
115

> <i_lp_mmshare_version>
43012

> <i_f3d_flags>
0

> <s_epik_input>
W0NIM11PW0NIMl1bQ0BIXShbQ0gzXSluMWMoW0NIM10pW2NIXWMoYzFbQ0gzXSlDKD1PKVtDSDJdbjJjKD1PKWMoRilbY0hdbihjMj1PKVtDQEBIXTNbQ0gyXVtDSDJdW0NIMl1PMw==

> <s_epik_cmdline>
J2VwaWtfcHl0aG9uJywgJy1waCcsICc3LjAnLCAnLXRuJywgJzgnLCAnLW1hJywgJzIwMCcsICctbWV0YWxfYmluZGluZycsICctaW1hZScsICc8aW5maWxlLm1hZT4nLCAnLW9tYWUnLCAnPG91dGZpbGUubWFlPic=

> <r_lp_tautomer_probability>
1

> <r_epik_Ionization_Penalty>
5.02611e-09

> <r_epik_Ionization_Penalty_Charging>
5.01743e-09

> <r_epik_Ionization_Penalty_Neutral>
8.68114e-12

> <r_epik_State_Penalty>
-0

> <r_epik_Charging_Adjusted_Penalty>
5.01743e-09

> <i_epik_Tot_Q>
0

> <i_epik_Tot_abs_Q>
0

> <r_epik_Metal_State_Penalty>
-0

> <b_epik_Metal_Only>
0

> <s_epik_Chemistry_Notes>
This compound contains an acetal/aminal-like group ( X-CH(R)-Y where X, Y are N, S, or O) that may be acid/base labile, releasing an aldehyde.

> <s_lp_Force_Field>
OPLS_2005

> <r_lp_Energy>
46.6669

> <b_lp_Chiralities_Consistent>
1

> <s_lp_Variant>
AV-unprocessed.smi:115-4

> <Gold.Version>
5.8.1

> <Gold.Id.Protein>
6NUR|6NUR_protein|mol2

> <Gold.PLP.Fitness>
51.2590

> <Gold.PLP.PLP>
-42.0494

> <Gold.PLP.part.hbond>
-4.0000

> <Gold.PLP.part.metal>
0.0000

> <Gold.PLP.part.buried>
-0.9208

> <Gold.PLP.part.nonpolar>
-36.1659

> <Gold.PLP.part.repulsive>
0.2677

> <Gold.PLP.ligand.clash>
0.0000

> <Gold.PLP.ligand.torsion>
1.9416

> <Gold.PLP.Chemscore.Hbond>
3.2500

> <Gold.PLP.Chemscore.CHOScore>
0.9996

> <Gold.PLP.Chemscore.Metal>
0.0000

> <Gold.Chemscore.Hbonds>
donor molecule, donor type, donor heavy atom, donor atom, acceptor molecule, acceptor atom, score
      P1  H  6896  6909       L1     2  1.00
      P1  H  7989  7998       L1    16  0.10
      P1  H  7997  8010       L1    27  0.99
      P1  H 10752 10765       L1    12  0.93
      L1  C    19    45       P1  8028  1.00

> <Gold.PLP.Chemscore.Internal.Correction>
0.3439

> <Gold.Rescore>
     Score         DG    S(hbond)    S(metal)    S(lipo)     H(rot)  DE(clash)    DE(int)     intcor
     13.16     -18.63       2.73        0.00      82.46       2.19       0.20       5.26       ----

> <Gold.Chemscore.Fitness>
13.1648

> <Gold.Chemscore.DG>
-18.6273

> <Gold.Chemscore.ZeroCoef>
-5.4800

> <Gold.Chemscore.Hbond>
2.7293

> <Gold.Chemscore.Metal>
0.0000

> <Gold.Chemscore.Lipo>
82.4560

> <Gold.Chemscore.Internal_Hbond>
0.0000

> <Gold.Chemscore.DEClash>
0.1976

> <Gold.Chemscore.DEInternal>
5.2649

> <Gold.Chemscore.Rot>
2.1938

> <Gold.Chemscore.Internal.Correction>
   9.000000E+99

> <Gold.Chemscore.Hbonds>
donor molecule, donor type, donor heavy atom, donor atom, acceptor molecule, acceptor atom, score
      P1  H  6896  6909       L1     2  0.24
      P1  H  7997  8010       L1    27  0.46
      P1  H 10752 10765       L1    12  0.38

> <Gold.Chemscore.Hbond.Weighted>
-9.1160

> <Gold.Chemscore.Metal.Weighted>
-0.0000

> <Gold.Chemscore.Lipo.Weighted>
-9.6473

> <Gold.Chemscore.Internal_Hbond.Weighted>
0.0000

> <Gold.Chemscore.DEClash.Weighted>
0.1976

> <Gold.Chemscore.DEInternal.Weighted>
5.2649

> <Gold.Chemscore.Rot.Weighted>
5.6160

> <Gold.Chemscore.Internal.Correction.Weighted>
   9.000000E+99

> <Gold.Protein.RotatedTorsions>
[ 6907 6896 6895 6894 ] final   16.67 input  -60.11 | X-H torsion
[ 7974 7965 7964 7962 ] final   80.64 input  175.53 | X-H torsion
[ 8008 7997 7996 7995 ] final   40.12 input   59.86 | X-H torsion
[ 10167 10162 10161 10158 ] final -158.33 input  -65.29 | X-H torsion
[ 10718 10713 10712 10709 ] final  -24.56 input   66.30 | X-H torsion
[ 10763 10752 10751 10750 ] final -118.11 input  -60.55 | X-H torsion
[ 11005 11000 10999 10996 ] final -126.72 input  -57.11 | X-H torsion

> <Gold.Protein.ActiveResidues>
 VAL166  LYS551  ARG553  GLY616  TRP617  ASP618  TYR619  PRO620  LYS621  CYS622 
 ASP623  PHE694  ASN695  SER759  ASP760  ASP761  ALA762  ILE779  LEU786  VAL792 
 PHE793  MET794  SER795  GLU796  ALA797  LYS798  CYS799  TRP800  GLU811  SER814 

> <Gold.Protein.RotatedAtoms>
  151.8375  135.0601  160.0443 H   0  0  0  0  0  0  0  0  0  0  0  0  # atno 6907 bound_to 6896
  152.2834  133.5487  159.5520 H   0  0  0  0  0  0  0  0  0  0  0  0  # atno 6908 bound_to 6896
  150.7199  134.0448  159.3820 H   0  0  0  0  0  0  0  0  0  0  0  0  # atno 6909 bound_to 6896
  145.6486  139.2442  143.1990 H   0  0  0  0  0  0  0  0  0  0  0  0  # atno 7974 bound_to 7965
  155.2479  140.3350  155.4285 H   0  0  0  0  0  0  0  0  0  0  0  0  # atno 8008 bound_to 7997
  156.2228  140.1816  156.7479 H   0  0  0  0  0  0  0  0  0  0  0  0  # atno 8009 bound_to 7997
  154.5852  140.0647  156.9146 H   0  0  0  0  0  0  0  0  0  0  0  0  # atno 8010 bound_to 7997
  139.6700  143.9761  152.2278 H   0  0  0  0  0  0  0  0  0  0  0  0  # atno 10167 bound_to 10162
  156.4761  130.4535  149.6840 H   0  0  0  0  0  0  0  0  0  0  0  0  # atno 10718 bound_to 10713
  154.8577  135.4286  154.2086 H   0  0  0  0  0  0  0  0  0  0  0  0  # atno 10763 bound_to 10752
  153.3117  135.6976  153.7116 H   0  0  0  0  0  0  0  0  0  0  0  0  # atno 10764 bound_to 10752
  153.6206  135.3502  155.2983 H   0  0  0  0  0  0  0  0  0  0  0  0  # atno 10765 bound_to 10752
  140.9658  134.0874  157.3921 H   0  0  0  0  0  0  0  0  0  0  0  0  # atno 11005 bound_to 11000
  146.1222  140.7294  142.9452 LP  0  0  0  0  0  0  0  0  0  0  0  0  # atno 17320 bound_to 7965
  144.7131  140.4111  143.7065 LP  0  0  0  0  0  0  0  0  0  0  0  0  # atno 17321 bound_to 7965
  139.9523  144.6612  150.8160 LP  0  0  0  0  0  0  0  0  0  0  0  0  # atno 17342 bound_to 10162
  140.7614  143.3174  151.2700 LP  0  0  0  0  0  0  0  0  0  0  0  0  # atno 17343 bound_to 10162
  156.3569  130.7461  151.2428 LP  0  0  0  0  0  0  0  0  0  0  0  0  # atno 17370 bound_to 10713
  157.7487  131.0361  150.4394 LP  0  0  0  0  0  0  0  0  0  0  0  0  # atno 17371 bound_to 10713
  139.8894  135.0105  156.6676 LP  0  0  0  0  0  0  0  0  0  0  0  0  # atno 17394 bound_to 11000
  140.7401  133.8985  155.8272 LP  0  0  0  0  0  0  0  0  0  0  0  0  # atno 17395 bound_to 11000

$$$$
