AV-unprocessed.smi:2424|AV-procd|sdf|9572|dock6
  -GOLD-   2272013203D 1   1.00000     0.00000
 Structure written by MMmdl.
 49 50  0  0  0  0  0  0  0  0  2 V2000
  142.4879  134.8023  153.1806 C   0  0  0  0  0  0  0  0  0  0  0  0
  143.5232  135.7375  152.5320 C   0  0  0  0  0  0  0  0  0  0  0  0
  144.8038  135.0801  151.9618 C   0  0  0  0  0  0  0  0  0  0  0  0
  145.5165  136.1565  151.0929 C   0  0  0  0  0  0  0  0  0  0  0  0
  145.9013  137.4677  151.8046 C   0  0  0  0  0  0  0  0  0  0  0  0
  145.7171  134.3197  152.9718 C   0  0  2  0  0  0  0  0  0  0  0  0
  146.9221  135.0364  153.3764 N   0  0  0  0  0  0  0  0  0  0  0  0
  147.2964  135.2328  154.6474 C   0  0  0  0  0  0  0  0  0  0  0  0
  146.6546  134.8137  155.6101 O   0  0  0  0  0  0  0  0  0  0  0  0
  148.4389  135.9396  154.7045 N   0  0  0  0  0  0  0  0  0  0  0  0
  149.1549  136.3586  155.8331 C   0  0  0  0  0  0  0  0  0  0  0  0
  149.2336  135.5475  156.9470 C   0  0  0  0  0  0  0  0  0  0  0  0
  149.8678  135.7744  158.1176 N   0  5  0  0  0  0  0  0  0  0  0  0
  150.5364  136.9536  158.2681 C   0  0  0  0  0  0  0  0  0  0  0  0
  151.1357  137.2301  159.3065 O   0  0  0  0  0  0  0  0  0  0  0  0
  150.5373  137.9195  157.1508 C   0  0  0  0  0  0  0  0  0  0  0  0
  151.2851  139.2311  157.3209 C   0  0  0  0  0  0  0  0  0  0  0  0
  149.8768  137.6194  156.0043 C   0  0  0  0  0  0  0  0  0  0  0  0
  145.9970  133.2567  151.9046 C   0  0  1  0  0  0  0  0  0  0  0  0
  146.2325  131.8193  152.3511 C   0  0  0  0  0  0  0  0  0  0  0  0
  144.6344  133.6704  151.3254 C   0  0  2  0  0  0  0  0  0  0  0  0
  144.5782  133.6877  149.9076 O   0  0  0  0  0  0  0  0  0  0  0  0
  144.6111  132.3971  149.3246 C   0  0  0  0  0  0  0  0  0  0  0  0
  141.5959  135.3636  153.4589 H   0  0  0  0  0  0  0  0  0  0  0  0
  142.8703  134.3477  154.0944 H   0  0  0  0  0  0  0  0  0  0  0  0
  142.1703  134.0071  152.5075 H   0  0  0  0  0  0  0  0  0  0  0  0
  143.0092  136.2749  151.7348 H   0  0  0  0  0  0  0  0  0  0  0  0
  143.7900  136.4918  153.2737 H   0  0  0  0  0  0  0  0  0  0  0  0
  146.4268  135.7387  150.6619 H   0  0  0  0  0  0  0  0  0  0  0  0
  144.8971  136.4208  150.2361 H   0  0  0  0  0  0  0  0  0  0  0  0
  146.3178  138.1758  151.0880 H   0  0  0  0  0  0  0  0  0  0  0  0
  146.6620  137.3084  152.5683 H   0  0  0  0  0  0  0  0  0  0  0  0
  145.0488  137.9523  152.2770 H   0  0  0  0  0  0  0  0  0  0  0  0
  145.1840  133.8705  153.8109 H   0  0  0  0  0  0  0  0  0  0  0  0
  147.5031  135.4129  152.6418 H   0  0  0  0  0  0  0  0  0  0  0  0
  148.8438  136.2132  153.8211 H   0  0  0  0  0  0  0  0  0  0  0  0
  148.7071  134.5704  156.8893 H   0  0  0  0  0  0  0  0  0  0  0  0
  151.2125  139.8501  156.4261 H   0  0  0  0  0  0  0  0  0  0  0  0
  152.3416  139.0447  157.5165 H   0  0  0  0  0  0  0  0  0  0  0  0
  150.8744  139.7978  158.1571 H   0  0  0  0  0  0  0  0  0  0  0  0
  149.9003  138.3487  155.2111 H   0  0  0  0  0  0  0  0  0  0  0  0
  146.7970  133.5873  151.2395 H   0  0  0  0  0  0  0  0  0  0  0  0
  145.3953  131.4419  152.9387 H   0  0  0  0  0  0  0  0  0  0  0  0
  147.1276  131.7436  152.9685 H   0  0  0  0  0  0  0  0  0  0  0  0
  146.3661  131.1525  151.5000 H   0  0  0  0  0  0  0  0  0  0  0  0
  143.8081  133.1097  151.7659 H   0  0  0  0  0  0  0  0  0  0  0  0
  144.5051  132.4845  148.2433 H   0  0  0  0  0  0  0  0  0  0  0  0
  143.7944  131.7749  149.6926 H   0  0  0  0  0  0  0  0  0  0  0  0
  145.5559  131.8934  149.5255 H   0  0  0  0  0  0  0  0  0  0  0  0
  1  2  1  0  0  0  0
  1 24  1  0  0  0  0
  1 25  1  0  0  0  0
  1 26  1  0  0  0  0
  2  3  1  0  0  0  0
  2 27  1  0  0  0  0
  2 28  1  0  0  0  0
  3 21  1  0  0  0  0
  3  4  1  0  0  0  0
  3  6  1  0  0  0  0
  4  5  1  0  0  0  0
  4 29  1  0  0  0  0
  4 30  1  0  0  0  0
  5 31  1  0  0  0  0
  5 32  1  0  0  0  0
  5 33  1  0  0  0  0
  6  7  1  0  0  0  0
  6 19  1  0  0  0  0
  6 34  1  0  0  0  0
  7  8  1  0  0  0  0
  7 35  1  0  0  0  0
  8  9  2  0  0  0  0
  8 10  1  0  0  0  0
 10 11  1  0  0  0  0
 10 36  1  0  0  0  0
 11 18  1  0  0  0  0
 11 12  2  0  0  0  0
 12 13  1  0  0  0  0
 12 37  1  0  0  0  0
 13 14  1  0  0  0  0
 14 15  2  0  0  0  0
 14 16  1  0  0  0  0
 16 17  1  0  0  0  0
 16 18  2  0  0  0  0
 17 38  1  0  0  0  0
 17 39  1  0  0  0  0
 17 40  1  0  0  0  0
 18 41  1  0  0  0  0
 19 20  1  0  0  0  0
 19 21  1  0  0  0  0
 19 42  1  0  0  0  0
 20 43  1  0  0  0  0
 20 44  1  0  0  0  0
 20 45  1  0  0  0  0
 21 22  1  0  0  0  0
 21 46  1  0  0  0  0
 22 23  1  0  0  0  0
 23 47  1  0  0  0  0
 23 48  1  0  0  0  0
 23 49  1  0  0  0  0
M  CHG  1  13  -1
M  END
> <s_m_source_file>
AV-unprocessed.smi

> <i_m_source_file_index>
2424

> <i_lp_mmshare_version>
43012

> <i_f3d_flags>
0

> <s_epik_input>
W0NIM11PW0NAQEhdMVtDQEhdKFtDSDNdKVtDQEBIXShDMShbQ0gyXVtDSDNdKVtDSDJdW0NIM10pW05IXUMoPU8pW05IXWMyW2NIXVtuSF1jKD1PKWMoW0NIM10pW2NIXTI=

> <s_epik_cmdline>
J2VwaWtfcHl0aG9uJywgJy1waCcsICc3LjAnLCAnLXRuJywgJzgnLCAnLW1hJywgJzIwMCcsICctbWV0YWxfYmluZGluZycsICctaW1hZScsICc8aW5maWxlLm1hZT4nLCAnLW9tYWUnLCAnPG91dGZpbGUubWFlPic=

> <r_lp_tautomer_probability>
1

> <r_epik_Ionization_Penalty>
7.6122

> <r_epik_Ionization_Penalty_Charging>
1.53843

> <r_epik_Ionization_Penalty_Neutral>
6.07377

> <r_epik_State_Penalty>
6.07371

> <r_epik_Charging_Adjusted_Penalty>
7.61214

> <i_epik_Tot_Q>
-1

> <i_epik_Tot_abs_Q>
1

> <r_epik_Metal_State_Penalty>
2.02136

> <b_epik_Metal_Only>
1

> <s_lp_Force_Field>
OPLS_2005

> <r_lp_Energy>
40.6297

> <b_lp_Chiralities_Consistent>
1

> <s_lp_Variant>
AV-unprocessed.smi:2424-14

> <Gold.Version>
5.8.1

> <Gold.Id.Protein>
6NUR|6NUR_protein|mol2

> <Gold.PLP.Fitness>
40.3283

> <Gold.PLP.PLP>
-29.0740

> <Gold.PLP.part.hbond>
-3.6645

> <Gold.PLP.part.metal>
0.0000

> <Gold.PLP.part.buried>
-4.0305

> <Gold.PLP.part.nonpolar>
-22.2756

> <Gold.PLP.part.repulsive>
1.3063

> <Gold.PLP.ligand.clash>
0.0000

> <Gold.PLP.ligand.torsion>
0.6527

> <Gold.PLP.Chemscore.Hbond>
4.0000

> <Gold.PLP.Chemscore.CHOScore>
0.0000

> <Gold.PLP.Chemscore.Metal>
0.0000

> <Gold.Chemscore.Hbonds>
donor molecule, donor type, donor heavy atom, donor atom, acceptor molecule, acceptor atom, score
      L1  H     7    35       P1  7948  1.00
      L1  H    10    36       P1  7948  1.00
      P1  H  6896  6907       L1    13  1.98

> <Gold.PLP.Chemscore.Internal.Correction>
0.5597

> <Gold.Rescore>
     Score         DG    S(hbond)    S(metal)    S(lipo)     H(rot)  DE(clash)    DE(int)     intcor
     16.95     -18.43       2.61        0.00      69.53       1.52       0.05       1.43       ----

> <Gold.Chemscore.Fitness>
16.9502

> <Gold.Chemscore.DG>
-18.4320

> <Gold.Chemscore.ZeroCoef>
-5.4800

> <Gold.Chemscore.Hbond>
2.6075

> <Gold.Chemscore.Metal>
0.0000

> <Gold.Chemscore.Lipo>
69.5323

> <Gold.Chemscore.Internal_Hbond>
0.0000

> <Gold.Chemscore.DEClash>
0.0509

> <Gold.Chemscore.DEInternal>
1.4309

> <Gold.Chemscore.Rot>
1.5204

> <Gold.Chemscore.Internal.Correction>
   9.000000E+99

> <Gold.Chemscore.Hbonds>
donor molecule, donor type, donor heavy atom, donor atom, acceptor molecule, acceptor atom, score
      L1  H     7    35       P1  7948  0.99
      L1  H    10    36       P1  7948  0.97
      P1  H  6896  6907       L1    13  0.35

> <Gold.Chemscore.Hbond.Weighted>
-8.7090

> <Gold.Chemscore.Metal.Weighted>
-0.0000

> <Gold.Chemscore.Lipo.Weighted>
-8.1353

> <Gold.Chemscore.Internal_Hbond.Weighted>
0.0000

> <Gold.Chemscore.DEClash.Weighted>
0.0509

> <Gold.Chemscore.DEInternal.Weighted>
1.4309

> <Gold.Chemscore.Rot.Weighted>
3.8922

> <Gold.Chemscore.Internal.Correction.Weighted>
   9.000000E+99

> <Gold.Protein.RotatedTorsions>
[ 6907 6896 6895 6894 ] final  -69.50 input  -60.11 | X-H torsion
[ 7974 7965 7964 7962 ] final  168.86 input  175.53 | X-H torsion
[ 8008 7997 7996 7995 ] final  -63.25 input   59.86 | X-H torsion
[ 10167 10162 10161 10158 ] final   74.07 input  -65.29 | X-H torsion
[ 10718 10713 10712 10709 ] final   81.05 input   66.30 | X-H torsion
[ 10763 10752 10751 10750 ] final   74.48 input  -60.55 | X-H torsion
[ 11005 11000 10999 10996 ] final   36.59 input  -57.11 | X-H torsion

> <Gold.Protein.ActiveResidues>
 VAL166  LYS551  ARG553  GLY616  TRP617  ASP618  TYR619  PRO620  LYS621  CYS622 
 ASP623  PHE694  ASN695  SER759  ASP760  ASP761  ALA762  ILE779  LEU786  VAL792 
 PHE793  MET794  SER795  GLU796  ALA797  LYS798  CYS799  TRP800  GLU811  SER814 

> <Gold.Protein.RotatedAtoms>
  150.7303  134.5588  159.5831 H   0  0  0  0  0  0  0  0  0  0  0  0  # atno 6907 bound_to 6896
  152.3057  134.7555  160.0357 H   0  0  0  0  0  0  0  0  0  0  0  0  # atno 6908 bound_to 6896
  151.8120  133.3347  159.3595 H   0  0  0  0  0  0  0  0  0  0  0  0  # atno 6909 bound_to 6896
  144.7374  139.8970  143.6407 H   0  0  0  0  0  0  0  0  0  0  0  0  # atno 7974 bound_to 7965
  154.4544  140.0979  156.6713 H   0  0  0  0  0  0  0  0  0  0  0  0  # atno 8008 bound_to 7997
  155.5184  140.3478  155.4383 H   0  0  0  0  0  0  0  0  0  0  0  0  # atno 8009 bound_to 7997
  156.0747  140.1358  156.9774 H   0  0  0  0  0  0  0  0  0  0  0  0  # atno 8010 bound_to 7997
  140.0177  144.5565  150.7607 H   0  0  0  0  0  0  0  0  0  0  0  0  # atno 10167 bound_to 10162
  157.6823  130.9987  150.2170 H   0  0  0  0  0  0  0  0  0  0  0  0  # atno 10718 bound_to 10713
  153.0589  135.5024  154.8048 H   0  0  0  0  0  0  0  0  0  0  0  0  # atno 10763 bound_to 10752
  154.6852  135.2975  154.9560 H   0  0  0  0  0  0  0  0  0  0  0  0  # atno 10764 bound_to 10752
  154.0333  135.6726  153.4835 H   0  0  0  0  0  0  0  0  0  0  0  0  # atno 10765 bound_to 10752
  140.2310  134.3527  155.7964 H   0  0  0  0  0  0  0  0  0  0  0  0  # atno 11005 bound_to 11000
  146.1100  139.4104  143.0293 LP  0  0  0  0  0  0  0  0  0  0  0  0  # atno 17320 bound_to 7965
  145.7457  140.9992  143.1277 LP  0  0  0  0  0  0  0  0  0  0  0  0  # atno 17321 bound_to 7965
  140.7355  143.2742  151.3793 LP  0  0  0  0  0  0  0  0  0  0  0  0  # atno 17342 bound_to 10162
  139.6161  144.1000  152.2347 LP  0  0  0  0  0  0  0  0  0  0  0  0  # atno 17343 bound_to 10162
  156.2829  130.3735  149.7917 LP  0  0  0  0  0  0  0  0  0  0  0  0  # atno 17370 bound_to 10713
  156.5600  130.8379  151.3326 LP  0  0  0  0  0  0  0  0  0  0  0  0  # atno 17371 bound_to 10713
  141.2217  133.7245  156.8732 LP  0  0  0  0  0  0  0  0  0  0  0  0  # atno 17394 bound_to 11000
  140.1750  134.9073  157.2880 LP  0  0  0  0  0  0  0  0  0  0  0  0  # atno 17395 bound_to 11000

$$$$
