AV-unprocessed.smi:1062|AV-procd|sdf|4661|dock1
  -GOLD-   22720 3173D 1   1.00000     0.00000
 Structure written by MMmdl.
 38 40  0  0  0  0  0  0  0  0  1 V2000
  145.2622  141.9852  155.7470 C   0  0  0  0  0  0  0  0  0  0  0  0
  146.2070  141.0151  156.4753 C   0  0  0  0  0  0  0  0  0  0  0  0
  147.6223  141.3024  156.1932 N   0  0  0  0  0  0  0  0  0  0  0  0
  148.4755  141.6139  157.2017 C   0  0  0  0  0  0  0  0  0  0  0  0
  148.0718  141.8803  158.3363 O   0  0  0  0  0  0  0  0  0  0  0  0
  149.9937  141.6192  156.9297 C   0  0  0  0  0  0  0  0  0  0  0  0
  150.7419  142.4200  157.9585 C   0  0  0  0  0  0  0  0  0  0  0  0
  150.6841  143.7793  158.1478 C   0  0  0  0  0  0  0  0  0  0  0  0
  151.7089  144.3007  159.4568 S   0  0  0  0  0  0  0  0  0  0  0  0
  152.1955  142.6205  159.7001 C   0  0  0  0  0  0  0  0  0  0  0  0
  153.1082  142.1368  160.6840 N   0  0  0  0  0  0  0  0  0  0  0  0
  153.8188  140.8732  160.5145 C   0  0  0  0  0  0  0  0  0  0  0  0
  154.6626  140.7551  161.7799 C   0  0  0  0  0  0  0  0  0  0  0  0
  154.3172  141.9646  162.4888 N   0  0  0  0  0  0  0  0  0  0  0  0
  153.4318  142.7319  161.8491 C   0  0  0  0  0  0  0  0  0  0  0  0
  153.0066  143.8000  162.2851 O   0  0  0  0  0  0  0  0  0  0  0  0
  151.6117  141.7751  158.8443 N   0  0  0  0  0  0  0  0  0  0  0  0
  148.0326  140.9996  154.8475 C   0  0  0  0  0  0  0  0  0  0  0  0
  147.4245  141.7497  153.6762 C   0  0  0  0  0  0  0  0  0  0  0  0
  147.0655  140.3065  153.9071 C   0  0  0  0  0  0  0  0  0  0  0  0
  144.2238  141.7796  156.0070 H   0  0  0  0  0  0  0  0  0  0  0  0
  145.3512  141.9011  154.6637 H   0  0  0  0  0  0  0  0  0  0  0  0
  145.4731  143.0193  156.0213 H   0  0  0  0  0  0  0  0  0  0  0  0
  146.0058  141.0738  157.5451 H   0  0  0  0  0  0  0  0  0  0  0  0
  145.9722  139.9867  156.1957 H   0  0  0  0  0  0  0  0  0  0  0  0
  150.3835  140.6012  156.9190 H   0  0  0  0  0  0  0  0  0  0  0  0
  150.1665  142.0317  155.9355 H   0  0  0  0  0  0  0  0  0  0  0  0
  150.0969  144.5025  157.6018 H   0  0  0  0  0  0  0  0  0  0  0  0
  153.1153  140.0443  160.4253 H   0  0  0  0  0  0  0  0  0  0  0  0
  154.4431  140.8985  159.6202 H   0  0  0  0  0  0  0  0  0  0  0  0
  154.3983  139.8762  162.3689 H   0  0  0  0  0  0  0  0  0  0  0  0
  155.7306  140.7291  161.5604 H   0  0  0  0  0  0  0  0  0  0  0  0
  154.7142  142.1964  163.3879 H   0  0  0  0  0  0  0  0  0  0  0  0
  149.0783  140.7181  154.7371 H   0  0  0  0  0  0  0  0  0  0  0  0
  146.6469  142.4846  153.8748 H   0  0  0  0  0  0  0  0  0  0  0  0
  148.0762  141.9782  152.8355 H   0  0  0  0  0  0  0  0  0  0  0  0
  147.4759  139.5702  153.2191 H   0  0  0  0  0  0  0  0  0  0  0  0
  146.0569  140.1005  154.2609 H   0  0  0  0  0  0  0  0  0  0  0  0
  1  2  1  0  0  0  0
  1 21  1  0  0  0  0
  1 22  1  0  0  0  0
  1 23  1  0  0  0  0
  2  3  1  0  0  0  0
  2 24  1  0  0  0  0
  2 25  1  0  0  0  0
  3  4  1  0  0  0  0
  3 18  1  0  0  0  0
  4  5  2  0  0  0  0
  4  6  1  0  0  0  0
  6  7  1  0  0  0  0
  6 26  1  0  0  0  0
  6 27  1  0  0  0  0
  7 17  1  0  0  0  0
  7  8  2  0  0  0  0
  8  9  1  0  0  0  0
  8 28  1  0  0  0  0
  9 10  1  0  0  0  0
 10 11  1  0  0  0  0
 10 17  2  0  0  0  0
 11 15  1  0  0  0  0
 11 12  1  0  0  0  0
 12 13  1  0  0  0  0
 12 29  1  0  0  0  0
 12 30  1  0  0  0  0
 13 14  1  0  0  0  0
 13 31  1  0  0  0  0
 13 32  1  0  0  0  0
 14 15  1  0  0  0  0
 14 33  1  0  0  0  0
 15 16  2  0  0  0  0
 18 20  1  0  0  0  0
 18 19  1  0  0  0  0
 18 34  1  0  0  0  0
 19 20  1  0  0  0  0
 19 35  1  0  0  0  0
 19 36  1  0  0  0  0
 20 37  1  0  0  0  0
 20 38  1  0  0  0  0
M  END
> <s_m_source_file>
AV-unprocessed.smi

> <i_m_source_file_index>
1062

> <i_lp_mmshare_version>
43012

> <i_f3d_flags>
0

> <s_epik_input>
W0NIMl0xW0NIMl1bQ0hdMU4oW0NIMl1bQ0gzXSlDKD1PKVtDSDJdYzJbY0hdc2MobjIpTjNbQ0gyXVtDSDJdW05IXUMzPU8=

> <s_epik_cmdline>
J2VwaWtfcHl0aG9uJywgJy1waCcsICc3LjAnLCAnLXRuJywgJzgnLCAnLW1hJywgJzIwMCcsICctbWV0YWxfYmluZGluZycsICctaW1hZScsICc8aW5maWxlLm1hZT4nLCAnLW9tYWUnLCAnPG91dGZpbGUubWFlPic=

> <r_lp_tautomer_probability>
1

> <r_epik_Ionization_Penalty>
0.000125669

> <r_epik_Ionization_Penalty_Charging>
0

> <r_epik_Ionization_Penalty_Neutral>
0.000125669

> <r_epik_State_Penalty>
-0

> <r_epik_Charging_Adjusted_Penalty>
0

> <i_epik_Tot_Q>
0

> <i_epik_Tot_abs_Q>
0

> <r_epik_Metal_State_Penalty>
-0

> <b_epik_Metal_Only>
0

> <s_lp_Force_Field>
OPLS_2005

> <r_lp_Energy>
60.5217

> <b_lp_Chiralities_Consistent>
1

> <s_lp_Variant>
AV-unprocessed.smi:1062-1

> <Gold.Version>
5.8.1

> <Gold.Id.Protein>
6NUR|6NUR_protein|mol2

> <Gold.PLP.Fitness>
41.3459

> <Gold.PLP.PLP>
-39.3454

> <Gold.PLP.part.hbond>
-1.5783

> <Gold.PLP.part.metal>
0.0000

> <Gold.PLP.part.buried>
-4.9991

> <Gold.PLP.part.nonpolar>
-32.1836

> <Gold.PLP.part.repulsive>
0.2164

> <Gold.PLP.ligand.clash>
0.0000

> <Gold.PLP.ligand.torsion>
0.8055

> <Gold.PLP.Chemscore.Hbond>
0.0000

> <Gold.PLP.Chemscore.CHOScore>
1.0780

> <Gold.PLP.Chemscore.Metal>
0.0000

> <Gold.Chemscore.Hbonds>
donor molecule, donor type, donor heavy atom, donor atom, acceptor molecule, acceptor atom, score
      L1  C     8    28       P1  8028  0.97
      L1  C     8    28       P1  8029  0.09

> <Gold.PLP.Chemscore.Internal.Correction>
0.3776

> <Gold.Rescore>
     Score         DG    S(hbond)    S(metal)    S(lipo)     H(rot)  DE(clash)    DE(int)     intcor
      8.80      -9.35       0.00        0.00      69.12       1.65       0.06       0.49       ----

> <Gold.Chemscore.Fitness>
8.8017

> <Gold.Chemscore.DG>
-9.3489

> <Gold.Chemscore.ZeroCoef>
-5.4800

> <Gold.Chemscore.Hbond>
0.0000

> <Gold.Chemscore.Metal>
0.0000

> <Gold.Chemscore.Lipo>
69.1197

> <Gold.Chemscore.Internal_Hbond>
0.0000

> <Gold.Chemscore.DEClash>
0.0588

> <Gold.Chemscore.DEInternal>
0.4884

> <Gold.Chemscore.Rot>
1.6477

> <Gold.Chemscore.Internal.Correction>
   9.000000E+99

> <Gold.Chemscore.Hbond.Weighted>
-0.0000

> <Gold.Chemscore.Metal.Weighted>
-0.0000

> <Gold.Chemscore.Lipo.Weighted>
-8.0870

> <Gold.Chemscore.Internal_Hbond.Weighted>
0.0000

> <Gold.Chemscore.DEClash.Weighted>
0.0588

> <Gold.Chemscore.DEInternal.Weighted>
0.4884

> <Gold.Chemscore.Rot.Weighted>
4.2181

> <Gold.Chemscore.Internal.Correction.Weighted>
   9.000000E+99

> <Gold.Protein.RotatedTorsions>
[ 6907 6896 6895 6894 ] final  -35.93 input  -60.11 | X-H torsion
[ 7974 7965 7964 7962 ] final   97.64 input  175.53 | X-H torsion
[ 8008 7997 7996 7995 ] final   -5.20 input   59.86 | X-H torsion
[ 10167 10162 10161 10158 ] final   92.32 input  -65.29 | X-H torsion
[ 10718 10713 10712 10709 ] final   27.44 input   66.30 | X-H torsion
[ 10763 10752 10751 10750 ] final   15.88 input  -60.55 | X-H torsion
[ 11005 11000 10999 10996 ] final  -10.05 input  -57.11 | X-H torsion

> <Gold.Protein.ActiveResidues>
 VAL166  LYS551  ARG553  GLY616  TRP617  ASP618  TYR619  PRO620  LYS621  CYS622 
 ASP623  PHE694  ASN695  SER759  ASP760  ASP761  ALA762  ILE779  LEU786  VAL792 
 PHE793  MET794  SER795  GLU796  ALA797  LYS798  CYS799  TRP800  GLU811  SER814 

> <Gold.Protein.RotatedAtoms>
  151.0336  134.9557  159.8123 H   0  0  0  0  0  0  0  0  0  0  0  0  # atno 6907 bound_to 6896
  152.5350  134.2748  159.8995 H   0  0  0  0  0  0  0  0  0  0  0  0  # atno 6908 bound_to 6896
  151.2758  133.4191  159.2658 H   0  0  0  0  0  0  0  0  0  0  0  0  # atno 6909 bound_to 6896
  145.4227  139.2319  143.3187 H   0  0  0  0  0  0  0  0  0  0  0  0  # atno 7974 bound_to 7965
  154.6064  140.2464  155.7726 H   0  0  0  0  0  0  0  0  0  0  0  0  # atno 8008 bound_to 7997
  156.2343  140.2955  156.0222 H   0  0  0  0  0  0  0  0  0  0  0  0  # atno 8009 bound_to 7997
  155.2125  140.0397  157.2926 H   0  0  0  0  0  0  0  0  0  0  0  0  # atno 8010 bound_to 7997
  139.8288  144.6697  150.9426 H   0  0  0  0  0  0  0  0  0  0  0  0  # atno 10167 bound_to 10162
  157.2202  130.6975  149.6266 H   0  0  0  0  0  0  0  0  0  0  0  0  # atno 10718 bound_to 10713
  153.1483  135.6773  153.8921 H   0  0  0  0  0  0  0  0  0  0  0  0  # atno 10763 bound_to 10752
  153.8355  135.3112  155.3423 H   0  0  0  0  0  0  0  0  0  0  0  0  # atno 10764 bound_to 10752
  154.7842  135.4871  153.9996 H   0  0  0  0  0  0  0  0  0  0  0  0  # atno 10765 bound_to 10752
  140.7407  133.8673  155.8965 H   0  0  0  0  0  0  0  0  0  0  0  0  # atno 11005 bound_to 11000
  146.2648  140.4954  142.8838 LP  0  0  0  0  0  0  0  0  0  0  0  0  # atno 17320 bound_to 7965
  144.8234  140.6588  143.6338 LP  0  0  0  0  0  0  0  0  0  0  0  0  # atno 17321 bound_to 7965
  140.7808  143.4021  151.1132 LP  0  0  0  0  0  0  0  0  0  0  0  0  # atno 17342 bound_to 10162
  139.7676  143.8542  152.3114 LP  0  0  0  0  0  0  0  0  0  0  0  0  # atno 17343 bound_to 10162
  155.9683  130.4522  150.5766 LP  0  0  0  0  0  0  0  0  0  0  0  0  # atno 17370 bound_to 10713
  157.3584  131.0745  151.1657 LP  0  0  0  0  0  0  0  0  0  0  0  0  # atno 17371 bound_to 10713
  140.9839  134.1368  157.4469 LP  0  0  0  0  0  0  0  0  0  0  0  0  # atno 17394 bound_to 11000
  139.8807  135.0019  156.6097 LP  0  0  0  0  0  0  0  0  0  0  0  0  # atno 17395 bound_to 11000

$$$$
