AV-unprocessed.smi:1396|AV-procd|sdf|5677|dock1
  -GOLD-   22720 5303D 1   1.00000     0.00000
 Structure written by MMmdl.
 46 47  0  0  0  0  0  0  0  0  3 V2000
  149.0581  126.3090  150.5631 C   0  0  0  0  0  0  0  0  0  0  0  0
  148.0236  127.2536  150.9667 N   0  5  0  0  0  0  0  0  0  0  0  0
  148.0408  127.9263  152.1487 C   0  0  0  0  0  0  0  0  0  0  0  0
  148.7757  127.8055  153.1345 O   0  0  0  0  0  0  0  0  0  0  0  0
  146.9192  128.9699  152.2068 C   0  0  0  0  0  0  0  0  0  0  0  0
  147.4916  130.3214  152.4269 N   0  3  2  0  0  0  0  0  0  0  0  0
  148.1415  130.4738  153.7568 C   0  0  0  0  0  0  0  0  0  0  0  0
  148.8344  131.8402  153.8809 C   0  0  0  0  0  0  0  0  0  0  0  0
  147.8432  132.9878  153.6346 C   0  0  1  0  0  0  0  0  0  0  0  0
  148.5457  134.2666  153.6804 N   0  0  0  0  0  0  0  0  0  0  0  0
  149.2595  134.7184  154.7212 C   0  0  0  0  0  0  0  0  0  0  0  0
  149.3934  134.0942  155.7735 O   0  0  0  0  0  0  0  0  0  0  0  0
  149.8082  135.9147  154.4493 N   0  0  0  0  0  0  0  0  0  0  0  0
  150.6478  136.7119  155.2736 C   0  0  0  0  0  0  0  0  0  0  0  0
  151.2271  137.8640  154.7053 C   0  0  0  0  0  0  0  0  0  0  0  0
  152.0535  138.6813  155.4991 C   0  0  0  0  0  0  0  0  0  0  0  0
  152.2687  138.3251  156.8450 C   0  0  0  0  0  0  0  0  0  0  0  0
  153.0822  139.1284  157.6178 O   0  0  0  0  0  0  0  0  0  0  0  0
  153.3102  138.7559  158.9725 C   0  0  0  0  0  0  0  0  0  0  0  0
  151.7036  137.2281  157.4068 N   0  0  0  0  0  0  0  0  0  0  0  0
  150.9130  136.4473  156.6398 C   0  0  0  0  0  0  0  0  0  0  0  0
  147.1533  132.7895  152.2729 C   0  0  0  0  0  0  0  0  0  0  0  0
  146.5019  131.3998  152.1757 C   0  0  0  0  0  0  0  0  0  0  0  0
  148.8707  125.9031  149.5693 H   0  0  0  0  0  0  0  0  0  0  0  0
  149.1249  125.4547  151.2377 H   0  0  0  0  0  0  0  0  0  0  0  0
  150.0487  126.7637  150.5298 H   0  0  0  0  0  0  0  0  0  0  0  0
  146.4044  128.9349  151.2456 H   0  0  0  0  0  0  0  0  0  0  0  0
  146.1670  128.7440  152.9664 H   0  0  0  0  0  0  0  0  0  0  0  0
  147.3944  130.3577  154.5434 H   0  0  0  0  0  0  0  0  0  0  0  0
  148.8826  129.6893  153.9106 H   0  0  0  0  0  0  0  0  0  0  0  0
  149.2812  131.9371  154.8712 H   0  0  0  0  0  0  0  0  0  0  0  0
  149.6551  131.8947  153.1637 H   0  0  0  0  0  0  0  0  0  0  0  0
  147.0895  132.9623  154.4242 H   0  0  0  0  0  0  0  0  0  0  0  0
  148.4926  134.8449  152.8546 H   0  0  0  0  0  0  0  0  0  0  0  0
  149.6621  136.2676  153.5147 H   0  0  0  0  0  0  0  0  0  0  0  0
  151.0470  138.1188  153.6711 H   0  0  0  0  0  0  0  0  0  0  0  0
  152.5140  139.5652  155.0832 H   0  0  0  0  0  0  0  0  0  0  0  0
  153.9658  139.4896  159.4413 H   0  0  0  0  0  0  0  0  0  0  0  0
  153.7988  137.7829  159.0421 H   0  0  0  0  0  0  0  0  0  0  0  0
  152.3802  138.7317  159.5421 H   0  0  0  0  0  0  0  0  0  0  0  0
  150.4764  135.6075  157.1568 H   0  0  0  0  0  0  0  0  0  0  0  0
  146.3963  133.5594  152.1184 H   0  0  0  0  0  0  0  0  0  0  0  0
  147.8807  132.9051  151.4678 H   0  0  0  0  0  0  0  0  0  0  0  0
  146.0692  131.2785  151.1820 H   0  0  0  0  0  0  0  0  0  0  0  0
  145.6823  131.3169  152.8913 H   0  0  0  0  0  0  0  0  0  0  0  0
  148.2155  130.4291  151.7307 H   0  0  0  0  0  0  0  0  0  0  0  0
  1  2  1  0  0  0  0
  1 24  1  0  0  0  0
  1 25  1  0  0  0  0
  1 26  1  0  0  0  0
  2  3  1  0  0  0  0
  3  4  2  0  0  0  0
  3  5  1  0  0  0  0
  5  6  1  0  0  0  0
  5 27  1  0  0  0  0
  5 28  1  0  0  0  0
  6 23  1  0  0  0  0
  6  7  1  0  0  0  0
  6 46  1  0  0  0  0
  7  8  1  0  0  0  0
  7 29  1  0  0  0  0
  7 30  1  0  0  0  0
  8  9  1  0  0  0  0
  8 31  1  0  0  0  0
  8 32  1  0  0  0  0
  9 10  1  0  0  0  0
  9 22  1  0  0  0  0
  9 33  1  0  0  0  0
 10 11  1  0  0  0  0
 10 34  1  0  0  0  0
 11 12  2  0  0  0  0
 11 13  1  0  0  0  0
 13 14  1  0  0  0  0
 13 35  1  0  0  0  0
 14 21  1  0  0  0  0
 14 15  2  0  0  0  0
 15 16  1  0  0  0  0
 15 36  1  0  0  0  0
 16 17  2  0  0  0  0
 16 37  1  0  0  0  0
 17 18  1  0  0  0  0
 17 20  1  0  0  0  0
 18 19  1  0  0  0  0
 19 38  1  0  0  0  0
 19 39  1  0  0  0  0
 19 40  1  0  0  0  0
 20 21  2  0  0  0  0
 21 41  1  0  0  0  0
 22 23  1  0  0  0  0
 22 42  1  0  0  0  0
 22 43  1  0  0  0  0
 23 44  1  0  0  0  0
 23 45  1  0  0  0  0
M  CHG  1   2  -1
M  CHG  1   6   1
M  END
> <s_m_source_file>
AV-unprocessed.smi

> <i_m_source_file_index>
1396

> <i_lp_mmshare_version>
43012

> <i_f3d_flags>
0

> <s_epik_input>
W0NIM11bTkhdQyg9TylbQ0gyXU4xW0NIMl1bQ0gyXVtDSF0oW0NIMl1bQ0gyXTEpW05IXUMoPU8pW05IXWMyW2NIXVtjSF1jKE9bQ0gzXSluW2NIXTI=

> <s_epik_cmdline>
J2VwaWtfcHl0aG9uJywgJy1waCcsICc3LjAnLCAnLXRuJywgJzgnLCAnLW1hJywgJzIwMCcsICctbWV0YWxfYmluZGluZycsICctaW1hZScsICc8aW5maWxlLm1hZT4nLCAnLW9tYWUnLCAnPG91dGZpbGUubWFlPic=

> <r_lp_tautomer_probability>
1

> <r_epik_Ionization_Penalty>
6.13954

> <r_epik_Ionization_Penalty_Charging>
6.13946

> <r_epik_Ionization_Penalty_Neutral>
7.8452e-05

> <r_epik_State_Penalty>
6.9595

> <r_epik_Charging_Adjusted_Penalty>
13.099

> <i_epik_Tot_Q>
0

> <i_epik_Tot_abs_Q>
2

> <r_epik_Metal_State_Penalty>
2.89145

> <b_epik_Metal_Only>
1

> <s_lp_Force_Field>
OPLS_2005

> <r_lp_Energy>
12.8454

> <b_lp_Chiralities_Consistent>
1

> <s_lp_Variant>
AV-unprocessed.smi:1396-4

> <Gold.Version>
5.8.1

> <Gold.Id.Protein>
6NUR|6NUR_protein|mol2

> <Gold.PLP.Fitness>
50.8407

> <Gold.PLP.PLP>
-38.9298

> <Gold.PLP.part.hbond>
-4.5123

> <Gold.PLP.part.metal>
0.0000

> <Gold.PLP.part.buried>
-4.7132

> <Gold.PLP.part.nonpolar>
-30.1724

> <Gold.PLP.part.repulsive>
0.4031

> <Gold.PLP.ligand.clash>
0.0000

> <Gold.PLP.ligand.torsion>
0.0884

> <Gold.PLP.Chemscore.Hbond>
4.0000

> <Gold.PLP.Chemscore.CHOScore>
0.0000

> <Gold.PLP.Chemscore.Metal>
0.0000

> <Gold.Chemscore.Hbonds>
donor molecule, donor type, donor heavy atom, donor atom, acceptor molecule, acceptor atom, score
      L1  H     6    46       P1 10747  1.00
      L1  H    10    34       P1  7948  1.00
      L1  H    13    35       P1  7948  1.00
      P1  H  7997  8008       L1    18  1.00

> <Gold.PLP.Chemscore.Internal.Correction>
0.0877

> <Gold.Rescore>
     Score         DG    S(hbond)    S(metal)    S(lipo)     H(rot)  DE(clash)    DE(int)     intcor
     17.71     -20.46       3.44        0.00      71.93       1.93       0.09       2.66       ----

> <Gold.Chemscore.Fitness>
17.7122

> <Gold.Chemscore.DG>
-20.4617

> <Gold.Chemscore.ZeroCoef>
-5.4800

> <Gold.Chemscore.Hbond>
3.4439

> <Gold.Chemscore.Metal>
0.0000

> <Gold.Chemscore.Lipo>
71.9295

> <Gold.Chemscore.Internal_Hbond>
0.0000

> <Gold.Chemscore.DEClash>
0.0919

> <Gold.Chemscore.DEInternal>
2.6576

> <Gold.Chemscore.Rot>
1.9283

> <Gold.Chemscore.Internal.Correction>
   9.000000E+99

> <Gold.Chemscore.Hbonds>
donor molecule, donor type, donor heavy atom, donor atom, acceptor molecule, acceptor atom, score
      L1  H     6    46       P1 10747  0.98
      L1  H    10    34       P1  7948  0.44
      L1  H    13    35       P1  7948  0.34
      P1  H  7997  8008       L1    18  0.60

> <Gold.Chemscore.Hbond.Weighted>
-11.5025

> <Gold.Chemscore.Metal.Weighted>
-0.0000

> <Gold.Chemscore.Lipo.Weighted>
-8.4158

> <Gold.Chemscore.Internal_Hbond.Weighted>
0.0000

> <Gold.Chemscore.DEClash.Weighted>
0.0919

> <Gold.Chemscore.DEInternal.Weighted>
2.6576

> <Gold.Chemscore.Rot.Weighted>
4.9365

> <Gold.Chemscore.Internal.Correction.Weighted>
   9.000000E+99

> <Gold.Protein.RotatedTorsions>
[ 6907 6896 6895 6894 ] final  -31.92 input  -60.11 | X-H torsion
[ 7974 7965 7964 7962 ] final   64.28 input  175.53 | X-H torsion
[ 8008 7997 7996 7995 ] final  -87.70 input   59.86 | X-H torsion
[ 10167 10162 10161 10158 ] final -127.75 input  -65.29 | X-H torsion
[ 10718 10713 10712 10709 ] final   77.65 input   66.30 | X-H torsion
[ 10763 10752 10751 10750 ] final  -42.38 input  -60.55 | X-H torsion
[ 11005 11000 10999 10996 ] final   12.08 input  -57.11 | X-H torsion

> <Gold.Protein.ActiveResidues>
 VAL166  LYS551  ARG553  GLY616  TRP617  ASP618  TYR619  PRO620  LYS621  CYS622 
 ASP623  PHE694  ASN695  SER759  ASP760  ASP761  ALA762  ILE779  LEU786  VAL792 
 PHE793  MET794  SER795  GLU796  ALA797  LYS798  CYS799  TRP800  GLU811  SER814 

> <Gold.Protein.RotatedAtoms>
  151.0856  134.9885  159.8377 H   0  0  0  0  0  0  0  0  0  0  0  0  # atno 6907 bound_to 6896
  152.5424  134.2128  159.8767 H   0  0  0  0  0  0  0  0  0  0  0  0  # atno 6908 bound_to 6896
  151.2161  133.4485  159.2633 H   0  0  0  0  0  0  0  0  0  0  0  0  # atno 6909 bound_to 6896
  145.8520  139.3260  143.0869 H   0  0  0  0  0  0  0  0  0  0  0  0  # atno 7974 bound_to 7965
  154.6662  140.0562  157.0117 H   0  0  0  0  0  0  0  0  0  0  0  0  # atno 8008 bound_to 7997
  155.1155  140.3242  155.4492 H   0  0  0  0  0  0  0  0  0  0  0  0  # atno 8009 bound_to 7997
  156.2639  140.2007  156.6278 H   0  0  0  0  0  0  0  0  0  0  0  0  # atno 8010 bound_to 7997
  139.9576  143.5986  152.2456 H   0  0  0  0  0  0  0  0  0  0  0  0  # atno 10167 bound_to 10162
  157.6718  130.9832  150.1673 H   0  0  0  0  0  0  0  0  0  0  0  0  # atno 10718 bound_to 10713
  153.9781  135.6720  153.4749 H   0  0  0  0  0  0  0  0  0  0  0  0  # atno 10763 bound_to 10752
  153.0761  135.4948  154.8404 H   0  0  0  0  0  0  0  0  0  0  0  0  # atno 10764 bound_to 10752
  154.7181  135.3111  154.9053 H   0  0  0  0  0  0  0  0  0  0  0  0  # atno 10765 bound_to 10752
  140.4960  134.0793  155.7782 H   0  0  0  0  0  0  0  0  0  0  0  0  # atno 11005 bound_to 11000
  145.9346  140.9023  143.0338 LP  0  0  0  0  0  0  0  0  0  0  0  0  # atno 17320 bound_to 7965
  144.6729  140.1466  143.7433 LP  0  0  0  0  0  0  0  0  0  0  0  0  # atno 17321 bound_to 7965
  139.6579  144.7662  151.2019 LP  0  0  0  0  0  0  0  0  0  0  0  0  # atno 17342 bound_to 10162
  140.7563  143.6056  150.8656 LP  0  0  0  0  0  0  0  0  0  0  0  0  # atno 17343 bound_to 10162
  156.2435  130.3693  149.8311 LP  0  0  0  0  0  0  0  0  0  0  0  0  # atno 17370 bound_to 10713
  156.6104  130.8584  151.3453 LP  0  0  0  0  0  0  0  0  0  0  0  0  # atno 17371 bound_to 10713
  141.1460  133.9054  157.2214 LP  0  0  0  0  0  0  0  0  0  0  0  0  # atno 17394 bound_to 11000
  139.9741  135.0119  156.9587 LP  0  0  0  0  0  0  0  0  0  0  0  0  # atno 17395 bound_to 11000

$$$$
