AV-unprocessed.smi:2198|AV-procd|sdf|8920|dock8
  -GOLD-   2272012133D 1   1.00000     0.00000
 Structure written by MMmdl.
 42 43  0  0  0  0  0  0  0  0  2 V2000
  150.0996  133.9260  155.4968 C   0  0  0  0  0  0  0  0  0  0  0  0
  150.0981  135.4343  155.3691 C   0  0  0  0  0  0  0  0  0  0  0  0
  149.0388  136.0848  155.6672 N   0  0  0  0  0  0  0  0  0  0  0  0
  149.0288  137.4846  155.5425 C   0  0  0  0  0  0  0  0  0  0  0  0
  147.7265  138.1740  155.9099 C   0  0  0  0  0  0  0  0  0  0  0  0
  150.1306  138.1627  155.1105 C   0  0  0  0  0  0  0  0  0  0  0  0
  150.1667  139.6824  154.9446 C   0  0  0  0  0  0  0  0  0  0  0  0
  151.2343  140.4313  155.7464 C   0  0  0  0  0  0  0  0  0  0  0  0
  152.4230  140.1222  155.6579 O   0  0  0  0  0  0  0  0  0  0  0  0
  150.7869  141.4154  156.5410 N   0  0  0  0  0  0  0  0  0  0  0  0
  151.6188  142.2338  157.4177 C   0  0  1  0  0  0  0  0  0  0  0  0
  150.7833  143.3907  157.9948 C   0  0  0  0  0  0  0  0  0  0  0  0
  151.6129  144.2442  158.9663 C   0  0  0  0  0  0  0  0  0  0  0  0
  152.2094  143.3853  160.0924 C   0  0  0  0  0  0  0  0  0  0  0  0
  153.0521  142.2238  159.5320 C   0  0  1  0  0  0  0  0  0  0  0  0
  153.6390  141.3624  160.6592 C   0  0  0  0  0  0  0  0  0  0  0  0
  152.2189  141.3758  158.5514 C   0  0  0  0  0  0  0  0  0  0  0  0
  151.3355  137.3766  154.7903 C   0  0  0  0  0  0  0  0  0  0  0  0
  152.3639  137.9408  154.4187 O   0  0  0  0  0  0  0  0  0  0  0  0
  151.2620  136.0217  154.9264 N   0  5  0  0  0  0  0  0  0  0  0  0
  149.2313  133.5788  156.0584 H   0  0  0  0  0  0  0  0  0  0  0  0
  150.9973  133.5874  156.0152 H   0  0  0  0  0  0  0  0  0  0  0  0
  150.0760  133.4664  154.5085 H   0  0  0  0  0  0  0  0  0  0  0  0
  147.2693  138.6184  155.0258 H   0  0  0  0  0  0  0  0  0  0  0  0
  147.8983  138.9592  156.6463 H   0  0  0  0  0  0  0  0  0  0  0  0
  147.0142  137.4679  156.3384 H   0  0  0  0  0  0  0  0  0  0  0  0
  150.2718  139.9498  153.8926 H   0  0  0  0  0  0  0  0  0  0  0  0
  149.1942  140.0803  155.2348 H   0  0  0  0  0  0  0  0  0  0  0  0
  149.7947  141.6024  156.5481 H   0  0  0  0  0  0  0  0  0  0  0  0
  152.4328  142.6652  156.8317 H   0  0  0  0  0  0  0  0  0  0  0  0
  150.4034  144.0182  157.1874 H   0  0  0  0  0  0  0  0  0  0  0  0
  149.9106  142.9945  158.5161 H   0  0  0  0  0  0  0  0  0  0  0  0
  152.4159  144.7419  158.4212 H   0  0  0  0  0  0  0  0  0  0  0  0
  150.9920  145.0336  159.3910 H   0  0  0  0  0  0  0  0  0  0  0  0
  152.8217  144.0110  160.7429 H   0  0  0  0  0  0  0  0  0  0  0  0
  151.4040  142.9909  160.7132 H   0  0  0  0  0  0  0  0  0  0  0  0
  153.8879  142.6523  158.9770 H   0  0  0  0  0  0  0  0  0  0  0  0
  152.8518  140.9075  161.2611 H   0  0  0  0  0  0  0  0  0  0  0  0
  154.2639  141.9593  161.3243 H   0  0  0  0  0  0  0  0  0  0  0  0
  154.2581  140.5593  160.2586 H   0  0  0  0  0  0  0  0  0  0  0  0
  151.4170  140.8728  159.0939 H   0  0  0  0  0  0  0  0  0  0  0  0
  152.8439  140.5880  158.1284 H   0  0  0  0  0  0  0  0  0  0  0  0
  1  2  1  0  0  0  0
  1 21  1  0  0  0  0
  1 22  1  0  0  0  0
  1 23  1  0  0  0  0
  2 20  1  0  0  0  0
  2  3  2  0  0  0  0
  3  4  1  0  0  0  0
  4  5  1  0  0  0  0
  4  6  2  0  0  0  0
  5 24  1  0  0  0  0
  5 25  1  0  0  0  0
  5 26  1  0  0  0  0
  6  7  1  0  0  0  0
  6 18  1  0  0  0  0
  7  8  1  0  0  0  0
  7 27  1  0  0  0  0
  7 28  1  0  0  0  0
  8  9  2  0  0  0  0
  8 10  1  0  0  0  0
 10 11  1  0  0  0  0
 10 29  1  0  0  0  0
 11 17  1  0  0  0  0
 11 12  1  0  0  0  0
 11 30  1  0  0  0  0
 12 13  1  0  0  0  0
 12 31  1  0  0  0  0
 12 32  1  0  0  0  0
 13 14  1  0  0  0  0
 13 33  1  0  0  0  0
 13 34  1  0  0  0  0
 14 15  1  0  0  0  0
 14 35  1  0  0  0  0
 14 36  1  0  0  0  0
 15 16  1  0  0  0  0
 15 17  1  0  0  0  0
 15 37  1  0  0  0  0
 16 38  1  0  0  0  0
 16 39  1  0  0  0  0
 16 40  1  0  0  0  0
 17 41  1  0  0  0  0
 17 42  1  0  0  0  0
 18 19  2  0  0  0  0
 18 20  1  0  0  0  0
M  CHG  1  20  -1
M  END
> <s_m_source_file>
AV-unprocessed.smi

> <i_m_source_file_index>
2198

> <i_lp_mmshare_version>
43012

> <i_f3d_flags>
0

> <s_epik_input>
W0NIM11jMW5jKFtDSDNdKWMoYyg9TylbbkhdMSlbQ0gyXUMoPU8pW05IXVtDQEBIXTJbQ0gyXVtDSDJdW0NIMl1bQ0BASF0oW0NIM10pW0NIMl0y

> <s_epik_cmdline>
J2VwaWtfcHl0aG9uJywgJy1waCcsICc3LjAnLCAnLXRuJywgJzgnLCAnLW1hJywgJzIwMCcsICctbWV0YWxfYmluZGluZycsICctaW1hZScsICc8aW5maWxlLm1hZT4nLCAnLW9tYWUnLCAnPG91dGZpbGUubWFlPic=

> <r_lp_tautomer_probability>
0.839158

> <r_epik_Ionization_Penalty>
6.67193

> <r_epik_Ionization_Penalty_Charging>
7.66837e-08

> <r_epik_Ionization_Penalty_Neutral>
6.67193

> <r_epik_State_Penalty>
4.51643

> <r_epik_Charging_Adjusted_Penalty>
4.51643

> <i_epik_Tot_Q>
-1

> <i_epik_Tot_abs_Q>
1

> <r_epik_Metal_State_Penalty>
0.851582

> <b_epik_Metal_Only>
1

> <s_lp_Force_Field>
OPLS_2005

> <r_lp_Energy>
13.5939

> <b_lp_Chiralities_Consistent>
1

> <s_lp_Variant>
AV-unprocessed.smi:2198-10

> <Gold.Version>
5.8.1

> <Gold.Id.Protein>
6NUR|6NUR_protein|mol2

> <Gold.PLP.Fitness>
45.5971

> <Gold.PLP.PLP>
-36.7739

> <Gold.PLP.part.hbond>
-3.4207

> <Gold.PLP.part.metal>
0.0000

> <Gold.PLP.part.buried>
-3.8210

> <Gold.PLP.part.nonpolar>
-30.5518

> <Gold.PLP.part.repulsive>
0.4156

> <Gold.PLP.ligand.clash>
0.0000

> <Gold.PLP.ligand.torsion>
0.0902

> <Gold.PLP.Chemscore.Hbond>
3.0000

> <Gold.PLP.Chemscore.CHOScore>
0.0000

> <Gold.PLP.Chemscore.Metal>
0.0000

> <Gold.Chemscore.Hbonds>
donor molecule, donor type, donor heavy atom, donor atom, acceptor molecule, acceptor atom, score
      P1  H  7997  8008       L1     9  1.00
      P1  H 10752 10764       L1    20  2.00

> <Gold.PLP.Chemscore.Internal.Correction>
0.0037

> <Gold.Rescore>
     Score         DG    S(hbond)    S(metal)    S(lipo)     H(rot)  DE(clash)    DE(int)     intcor
     15.21     -17.78       1.72        0.00      87.57       1.45       0.93       1.64       ----

> <Gold.Chemscore.Fitness>
15.2112

> <Gold.Chemscore.DG>
-17.7850

> <Gold.Chemscore.ZeroCoef>
-5.4800

> <Gold.Chemscore.Hbond>
1.7240

> <Gold.Chemscore.Metal>
0.0000

> <Gold.Chemscore.Lipo>
87.5732

> <Gold.Chemscore.Internal_Hbond>
0.0000

> <Gold.Chemscore.DEClash>
0.9322

> <Gold.Chemscore.DEInternal>
1.6415

> <Gold.Chemscore.Rot>
1.4450

> <Gold.Chemscore.Internal.Correction>
   9.000000E+99

> <Gold.Chemscore.Hbonds>
donor molecule, donor type, donor heavy atom, donor atom, acceptor molecule, acceptor atom, score
      P1  H  7997  8008       L1     9  0.96
      P1  H 10752 10764       L1    20  0.34

> <Gold.Chemscore.Hbond.Weighted>
-5.7581

> <Gold.Chemscore.Metal.Weighted>
-0.0000

> <Gold.Chemscore.Lipo.Weighted>
-10.2461

> <Gold.Chemscore.Internal_Hbond.Weighted>
0.0000

> <Gold.Chemscore.DEClash.Weighted>
0.9322

> <Gold.Chemscore.DEInternal.Weighted>
1.6415

> <Gold.Chemscore.Rot.Weighted>
3.6992

> <Gold.Chemscore.Internal.Correction.Weighted>
   9.000000E+99

> <Gold.Protein.RotatedTorsions>
[ 6907 6896 6895 6894 ] final  -75.72 input  -60.11 | X-H torsion
[ 7974 7965 7964 7962 ] final  -30.84 input  175.53 | X-H torsion
[ 8008 7997 7996 7995 ] final  -31.85 input   59.86 | X-H torsion
[ 10167 10162 10161 10158 ] final  -37.78 input  -65.29 | X-H torsion
[ 10718 10713 10712 10709 ] final -141.75 input   66.30 | X-H torsion
[ 10763 10752 10751 10750 ] final  -47.00 input  -60.55 | X-H torsion
[ 11005 11000 10999 10996 ] final  -36.22 input  -57.11 | X-H torsion

> <Gold.Protein.ActiveResidues>
 VAL166  LYS551  ARG553  GLY616  TRP617  ASP618  TYR619  PRO620  LYS621  CYS622 
 ASP623  PHE694  ASN695  SER759  ASP760  ASP761  ALA762  ILE779  LEU786  VAL792 
 PHE793  MET794  SER795  GLU796  ALA797  LYS798  CYS799  TRP800  GLU811  SER814 

> <Gold.Protein.RotatedAtoms>
  150.7050  134.4679  159.5411 H   0  0  0  0  0  0  0  0  0  0  0  0  # atno 6907 bound_to 6896
  152.2341  134.8290  160.0478 H   0  0  0  0  0  0  0  0  0  0  0  0  # atno 6908 bound_to 6896
  151.9096  133.3523  159.3896 H   0  0  0  0  0  0  0  0  0  0  0  0  # atno 6909 bound_to 6896
  146.1113  140.5591  142.8777 H   0  0  0  0  0  0  0  0  0  0  0  0  # atno 7974 bound_to 7965
  154.4199  140.1753  156.1633 H   0  0  0  0  0  0  0  0  0  0  0  0  # atno 8008 bound_to 7997
  155.9820  140.3376  155.6648 H   0  0  0  0  0  0  0  0  0  0  0  0  # atno 8009 bound_to 7997
  155.6487  140.0688  157.2585 H   0  0  0  0  0  0  0  0  0  0  0  0  # atno 8010 bound_to 7997
  140.7109  143.3320  151.2548 H   0  0  0  0  0  0  0  0  0  0  0  0  # atno 10167 bound_to 10162
  156.3377  130.7620  151.1751 H   0  0  0  0  0  0  0  0  0  0  0  0  # atno 10718 bound_to 10713
  154.0542  135.6627  153.4804 H   0  0  0  0  0  0  0  0  0  0  0  0  # atno 10763 bound_to 10752
  153.0452  135.5119  154.7722 H   0  0  0  0  0  0  0  0  0  0  0  0  # atno 10764 bound_to 10752
  154.6738  135.3034  154.9673 H   0  0  0  0  0  0  0  0  0  0  0  0  # atno 10765 bound_to 10752
  140.9858  133.7032  156.1762 H   0  0  0  0  0  0  0  0  0  0  0  0  # atno 11005 bound_to 11000
  144.7514  140.5200  143.6799 LP  0  0  0  0  0  0  0  0  0  0  0  0  # atno 17320 bound_to 7965
  145.5658  139.1481  143.3316 LP  0  0  0  0  0  0  0  0  0  0  0  0  # atno 17321 bound_to 7965
  139.6804  143.9864  152.2805 LP  0  0  0  0  0  0  0  0  0  0  0  0  # atno 17342 bound_to 10162
  139.9492  144.6631  150.8189 LP  0  0  0  0  0  0  0  0  0  0  0  0  # atno 17343 bound_to 10162
  157.7441  131.0463  150.4888 LP  0  0  0  0  0  0  0  0  0  0  0  0  # atno 17370 bound_to 10713
  156.5063  130.4129  149.6325 LP  0  0  0  0  0  0  0  0  0  0  0  0  # atno 17371 bound_to 10713
  140.7117  134.4454  157.5581 LP  0  0  0  0  0  0  0  0  0  0  0  0  # atno 17394 bound_to 11000
  139.8970  134.8647  156.2064 LP  0  0  0  0  0  0  0  0  0  0  0  0  # atno 17395 bound_to 11000

$$$$
