AV-unprocessed.smi:2747|AV-procd|sdf|10578|dock7
  -GOLD-   2272015 33D 1   1.00000     0.00000
 Structure written by MMmdl.
 24 25  0  0  0  0  0  0  0  0  1 V2000
  149.4683  141.1398  153.3406 O   0  0  0  0  0  0  0  0  0  0  0  0
  149.8044  140.4884  154.5519 C   0  0  1  0  0  0  0  0  0  0  0  0
  150.2237  141.5356  155.6033 C   0  0  0  0  0  0  0  0  0  0  0  0
  151.1848  141.0105  156.5567 N   0  0  0  0  0  0  0  0  0  0  0  0
  151.8351  139.8457  156.2772 N   0  0  0  0  0  0  0  0  0  0  0  0
  152.6427  139.5743  157.2584 N   0  0  0  0  0  0  0  0  0  0  0  0
  152.5231  140.5801  158.2029 C   0  0  0  0  0  0  0  0  0  0  0  0
  153.1598  140.7851  159.4471 C   0  0  0  0  0  0  0  0  0  0  0  0
  152.8519  141.9202  160.2287 C   0  0  0  0  0  0  0  0  0  0  0  0
  153.6534  142.1368  161.7439 Cl  0  0  0  0  0  0  0  0  0  0  0  0
  151.9006  142.8647  159.7728 C   0  0  0  0  0  0  0  0  0  0  0  0
  151.5140  144.2605  160.7148 Cl  0  0  0  0  0  0  0  0  0  0  0  0
  151.2563  142.6721  158.5344 C   0  0  0  0  0  0  0  0  0  0  0  0
  151.5771  141.5357  157.7726 C   0  0  0  0  0  0  0  0  0  0  0  0
  148.6152  139.6234  155.0105 C   0  0  0  0  0  0  0  0  0  0  0  0
  148.3137  138.7231  154.0745 F   0  0  0  0  0  0  0  0  0  0  0  0
  148.9487  138.9659  156.1211 F   0  0  0  0  0  0  0  0  0  0  0  0
  147.5454  140.3774  155.2667 F   0  0  0  0  0  0  0  0  0  0  0  0
  149.3978  140.4893  152.6588 H   0  0  0  0  0  0  0  0  0  0  0  0
  150.6516  139.8327  154.3459 H   0  0  0  0  0  0  0  0  0  0  0  0
  150.6604  142.4093  155.1180 H   0  0  0  0  0  0  0  0  0  0  0  0
  149.3518  141.8915  156.1539 H   0  0  0  0  0  0  0  0  0  0  0  0
  153.8871  140.0686  159.8002 H   0  0  0  0  0  0  0  0  0  0  0  0
  150.5297  143.3857  158.1748 H   0  0  0  0  0  0  0  0  0  0  0  0
  1  2  1  0  0  0  0
  1 19  1  0  0  0  0
  2  3  1  0  0  0  0
  2 15  1  0  0  0  0
  2 20  1  0  0  0  0
  3  4  1  0  0  0  0
  3 21  1  0  0  0  0
  3 22  1  0  0  0  0
  4 14  1  0  0  0  0
  4  5  1  0  0  0  0
  5  6  2  0  0  0  0
  6  7  1  0  0  0  0
  7 14  2  0  0  0  0
  7  8  1  0  0  0  0
  8  9  2  0  0  0  0
  8 23  1  0  0  0  0
  9 10  1  0  0  0  0
  9 11  1  0  0  0  0
 11 12  1  0  0  0  0
 11 13  2  0  0  0  0
 13 14  1  0  0  0  0
 13 24  1  0  0  0  0
 15 16  1  0  0  0  0
 15 17  1  0  0  0  0
 15 18  1  0  0  0  0
M  END
> <s_m_source_file>
AV-unprocessed.smi

> <i_m_source_file_index>
2747

> <i_lp_mmshare_version>
43012

> <i_f3d_flags>
0

> <s_epik_input>
RkMoRikoRilbQ0BIXShbT0hdKVtDSDJdbihubjEpYyhjMTIpW2NIXWMoQ2wpYyhDbClbY0hdMg==

> <s_epik_cmdline>
J2VwaWtfcHl0aG9uJywgJy1waCcsICc3LjAnLCAnLXRuJywgJzgnLCAnLW1hJywgJzIwMCcsICctbWV0YWxfYmluZGluZycsICctaW1hZScsICc8aW5maWxlLm1hZT4nLCAnLW9tYWUnLCAnPG91dGZpbGUubWFlPic=

> <r_lp_tautomer_probability>
1

> <r_epik_Ionization_Penalty>
0.0735676

> <r_epik_Ionization_Penalty_Charging>
0

> <r_epik_Ionization_Penalty_Neutral>
0.0735676

> <r_epik_State_Penalty>
0.0647209

> <r_epik_Charging_Adjusted_Penalty>
0.0647209

> <i_epik_Tot_Q>
0

> <i_epik_Tot_abs_Q>
0

> <r_epik_Metal_State_Penalty>
0.0647209

> <b_epik_Metal_Only>
0

> <s_lp_Force_Field>
OPLS_2005

> <r_lp_Energy>
9.1287

> <b_lp_Chiralities_Consistent>
1

> <s_lp_Variant>
AV-unprocessed.smi:2747-2

> <Gold.Version>
5.8.1

> <Gold.Id.Protein>
6NUR|6NUR_protein|mol2

> <Gold.PLP.Fitness>
42.8409

> <Gold.PLP.PLP>
-35.7786

> <Gold.PLP.part.hbond>
-3.7523

> <Gold.PLP.part.metal>
0.0000

> <Gold.PLP.part.buried>
-3.0107

> <Gold.PLP.part.nonpolar>
-27.8049

> <Gold.PLP.part.repulsive>
0.0000

> <Gold.PLP.ligand.clash>
0.0000

> <Gold.PLP.ligand.torsion>
0.5375

> <Gold.PLP.Chemscore.Hbond>
2.7100

> <Gold.PLP.Chemscore.CHOScore>
0.0000

> <Gold.PLP.Chemscore.Metal>
0.0000

> <Gold.Chemscore.Hbonds>
donor molecule, donor type, donor heavy atom, donor atom, acceptor molecule, acceptor atom, score
      L1  H     1    19       P1  7957  0.99
      P1  H  7997  8008       L1     6  0.90
      P1  H  8011  8017       L1     1  0.80

> <Gold.PLP.Chemscore.Internal.Correction>
0.0072

> <Gold.Rescore>
     Score         DG    S(hbond)    S(metal)    S(lipo)     H(rot)  DE(clash)    DE(int)     intcor
     15.28     -16.04       1.35        0.00      93.94       1.92       0.08       0.69       ----

> <Gold.Chemscore.Fitness>
15.2781

> <Gold.Chemscore.DG>
-16.0448

> <Gold.Chemscore.ZeroCoef>
-5.4800

> <Gold.Chemscore.Hbond>
1.3466

> <Gold.Chemscore.Metal>
0.0000

> <Gold.Chemscore.Lipo>
93.9417

> <Gold.Chemscore.Internal_Hbond>
0.0000

> <Gold.Chemscore.DEClash>
0.0796

> <Gold.Chemscore.DEInternal>
0.6870

> <Gold.Chemscore.Rot>
1.9235

> <Gold.Chemscore.Internal.Correction>
   9.000000E+99

> <Gold.Chemscore.Hbonds>
donor molecule, donor type, donor heavy atom, donor atom, acceptor molecule, acceptor atom, score
      L1  H     1    19       P1  7957  0.92
      P1  H  7997  8008       L1     6  0.05
      P1  H  8011  8017       L1     1  0.12

> <Gold.Chemscore.Hbond.Weighted>
-4.4978

> <Gold.Chemscore.Metal.Weighted>
-0.0000

> <Gold.Chemscore.Lipo.Weighted>
-10.9912

> <Gold.Chemscore.Internal_Hbond.Weighted>
0.0000

> <Gold.Chemscore.DEClash.Weighted>
0.0796

> <Gold.Chemscore.DEInternal.Weighted>
0.6870

> <Gold.Chemscore.Rot.Weighted>
4.9242

> <Gold.Chemscore.Internal.Correction.Weighted>
   9.000000E+99

> <Gold.Protein.RotatedTorsions>
[ 6907 6896 6895 6894 ] final  -49.12 input  -60.11 | X-H torsion
[ 7974 7965 7964 7962 ] final -148.21 input  175.53 | X-H torsion
[ 8008 7997 7996 7995 ] final  -49.82 input   59.86 | X-H torsion
[ 10167 10162 10161 10158 ] final  -14.40 input  -65.29 | X-H torsion
[ 10718 10713 10712 10709 ] final  177.62 input   66.30 | X-H torsion
[ 10763 10752 10751 10750 ] final -107.72 input  -60.55 | X-H torsion
[ 11005 11000 10999 10996 ] final -159.09 input  -57.11 | X-H torsion

> <Gold.Protein.ActiveResidues>
 VAL166  LYS551  ARG553  GLY616  TRP617  ASP618  TYR619  PRO620  LYS621  CYS622 
 ASP623  PHE694  ASN695  SER759  ASP760  ASP761  ALA762  ILE779  LEU786  VAL792 
 PHE793  MET794  SER795  GLU796  ALA797  LYS798  CYS799  TRP800  GLU811  SER814 

> <Gold.Protein.RotatedAtoms>
  150.8837  134.8231  159.7243 H   0  0  0  0  0  0  0  0  0  0  0  0  # atno 6907 bound_to 6896
  152.4794  134.4756  159.9659 H   0  0  0  0  0  0  0  0  0  0  0  0  # atno 6908 bound_to 6896
  151.4828  133.3504  159.2876 H   0  0  0  0  0  0  0  0  0  0  0  0  # atno 6909 bound_to 6896
  144.8044  140.5226  143.5685 H   0  0  0  0  0  0  0  0  0  0  0  0  # atno 7974 bound_to 7965
  154.4051  140.1287  156.4565 H   0  0  0  0  0  0  0  0  0  0  0  0  # atno 8008 bound_to 7997
  155.7314  140.3491  155.5041 H   0  0  0  0  0  0  0  0  0  0  0  0  # atno 8009 bound_to 7997
  155.9123  140.1038  157.1260 H   0  0  0  0  0  0  0  0  0  0  0  0  # atno 8010 bound_to 7997
  140.7200  143.5325  150.9503 H   0  0  0  0  0  0  0  0  0  0  0  0  # atno 10167 bound_to 10162
  156.9027  130.9884  151.3033 H   0  0  0  0  0  0  0  0  0  0  0  0  # atno 10718 bound_to 10713
  154.8092  135.4664  154.0473 H   0  0  0  0  0  0  0  0  0  0  0  0  # atno 10763 bound_to 10752
  153.1917  135.6856  153.8351 H   0  0  0  0  0  0  0  0  0  0  0  0  # atno 10764 bound_to 10752
  153.7867  135.3249  155.3350 H   0  0  0  0  0  0  0  0  0  0  0  0  # atno 10765 bound_to 10752
  140.6465  134.4496  157.5234 H   0  0  0  0  0  0  0  0  0  0  0  0  # atno 11005 bound_to 11000
  145.5474  139.1476  143.3413 LP  0  0  0  0  0  0  0  0  0  0  0  0  # atno 17320 bound_to 7965
  146.2332  140.5613  142.8966 LP  0  0  0  0  0  0  0  0  0  0  0  0  # atno 17321 bound_to 7965
  139.9046  143.6794  152.3125 LP  0  0  0  0  0  0  0  0  0  0  0  0  # atno 17342 bound_to 10162
  139.7155  144.7612  151.1040 LP  0  0  0  0  0  0  0  0  0  0  0  0  # atno 17343 bound_to 10162
  157.6016  130.8517  149.8811 LP  0  0  0  0  0  0  0  0  0  0  0  0  # atno 17370 bound_to 10713
  156.0574  130.3706  150.1060 LP  0  0  0  0  0  0  0  0  0  0  0  0  # atno 17371 bound_to 10713
  139.9061  134.8446  156.1701 LP  0  0  0  0  0  0  0  0  0  0  0  0  # atno 17394 bound_to 11000
  141.0569  133.6861  156.1877 LP  0  0  0  0  0  0  0  0  0  0  0  0  # atno 17395 bound_to 11000

$$$$
