AV-unprocessed.smi:1985|AV-procd|sdf|8042|dock1
  -GOLD-   2272010233D 1   1.00000     0.00000
 Structure written by MMmdl.
 50 51  0  0  0  0  0  0  0  0  1 V2000
  146.1404  132.6460  156.1665 C   0  0  0  0  0  0  0  0  0  0  0  0
  146.8896  132.4817  154.8333 C   0  0  0  0  0  0  0  0  0  0  0  0
  147.6129  133.7672  154.3100 C   0  0  1  0  0  0  0  0  0  0  0  0
  148.0102  133.4801  152.8376 C   0  0  0  0  0  0  0  0  0  0  0  0
  146.5891  134.9493  154.2996 C   0  0  0  0  0  0  0  0  0  0  0  0
  147.1860  136.2105  153.8814 N   0  0  0  0  0  0  0  0  0  0  0  0
  147.1656  137.3685  154.5578 C   0  0  0  0  0  0  0  0  0  0  0  0
  146.6025  137.5000  155.6434 O   0  0  0  0  0  0  0  0  0  0  0  0
  147.8852  138.5730  153.9245 C   0  0  0  0  0  0  0  0  0  0  0  0
  149.1437  138.9449  154.5927 N   0  0  0  0  0  0  0  0  0  0  0  0
  150.2342  138.0979  154.5077 C   0  0  0  0  0  0  0  0  0  0  0  0
  151.4062  138.3265  155.1389 C   0  0  0  0  0  0  0  0  0  0  0  0
  151.5889  139.5114  155.9672 C   0  0  0  0  0  0  0  0  0  0  0  0
  152.6296  139.7574  156.5784 O   0  0  0  0  0  0  0  0  0  0  0  0
  150.4661  140.3678  156.0269 N   0  0  0  0  0  0  0  0  0  0  0  0
  150.6010  141.5496  156.8530 C   0  0  0  0  0  0  0  0  0  0  0  0
  149.2401  140.1242  155.3653 C   0  0  0  0  0  0  0  0  0  0  0  0
  148.2739  140.8840  155.4617 O   0  0  0  0  0  0  0  0  0  0  0  0
  148.7937  134.1077  155.1587 N   0  0  0  0  0  0  0  0  0  0  0  0
  148.4834  134.4813  156.5458 C   0  0  0  0  0  0  0  0  0  0  0  0
  149.7314  134.9370  157.3204 C   0  0  0  0  0  0  0  0  0  0  0  0
  150.7136  133.9100  157.2933 O   0  0  0  0  0  0  0  0  0  0  0  0
  151.0944  133.5656  155.9676 C   0  0  0  0  0  0  0  0  0  0  0  0
  149.8608  133.0978  155.1766 C   0  0  0  0  0  0  0  0  0  0  0  0
  145.7108  131.6955  156.4826 H   0  0  0  0  0  0  0  0  0  0  0  0
  145.3208  133.3594  156.0840 H   0  0  0  0  0  0  0  0  0  0  0  0
  146.8041  132.9859  156.9613 H   0  0  0  0  0  0  0  0  0  0  0  0
  147.5946  131.6567  154.9256 H   0  0  0  0  0  0  0  0  0  0  0  0
  146.1798  132.1116  154.0926 H   0  0  0  0  0  0  0  0  0  0  0  0
  147.1433  133.2101  152.2335 H   0  0  0  0  0  0  0  0  0  0  0  0
  148.7103  132.6497  152.7544 H   0  0  0  0  0  0  0  0  0  0  0  0
  148.4655  134.3464  152.3587 H   0  0  0  0  0  0  0  0  0  0  0  0
  145.7494  134.7274  153.6396 H   0  0  0  0  0  0  0  0  0  0  0  0
  146.1721  135.1046  155.2951 H   0  0  0  0  0  0  0  0  0  0  0  0
  147.6724  136.1999  152.9968 H   0  0  0  0  0  0  0  0  0  0  0  0
  148.0831  138.3363  152.8782 H   0  0  0  0  0  0  0  0  0  0  0  0
  147.2000  139.4222  153.9057 H   0  0  0  0  0  0  0  0  0  0  0  0
  150.1438  137.2002  153.9130 H   0  0  0  0  0  0  0  0  0  0  0  0
  152.2171  137.6204  155.0352 H   0  0  0  0  0  0  0  0  0  0  0  0
  149.7400  142.2087  156.7466 H   0  0  0  0  0  0  0  0  0  0  0  0
  151.4984  142.0788  156.5269 H   0  0  0  0  0  0  0  0  0  0  0  0
  150.6928  141.2083  157.8857 H   0  0  0  0  0  0  0  0  0  0  0  0
  147.7685  135.3003  156.5820 H   0  0  0  0  0  0  0  0  0  0  0  0
  148.0325  133.6407  157.0731 H   0  0  0  0  0  0  0  0  0  0  0  0
  150.1389  135.8536  156.8912 H   0  0  0  0  0  0  0  0  0  0  0  0
  149.4740  135.1561  158.3566 H   0  0  0  0  0  0  0  0  0  0  0  0
  151.5623  134.4229  155.4810 H   0  0  0  0  0  0  0  0  0  0  0  0
  151.8416  132.7729  156.0067 H   0  0  0  0  0  0  0  0  0  0  0  0
  149.4948  132.1688  155.6134 H   0  0  0  0  0  0  0  0  0  0  0  0
  150.1971  132.8645  154.1686 H   0  0  0  0  0  0  0  0  0  0  0  0
  1  2  1  0  0  0  0
  1 25  1  0  0  0  0
  1 26  1  0  0  0  0
  1 27  1  0  0  0  0
  2  3  1  0  0  0  0
  2 28  1  0  0  0  0
  2 29  1  0  0  0  0
  3  4  1  0  0  0  0
  3  5  1  0  0  0  0
  3 19  1  0  0  0  0
  4 30  1  0  0  0  0
  4 31  1  0  0  0  0
  4 32  1  0  0  0  0
  5  6  1  0  0  0  0
  5 33  1  0  0  0  0
  5 34  1  0  0  0  0
  6  7  1  0  0  0  0
  6 35  1  0  0  0  0
  7  8  2  0  0  0  0
  7  9  1  0  0  0  0
  9 10  1  0  0  0  0
  9 36  1  0  0  0  0
  9 37  1  0  0  0  0
 10 17  1  0  0  0  0
 10 11  1  0  0  0  0
 11 12  2  0  0  0  0
 11 38  1  0  0  0  0
 12 13  1  0  0  0  0
 12 39  1  0  0  0  0
 13 14  2  0  0  0  0
 13 15  1  0  0  0  0
 15 16  1  0  0  0  0
 15 17  1  0  0  0  0
 16 40  1  0  0  0  0
 16 41  1  0  0  0  0
 16 42  1  0  0  0  0
 17 18  2  0  0  0  0
 19 24  1  0  0  0  0
 19 20  1  0  0  0  0
 20 21  1  0  0  0  0
 20 43  1  0  0  0  0
 20 44  1  0  0  0  0
 21 22  1  0  0  0  0
 21 45  1  0  0  0  0
 21 46  1  0  0  0  0
 22 23  1  0  0  0  0
 23 24  1  0  0  0  0
 23 47  1  0  0  0  0
 23 48  1  0  0  0  0
 24 49  1  0  0  0  0
 24 50  1  0  0  0  0
M  END
> <s_m_source_file>
AV-unprocessed.smi

> <i_m_source_file_index>
1985

> <i_lp_mmshare_version>
43012

> <i_f3d_flags>
0

> <s_epik_input>
W0NIMl0xW0NIMl1PW0NIMl1bQ0gyXU4xW0NAQF0oW0NIM10pKFtDSDJdW0NIM10pW0NIMl1bTkhdQyg9TylbQ0gyXW4yW2NIXVtjSF1jKD1PKW4oW0NIM10pYzI9Tw==

> <s_epik_cmdline>
J2VwaWtfcHl0aG9uJywgJy1waCcsICc3LjAnLCAnLXRuJywgJzgnLCAnLW1hJywgJzIwMCcsICctbWV0YWxfYmluZGluZycsICctaW1hZScsICc8aW5maWxlLm1hZT4nLCAnLW9tYWUnLCAnPG91dGZpbGUubWFlPic=

> <r_lp_tautomer_probability>
1

> <r_epik_Ionization_Penalty>
0.318667

> <r_epik_Ionization_Penalty_Charging>
1.17294e-08

> <r_epik_Ionization_Penalty_Neutral>
0.318667

> <r_epik_State_Penalty>
0.313095

> <r_epik_Charging_Adjusted_Penalty>
0.313095

> <i_epik_Tot_Q>
0

> <i_epik_Tot_abs_Q>
0

> <r_epik_Metal_State_Penalty>
0.313065

> <b_epik_Metal_Only>
0

> <s_lp_Force_Field>
OPLS_2005

> <r_lp_Energy>
50.9195

> <b_lp_Chiralities_Consistent>
1

> <s_lp_Variant>
AV-unprocessed.smi:1985-1

> <Gold.Version>
5.8.1

> <Gold.Id.Protein>
6NUR|6NUR_protein|mol2

> <Gold.PLP.Fitness>
41.6346

> <Gold.PLP.PLP>
-30.6495

> <Gold.PLP.part.hbond>
-3.0000

> <Gold.PLP.part.metal>
0.0000

> <Gold.PLP.part.buried>
-1.8350

> <Gold.PLP.part.nonpolar>
-26.6196

> <Gold.PLP.part.repulsive>
0.2025

> <Gold.PLP.ligand.clash>
0.0000

> <Gold.PLP.ligand.torsion>
0.3767

> <Gold.PLP.Chemscore.Hbond>
2.7137

> <Gold.PLP.Chemscore.CHOScore>
1.1079

> <Gold.PLP.Chemscore.Metal>
0.0000

> <Gold.Chemscore.Hbonds>
donor molecule, donor type, donor heavy atom, donor atom, acceptor molecule, acceptor atom, score
      L1  H     6    35       P1  7948  1.00
      P1  H  6896  6909       L1    22  0.52
      P1  H  7997  8009       L1    14  1.00
      L1  C    11    38       P1  7948  1.00
      L1  C    11    38       P1  7949  0.02

> <Gold.PLP.Chemscore.Internal.Correction>
0.2734

> <Gold.Rescore>
     Score         DG    S(hbond)    S(metal)    S(lipo)     H(rot)  DE(clash)    DE(int)     intcor
     13.51     -15.30       2.79        0.00      52.16       2.20       0.09       1.70       ----

> <Gold.Chemscore.Fitness>
13.5091

> <Gold.Chemscore.DG>
-15.2959

> <Gold.Chemscore.ZeroCoef>
-5.4800

> <Gold.Chemscore.Hbond>
2.7943

> <Gold.Chemscore.Metal>
0.0000

> <Gold.Chemscore.Lipo>
52.1577

> <Gold.Chemscore.Internal_Hbond>
0.0000

> <Gold.Chemscore.DEClash>
0.0877

> <Gold.Chemscore.DEInternal>
1.6990

> <Gold.Chemscore.Rot>
2.1952

> <Gold.Chemscore.Internal.Correction>
   9.000000E+99

> <Gold.Chemscore.Hbonds>
donor molecule, donor type, donor heavy atom, donor atom, acceptor molecule, acceptor atom, score
      L1  H     6    35       P1  7948  1.00
      P1  H  6896  6909       L1    22  0.08
      P1  H  7997  8009       L1    14  1.00

> <Gold.Chemscore.Hbond.Weighted>
-9.3331

> <Gold.Chemscore.Metal.Weighted>
-0.0000

> <Gold.Chemscore.Lipo.Weighted>
-6.1025

> <Gold.Chemscore.Internal_Hbond.Weighted>
0.0000

> <Gold.Chemscore.DEClash.Weighted>
0.0877

> <Gold.Chemscore.DEInternal.Weighted>
1.6990

> <Gold.Chemscore.Rot.Weighted>
5.6197

> <Gold.Chemscore.Internal.Correction.Weighted>
   9.000000E+99

> <Gold.Protein.RotatedTorsions>
[ 6907 6896 6895 6894 ] final   -6.43 input  -60.11 | X-H torsion
[ 7974 7965 7964 7962 ] final -120.77 input  175.53 | X-H torsion
[ 8008 7997 7996 7995 ] final -169.22 input   59.86 | X-H torsion
[ 10167 10162 10161 10158 ] final   49.65 input  -65.29 | X-H torsion
[ 10718 10713 10712 10709 ] final  -59.24 input   66.30 | X-H torsion
[ 10763 10752 10751 10750 ] final  137.95 input  -60.55 | X-H torsion
[ 11005 11000 10999 10996 ] final   91.84 input  -57.11 | X-H torsion

> <Gold.Protein.ActiveResidues>
 VAL166  LYS551  ARG553  GLY616  TRP617  ASP618  TYR619  PRO620  LYS621  CYS622 
 ASP623  PHE694  ASN695  SER759  ASP760  ASP761  ALA762  ILE779  LEU786  VAL792 
 PHE793  MET794  SER795  GLU796  ALA797  LYS798  CYS799  TRP800  GLU811  SER814 

> <Gold.Protein.RotatedAtoms>
  151.4658  135.1042  159.9737 H   0  0  0  0  0  0  0  0  0  0  0  0  # atno 6907 bound_to 6896
  152.4836  133.8311  159.7114 H   0  0  0  0  0  0  0  0  0  0  0  0  # atno 6908 bound_to 6896
  150.8926  133.7162  159.2927 H   0  0  0  0  0  0  0  0  0  0  0  0  # atno 6909 bound_to 6896
  145.0477  140.8194  143.4228 H   0  0  0  0  0  0  0  0  0  0  0  0  # atno 7974 bound_to 7965
  155.9020  140.1042  157.1343 H   0  0  0  0  0  0  0  0  0  0  0  0  # atno 8008 bound_to 7997
  154.4027  140.1291  156.4512 H   0  0  0  0  0  0  0  0  0  0  0  0  # atno 8009 bound_to 7997
  155.7411  140.3467  155.5107 H   0  0  0  0  0  0  0  0  0  0  0  0  # atno 8010 bound_to 7997
  140.2807  144.3160  150.6265 H   0  0  0  0  0  0  0  0  0  0  0  0  # atno 10167 bound_to 10162
  156.1076  130.4178  150.0687 H   0  0  0  0  0  0  0  0  0  0  0  0  # atno 10718 bound_to 10713
  153.8815  135.3044  155.3445 H   0  0  0  0  0  0  0  0  0  0  0  0  # atno 10763 bound_to 10752
  154.7759  135.4861  153.9747 H   0  0  0  0  0  0  0  0  0  0  0  0  # atno 10764 bound_to 10752
  153.1349  135.6812  153.9216 H   0  0  0  0  0  0  0  0  0  0  0  0  # atno 10765 bound_to 10752
  139.8832  134.8698  156.3486 H   0  0  0  0  0  0  0  0  0  0  0  0  # atno 11005 bound_to 11000
  145.1567  139.2482  143.5412 LP  0  0  0  0  0  0  0  0  0  0  0  0  # atno 17320 bound_to 7965
  146.3515  140.1284  142.8598 LP  0  0  0  0  0  0  0  0  0  0  0  0  # atno 17321 bound_to 7965
  140.5814  143.2172  151.7421 LP  0  0  0  0  0  0  0  0  0  0  0  0  # atno 17342 bound_to 10162
  139.4963  144.4074  152.0117 LP  0  0  0  0  0  0  0  0  0  0  0  0  # atno 17343 bound_to 10162
  156.8659  130.9507  151.3614 LP  0  0  0  0  0  0  0  0  0  0  0  0  # atno 17370 bound_to 10713
  157.6254  130.8688  149.9181 LP  0  0  0  0  0  0  0  0  0  0  0  0  # atno 17371 bound_to 10713
  140.9609  133.7389  156.0401 LP  0  0  0  0  0  0  0  0  0  0  0  0  # atno 17394 bound_to 11000
  140.7990  134.3531  157.5444 LP  0  0  0  0  0  0  0  0  0  0  0  0  # atno 17395 bound_to 11000

$$$$
