AV-unprocessed.smi:2331|AV-procd|sdf|9315|dock2
  -GOLD-   2272012533D 1   1.00000     0.00000
 Structure written by MMmdl.
 49 50  0  0  0  0  0  0  0  0  1 V2000
  143.7901  136.2861  151.8915 C   0  0  0  0  0  0  0  0  0  0  0  0
  145.1559  135.6866  151.4964 C   0  0  0  0  0  0  0  0  0  0  0  0
  145.7131  136.5437  150.3340 C   0  0  0  0  0  0  0  0  0  0  0  0
  146.1258  135.8079  152.7001 C   0  0  0  0  0  0  0  0  0  0  0  0
  146.5386  137.1896  152.9272 N   0  0  0  0  0  0  0  0  0  0  0  0
  147.1037  137.6689  154.0466 C   0  0  0  0  0  0  0  0  0  0  0  0
  147.3721  136.9566  155.0145 O   0  0  0  0  0  0  0  0  0  0  0  0
  147.4168  138.9855  153.9771 N   0  0  0  0  0  0  0  0  0  0  0  0
  146.7821  139.9187  153.0352 C   0  0  0  0  0  0  0  0  0  0  0  0
  147.1032  141.3299  153.5232 C   0  0  0  0  0  0  0  0  0  0  0  0
  147.5029  141.1463  154.9803 C   0  0  0  0  0  0  0  0  0  0  0  0
  148.0975  139.7281  155.0531 C   0  0  2  0  0  0  0  0  0  0  0  0
  149.6636  139.6674  154.9899 C   0  0  0  0  0  0  0  0  0  0  0  0
  150.2776  140.3073  156.2509 C   0  0  0  0  0  0  0  0  0  0  0  0
  150.2471  138.2503  154.8209 C   0  0  0  0  0  0  0  0  0  0  0  0
  150.1336  140.4294  153.8940 O   0  0  0  0  0  0  0  0  0  0  0  0
  144.9747  134.2071  151.1036 C   0  0  0  0  0  0  0  0  0  0  0  0
  143.7089  133.5719  151.0637 C   0  0  0  0  0  0  0  0  0  0  0  0
  143.6337  132.2197  150.6745 C   0  0  0  0  0  0  0  0  0  0  0  0
  144.7102  131.4828  150.3327 N   0  0  0  0  0  0  0  0  0  0  0  0
  145.9166  132.0839  150.3694 C   0  0  0  0  0  0  0  0  0  0  0  0
  146.1000  133.4299  150.7423 C   0  0  0  0  0  0  0  0  0  0  0  0
  143.8809  137.3408  152.1536 H   0  0  0  0  0  0  0  0  0  0  0  0
  143.3533  135.7805  152.7528 H   0  0  0  0  0  0  0  0  0  0  0  0
  143.0745  136.2126  151.0717 H   0  0  0  0  0  0  0  0  0  0  0  0
  145.8268  137.5864  150.6325 H   0  0  0  0  0  0  0  0  0  0  0  0
  145.0467  136.5306  149.4708 H   0  0  0  0  0  0  0  0  0  0  0  0
  146.6946  136.2009  150.0047 H   0  0  0  0  0  0  0  0  0  0  0  0
  145.6626  135.3888  153.5951 H   0  0  0  0  0  0  0  0  0  0  0  0
  147.0289  135.2223  152.5242 H   0  0  0  0  0  0  0  0  0  0  0  0
  146.3803  137.8377  152.1693 H   0  0  0  0  0  0  0  0  0  0  0  0
  147.1437  139.7633  152.0177 H   0  0  0  0  0  0  0  0  0  0  0  0
  145.7010  139.7669  153.0352 H   0  0  0  0  0  0  0  0  0  0  0  0
  147.9412  141.7348  152.9552 H   0  0  0  0  0  0  0  0  0  0  0  0
  146.2645  142.0162  153.4036 H   0  0  0  0  0  0  0  0  0  0  0  0
  148.1714  141.9334  155.3270 H   0  0  0  0  0  0  0  0  0  0  0  0
  146.6071  141.1909  155.6012 H   0  0  0  0  0  0  0  0  0  0  0  0
  147.7958  139.3004  156.0114 H   0  0  0  0  0  0  0  0  0  0  0  0
  149.9653  139.7763  157.1507 H   0  0  0  0  0  0  0  0  0  0  0  0
  149.9861  141.3504  156.3697 H   0  0  0  0  0  0  0  0  0  0  0  0
  151.3676  140.2815  156.2208 H   0  0  0  0  0  0  0  0  0  0  0  0
  149.9320  137.5943  155.6324 H   0  0  0  0  0  0  0  0  0  0  0  0
  151.3375  138.2677  154.8267 H   0  0  0  0  0  0  0  0  0  0  0  0
  149.9455  137.7924  153.8786 H   0  0  0  0  0  0  0  0  0  0  0  0
  149.7801  140.0615  153.0986 H   0  0  0  0  0  0  0  0  0  0  0  0
  142.7955  134.0869  151.3173 H   0  0  0  0  0  0  0  0  0  0  0  0
  142.6789  131.7168  150.6349 H   0  0  0  0  0  0  0  0  0  0  0  0
  146.7637  131.4748  150.0903 H   0  0  0  0  0  0  0  0  0  0  0  0
  147.0936  133.8526  150.7428 H   0  0  0  0  0  0  0  0  0  0  0  0
  1  2  1  0  0  0  0
  1 23  1  0  0  0  0
  1 24  1  0  0  0  0
  1 25  1  0  0  0  0
  2  3  1  0  0  0  0
  2  4  1  0  0  0  0
  2 17  1  0  0  0  0
  3 26  1  0  0  0  0
  3 27  1  0  0  0  0
  3 28  1  0  0  0  0
  4  5  1  0  0  0  0
  4 29  1  0  0  0  0
  4 30  1  0  0  0  0
  5  6  1  0  0  0  0
  5 31  1  0  0  0  0
  6  7  2  0  0  0  0
  6  8  1  0  0  0  0
  8 12  1  0  0  0  0
  8  9  1  0  0  0  0
  9 10  1  0  0  0  0
  9 32  1  0  0  0  0
  9 33  1  0  0  0  0
 10 11  1  0  0  0  0
 10 34  1  0  0  0  0
 10 35  1  0  0  0  0
 11 12  1  0  0  0  0
 11 36  1  0  0  0  0
 11 37  1  0  0  0  0
 12 13  1  0  0  0  0
 12 38  1  0  0  0  0
 13 14  1  0  0  0  0
 13 15  1  0  0  0  0
 13 16  1  0  0  0  0
 14 39  1  0  0  0  0
 14 40  1  0  0  0  0
 14 41  1  0  0  0  0
 15 42  1  0  0  0  0
 15 43  1  0  0  0  0
 15 44  1  0  0  0  0
 16 45  1  0  0  0  0
 17 22  1  0  0  0  0
 17 18  2  0  0  0  0
 18 19  1  0  0  0  0
 18 46  1  0  0  0  0
 19 20  2  0  0  0  0
 19 47  1  0  0  0  0
 20 21  1  0  0  0  0
 21 22  2  0  0  0  0
 21 48  1  0  0  0  0
 22 49  1  0  0  0  0
M  END
> <s_m_source_file>
AV-unprocessed.smi

> <i_m_source_file_index>
2331

> <i_lp_mmshare_version>
43012

> <i_f3d_flags>
0

> <s_epik_input>
W2NIXTFbY0hdbltjSF1bY0hdYzFDKFtDSDNdKShbQ0gzXSlbQ0gyXVtOSF1DKD1PKU4yW0NIMl1bQ0gyXVtDSDJdW0NASF0yQyhbQ0gzXSkoW0NIM10pW09IXQ==

> <s_epik_cmdline>
J2VwaWtfcHl0aG9uJywgJy1waCcsICc3LjAnLCAnLXRuJywgJzgnLCAnLW1hJywgJzIwMCcsICctbWV0YWxfYmluZGluZycsICctaW1hZScsICc8aW5maWxlLm1hZT4nLCAnLW9tYWUnLCAnPG91dGZpbGUubWFlPic=

> <r_epik_Ionization_Penalty>
0.0581496

> <r_epik_Ionization_Penalty_Charging>
0

> <r_epik_Ionization_Penalty_Neutral>
0.0581496

> <r_epik_State_Penalty>
0.0501956

> <r_epik_Charging_Adjusted_Penalty>
0.0501956

> <i_epik_Tot_Q>
0

> <i_epik_Tot_abs_Q>
0

> <r_epik_Metal_State_Penalty>
0.0456895

> <b_epik_Metal_Only>
0

> <s_lp_Force_Field>
OPLS_2005

> <r_lp_Energy>
50.0165

> <b_lp_Chiralities_Consistent>
1

> <s_lp_Variant>
AV-unprocessed.smi:2331-2

> <Gold.Version>
5.8.1

> <Gold.Id.Protein>
6NUR|6NUR_protein|mol2

> <Gold.PLP.Fitness>
44.5570

> <Gold.PLP.PLP>
-34.4754

> <Gold.PLP.part.hbond>
-2.9596

> <Gold.PLP.part.metal>
0.0000

> <Gold.PLP.part.buried>
1.5373

> <Gold.PLP.part.nonpolar>
-32.9590

> <Gold.PLP.part.repulsive>
0.2176

> <Gold.PLP.ligand.clash>
0.2901

> <Gold.PLP.ligand.torsion>
0.4761

> <Gold.PLP.Chemscore.Hbond>
1.6960

> <Gold.PLP.Chemscore.CHOScore>
1.9947

> <Gold.PLP.Chemscore.Metal>
0.0000

> <Gold.Chemscore.Hbonds>
donor molecule, donor type, donor heavy atom, donor atom, acceptor molecule, acceptor atom, score
      L1  H    16    45       P1  7957  1.00
      P1  H  7989  7998       L1    16  0.74
      L1  C    19    47       P1 10952  0.98
      L1  C    21    48       P1 10747  1.00

> <Gold.PLP.Chemscore.Internal.Correction>
0.2519

> <Gold.Rescore>
     Score         DG    S(hbond)    S(metal)    S(lipo)     H(rot)  DE(clash)    DE(int)     intcor
     15.25     -17.72       1.53        0.00     103.10       1.94       2.02       0.45       ----

> <Gold.Chemscore.Fitness>
15.2521

> <Gold.Chemscore.DG>
-17.7157

> <Gold.Chemscore.ZeroCoef>
-5.4800

> <Gold.Chemscore.Hbond>
1.5350

> <Gold.Chemscore.Metal>
0.0000

> <Gold.Chemscore.Lipo>
103.0984

> <Gold.Chemscore.Internal_Hbond>
0.0000

> <Gold.Chemscore.DEClash>
2.0179

> <Gold.Chemscore.DEInternal>
0.4457

> <Gold.Chemscore.Rot>
1.9350

> <Gold.Chemscore.Internal.Correction>
   9.000000E+99

> <Gold.Chemscore.Hbonds>
donor molecule, donor type, donor heavy atom, donor atom, acceptor molecule, acceptor atom, score
      L1  H    16    45       P1  7957  0.95
      P1  H  7989  7998       L1    16  0.29

> <Gold.Chemscore.Hbond.Weighted>
-5.1269

> <Gold.Chemscore.Metal.Weighted>
-0.0000

> <Gold.Chemscore.Lipo.Weighted>
-12.0625

> <Gold.Chemscore.Internal_Hbond.Weighted>
0.0000

> <Gold.Chemscore.DEClash.Weighted>
2.0179

> <Gold.Chemscore.DEInternal.Weighted>
0.4457

> <Gold.Chemscore.Rot.Weighted>
4.9536

> <Gold.Chemscore.Internal.Correction.Weighted>
   9.000000E+99

> <Gold.Protein.RotatedTorsions>
[ 6907 6896 6895 6894 ] final  -84.39 input  -60.11 | X-H torsion
[ 7974 7965 7964 7962 ] final   72.63 input  175.53 | X-H torsion
[ 8008 7997 7996 7995 ] final  -23.10 input   59.86 | X-H torsion
[ 10167 10162 10161 10158 ] final   11.86 input  -65.29 | X-H torsion
[ 10718 10713 10712 10709 ] final   91.58 input   66.30 | X-H torsion
[ 10763 10752 10751 10750 ] final   38.07 input  -60.55 | X-H torsion
[ 11005 11000 10999 10996 ] final   73.86 input  -57.11 | X-H torsion

> <Gold.Protein.ActiveResidues>
 VAL166  LYS551  ARG553  GLY616  TRP617  ASP618  TYR619  PRO620  LYS621  CYS622 
 ASP623  PHE694  ASN695  SER759  ASP760  ASP761  ALA762  ILE779  LEU786  VAL792 
 PHE793  MET794  SER795  GLU796  ALA797  LYS798  CYS799  TRP800  GLU811  SER814 

> <Gold.Protein.RotatedAtoms>
  150.6877  134.3366  159.4849 H   0  0  0  0  0  0  0  0  0  0  0  0  # atno 6907 bound_to 6896
  152.1224  134.9193  160.0571 H   0  0  0  0  0  0  0  0  0  0  0  0  # atno 6908 bound_to 6896
  152.0394  133.3936  159.4367 H   0  0  0  0  0  0  0  0  0  0  0  0  # atno 6909 bound_to 6896
  145.7509  139.2760  143.1431 H   0  0  0  0  0  0  0  0  0  0  0  0  # atno 7974 bound_to 7965
  154.4605  140.1990  156.0259 H   0  0  0  0  0  0  0  0  0  0  0  0  # atno 8008 bound_to 7997
  156.0830  140.3269  155.7690 H   0  0  0  0  0  0  0  0  0  0  0  0  # atno 8009 bound_to 7997
  155.5080  140.0559  157.2919 H   0  0  0  0  0  0  0  0  0  0  0  0  # atno 8010 bound_to 7997
  140.6105  143.8418  150.7060 H   0  0  0  0  0  0  0  0  0  0  0  0  # atno 10167 bound_to 10162
  157.6960  131.0412  150.3751 H   0  0  0  0  0  0  0  0  0  0  0  0  # atno 10718 bound_to 10713
  153.0014  135.6260  154.2246 H   0  0  0  0  0  0  0  0  0  0  0  0  # atno 10763 bound_to 10752
  154.1989  135.2805  155.2999 H   0  0  0  0  0  0  0  0  0  0  0  0  # atno 10764 bound_to 10752
  154.5700  135.5679  153.7145 H   0  0  0  0  0  0  0  0  0  0  0  0  # atno 10765 bound_to 10752
  139.9419  134.7383  156.1078 H   0  0  0  0  0  0  0  0  0  0  0  0  # atno 11005 bound_to 11000
  146.0357  140.8214  142.9854 LP  0  0  0  0  0  0  0  0  0  0  0  0  # atno 17320 bound_to 7965
  144.6850  140.2835  143.7288 LP  0  0  0  0  0  0  0  0  0  0  0  0  # atno 17321 bound_to 7965
  140.1985  143.3978  152.1809 LP  0  0  0  0  0  0  0  0  0  0  0  0  # atno 17342 bound_to 10162
  139.5357  144.7207  151.4901 LP  0  0  0  0  0  0  0  0  0  0  0  0  # atno 17343 bound_to 10162
  156.4171  130.3945  149.6850 LP  0  0  0  0  0  0  0  0  0  0  0  0  # atno 17370 bound_to 10713
  156.4114  130.7724  151.2737 LP  0  0  0  0  0  0  0  0  0  0  0  0  # atno 17371 bound_to 10713
  141.1056  133.6661  156.2857 LP  0  0  0  0  0  0  0  0  0  0  0  0  # atno 17394 bound_to 11000
  140.5931  134.5631  157.5503 LP  0  0  0  0  0  0  0  0  0  0  0  0  # atno 17395 bound_to 11000

$$$$
