#       Name:                AV-unprocessed.smi:2026
#       Creating user name   scv26
#       Creation time:       Fri Mar 27 10:46:13 2020


#       File generated by GOLD software.
#

@<TRIPOS>MOLECULE
AV-unprocessed.smi:2026
    53    55     1
SMALL
NO_CHARGES


@<TRIPOS>ATOM
      1 ****        -1.7179   4.5660   2.0360 C.3            1 S1                 0.0000
      2 ****        -1.4375   3.5549   0.9374 C.ar           1 S1                 0.0000
      3 ****        -1.6901   3.9266  -0.4031 C.ar           1 S1                 0.0000
      4 ****        -1.4230   2.9796  -1.3852 C.ar           1 S1                 0.0000
      5 ****        -1.5594   3.0331  -2.7746 N.pl3          1 S1                 1.0000
      6 ****        -1.1650   1.8469  -3.3168 C.2            1 S1                 0.0000
      7 ****        -0.7806   1.0378  -2.2931 N.pl3          1 S1                 0.0000
      8 ****        -0.2716  -0.3383  -2.3056 C.3            1 S1                 0.0000
      9 ****         1.2619  -0.3978  -2.1456 C.3            1 S1                 0.0000
     10 ****         1.8725   0.2039  -3.2688 O.3            1 S1                 0.0000
     11 ****         1.8165  -1.8287  -1.9905 C.3            1 S1                 0.0000
     12 ****         1.3178  -2.4981  -0.7824 N.am           1 S1                 0.0000
     13 ****         0.4045  -3.4860  -0.7793 C.2            1 S1                 0.0000
     14 ****        -0.1483  -3.9758  -1.7627 O.2            1 S1                 0.0000
     15 ****         0.1821  -3.8500   0.4903 N.am           1 S1                 0.0000
     16 ****         0.9657  -3.0877   1.4428 C.3            1 S1                 0.0000
     17 ****         0.0522  -2.2780   2.3804 C.3            1 S1                 0.0000
     18 ****         1.9325  -4.0025   2.2159 C.3            1 S1                 0.0000
     19 ****         1.7055  -2.1901   0.4630 C.2            1 S1                 0.0000
     20 ****         2.5126  -1.3231   0.7981 O.2            1 S1                 0.0000
     21 ****        -0.9231   1.7019  -1.0710 C.ar           1 S1                 0.0000
     22 ****        -0.6672   1.3194   0.2430 C.ar           1 S1                 0.0000
     23 ****        -0.9312   2.2678   1.2560 C.ar           1 S1                 0.0000
     24 ****        -0.6595   1.8786   2.6992 C.3            1 S1                 0.0000
     25 ****        -2.1113   5.4985   1.6301 H              1 S1                 0.0000
     26 ****        -0.8041   4.8004   2.5825 H              1 S1                 0.0000
     27 ****        -2.4520   4.1733   2.7399 H              1 S1                 0.0000
     28 ****        -2.0731   4.9054  -0.6530 H              1 S1                 0.0000
     29 ****        -1.1565   1.5954  -4.3676 H              1 S1                 0.0000
     30 ****        -0.7793  -0.8841  -1.5102 H              1 S1                 0.0000
     31 ****        -0.5793  -0.8033  -3.2433 H              1 S1                 0.0000
     32 ****         1.5581   0.1901  -1.2767 H              1 S1                 0.0000
     33 ****         1.6770  -0.3170  -4.0327 H              1 S1                 0.0000
     34 ****         1.5819  -2.4148  -2.8810 H              1 S1                 0.0000
     35 ****         2.9064  -1.7970  -1.9408 H              1 S1                 0.0000
     36 ****        -0.4631  -4.5750   0.7691 H              1 S1                 0.0000
     37 ****         0.6350  -1.6690   3.0725 H              1 S1                 0.0000
     38 ****        -0.5797  -2.9373   2.9761 H              1 S1                 0.0000
     39 ****        -0.6065  -1.6091   1.8253 H              1 S1                 0.0000
     40 ****         2.5287  -3.4338   2.9303 H              1 S1                 0.0000
     41 ****         2.6232  -4.5185   1.5469 H              1 S1                 0.0000
     42 ****         1.3886  -4.7641   2.7751 H              1 S1                 0.0000
     43 ****        -0.2778   0.3415   0.4824 H              1 S1                 0.0000
     44 ****        -0.2378   0.8757   2.7695 H              1 S1                 0.0000
     45 ****        -1.5823   1.8940   3.2794 H              1 S1                 0.0000
     46 ****         0.0500   2.5687   3.1562 H              1 S1                 0.0000
     47 ****        -1.8946   3.8198  -3.3155 H              1 S1                 0.0000
     48 ****         2.8624   0.2445  -3.1328 LP             1 S1                 0.0000
     49 ****         1.5146   1.1296  -3.3914 LP             1 S1                 0.0000
     50 ****         0.0702  -3.6390  -2.6785 LP             1 S1                 0.0000
     51 ****        -0.8163  -4.7109  -1.6464 LP             1 S1                 0.0000
     52 ****         2.9568  -0.7580   0.1029 LP             1 S1                 0.0000
     53 ****         2.7240  -1.1839   1.7656 LP             1 S1                 0.0000
@<TRIPOS>BOND
    1    1    2 1     
    2    1   25 1     
    3    1   26 1     
    4    1   27 1     
    5    2   23 ar    
    6    2    3 ar    
    7    3    4 ar    
    8    3   28 1     
    9    4   21 ar    
   10    4    5 1     
   11    5    6 2     
   12    5   47 1     
   13    6    7 1     
   14    6   29 1     
   15    7    8 1     
   16    7   21 1     
   17    8    9 1     
   18    8   30 1     
   19    8   31 1     
   20    9   10 1     
   21    9   11 1     
   22    9   32 1     
   23   10   33 1     
   24   11   12 1     
   25   11   34 1     
   26   11   35 1     
   27   12   19 am    
   28   12   13 am    
   29   13   14 2     
   30   13   15 am    
   31   15   16 1     
   32   15   36 1     
   33   16   17 1     
   34   16   18 1     
   35   16   19 1     
   36   17   37 1     
   37   17   38 1     
   38   17   39 1     
   39   18   40 1     
   40   18   41 1     
   41   18   42 1     
   42   19   20 2     
   43   21   22 ar    
   44   22   23 ar    
   45   22   43 1     
   46   23   24 1     
   47   24   44 1     
   48   24   45 1     
   49   24   46 1     
   50   10   48 1     
   51   10   49 1     
   52   14   50 1     
   53   14   51 1     
   54   20   52 1     
   55   20   53 1     
@<TRIPOS>SUBSTRUCTURE
      1 S1             1
@<TRIPOS>SET
LONE_PAIRS      STATIC     ATOMS    <user>   **** ""
6 48 49 50 51 52 53
DONOR_HYDROGENS      STATIC     ATOMS    <user>   **** ""
3 47 33 36
ATOM$BLUE        STATIC     ATOMS    COLORGROUP SYSTEM
6 48 49 50 51 52 53
ATOM$RED        STATIC     ATOMS    COLORGROUP SYSTEM
3 47 33 36
