AV-unprocessed.smi:3328|AV-procd|sdf|12791|dock4
  -GOLD-   2272019143D 1   1.00000     0.00000
 Structure written by MMmdl.
 41 42  0  0  0  0  0  0  0  0  2 V2000
  151.7716  141.7153  158.0497 C   0  0  0  0  0  0  0  0  0  0  0  0
  151.4173  140.9224  156.8251 C   0  0  0  0  0  0  0  0  0  0  0  0
  150.7006  141.3622  155.6762 C   0  0  0  0  0  0  0  0  0  0  0  0
  150.5465  140.4097  154.7710 N   0  0  0  0  0  0  0  0  0  0  0  0
  151.1591  139.3329  155.3075 N   0  0  0  0  0  0  0  0  0  0  0  0
  151.1641  138.0734  154.5855 C   0  0  0  0  0  0  0  0  0  0  0  0
  150.4111  136.9500  155.3312 C   0  0  2  0  0  0  0  0  0  0  0  0
  151.3025  136.3278  156.4145 C   0  0  0  0  0  0  0  0  0  0  0  0
  149.9625  135.8934  154.3955 N   0  3  0  0  0  0  0  0  0  0  0  0
  149.0505  134.8881  154.9800 C   0  0  0  0  0  0  0  0  0  0  0  0
  148.9091  133.6726  154.0521 C   0  0  0  0  0  0  0  0  0  0  0  0
  149.6083  132.5048  154.5810 N   0  0  0  0  0  0  0  0  0  0  0  0
  150.6957  132.6565  155.5330 C   0  0  0  0  0  0  0  0  0  0  0  0
  151.0641  131.2256  155.9519 C   0  0  0  0  0  0  0  0  0  0  0  0
  150.3598  130.3011  154.9524 C   0  0  0  0  0  0  0  0  0  0  0  0
  149.4042  131.2308  154.2243 C   0  0  0  0  0  0  0  0  0  0  0  0
  148.5677  130.8298  153.4164 O   0  0  0  0  0  0  0  0  0  0  0  0
  151.6991  139.6156  156.5440 C   0  0  0  0  0  0  0  0  0  0  0  0
  151.2367  142.6646  158.0866 H   0  0  0  0  0  0  0  0  0  0  0  0
  152.8369  141.9446  158.0849 H   0  0  0  0  0  0  0  0  0  0  0  0
  151.5275  141.1746  158.9641 H   0  0  0  0  0  0  0  0  0  0  0  0
  150.2837  142.3388  155.4781 H   0  0  0  0  0  0  0  0  0  0  0  0
  150.7344  138.2311  153.5945 H   0  0  0  0  0  0  0  0  0  0  0  0
  152.2040  137.7843  154.4278 H   0  0  0  0  0  0  0  0  0  0  0  0
  149.5410  137.3765  155.8338 H   0  0  0  0  0  0  0  0  0  0  0  0
  151.6239  137.0785  157.1374 H   0  0  0  0  0  0  0  0  0  0  0  0
  152.1977  135.8777  155.9835 H   0  0  0  0  0  0  0  0  0  0  0  0
  150.7698  135.5510  156.9642 H   0  0  0  0  0  0  0  0  0  0  0  0
  149.5000  136.3411  153.6168 H   0  0  0  0  0  0  0  0  0  0  0  0
  149.4357  134.5806  155.9528 H   0  0  0  0  0  0  0  0  0  0  0  0
  148.0727  135.3353  155.1552 H   0  0  0  0  0  0  0  0  0  0  0  0
  147.8548  133.4245  153.9173 H   0  0  0  0  0  0  0  0  0  0  0  0
  149.2987  133.9121  153.0615 H   0  0  0  0  0  0  0  0  0  0  0  0
  151.5373  133.1500  155.0449 H   0  0  0  0  0  0  0  0  0  0  0  0
  150.3925  133.2623  156.3882 H   0  0  0  0  0  0  0  0  0  0  0  0
  152.1440  131.0735  155.9552 H   0  0  0  0  0  0  0  0  0  0  0  0
  150.7030  131.0247  156.9615 H   0  0  0  0  0  0  0  0  0  0  0  0
  151.0651  129.8735  154.2393 H   0  0  0  0  0  0  0  0  0  0  0  0
  149.8260  129.4893  155.4474 H   0  0  0  0  0  0  0  0  0  0  0  0
  152.2253  138.8687  157.1202 H   0  0  0  0  0  0  0  0  0  0  0  0
  150.7758  135.4054  154.0482 H   0  0  0  0  0  0  0  0  0  0  0  0
  1  2  1  0  0  0  0
  1 19  1  0  0  0  0
  1 20  1  0  0  0  0
  1 21  1  0  0  0  0
  2 18  2  0  0  0  0
  2  3  1  0  0  0  0
  3  4  2  0  0  0  0
  3 22  1  0  0  0  0
  4  5  1  0  0  0  0
  5  6  1  0  0  0  0
  5 18  1  0  0  0  0
  6  7  1  0  0  0  0
  6 23  1  0  0  0  0
  6 24  1  0  0  0  0
  7  8  1  0  0  0  0
  7  9  1  0  0  0  0
  7 25  1  0  0  0  0
  8 26  1  0  0  0  0
  8 27  1  0  0  0  0
  8 28  1  0  0  0  0
  9 10  1  0  0  0  0
  9 29  1  0  0  0  0
  9 41  1  0  0  0  0
 10 11  1  0  0  0  0
 10 30  1  0  0  0  0
 10 31  1  0  0  0  0
 11 12  1  0  0  0  0
 11 32  1  0  0  0  0
 11 33  1  0  0  0  0
 12 16  1  0  0  0  0
 12 13  1  0  0  0  0
 13 14  1  0  0  0  0
 13 34  1  0  0  0  0
 13 35  1  0  0  0  0
 14 15  1  0  0  0  0
 14 36  1  0  0  0  0
 14 37  1  0  0  0  0
 15 16  1  0  0  0  0
 15 38  1  0  0  0  0
 15 39  1  0  0  0  0
 16 17  2  0  0  0  0
 18 40  1  0  0  0  0
M  CHG  1   9   1
M  END
> <s_m_source_file>
AV-unprocessed.smi

> <i_m_source_file_index>
3328

> <i_lp_mmshare_version>
43012

> <i_f3d_flags>
0

> <s_epik_input>
W0NIM11jMVtjSF1ubihbY0hdMSlbQ0gyXVtDQEhdKFtDSDNdKVtOSF1bQ0gyXVtDSDJdTjJbQ0gyXVtDSDJdW0NIMl1DMj1P

> <s_epik_cmdline>
J2VwaWtfcHl0aG9uJywgJy1waCcsICc3LjAnLCAnLXRuJywgJzgnLCAnLW1hJywgJzIwMCcsICctbWV0YWxfYmluZGluZycsICctaW1hZScsICc8aW5maWxlLm1hZT4nLCAnLW9tYWUnLCAnPG91dGZpbGUubWFlPic=

> <r_lp_tautomer_probability>
1

> <r_epik_Ionization_Penalty>
0.00826719

> <r_epik_Ionization_Penalty_Charging>
0.00825899

> <r_epik_Ionization_Penalty_Neutral>
8.19932e-06

> <r_epik_State_Penalty>
0.00621436

> <r_epik_Charging_Adjusted_Penalty>
0.0144734

> <i_epik_Tot_Q>
1

> <i_epik_Tot_abs_Q>
1

> <r_epik_Metal_State_Penalty>
0.00621509

> <b_epik_Metal_Only>
0

> <s_lp_Force_Field>
OPLS_2005

> <r_lp_Energy>
18.6505

> <b_lp_Chiralities_Consistent>
1

> <s_lp_Variant>
AV-unprocessed.smi:3328-1

> <Gold.Version>
5.8.1

> <Gold.Id.Protein>
6NUR|6NUR_protein|mol2

> <Gold.PLP.Fitness>
43.6328

> <Gold.PLP.PLP>
-34.4745

> <Gold.PLP.part.hbond>
-2.6754

> <Gold.PLP.part.metal>
0.0000

> <Gold.PLP.part.buried>
-3.8357

> <Gold.PLP.part.nonpolar>
-27.9547

> <Gold.PLP.part.repulsive>
0.2581

> <Gold.PLP.ligand.clash>
0.0000

> <Gold.PLP.ligand.torsion>
0.9328

> <Gold.PLP.Chemscore.Hbond>
3.0000

> <Gold.PLP.Chemscore.CHOScore>
0.6484

> <Gold.PLP.Chemscore.Metal>
0.0000

> <Gold.Chemscore.Hbonds>
donor molecule, donor type, donor heavy atom, donor atom, acceptor molecule, acceptor atom, score
      L1  H     9    29       P1  7948  1.86
      P1  H  7989  7998       L1     4  1.00
      L1  C     3    22       P1  8028  0.42

> <Gold.PLP.Chemscore.Internal.Correction>
0.0787

> <Gold.Rescore>
     Score         DG    S(hbond)    S(metal)    S(lipo)     H(rot)  DE(clash)    DE(int)     intcor
     12.20     -13.04       1.48        0.00      65.41       1.97       0.05       0.79       ----

> <Gold.Chemscore.Fitness>
12.1996

> <Gold.Chemscore.DG>
-13.0358

> <Gold.Chemscore.ZeroCoef>
-5.4800

> <Gold.Chemscore.Hbond>
1.4819

> <Gold.Chemscore.Metal>
0.0000

> <Gold.Chemscore.Lipo>
65.4119

> <Gold.Chemscore.Internal_Hbond>
0.0000

> <Gold.Chemscore.DEClash>
0.0472

> <Gold.Chemscore.DEInternal>
0.7890

> <Gold.Chemscore.Rot>
1.9714

> <Gold.Chemscore.Internal.Correction>
   9.000000E+99

> <Gold.Chemscore.Hbonds>
donor molecule, donor type, donor heavy atom, donor atom, acceptor molecule, acceptor atom, score
      L1  H     9    29       P1  7948  0.59
      P1  H  7989  7998       L1     4  0.15

> <Gold.Chemscore.Hbond.Weighted>
-4.9494

> <Gold.Chemscore.Metal.Weighted>
-0.0000

> <Gold.Chemscore.Lipo.Weighted>
-7.6532

> <Gold.Chemscore.Internal_Hbond.Weighted>
0.0000

> <Gold.Chemscore.DEClash.Weighted>
0.0472

> <Gold.Chemscore.DEInternal.Weighted>
0.7890

> <Gold.Chemscore.Rot.Weighted>
5.0468

> <Gold.Chemscore.Internal.Correction.Weighted>
   9.000000E+99

> <Gold.Protein.RotatedTorsions>
[ 6907 6896 6895 6894 ] final   58.53 input  -60.11 | X-H torsion
[ 7974 7965 7964 7962 ] final  -85.81 input  175.53 | X-H torsion
[ 8008 7997 7996 7995 ] final   28.92 input   59.86 | X-H torsion
[ 10167 10162 10161 10158 ] final  119.46 input  -65.29 | X-H torsion
[ 10718 10713 10712 10709 ] final -132.43 input   66.30 | X-H torsion
[ 10763 10752 10751 10750 ] final  -91.51 input  -60.55 | X-H torsion
[ 11005 11000 10999 10996 ] final   98.84 input  -57.11 | X-H torsion

> <Gold.Protein.ActiveResidues>
 VAL166  LYS551  ARG553  GLY616  TRP617  ASP618  TYR619  PRO620  LYS621  CYS622 
 ASP623  PHE694  ASN695  SER759  ASP760  ASP761  ALA762  ILE779  LEU786  VAL792 
 PHE793  MET794  SER795  GLU796  ALA797  LYS798  CYS799  TRP800  GLU811  SER814 

> <Gold.Protein.RotatedAtoms>
  152.3833  134.6557  160.0134 H   0  0  0  0  0  0  0  0  0  0  0  0  # atno 6907 bound_to 6896
  151.6813  133.3306  159.3228 H   0  0  0  0  0  0  0  0  0  0  0  0  # atno 6908 bound_to 6896
  150.7765  134.6714  159.6438 H   0  0  0  0  0  0  0  0  0  0  0  0  # atno 6909 bound_to 6896
  145.4882  140.9554  143.1826 H   0  0  0  0  0  0  0  0  0  0  0  0  # atno 7974 bound_to 7965
  155.0664  140.3195  155.4644 H   0  0  0  0  0  0  0  0  0  0  0  0  # atno 8008 bound_to 7997
  156.2801  140.2120  156.5736 H   0  0  0  0  0  0  0  0  0  0  0  0  # atno 8009 bound_to 7997
  154.7090  140.0500  157.0519 H   0  0  0  0  0  0  0  0  0  0  0  0  # atno 8010 bound_to 7997
  139.6044  144.7066  151.2986 H   0  0  0  0  0  0  0  0  0  0  0  0  # atno 10167 bound_to 10162
  156.2345  130.7058  151.0893 H   0  0  0  0  0  0  0  0  0  0  0  0  # atno 10718 bound_to 10713
  154.6768  135.5265  153.8210 H   0  0  0  0  0  0  0  0  0  0  0  0  # atno 10763 bound_to 10752
  153.0537  135.6542  154.0639 H   0  0  0  0  0  0  0  0  0  0  0  0  # atno 10764 bound_to 10752
  154.0531  135.2967  155.3317 H   0  0  0  0  0  0  0  0  0  0  0  0  # atno 10765 bound_to 10752
  139.8771  134.9068  156.4516 H   0  0  0  0  0  0  0  0  0  0  0  0  # atno 11005 bound_to 11000
  144.7849  139.6448  143.7138 LP  0  0  0  0  0  0  0  0  0  0  0  0  # atno 17320 bound_to 7965
  146.2300  139.5795  142.9562 LP  0  0  0  0  0  0  0  0  0  0  0  0  # atno 17321 bound_to 7965
  140.7274  143.6964  150.7880 LP  0  0  0  0  0  0  0  0  0  0  0  0  # atno 17342 bound_to 10162
  140.0546  143.5215  152.2657 LP  0  0  0  0  0  0  0  0  0  0  0  0  # atno 17343 bound_to 10162
  157.7148  131.0715  150.6368 LP  0  0  0  0  0  0  0  0  0  0  0  0  # atno 17370 bound_to 10713
  156.6437  130.4466  149.5743 LP  0  0  0  0  0  0  0  0  0  0  0  0  # atno 17371 bound_to 10713
  140.8928  133.7836  155.9591 LP  0  0  0  0  0  0  0  0  0  0  0  0  # atno 17394 bound_to 11000
  140.8735  134.2697  157.5179 LP  0  0  0  0  0  0  0  0  0  0  0  0  # atno 17395 bound_to 11000

$$$$
