#       Name:                AV-unprocessed.smi:69
#       Creating user name   scv26
#       Creation time:       Thu Mar 26 16:55:44 2020


#       File generated by GOLD software.
#

@<TRIPOS>MOLECULE
AV-unprocessed.smi:69
    43    45     1
SMALL
NO_CHARGES


@<TRIPOS>ATOM
      1 ****        -5.1946   0.6388   0.2498 N.pl3          1 S1                 0.0000
      2 ****        -3.9645   1.1242   0.0326 C.ar           1 S1                 0.0000
      3 ****        -3.8452   2.3258  -0.5799 N.ar           1 S1                 0.0000
      4 ****        -2.6284   2.8342  -0.8029 C.ar           1 S1                 0.0000
      5 ****        -1.4356   2.3131  -0.5005 N.ar           1 S1                 0.0000
      6 ****        -1.5612   1.1002   0.1140 C.ar           1 S1                 0.0000
      7 ****        -2.7834   0.4403   0.4164 C.ar           1 S1                 0.0000
      8 ****        -2.5227  -0.7692   1.0462 N.2            1 S1                 0.0000
      9 ****        -1.2185  -0.8145   1.1141 C.2            1 S1                 0.0000
     10 ****        -0.5603   0.2675   0.5651 N.pl3          1 S1                 0.0000
     11 ****         0.9087   0.5510   0.4857 C.3            1 S1                 0.0000
     12 ****         1.5880  -0.4841   1.1311 O.3            1 S1                 0.0000
     13 ****         2.0025  -1.4496   0.1706 C.3            1 S1                 0.0000
     14 ****         3.0854  -2.3812   0.7419 C.3            1 S1                 0.0000
     15 ****         2.4843  -3.4275   1.4750 O.3            1 S1                 0.0000
     16 ****         2.4391  -0.5572  -0.9969 C.3            1 S1                 0.0000
     17 ****         3.7445  -0.0488  -0.7726 O.3            1 S1                 0.0000
     18 ****         1.3705   0.5359  -0.9852 C.3            1 S1                 0.0000
     19 ****         1.8590   1.7857  -1.4361 O.3            1 S1                 0.0000
     20 ****         1.0409   1.5006   1.0062 H              1 S1                 0.0000
     21 ****         1.1385  -2.0347  -0.1508 H              1 S1                 0.0000
     22 ****         2.4452  -1.1012  -1.9420 H              1 S1                 0.0000
     23 ****         0.5399   0.2318  -1.6245 H              1 S1                 0.0000
     24 ****        -5.3080  -0.2546   0.7069 H              1 S1                 0.0000
     25 ****        -6.0048   1.1693  -0.0363 H              1 S1                 0.0000
     26 ****        -2.6076   3.7961  -1.2937 H              1 S1                 0.0000
     27 ****        -0.7038  -1.6472   1.5716 H              1 S1                 0.0000
     28 ****         3.6547  -2.8363  -0.0691 H              1 S1                 0.0000
     29 ****         3.7903  -1.8362   1.3704 H              1 S1                 0.0000
     30 ****         3.1660  -3.9908   1.8081 H              1 S1                 0.0000
     31 ****         3.9254   0.6039  -1.4322 H              1 S1                 0.0000
     32 ****         1.1566   2.4161  -1.3816 H              1 S1                 0.0000
     33 ****        -4.6612   2.8295  -0.8636 LP             1 S1                 0.0000
     34 ****        -0.5612   2.7556  -0.6993 LP             1 S1                 0.0000
     35 ****        -3.1805  -1.4483   1.3722 LP             1 S1                 0.0000
     36 ****         0.9811  -0.9164   1.7980 LP             1 S1                 0.0000
     37 ****         2.3901  -0.1150   1.6004 LP             1 S1                 0.0000
     38 ****         1.8757  -3.9509   0.8785 LP             1 S1                 0.0000
     39 ****         1.9589  -3.0474   2.2362 LP             1 S1                 0.0000
     40 ****         4.4122  -0.7903  -0.8383 LP             1 S1                 0.0000
     41 ****         3.7947   0.3655   0.1361 LP             1 S1                 0.0000
     42 ****         2.1688   1.7057  -2.3836 LP             1 S1                 0.0000
     43 ****         2.6217   2.0786  -0.8596 LP             1 S1                 0.0000
@<TRIPOS>BOND
    1    1    2 1     
    2    1   24 1     
    3    1   25 1     
    4    2    7 ar    
    5    2    3 ar    
    6    3    4 ar    
    7    4    5 ar    
    8    4   26 1     
    9    5    6 ar    
   10    6   10 1     
   11    6    7 ar    
   12    7    8 1     
   13    8    9 2     
   14    9   10 1     
   15    9   27 1     
   16   10   11 1     
   17   11   20 1     
   18   11   18 1     
   19   11   12 1     
   20   12   13 1     
   21   13   21 1     
   22   13   14 1     
   23   13   16 1     
   24   14   15 1     
   25   14   28 1     
   26   14   29 1     
   27   15   30 1     
   28   16   22 1     
   29   16   17 1     
   30   16   18 1     
   31   17   31 1     
   32   18   23 1     
   33   18   19 1     
   34   19   32 1     
   35    3   33 1     
   36    5   34 1     
   37    8   35 1     
   38   12   36 1     
   39   12   37 1     
   40   15   38 1     
   41   15   39 1     
   42   17   40 1     
   43   17   41 1     
   44   19   42 1     
   45   19   43 1     
@<TRIPOS>SUBSTRUCTURE
      1 S1             1
@<TRIPOS>SET
LONE_PAIRS      STATIC     ATOMS    <user>   **** ""
11 33 34 35 36 37 38 39 40 41 42 43
DONOR_HYDROGENS      STATIC     ATOMS    <user>   **** ""
5 24 25 30 31 32
ATOM$BLUE        STATIC     ATOMS    COLORGROUP SYSTEM
11 33 34 35 36 37 38 39 40 41 42 43
ATOM$RED        STATIC     ATOMS    COLORGROUP SYSTEM
5 24 25 30 31 32
