AV-unprocessed.smi:2804|AV-procd|sdf|10809|dock6
  -GOLD-   2272015243D 1   1.00000     0.00000
 Structure written by MMmdl.
 35 36  0  0  0  0  0  0  0  0  1 V2000
  149.0128  141.7026  154.8765 C   0  0  0  0  0  0  0  0  0  0  0  0
  149.3641  141.6058  156.3643 C   0  0  0  0  0  0  0  0  0  0  0  0
  150.6711  142.3370  156.7083 C   0  0  0  0  0  0  0  0  0  0  0  0
  151.1668  141.9394  158.0232 N   0  0  0  0  0  0  0  0  0  0  0  0
  151.3236  140.6740  158.4776 C   0  0  0  0  0  0  0  0  0  0  0  0
  151.0883  139.6436  157.8467 O   0  0  0  0  0  0  0  0  0  0  0  0
  151.7672  140.7378  159.7553 N   0  0  0  0  0  0  0  0  0  0  0  0
  152.0487  139.6029  160.6334 C   0  0  0  0  0  0  0  0  0  0  0  0
  153.5221  139.5878  161.0926 C   0  0  2  0  0  0  0  0  0  0  0  0
  154.3405  139.3560  159.9622 O   0  0  0  0  0  0  0  0  0  0  0  0
  153.8115  138.4808  162.1252 C   0  0  0  0  0  0  0  0  0  0  0  0
  153.6029  137.2807  161.5831 F   0  0  0  0  0  0  0  0  0  0  0  0
  155.0884  138.5438  162.5023 F   0  0  0  0  0  0  0  0  0  0  0  0
  153.0406  138.6237  163.2040 F   0  0  0  0  0  0  0  0  0  0  0  0
  151.8806  142.0832  160.1353 C   0  0  0  0  0  0  0  0  0  0  0  0
  152.2743  142.6743  161.3490 C   0  0  0  0  0  0  0  0  0  0  0  0
  152.2684  144.0875  161.4121 C   0  0  0  0  0  0  0  0  0  0  0  0
  151.8770  144.8641  160.2906 C   0  0  0  0  0  0  0  0  0  0  0  0
  151.4840  144.2439  159.0816 C   0  0  0  0  0  0  0  0  0  0  0  0
  151.5011  142.8386  159.0454 C   0  0  0  0  0  0  0  0  0  0  0  0
  148.0804  141.1796  154.6629 H   0  0  0  0  0  0  0  0  0  0  0  0
  149.7932  141.2580  154.2584 H   0  0  0  0  0  0  0  0  0  0  0  0
  148.8902  142.7412  154.5682 H   0  0  0  0  0  0  0  0  0  0  0  0
  148.5449  142.0206  156.9527 H   0  0  0  0  0  0  0  0  0  0  0  0
  149.4449  140.5552  156.6457 H   0  0  0  0  0  0  0  0  0  0  0  0
  151.4273  142.1284  155.9498 H   0  0  0  0  0  0  0  0  0  0  0  0
  150.5162  143.4163  156.6910 H   0  0  0  0  0  0  0  0  0  0  0  0
  151.3942  139.6893  161.5018 H   0  0  0  0  0  0  0  0  0  0  0  0
  151.7758  138.6611  160.1565 H   0  0  0  0  0  0  0  0  0  0  0  0
  153.7945  140.5503  161.5278 H   0  0  0  0  0  0  0  0  0  0  0  0
  155.0002  138.7211  160.1962 H   0  0  0  0  0  0  0  0  0  0  0  0
  152.5659  142.0803  162.2022 H   0  0  0  0  0  0  0  0  0  0  0  0
  152.5627  144.5815  162.3262 H   0  0  0  0  0  0  0  0  0  0  0  0
  151.8769  145.9419  160.3615 H   0  0  0  0  0  0  0  0  0  0  0  0
  151.1811  144.8293  158.2261 H   0  0  0  0  0  0  0  0  0  0  0  0
  1  2  1  0  0  0  0
  1 21  1  0  0  0  0
  1 22  1  0  0  0  0
  1 23  1  0  0  0  0
  2  3  1  0  0  0  0
  2 24  1  0  0  0  0
  2 25  1  0  0  0  0
  3  4  1  0  0  0  0
  3 26  1  0  0  0  0
  3 27  1  0  0  0  0
  4 20  1  0  0  0  0
  4  5  1  0  0  0  0
  5  6  2  0  0  0  0
  5  7  1  0  0  0  0
  7  8  1  0  0  0  0
  7 15  1  0  0  0  0
  8  9  1  0  0  0  0
  8 28  1  0  0  0  0
  8 29  1  0  0  0  0
  9 10  1  0  0  0  0
  9 11  1  0  0  0  0
  9 30  1  0  0  0  0
 10 31  1  0  0  0  0
 11 12  1  0  0  0  0
 11 13  1  0  0  0  0
 11 14  1  0  0  0  0
 15 20  2  0  0  0  0
 15 16  1  0  0  0  0
 16 17  2  0  0  0  0
 16 32  1  0  0  0  0
 17 18  1  0  0  0  0
 17 33  1  0  0  0  0
 18 19  2  0  0  0  0
 18 34  1  0  0  0  0
 19 20  1  0  0  0  0
 19 35  1  0  0  0  0
M  END
> <s_m_source_file>
AV-unprocessed.smi

> <i_m_source_file_index>
2804

> <i_lp_mmshare_version>
43012

> <i_f3d_flags>
0

> <s_epik_input>
W2NIXTFbY0hdW2NIXVtjSF1jKGMxMiluKFtDSDJdW0NIMl1bQ0gzXSljKD1PKW4yW0NIMl1bQ0BIXShbT0hdKUMoRikoRilG

> <s_epik_cmdline>
J2VwaWtfcHl0aG9uJywgJy1waCcsICc3LjAnLCAnLXRuJywgJzgnLCAnLW1hJywgJzIwMCcsICctbWV0YWxfYmluZGluZycsICctaW1hZScsICc8aW5maWxlLm1hZT4nLCAnLW9tYWUnLCAnPG91dGZpbGUubWFlPic=

> <r_epik_Ionization_Penalty>
0.0117937

> <r_epik_Ionization_Penalty_Charging>
3.30828e-09

> <r_epik_Ionization_Penalty_Neutral>
0.0117937

> <r_epik_State_Penalty>
0.00909547

> <r_epik_Charging_Adjusted_Penalty>
0.00909547

> <i_epik_Tot_Q>
0

> <i_epik_Tot_abs_Q>
0

> <r_epik_Metal_State_Penalty>
0.00909547

> <b_epik_Metal_Only>
0

> <s_lp_Force_Field>
OPLS_2005

> <r_lp_Energy>
41.5992

> <b_lp_Chiralities_Consistent>
1

> <s_lp_Variant>
AV-unprocessed.smi:2804-1

> <Gold.Version>
5.8.1

> <Gold.Id.Protein>
6NUR|6NUR_protein|mol2

> <Gold.PLP.Fitness>
44.2630

> <Gold.PLP.PLP>
-41.5552

> <Gold.PLP.part.hbond>
-1.0000

> <Gold.PLP.part.metal>
0.0000

> <Gold.PLP.part.buried>
-4.2987

> <Gold.PLP.part.nonpolar>
-34.8310

> <Gold.PLP.part.repulsive>
0.0000

> <Gold.PLP.ligand.clash>
0.0000

> <Gold.PLP.ligand.torsion>
0.1610

> <Gold.PLP.Chemscore.Hbond>
1.0000

> <Gold.PLP.Chemscore.CHOScore>
0.0000

> <Gold.PLP.Chemscore.Metal>
0.0000

> <Gold.PLP.Chemscore.Internal.Correction>
0.0298

> <Gold.Rescore>
     Score         DG    S(hbond)    S(metal)    S(lipo)     H(rot)  DE(clash)    DE(int)     intcor
     15.49     -15.67       0.98        0.00     109.65       2.32       0.02       0.16       ----

> <Gold.Chemscore.Fitness>
15.4852

> <Gold.Chemscore.DG>
-15.6665

> <Gold.Chemscore.ZeroCoef>
-5.4800

> <Gold.Chemscore.Hbond>
0.9833

> <Gold.Chemscore.Metal>
0.0000

> <Gold.Chemscore.Lipo>
109.6501

> <Gold.Chemscore.Internal_Hbond>
0.0000

> <Gold.Chemscore.DEClash>
0.0218

> <Gold.Chemscore.DEInternal>
0.1596

> <Gold.Chemscore.Rot>
2.3152

> <Gold.Chemscore.Internal.Correction>
   9.000000E+99

> <Gold.Chemscore.Hbond.Weighted>
-3.2843

> <Gold.Chemscore.Metal.Weighted>
-0.0000

> <Gold.Chemscore.Lipo.Weighted>
-12.8291

> <Gold.Chemscore.Internal_Hbond.Weighted>
0.0000

> <Gold.Chemscore.DEClash.Weighted>
0.0218

> <Gold.Chemscore.DEInternal.Weighted>
0.1596

> <Gold.Chemscore.Rot.Weighted>
5.9268

> <Gold.Chemscore.Internal.Correction.Weighted>
   9.000000E+99

> <Gold.Protein.RotatedTorsions>
[ 6907 6896 6895 6894 ] final  145.72 input  -60.11 | X-H torsion
[ 7974 7965 7964 7962 ] final  105.33 input  175.53 | X-H torsion
[ 8008 7997 7996 7995 ] final -139.27 input   59.86 | X-H torsion
[ 10167 10162 10161 10158 ] final   57.72 input  -65.29 | X-H torsion
[ 10718 10713 10712 10709 ] final -144.00 input   66.30 | X-H torsion
[ 10763 10752 10751 10750 ] final -140.93 input  -60.55 | X-H torsion
[ 11005 11000 10999 10996 ] final  -15.02 input  -57.11 | X-H torsion

> <Gold.Protein.ActiveResidues>
 VAL166  LYS551  ARG553  GLY616  TRP617  ASP618  TYR619  PRO620  LYS621  CYS622 
 ASP623  PHE694  ASN695  SER759  ASP760  ASP761  ALA762  ILE779  LEU786  VAL792 
 PHE793  MET794  SER795  GLU796  ALA797  LYS798  CYS799  TRP800  GLU811  SER814 

> <Gold.Protein.RotatedAtoms>
  152.1772  133.4683  159.4939 H   0  0  0  0  0  0  0  0  0  0  0  0  # atno 6907 bound_to 6896
  150.6929  134.1878  159.4282 H   0  0  0  0  0  0  0  0  0  0  0  0  # atno 6908 bound_to 6896
  151.9788  135.0039  160.0607 H   0  0  0  0  0  0  0  0  0  0  0  0  # atno 6909 bound_to 6896
  145.3211  139.2512  143.3711 H   0  0  0  0  0  0  0  0  0  0  0  0  # atno 7974 bound_to 7965
  155.4422  140.0532  157.3009 H   0  0  0  0  0  0  0  0  0  0  0  0  # atno 8008 bound_to 7997
  154.4813  140.2082  155.9714 H   0  0  0  0  0  0  0  0  0  0  0  0  # atno 8009 bound_to 7997
  156.1210  140.3188  155.8213 H   0  0  0  0  0  0  0  0  0  0  0  0  # atno 8010 bound_to 7997
  140.1949  144.4048  150.6554 H   0  0  0  0  0  0  0  0  0  0  0  0  # atno 10167 bound_to 10162
  156.3648  130.7757  151.1929 H   0  0  0  0  0  0  0  0  0  0  0  0  # atno 10718 bound_to 10713
  154.8562  135.3539  154.5786 H   0  0  0  0  0  0  0  0  0  0  0  0  # atno 10763 bound_to 10752
  153.6397  135.6999  153.5250 H   0  0  0  0  0  0  0  0  0  0  0  0  # atno 10764 bound_to 10752
  153.2981  135.4214  155.1187 H   0  0  0  0  0  0  0  0  0  0  0  0  # atno 10765 bound_to 10752
  140.7923  133.8278  155.9392 H   0  0  0  0  0  0  0  0  0  0  0  0  # atno 11005 bound_to 11000
  146.3082  140.3768  142.8680 LP  0  0  0  0  0  0  0  0  0  0  0  0  # atno 17320 bound_to 7965
  144.8939  140.7558  143.5909 LP  0  0  0  0  0  0  0  0  0  0  0  0  # atno 17321 bound_to 7965
  140.6430  143.2207  151.6247 LP  0  0  0  0  0  0  0  0  0  0  0  0  # atno 17342 bound_to 10162
  139.5241  144.3115  152.0989 LP  0  0  0  0  0  0  0  0  0  0  0  0  # atno 17343 bound_to 10162
  157.7477  131.0389  150.4527 LP  0  0  0  0  0  0  0  0  0  0  0  0  # atno 17370 bound_to 10713
  156.4744  130.4060  149.6498 LP  0  0  0  0  0  0  0  0  0  0  0  0  # atno 17371 bound_to 10713
  140.9377  134.1941  157.4820 LP  0  0  0  0  0  0  0  0  0  0  0  0  # atno 17394 bound_to 11000
  139.8730  134.9859  156.5301 LP  0  0  0  0  0  0  0  0  0  0  0  0  # atno 17395 bound_to 11000

$$$$
