AV-unprocessed.smi:2781|AV-procd|sdf|10719|dock6
  -GOLD-   2272015153D 1   1.00000     0.00000
 Structure written by MMmdl.
 35 38  0  0  0  0  0  0  0  0  1 V2000
  144.4620  135.5583  152.5262 O   0  0  0  0  0  0  0  0  0  0  0  0
  144.0321  134.6098  153.1836 C   0  0  0  0  0  0  0  0  0  0  0  0
  142.8259  134.5572  153.7757 N   0  0  0  0  0  0  0  0  0  0  0  0
  141.7939  135.5328  153.7551 C   0  0  0  0  0  0  0  0  0  0  0  0
  142.2197  136.8469  153.4555 C   0  0  0  0  0  0  0  0  0  0  0  0
  141.2740  137.8900  153.4156 C   0  0  0  0  0  0  0  0  0  0  0  0
  139.9254  137.5895  153.6764 C   0  0  0  0  0  0  0  0  0  0  0  0
  138.9807  138.5590  153.6496 F   0  0  0  0  0  0  0  0  0  0  0  0
  139.5838  136.2557  153.9661 C   0  0  0  0  0  0  0  0  0  0  0  0
  140.4894  135.2551  154.0047 N   0  0  0  0  0  0  0  0  0  0  0  0
  144.7224  133.4823  153.3997 N   0  0  0  0  0  0  0  0  0  0  0  0
  146.0362  133.2011  152.9188 C   0  0  2  0  0  0  0  0  0  0  0  0
  146.3928  133.3625  151.4527 C   0  0  2  0  0  0  0  0  0  0  0  0
  145.5399  133.2166  150.1872 C   0  0  2  0  0  0  0  0  0  0  0  0
  144.0332  133.0668  150.4797 C   0  0  0  0  0  0  0  0  0  0  0  0
  143.9568  131.6577  151.1069 C   0  0  0  0  0  0  0  0  0  0  0  0
  145.4309  131.2056  151.0835 C   0  0  1  0  0  0  0  0  0  0  0  0
  145.8796  131.7959  149.7511 C   0  0  0  0  0  0  0  0  0  0  0  0
  146.3161  131.9704  152.0750 C   0  0  2  0  0  0  0  0  0  0  0  0
  142.6172  133.7159  154.2927 H   0  0  0  0  0  0  0  0  0  0  0  0
  143.2606  137.0588  153.2579 H   0  0  0  0  0  0  0  0  0  0  0  0
  141.5789  138.9010  153.1894 H   0  0  0  0  0  0  0  0  0  0  0  0
  138.5590  135.9839  154.1724 H   0  0  0  0  0  0  0  0  0  0  0  0
  144.2852  132.7591  153.9519 H   0  0  0  0  0  0  0  0  0  0  0  0
  146.8407  133.4573  153.6069 H   0  0  0  0  0  0  0  0  0  0  0  0
  147.3959  133.7347  151.2527 H   0  0  0  0  0  0  0  0  0  0  0  0
  145.7715  133.9848  149.4490 H   0  0  0  0  0  0  0  0  0  0  0  0
  143.6390  133.8592  151.1144 H   0  0  0  0  0  0  0  0  0  0  0  0
  143.4626  133.0936  149.5503 H   0  0  0  0  0  0  0  0  0  0  0  0
  143.5175  131.6364  152.1031 H   0  0  0  0  0  0  0  0  0  0  0  0
  143.3503  131.0024  150.4803 H   0  0  0  0  0  0  0  0  0  0  0  0
  145.5629  130.1268  151.1681 H   0  0  0  0  0  0  0  0  0  0  0  0
  145.3006  131.4455  148.8943 H   0  0  0  0  0  0  0  0  0  0  0  0
  146.9422  131.6484  149.5488 H   0  0  0  0  0  0  0  0  0  0  0  0
  147.2720  131.4836  152.2599 H   0  0  0  0  0  0  0  0  0  0  0  0
  1  2  2  0  0  0  0
  2  3  1  0  0  0  0
  2 11  1  0  0  0  0
  3  4  1  0  0  0  0
  3 20  1  0  0  0  0
  4 10  1  0  0  0  0
  4  5  2  0  0  0  0
  5  6  1  0  0  0  0
  5 21  1  0  0  0  0
  6  7  2  0  0  0  0
  6 22  1  0  0  0  0
  7  8  1  0  0  0  0
  7  9  1  0  0  0  0
  9 10  2  0  0  0  0
  9 23  1  0  0  0  0
 11 12  1  0  0  0  0
 11 24  1  0  0  0  0
 12 19  1  0  0  0  0
 12 13  1  0  0  0  0
 12 25  1  0  0  0  0
 13 19  1  0  0  0  0
 13 14  1  0  0  0  0
 13 26  1  0  0  0  0
 14 18  1  0  0  0  0
 14 15  1  0  0  0  0
 14 27  1  0  0  0  0
 15 16  1  0  0  0  0
 15 28  1  0  0  0  0
 15 29  1  0  0  0  0
 16 17  1  0  0  0  0
 16 30  1  0  0  0  0
 16 31  1  0  0  0  0
 17 18  1  0  0  0  0
 17 19  1  0  0  0  0
 17 32  1  0  0  0  0
 18 33  1  0  0  0  0
 18 34  1  0  0  0  0
 19 35  1  0  0  0  0
M  END
> <s_m_source_file>
AV-unprocessed.smi

> <i_m_source_file_index>
2781

> <i_lp_mmshare_version>
43012

> <i_f3d_flags>
0

> <s_epik_input>
bjFbY0hdYyhGKVtjSF1bY0hdYzFbTkhdQyg9TylbTkhdW0NASF0yW0NAQEhdM1tDQEhdKFtDSDJdNClbQ0gyXVtDSDJdW0NASF00W0NASF0yMw==

> <s_epik_cmdline>
J2VwaWtfcHl0aG9uJywgJy1waCcsICc3LjAnLCAnLXRuJywgJzgnLCAnLW1hJywgJzIwMCcsICctbWV0YWxfYmluZGluZycsICctaW1hZScsICc8aW5maWxlLm1hZT4nLCAnLW9tYWUnLCAnPG91dGZpbGUubWFlPic=

> <r_lp_tautomer_probability>
1

> <r_epik_Ionization_Penalty>
4.05776e-05

> <r_epik_Ionization_Penalty_Charging>
0

> <r_epik_Ionization_Penalty_Neutral>
4.05776e-05

> <r_epik_State_Penalty>
-0

> <r_epik_Charging_Adjusted_Penalty>
0

> <i_epik_Tot_Q>
0

> <i_epik_Tot_abs_Q>
0

> <r_epik_Metal_State_Penalty>
-0

> <b_epik_Metal_Only>
0

> <s_lp_Force_Field>
OPLS_2005

> <r_lp_Energy>
85.3989

> <b_lp_Chiralities_Consistent>
1

> <s_lp_Variant>
AV-unprocessed.smi:2781-3

> <Gold.Version>
5.8.1

> <Gold.Id.Protein>
6NUR|6NUR_protein|mol2

> <Gold.PLP.Fitness>
47.4328

> <Gold.PLP.PLP>
-38.9404

> <Gold.PLP.part.hbond>
-3.7437

> <Gold.PLP.part.metal>
0.0000

> <Gold.PLP.part.buried>
-5.9700

> <Gold.PLP.part.nonpolar>
-30.8032

> <Gold.PLP.part.repulsive>
0.2869

> <Gold.PLP.ligand.clash>
0.0690

> <Gold.PLP.ligand.torsion>
0.1431

> <Gold.PLP.Chemscore.Hbond>
2.9250

> <Gold.PLP.Chemscore.CHOScore>
0.0000

> <Gold.PLP.Chemscore.Metal>
0.0000

> <Gold.Chemscore.Hbonds>
donor molecule, donor type, donor heavy atom, donor atom, acceptor molecule, acceptor atom, score
      L1  H     3    20       P1 10957  1.00
      L1  H    11    24       P1 10957  0.91
      P1  H 11000 11005       L1    10  1.00

> <Gold.PLP.Chemscore.Internal.Correction>
0.0726

> <Gold.Rescore>
     Score         DG    S(hbond)    S(metal)    S(lipo)     H(rot)  DE(clash)    DE(int)     intcor
     20.36     -21.95       2.55        0.00      89.85       1.00       0.00       1.59       ----

> <Gold.Chemscore.Fitness>
20.3603

> <Gold.Chemscore.DG>
-21.9510

> <Gold.Chemscore.ZeroCoef>
-5.4800

> <Gold.Chemscore.Hbond>
2.5506

> <Gold.Chemscore.Metal>
0.0000

> <Gold.Chemscore.Lipo>
89.8463

> <Gold.Chemscore.Internal_Hbond>
0.0000

> <Gold.Chemscore.DEClash>
0.0000

> <Gold.Chemscore.DEInternal>
1.5907

> <Gold.Chemscore.Rot>
1.0000

> <Gold.Chemscore.Internal.Correction>
   9.000000E+99

> <Gold.Chemscore.Hbonds>
donor molecule, donor type, donor heavy atom, donor atom, acceptor molecule, acceptor atom, score
      L1  H     3    20       P1 10957  0.95
      L1  H    11    24       P1 10957  0.70
      P1  H 11000 11005       L1    10  0.38

> <Gold.Chemscore.Hbond.Weighted>
-8.5190

> <Gold.Chemscore.Metal.Weighted>
-0.0000

> <Gold.Chemscore.Lipo.Weighted>
-10.5120

> <Gold.Chemscore.Internal_Hbond.Weighted>
0.0000

> <Gold.Chemscore.DEClash.Weighted>
0.0000

> <Gold.Chemscore.DEInternal.Weighted>
1.5907

> <Gold.Chemscore.Rot.Weighted>
2.5600

> <Gold.Chemscore.Internal.Correction.Weighted>
   9.000000E+99

> <Gold.Protein.RotatedTorsions>
[ 6907 6896 6895 6894 ] final  -10.13 input  -60.11 | X-H torsion
[ 7974 7965 7964 7962 ] final  -38.99 input  175.53 | X-H torsion
[ 8008 7997 7996 7995 ] final   37.20 input   59.86 | X-H torsion
[ 10167 10162 10161 10158 ] final -126.23 input  -65.29 | X-H torsion
[ 10718 10713 10712 10709 ] final  -57.59 input   66.30 | X-H torsion
[ 10763 10752 10751 10750 ] final   23.57 input  -60.55 | X-H torsion
[ 11005 11000 10999 10996 ] final   39.77 input  -57.11 | X-H torsion

> <Gold.Protein.ActiveResidues>
 VAL166  LYS551  ARG553  GLY616  TRP617  ASP618  TYR619  PRO620  LYS621  CYS622 
 ASP623  PHE694  ASN695  SER759  ASP760  ASP761  ALA762  ILE779  LEU786  VAL792 
 PHE793  MET794  SER795  GLU796  ALA797  LYS798  CYS799  TRP800  GLU811  SER814 

> <Gold.Protein.RotatedAtoms>
  151.4067  135.0979  159.9572 H   0  0  0  0  0  0  0  0  0  0  0  0  # atno 6907 bound_to 6896
  152.5033  133.8836  159.7369 H   0  0  0  0  0  0  0  0  0  0  0  0  # atno 6908 bound_to 6896
  150.9322  133.6697  159.2836 H   0  0  0  0  0  0  0  0  0  0  0  0  # atno 6909 bound_to 6896
  146.0437  140.6575  142.9075 H   0  0  0  0  0  0  0  0  0  0  0  0  # atno 7974 bound_to 7965
  155.1999  140.3315  155.4345 H   0  0  0  0  0  0  0  0  0  0  0  0  # atno 8008 bound_to 7997
  156.2411  140.1895  156.7036 H   0  0  0  0  0  0  0  0  0  0  0  0  # atno 8009 bound_to 7997
  154.6149  140.0603  156.9527 H   0  0  0  0  0  0  0  0  0  0  0  0  # atno 8010 bound_to 7997
  139.9736  143.5818  152.2404 H   0  0  0  0  0  0  0  0  0  0  0  0  # atno 10167 bound_to 10162
  156.1199  130.4167  150.0461 H   0  0  0  0  0  0  0  0  0  0  0  0  # atno 10718 bound_to 10713
  153.0828  135.6624  154.0010 H   0  0  0  0  0  0  0  0  0  0  0  0  # atno 10763 bound_to 10752
  153.9627  135.2972  155.3434 H   0  0  0  0  0  0  0  0  0  0  0  0  # atno 10764 bound_to 10752
  154.7231  135.5156  153.8914 H   0  0  0  0  0  0  0  0  0  0  0  0  # atno 10765 bound_to 10752
  140.1996  134.3887  155.8103 H   0  0  0  0  0  0  0  0  0  0  0  0  # atno 11005 bound_to 11000
  144.7087  140.3955  143.7097 LP  0  0  0  0  0  0  0  0  0  0  0  0  # atno 17320 bound_to 7965
  145.6842  139.1625  143.2684 LP  0  0  0  0  0  0  0  0  0  0  0  0  # atno 17321 bound_to 7965
  139.6462  144.7658  151.2239 LP  0  0  0  0  0  0  0  0  0  0  0  0  # atno 17342 bound_to 10162
  140.7513  143.6235  150.8490 LP  0  0  0  0  0  0  0  0  0  0  0  0  # atno 17343 bound_to 10162
  156.8402  130.9423  151.3632 LP  0  0  0  0  0  0  0  0  0  0  0  0  # atno 17370 bound_to 10713
  157.6383  130.8784  149.9400 LP  0  0  0  0  0  0  0  0  0  0  0  0  # atno 17371 bound_to 10713
  141.2227  133.7087  156.8234 LP  0  0  0  0  0  0  0  0  0  0  0  0  # atno 17394 bound_to 11000
  140.2069  134.8856  157.3232 LP  0  0  0  0  0  0  0  0  0  0  0  0  # atno 17395 bound_to 11000

$$$$
