AV-unprocessed.smi:2845|AV-procd|sdf|10946|dock5
  -GOLD-   2272015393D 1   1.00000     0.00000
 Structure written by MMmdl.
 42 44  0  0  0  0  0  0  0  0  1 V2000
  153.5214  143.5308  163.6889 C   0  0  0  0  0  0  0  0  0  0  0  0
  153.0252  143.1671  162.3007 C   0  0  0  0  0  0  0  0  0  0  0  0
  152.2209  144.0900  161.5952 C   0  0  0  0  0  0  0  0  0  0  0  0
  151.7377  143.7901  160.3028 C   0  0  0  0  0  0  0  0  0  0  0  0
  150.9436  144.5340  159.4471 N   0  0  0  0  0  0  0  0  0  0  0  0
  150.8383  143.7174  158.4032 C   0  0  0  0  0  0  0  0  0  0  0  0
  151.4741  142.5325  158.4789 N   0  0  0  0  0  0  0  0  0  0  0  0
  151.4943  141.4897  157.4679 C   0  0  0  0  0  0  0  0  0  0  0  0
  150.4822  140.3656  157.7586 C   0  0  1  0  0  0  0  0  0  0  0  0
  149.2743  140.6223  157.0666 O   0  0  0  0  0  0  0  0  0  0  0  0
  151.0286  138.9815  157.3606 C   0  0  0  0  0  0  0  0  0  0  0  0
  150.2765  137.8963  157.9639 N   0  0  0  0  0  0  0  0  0  0  0  0
  150.1402  136.6232  157.5817 C   0  0  0  0  0  0  0  0  0  0  0  0
  149.3747  135.8971  158.3855 N   0  0  0  0  0  0  0  0  0  0  0  0
  149.0570  136.8578  159.3006 C   0  0  0  0  0  0  0  0  0  0  0  0
  147.9884  136.4882  160.7273 S   0  0  2  0  0  0  0  0  0  0  0  0
  147.3842  134.8531  160.0931 C   0  0  0  0  0  0  0  0  0  0  0  0
  146.8153  137.4667  160.6401 O   0  0  0  0  0  0  0  0  0  0  0  0
  149.5636  138.0734  159.1017 N   0  0  0  0  0  0  0  0  0  0  0  0
  152.0856  142.5321  159.7285 C   0  0  0  0  0  0  0  0  0  0  0  0
  152.8870  141.6063  160.4203 C   0  0  0  0  0  0  0  0  0  0  0  0
  153.3595  141.9211  161.7119 C   0  0  0  0  0  0  0  0  0  0  0  0
  154.2219  140.9134  162.4512 C   0  0  0  0  0  0  0  0  0  0  0  0
  153.1663  144.5157  163.9937 H   0  0  0  0  0  0  0  0  0  0  0  0
  154.6113  143.5460  163.7130 H   0  0  0  0  0  0  0  0  0  0  0  0
  153.1681  142.8065  164.4231 H   0  0  0  0  0  0  0  0  0  0  0  0
  151.9662  145.0395  162.0427 H   0  0  0  0  0  0  0  0  0  0  0  0
  150.2665  143.9969  157.5301 H   0  0  0  0  0  0  0  0  0  0  0  0
  151.2975  141.9370  156.4928 H   0  0  0  0  0  0  0  0  0  0  0  0
  152.5052  141.0827  157.4247 H   0  0  0  0  0  0  0  0  0  0  0  0
  150.2582  140.3606  158.8263 H   0  0  0  0  0  0  0  0  0  0  0  0
  148.9807  141.4939  157.2850 H   0  0  0  0  0  0  0  0  0  0  0  0
  151.0241  138.8606  156.2759 H   0  0  0  0  0  0  0  0  0  0  0  0
  152.0668  138.8841  157.6805 H   0  0  0  0  0  0  0  0  0  0  0  0
  150.6138  136.2191  156.6989 H   0  0  0  0  0  0  0  0  0  0  0  0
  148.0755  134.4324  159.3627 H   0  0  0  0  0  0  0  0  0  0  0  0
  146.4091  134.9700  159.6203 H   0  0  0  0  0  0  0  0  0  0  0  0
  147.2864  134.1470  160.9176 H   0  0  0  0  0  0  0  0  0  0  0  0
  153.1367  140.6619  159.9602 H   0  0  0  0  0  0  0  0  0  0  0  0
  154.4008  140.0237  161.8469 H   0  0  0  0  0  0  0  0  0  0  0  0
  153.7343  140.5984  163.3739 H   0  0  0  0  0  0  0  0  0  0  0  0
  155.1900  141.3479  162.7010 H   0  0  0  0  0  0  0  0  0  0  0  0
  1  2  1  0  0  0  0
  1 24  1  0  0  0  0
  1 25  1  0  0  0  0
  1 26  1  0  0  0  0
  2 22  1  0  0  0  0
  2  3  2  0  0  0  0
  3  4  1  0  0  0  0
  3 27  1  0  0  0  0
  4 20  2  0  0  0  0
  4  5  1  0  0  0  0
  5  6  2  0  0  0  0
  6  7  1  0  0  0  0
  6 28  1  0  0  0  0
  7  8  1  0  0  0  0
  7 20  1  0  0  0  0
  8  9  1  0  0  0  0
  8 29  1  0  0  0  0
  8 30  1  0  0  0  0
  9 10  1  0  0  0  0
  9 11  1  0  0  0  0
  9 31  1  0  0  0  0
 10 32  1  0  0  0  0
 11 12  1  0  0  0  0
 11 33  1  0  0  0  0
 11 34  1  0  0  0  0
 12 19  1  0  0  0  0
 12 13  1  0  0  0  0
 13 14  2  0  0  0  0
 13 35  1  0  0  0  0
 14 15  1  0  0  0  0
 15 16  1  0  0  0  0
 15 19  2  0  0  0  0
 16 17  1  0  0  0  0
 16 18  2  0  0  0  0
 17 36  1  0  0  0  0
 17 37  1  0  0  0  0
 17 38  1  0  0  0  0
 20 21  1  0  0  0  0
 21 22  2  0  0  0  0
 21 39  1  0  0  0  0
 22 23  1  0  0  0  0
 23 40  1  0  0  0  0
 23 41  1  0  0  0  0
 23 42  1  0  0  0  0
M  END
> <s_m_source_file>
AV-unprocessed.smi

> <i_m_source_file_index>
2845

> <i_lp_mmshare_version>
43012

> <i_f3d_flags>
0

> <s_epik_input>
W0NIM11jKFtjSF0xKWMoW0NIM10pW2NIXWMoYzEyKW4oW2NIXW4yKVtDSDJdW0NASF0oW09IXSlbQ0gyXW4zW2NIXW5jKG4zKVtTQF0oPU8pW0NIM10=

> <s_epik_cmdline>
J2VwaWtfcHl0aG9uJywgJy1waCcsICc3LjAnLCAnLXRuJywgJzgnLCAnLW1hJywgJzIwMCcsICctbWV0YWxfYmluZGluZycsICctaW1hZScsICc8aW5maWxlLm1hZT4nLCAnLW9tYWUnLCAnPG91dGZpbGUubWFlPic=

> <r_lp_tautomer_probability>
1

> <r_epik_Ionization_Penalty>
0.0968684

> <r_epik_Ionization_Penalty_Charging>
0

> <r_epik_Ionization_Penalty_Neutral>
0.0968684

> <r_epik_State_Penalty>
0.0870047

> <r_epik_Charging_Adjusted_Penalty>
0.0870047

> <i_epik_Tot_Q>
0

> <i_epik_Tot_abs_Q>
0

> <r_epik_Metal_State_Penalty>
0.0746849

> <b_epik_Metal_Only>
0

> <s_lp_Force_Field>
OPLS_2005

> <r_lp_Energy>
9.68664

> <b_lp_Chiralities_Consistent>
1

> <s_lp_Variant>
AV-unprocessed.smi:2845-4

> <Gold.Version>
5.8.1

> <Gold.Id.Protein>
6NUR|6NUR_protein|mol2

> <Gold.PLP.Fitness>
52.5656

> <Gold.PLP.PLP>
-46.1320

> <Gold.PLP.part.hbond>
-3.2219

> <Gold.PLP.part.metal>
0.0000

> <Gold.PLP.part.buried>
-5.9093

> <Gold.PLP.part.nonpolar>
-36.8010

> <Gold.PLP.part.repulsive>
0.1251

> <Gold.PLP.ligand.clash>
0.0000

> <Gold.PLP.ligand.torsion>
1.7991

> <Gold.PLP.Chemscore.Hbond>
2.0000

> <Gold.PLP.Chemscore.CHOScore>
1.0000

> <Gold.PLP.Chemscore.Metal>
0.0000

> <Gold.Chemscore.Hbonds>
donor molecule, donor type, donor heavy atom, donor atom, acceptor molecule, acceptor atom, score
      P1  H  6896  6909       L1    14  0.57
      P1  H  6934  6947       L1    18  1.00
      L1  C     6    28       P1  8028  1.00

> <Gold.PLP.Chemscore.Internal.Correction>
1.0319

> <Gold.Rescore>
     Score         DG    S(hbond)    S(metal)    S(lipo)     H(rot)  DE(clash)    DE(int)     intcor
     15.00     -17.20       1.83        0.00     107.32       2.71       0.25       1.95       ----

> <Gold.Chemscore.Fitness>
15.0012

> <Gold.Chemscore.DG>
-17.1999

> <Gold.Chemscore.ZeroCoef>
-5.4800

> <Gold.Chemscore.Hbond>
1.8274

> <Gold.Chemscore.Metal>
0.0000

> <Gold.Chemscore.Lipo>
107.3171

> <Gold.Chemscore.Internal_Hbond>
0.0000

> <Gold.Chemscore.DEClash>
0.2508

> <Gold.Chemscore.DEInternal>
1.9478

> <Gold.Chemscore.Rot>
2.7108

> <Gold.Chemscore.Internal.Correction>
   9.000000E+99

> <Gold.Chemscore.Hbonds>
donor molecule, donor type, donor heavy atom, donor atom, acceptor molecule, acceptor atom, score
      P1  H  6896  6909       L1    14  0.17
      P1  H  6934  6947       L1    18  0.92

> <Gold.Chemscore.Hbond.Weighted>
-6.1034

> <Gold.Chemscore.Metal.Weighted>
-0.0000

> <Gold.Chemscore.Lipo.Weighted>
-12.5561

> <Gold.Chemscore.Internal_Hbond.Weighted>
0.0000

> <Gold.Chemscore.DEClash.Weighted>
0.2508

> <Gold.Chemscore.DEInternal.Weighted>
1.9478

> <Gold.Chemscore.Rot.Weighted>
6.9396

> <Gold.Chemscore.Internal.Correction.Weighted>
   9.000000E+99

> <Gold.Protein.RotatedTorsions>
[ 6907 6896 6895 6894 ] final   42.83 input  -60.11 | X-H torsion
[ 7974 7965 7964 7962 ] final  170.04 input  175.53 | X-H torsion
[ 8008 7997 7996 7995 ] final -179.28 input   59.86 | X-H torsion
[ 10167 10162 10161 10158 ] final   20.01 input  -65.29 | X-H torsion
[ 10718 10713 10712 10709 ] final  119.81 input   66.30 | X-H torsion
[ 10763 10752 10751 10750 ] final  -26.81 input  -60.55 | X-H torsion
[ 11005 11000 10999 10996 ] final  -71.51 input  -57.11 | X-H torsion

> <Gold.Protein.ActiveResidues>
 VAL166  LYS551  ARG553  GLY616  TRP617  ASP618  TYR619  PRO620  LYS621  CYS622 
 ASP623  PHE694  ASN695  SER759  ASP760  ASP761  ALA762  ILE779  LEU786  VAL792 
 PHE793  MET794  SER795  GLU796  ALA797  LYS798  CYS799  TRP800  GLU811  SER814 

> <Gold.Protein.RotatedAtoms>
  152.2128  134.8486  160.0495 H   0  0  0  0  0  0  0  0  0  0  0  0  # atno 6907 bound_to 6896
  151.9298  133.3603  159.3935 H   0  0  0  0  0  0  0  0  0  0  0  0  # atno 6908 bound_to 6896
  150.6980  134.4474  159.5364 H   0  0  0  0  0  0  0  0  0  0  0  0  # atno 6909 bound_to 6896
  144.7336  139.9143  143.6417 H   0  0  0  0  0  0  0  0  0  0  0  0  # atno 7974 bound_to 7965
  156.0286  140.1277  157.0282 H   0  0  0  0  0  0  0  0  0  0  0  0  # atno 8008 bound_to 7997
  154.4340  140.1054  156.6137 H   0  0  0  0  0  0  0  0  0  0  0  0  # atno 8009 bound_to 7997
  155.5840  140.3468  155.4550 H   0  0  0  0  0  0  0  0  0  0  0  0  # atno 8010 bound_to 7997
  140.5536  143.9465  150.6594 H   0  0  0  0  0  0  0  0  0  0  0  0  # atno 10167 bound_to 10162
  157.5935  131.1061  150.7949 H   0  0  0  0  0  0  0  0  0  0  0  0  # atno 10718 bound_to 10713
  153.7220  135.6944  153.5010 H   0  0  0  0  0  0  0  0  0  0  0  0  # atno 10763 bound_to 10752
  153.2197  135.4374  155.0474 H   0  0  0  0  0  0  0  0  0  0  0  0  # atno 10764 bound_to 10752
  154.8281  135.3457  154.6753 H   0  0  0  0  0  0  0  0  0  0  0  0  # atno 10765 bound_to 10752
  141.1593  133.6819  156.6917 H   0  0  0  0  0  0  0  0  0  0  0  0  # atno 11005 bound_to 11000
  146.0977  139.3970  143.0366 LP  0  0  0  0  0  0  0  0  0  0  0  0  # atno 17320 bound_to 7965
  145.7622  140.9930  143.1194 LP  0  0  0  0  0  0  0  0  0  0  0  0  # atno 17321 bound_to 7965
  140.2897  143.3332  152.1074 LP  0  0  0  0  0  0  0  0  0  0  0  0  # atno 17342 bound_to 10162
  139.5038  144.6762  151.6121 LP  0  0  0  0  0  0  0  0  0  0  0  0  # atno 17343 bound_to 10162
  156.8365  130.5033  149.5326 LP  0  0  0  0  0  0  0  0  0  0  0  0  # atno 17370 bound_to 10713
  156.0994  130.5957  150.9868 LP  0  0  0  0  0  0  0  0  0  0  0  0  # atno 17371 bound_to 10713
  140.3025  134.8152  157.4110 LP  0  0  0  0  0  0  0  0  0  0  0  0  # atno 17394 bound_to 11000
  140.1249  134.5171  155.8153 LP  0  0  0  0  0  0  0  0  0  0  0  0  # atno 17395 bound_to 11000

$$$$
