AV-unprocessed.smi:2328|AV-procd|sdf|9300|dock9
  -GOLD-   2272012523D 1   1.00000     0.00000
 Structure written by MMmdl.
 40 40  0  0  0  0  0  0  0  0  1 V2000
  147.3419  141.0079  157.0981 C   0  0  0  0  0  0  0  0  0  0  0  0
  148.3149  140.1142  156.3072 C   0  0  0  0  0  0  0  0  0  0  0  0
  149.0904  140.8046  155.1334 C   0  0  1  0  0  0  0  0  0  0  0  0
  149.7507  142.0364  155.6209 N   0  0  0  0  0  0  0  0  0  0  0  0
  150.7587  142.2666  156.4891 C   0  0  0  0  0  0  0  0  0  0  0  0
  151.3108  141.3161  157.0409 O   0  0  0  0  0  0  0  0  0  0  0  0
  151.2356  143.6969  156.8006 C   0  0  0  0  0  0  0  0  0  0  0  0
  151.4170  143.9111  158.2939 C   0  0  0  0  0  0  0  0  0  0  0  0
  152.3487  143.1506  159.0305 C   0  0  0  0  0  0  0  0  0  0  0  0
  152.4739  143.3859  160.4132 C   0  0  0  0  0  0  0  0  0  0  0  0
  151.6607  144.3751  161.0015 C   0  0  0  0  0  0  0  0  0  0  0  0
  150.7669  145.1109  160.3061 N   0  0  0  0  0  0  0  0  0  0  0  0
  150.6527  144.8786  158.9810 C   0  0  0  0  0  0  0  0  0  0  0  0
  150.1221  139.8044  154.5304 C   0  0  0  0  0  0  0  0  0  0  0  0
  149.6720  138.7789  153.7974 N   0  0  0  0  0  0  0  0  0  0  0  0
  151.3275  139.9582  154.7203 O   0  0  0  0  0  0  0  0  0  0  0  0
  148.0870  141.2621  154.0076 C   0  0  0  0  0  0  0  0  0  0  0  0
  147.3651  142.6036  154.2675 C   0  0  0  0  0  0  0  0  0  0  0  0
  147.0328  140.1972  153.6224 C   0  0  0  0  0  0  0  0  0  0  0  0
  146.8842  140.4426  157.9100 H   0  0  0  0  0  0  0  0  0  0  0  0
  146.5319  141.3794  156.4719 H   0  0  0  0  0  0  0  0  0  0  0  0
  147.8448  141.8648  157.5456 H   0  0  0  0  0  0  0  0  0  0  0  0
  149.0127  139.6763  157.0185 H   0  0  0  0  0  0  0  0  0  0  0  0
  147.7566  139.2536  155.9410 H   0  0  0  0  0  0  0  0  0  0  0  0
  149.3493  142.8778  155.2334 H   0  0  0  0  0  0  0  0  0  0  0  0
  152.1811  143.8747  156.2877 H   0  0  0  0  0  0  0  0  0  0  0  0
  150.5344  144.4490  156.4473 H   0  0  0  0  0  0  0  0  0  0  0  0
  152.9543  142.3978  158.5476 H   0  0  0  0  0  0  0  0  0  0  0  0
  153.1753  142.8207  161.0091 H   0  0  0  0  0  0  0  0  0  0  0  0
  151.7308  144.5811  162.0593 H   0  0  0  0  0  0  0  0  0  0  0  0
  149.9280  145.4811  158.4533 H   0  0  0  0  0  0  0  0  0  0  0  0
  150.3263  138.1219  153.3976 H   0  0  0  0  0  0  0  0  0  0  0  0
  148.6800  138.6670  153.6458 H   0  0  0  0  0  0  0  0  0  0  0  0
  148.6729  141.4109  153.1006 H   0  0  0  0  0  0  0  0  0  0  0  0
  146.7511  142.5738  155.1673 H   0  0  0  0  0  0  0  0  0  0  0  0
  146.7026  142.8507  153.4376 H   0  0  0  0  0  0  0  0  0  0  0  0
  148.0606  143.4365  154.3596 H   0  0  0  0  0  0  0  0  0  0  0  0
  146.3253  140.0145  154.4311 H   0  0  0  0  0  0  0  0  0  0  0  0
  147.4848  139.2433  153.3516 H   0  0  0  0  0  0  0  0  0  0  0  0
  146.4526  140.5238  152.7589 H   0  0  0  0  0  0  0  0  0  0  0  0
  1  2  1  0  0  0  0
  1 20  1  0  0  0  0
  1 21  1  0  0  0  0
  1 22  1  0  0  0  0
  2  3  1  0  0  0  0
  2 23  1  0  0  0  0
  2 24  1  0  0  0  0
  3  4  1  0  0  0  0
  3 14  1  0  0  0  0
  3 17  1  0  0  0  0
  4  5  1  0  0  0  0
  4 25  1  0  0  0  0
  5  6  2  0  0  0  0
  5  7  1  0  0  0  0
  7  8  1  0  0  0  0
  7 26  1  0  0  0  0
  7 27  1  0  0  0  0
  8 13  1  0  0  0  0
  8  9  2  0  0  0  0
  9 10  1  0  0  0  0
  9 28  1  0  0  0  0
 10 11  2  0  0  0  0
 10 29  1  0  0  0  0
 11 12  1  0  0  0  0
 11 30  1  0  0  0  0
 12 13  2  0  0  0  0
 13 31  1  0  0  0  0
 14 15  1  0  0  0  0
 14 16  2  0  0  0  0
 15 32  1  0  0  0  0
 15 33  1  0  0  0  0
 17 18  1  0  0  0  0
 17 19  1  0  0  0  0
 17 34  1  0  0  0  0
 18 35  1  0  0  0  0
 18 36  1  0  0  0  0
 18 37  1  0  0  0  0
 19 38  1  0  0  0  0
 19 39  1  0  0  0  0
 19 40  1  0  0  0  0
M  END
> <s_m_source_file>
AV-unprocessed.smi

> <i_m_source_file_index>
2328

> <i_lp_mmshare_version>
43012

> <i_f3d_flags>
0

> <s_epik_input>
W0NIM11bQ0gyXVtDQEBdKEMoPU8pW05IMl0pKFtDSF0oW0NIM10pW0NIM10pW05IXUMoPU8pW0NIMl1jMVtjSF1bY0hdW2NIXW5bY0hdMQ==

> <s_epik_cmdline>
J2VwaWtfcHl0aG9uJywgJy1waCcsICc3LjAnLCAnLXRuJywgJzgnLCAnLW1hJywgJzIwMCcsICctbWV0YWxfYmluZGluZycsICctaW1hZScsICc8aW5maWxlLm1hZT4nLCAnLW9tYWUnLCAnPG91dGZpbGUubWFlPic=

> <r_epik_Ionization_Penalty>
0.00378489

> <r_epik_Ionization_Penalty_Charging>
0

> <r_epik_Ionization_Penalty_Neutral>
0.00378489

> <r_epik_State_Penalty>
0.00269972

> <r_epik_Charging_Adjusted_Penalty>
0.00269972

> <i_epik_Tot_Q>
0

> <i_epik_Tot_abs_Q>
0

> <r_epik_Metal_State_Penalty>
-0

> <b_epik_Metal_Only>
0

> <s_lp_Force_Field>
OPLS_2005

> <r_lp_Energy>
14.3821

> <b_lp_Chiralities_Consistent>
1

> <s_lp_Variant>
AV-unprocessed.smi:2328-1

> <Gold.Version>
5.8.1

> <Gold.Id.Protein>
6NUR|6NUR_protein|mol2

> <Gold.PLP.Fitness>
45.1577

> <Gold.PLP.PLP>
-38.4803

> <Gold.PLP.part.hbond>
-3.3819

> <Gold.PLP.part.metal>
0.0000

> <Gold.PLP.part.buried>
-1.7320

> <Gold.PLP.part.nonpolar>
-34.4725

> <Gold.PLP.part.repulsive>
0.5071

> <Gold.PLP.ligand.clash>
0.0000

> <Gold.PLP.ligand.torsion>
1.1406

> <Gold.PLP.Chemscore.Hbond>
1.9280

> <Gold.PLP.Chemscore.CHOScore>
0.9939

> <Gold.PLP.Chemscore.Metal>
0.0000

> <Gold.Chemscore.Hbonds>
donor molecule, donor type, donor heavy atom, donor atom, acceptor molecule, acceptor atom, score
      L1  H     4    25       P1  8028  0.88
      P1  H  7989  7998       L1    16  0.95
      L1  C    13    31       P1  8029  1.00

> <Gold.PLP.Chemscore.Internal.Correction>
0.1928

> <Gold.Rescore>
     Score         DG    S(hbond)    S(metal)    S(lipo)     H(rot)  DE(clash)    DE(int)     intcor
     11.37     -17.77       2.32        0.00      88.99       2.29       1.33       5.08       ----

> <Gold.Chemscore.Fitness>
11.3651

> <Gold.Chemscore.DG>
-17.7676

> <Gold.Chemscore.ZeroCoef>
-5.4800

> <Gold.Chemscore.Hbond>
2.3184

> <Gold.Chemscore.Metal>
0.0000

> <Gold.Chemscore.Lipo>
88.9899

> <Gold.Chemscore.Internal_Hbond>
0.0000

> <Gold.Chemscore.DEClash>
1.3269

> <Gold.Chemscore.DEInternal>
5.0755

> <Gold.Chemscore.Rot>
2.2921

> <Gold.Chemscore.Internal.Correction>
   9.000000E+99

> <Gold.Chemscore.Hbonds>
donor molecule, donor type, donor heavy atom, donor atom, acceptor molecule, acceptor atom, score
      L1  H     4    25       P1  8028  0.86
      P1  H  7989  7998       L1    16  0.21

> <Gold.Chemscore.Hbond.Weighted>
-7.7435

> <Gold.Chemscore.Metal.Weighted>
-0.0000

> <Gold.Chemscore.Lipo.Weighted>
-10.4118

> <Gold.Chemscore.Internal_Hbond.Weighted>
0.0000

> <Gold.Chemscore.DEClash.Weighted>
1.3269

> <Gold.Chemscore.DEInternal.Weighted>
5.0755

> <Gold.Chemscore.Rot.Weighted>
5.8677

> <Gold.Chemscore.Internal.Correction.Weighted>
   9.000000E+99

> <Gold.Protein.RotatedTorsions>
[ 6907 6896 6895 6894 ] final -108.34 input  -60.11 | X-H torsion
[ 7974 7965 7964 7962 ] final -125.10 input  175.53 | X-H torsion
[ 8008 7997 7996 7995 ] final -108.54 input   59.86 | X-H torsion
[ 10167 10162 10161 10158 ] final  -31.19 input  -65.29 | X-H torsion
[ 10718 10713 10712 10709 ] final -117.75 input   66.30 | X-H torsion
[ 10763 10752 10751 10750 ] final  -83.22 input  -60.55 | X-H torsion
[ 11005 11000 10999 10996 ] final   87.03 input  -57.11 | X-H torsion

> <Gold.Protein.ActiveResidues>
 VAL166  LYS551  ARG553  GLY616  TRP617  ASP618  TYR619  PRO620  LYS621  CYS622 
 ASP623  PHE694  ASN695  SER759  ASP760  ASP761  ALA762  ILE779  LEU786  VAL792 
 PHE793  MET794  SER795  GLU796  ALA797  LYS798  CYS799  TRP800  GLU811  SER814 

> <Gold.Protein.RotatedAtoms>
  150.7496  133.9692  159.3540 H   0  0  0  0  0  0  0  0  0  0  0  0  # atno 6907 bound_to 6896
  151.7624  135.0804  160.0357 H   0  0  0  0  0  0  0  0  0  0  0  0  # atno 6908 bound_to 6896
  152.3394  133.6012  159.5901 H   0  0  0  0  0  0  0  0  0  0  0  0  # atno 6909 bound_to 6896
  145.0011  140.7821  143.4495 H   0  0  0  0  0  0  0  0  0  0  0  0  # atno 7974 bound_to 7965
  154.9459  140.0402  157.2120 H   0  0  0  0  0  0  0  0  0  0  0  0  # atno 8008 bound_to 7997
  154.8025  140.2854  155.5889 H   0  0  0  0  0  0  0  0  0  0  0  0  # atno 8009 bound_to 7997
  156.2963  140.2552  156.2896 H   0  0  0  0  0  0  0  0  0  0  0  0  # atno 8010 bound_to 7997
  140.7239  143.3790  151.1635 H   0  0  0  0  0  0  0  0  0  0  0  0  # atno 10167 bound_to 10162
  156.1056  130.6207  150.9203 H   0  0  0  0  0  0  0  0  0  0  0  0  # atno 10718 bound_to 10713
  154.5851  135.5564  153.7223 H   0  0  0  0  0  0  0  0  0  0  0  0  # atno 10763 bound_to 10752
  153.0095  135.6329  154.1928 H   0  0  0  0  0  0  0  0  0  0  0  0  # atno 10764 bound_to 10752
  154.1869  135.2884  155.3014 H   0  0  0  0  0  0  0  0  0  0  0  0  # atno 10765 bound_to 10752
  139.8929  134.8395  156.2803 H   0  0  0  0  0  0  0  0  0  0  0  0  # atno 11005 bound_to 11000
  145.2151  139.2186  143.5122 LP  0  0  0  0  0  0  0  0  0  0  0  0  # atno 17320 bound_to 7965
  146.3452  140.1997  142.8589 LP  0  0  0  0  0  0  0  0  0  0  0  0  # atno 17321 bound_to 7965
  139.7376  143.8975  152.3040 LP  0  0  0  0  0  0  0  0  0  0  0  0  # atno 17342 bound_to 10162
  139.8785  144.7030  150.8905 LP  0  0  0  0  0  0  0  0  0  0  0  0  # atno 17343 bound_to 10162
  157.6232  131.0928  150.8583 LP  0  0  0  0  0  0  0  0  0  0  0  0  # atno 17370 bound_to 10713
  156.8703  130.5143  149.5297 LP  0  0  0  0  0  0  0  0  0  0  0  0  # atno 17371 bound_to 10713
  141.0043  133.7133  156.1010 LP  0  0  0  0  0  0  0  0  0  0  0  0  # atno 17394 bound_to 11000
  140.7455  134.4103  157.5549 LP  0  0  0  0  0  0  0  0  0  0  0  0  # atno 17395 bound_to 11000

$$$$
