AV-unprocessed.smi:124|AV-procd|sdf|1147|dock10
  -GOLD-   2262018283D 1   1.00000     0.00000
 Structure written by MMmdl.
 52 56  0  0  0  0  0  0  0  0  1 V2000
  152.0775  139.4296  155.1905 O   0  0  0  0  0  0  0  0  0  0  0  0
  151.7144  139.6259  156.3516 C   0  0  0  0  0  0  0  0  0  0  0  0
  151.8740  138.4937  157.3842 C   0  0  0  0  0  0  0  0  0  0  0  0
  150.8261  137.4809  157.3010 N   0  0  0  0  0  0  0  0  0  0  0  0
  150.9096  136.5304  156.2530 C   0  0  0  0  0  0  0  0  0  0  0  0
  151.8284  136.5384  155.4316 O   0  0  0  0  0  0  0  0  0  0  0  0
  149.8138  135.5695  156.2207 C   0  0  0  0  0  0  0  0  0  0  0  0
  149.7663  134.6486  155.2432 F   0  0  0  0  0  0  0  0  0  0  0  0
  148.8338  135.5973  157.1493 C   0  0  0  0  0  0  0  0  0  0  0  0
  148.8008  136.5063  158.1948 N   0  0  0  0  0  0  0  0  0  0  0  0
  147.6287  136.5674  159.1526 C   0  0  2  0  0  0  0  0  0  0  0  0
  148.0230  136.4537  160.6359 C   0  0  0  0  0  0  0  0  0  0  0  0
  147.5764  135.0472  160.9853 C   0  0  0  0  0  0  0  0  0  0  0  0
  146.3863  134.8591  160.0528 C   0  0  0  0  0  0  0  0  0  0  0  0
  146.7812  135.5009  158.8475 O   0  0  0  0  0  0  0  0  0  0  0  0
  149.7795  137.5253  158.2544 C   0  0  0  0  0  0  0  0  0  0  0  0
  149.7175  138.4171  159.1041 O   0  0  0  0  0  0  0  0  0  0  0  0
  151.1405  140.8852  156.8452 C   0  0  0  0  0  0  0  0  0  0  0  0
  149.9978  141.4567  156.3178 C   0  0  0  0  0  0  0  0  0  0  0  0
  149.0837  141.0328  155.2633 C   0  0  0  0  0  0  0  0  0  0  0  0
  149.1407  139.7168  154.7568 C   0  0  0  0  0  0  0  0  0  0  0  0
  148.2638  139.3064  153.7339 C   0  0  0  0  0  0  0  0  0  0  0  0
  147.3241  140.2122  153.2064 C   0  0  0  0  0  0  0  0  0  0  0  0
  147.2632  141.5281  153.7030 C   0  0  0  0  0  0  0  0  0  0  0  0
  148.1409  141.9359  154.7261 C   0  0  0  0  0  0  0  0  0  0  0  0
  149.7391  142.6489  156.9658 N   0  0  0  0  0  0  0  0  0  0  0  0
  150.6743  142.8886  157.9449 C   0  0  0  0  0  0  0  0  0  0  0  0
  150.8168  143.9512  158.8560 C   0  0  0  0  0  0  0  0  0  0  0  0
  151.8828  143.9416  159.7707 C   0  0  0  0  0  0  0  0  0  0  0  0
  152.7927  142.8700  159.7634 C   0  0  0  0  0  0  0  0  0  0  0  0
  152.6411  141.8118  158.8449 C   0  0  0  0  0  0  0  0  0  0  0  0
  151.5786  141.7831  157.9019 C   0  0  0  0  0  0  0  0  0  0  0  0
  148.9518  143.2385  156.7371 H   0  0  0  0  0  0  0  0  0  0  0  0
  152.8300  137.9841  157.2589 H   0  0  0  0  0  0  0  0  0  0  0  0
  151.8747  138.8913  158.3998 H   0  0  0  0  0  0  0  0  0  0  0  0
  148.0421  134.8724  157.0483 H   0  0  0  0  0  0  0  0  0  0  0  0
  147.1321  137.5213  158.9694 H   0  0  0  0  0  0  0  0  0  0  0  0
  149.0768  136.6604  160.8224 H   0  0  0  0  0  0  0  0  0  0  0  0
  147.4343  137.1790  161.1991 H   0  0  0  0  0  0  0  0  0  0  0  0
  148.3562  134.3232  160.7485 H   0  0  0  0  0  0  0  0  0  0  0  0
  147.3141  134.9321  162.0372 H   0  0  0  0  0  0  0  0  0  0  0  0
  146.1417  133.8098  159.8868 H   0  0  0  0  0  0  0  0  0  0  0  0
  145.5026  135.3588  160.4524 H   0  0  0  0  0  0  0  0  0  0  0  0
  149.8586  139.0155  155.1565 H   0  0  0  0  0  0  0  0  0  0  0  0
  148.3123  138.2965  153.3542 H   0  0  0  0  0  0  0  0  0  0  0  0
  146.6513  139.8984  152.4219 H   0  0  0  0  0  0  0  0  0  0  0  0
  146.5440  142.2254  153.2997 H   0  0  0  0  0  0  0  0  0  0  0  0
  148.0886  142.9474  155.1018 H   0  0  0  0  0  0  0  0  0  0  0  0
  150.1110  144.7684  158.8536 H   0  0  0  0  0  0  0  0  0  0  0  0
  152.0018  144.7514  160.4755 H   0  0  0  0  0  0  0  0  0  0  0  0
  153.6127  142.8577  160.4663 H   0  0  0  0  0  0  0  0  0  0  0  0
  153.3637  141.0139  158.8828 H   0  0  0  0  0  0  0  0  0  0  0  0
  1  2  2  0  0  0  0
  2  3  1  0  0  0  0
  2 18  1  0  0  0  0
  3  4  1  0  0  0  0
  3 34  1  0  0  0  0
  3 35  1  0  0  0  0
  4 16  1  0  0  0  0
  4  5  1  0  0  0  0
  5  6  2  0  0  0  0
  5  7  1  0  0  0  0
  7  8  1  0  0  0  0
  7  9  2  0  0  0  0
  9 10  1  0  0  0  0
  9 36  1  0  0  0  0
 10 11  1  0  0  0  0
 10 16  1  0  0  0  0
 11 15  1  0  0  0  0
 11 12  1  0  0  0  0
 11 37  1  0  0  0  0
 12 13  1  0  0  0  0
 12 38  1  0  0  0  0
 12 39  1  0  0  0  0
 13 14  1  0  0  0  0
 13 40  1  0  0  0  0
 13 41  1  0  0  0  0
 14 15  1  0  0  0  0
 14 42  1  0  0  0  0
 14 43  1  0  0  0  0
 16 17  2  0  0  0  0
 18 32  1  0  0  0  0
 18 19  2  0  0  0  0
 19 20  1  0  0  0  0
 19 26  1  0  0  0  0
 20 25  1  0  0  0  0
 20 21  2  0  0  0  0
 21 22  1  0  0  0  0
 21 44  1  0  0  0  0
 22 23  2  0  0  0  0
 22 45  1  0  0  0  0
 23 24  1  0  0  0  0
 23 46  1  0  0  0  0
 24 25  2  0  0  0  0
 24 47  1  0  0  0  0
 25 48  1  0  0  0  0
 26 33  1  0  0  0  0
 26 27  1  0  0  0  0
 27 32  1  0  0  0  0
 27 28  2  0  0  0  0
 28 29  1  0  0  0  0
 28 49  1  0  0  0  0
 29 30  2  0  0  0  0
 29 50  1  0  0  0  0
 30 31  1  0  0  0  0
 30 51  1  0  0  0  0
 31 32  2  0  0  0  0
 31 52  1  0  0  0  0
M  END
> <s_m_source_file>
AV-unprocessed.smi

> <i_m_source_file_index>
124

> <i_lp_mmshare_version>
43012

> <i_f3d_flags>
0

> <s_epik_input>
W2NIXTFbY0hdW2NIXVtjSF1bY0hdYzEtYyhbbkhdMiljKGMoYzIzKVtjSF1bY0hdW2NIXVtjSF0zKUMoPU8pW0NIMl1uNGMoPU8pYyhGKVtjSF1uKGM0PU8pW0NAQEhdNVtDSDJdW0NIMl1bQ0gyXU81

> <s_epik_cmdline>
J2VwaWtfcHl0aG9uJywgJy1waCcsICc3LjAnLCAnLXRuJywgJzgnLCAnLW1hJywgJzIwMCcsICctbWV0YWxfYmluZGluZycsICctaW1hZScsICc8aW5maWxlLm1hZT4nLCAnLW9tYWUnLCAnPG91dGZpbGUubWFlPic=

> <r_lp_tautomer_probability>
1

> <r_epik_Ionization_Penalty>
1.43207e-08

> <r_epik_Ionization_Penalty_Charging>
5.01743e-09

> <r_epik_Ionization_Penalty_Neutral>
9.30329e-09

> <r_epik_State_Penalty>
-0

> <r_epik_Charging_Adjusted_Penalty>
5.01743e-09

> <i_epik_Tot_Q>
0

> <i_epik_Tot_abs_Q>
0

> <r_epik_Metal_State_Penalty>
-0

> <b_epik_Metal_Only>
0

> <s_epik_Chemistry_Notes>
This compound contains an acetal/aminal-like group ( X-CH(R)-Y where X, Y are N, S, or O) that may be acid/base labile, releasing an aldehyde.

> <s_lp_Force_Field>
OPLS_2005

> <r_lp_Energy>
48.315

> <b_lp_Chiralities_Consistent>
1

> <s_lp_Variant>
AV-unprocessed.smi:124-1

> <Gold.Version>
5.8.1

> <Gold.Id.Protein>
6NUR|6NUR_protein|mol2

> <Gold.PLP.Fitness>
57.3716

> <Gold.PLP.PLP>
-51.9060

> <Gold.PLP.part.hbond>
-3.6338

> <Gold.PLP.part.metal>
0.0000

> <Gold.PLP.part.buried>
-4.9161

> <Gold.PLP.part.nonpolar>
-43.5834

> <Gold.PLP.part.repulsive>
0.1309

> <Gold.PLP.ligand.clash>
0.0000

> <Gold.PLP.ligand.torsion>
1.7113

> <Gold.PLP.Chemscore.Hbond>
2.4400

> <Gold.PLP.Chemscore.CHOScore>
0.0000

> <Gold.PLP.Chemscore.Metal>
0.0000

> <Gold.Chemscore.Hbonds>
donor molecule, donor type, donor heavy atom, donor atom, acceptor molecule, acceptor atom, score
      L1  H    26    33       P1  8028  0.61
      P1  H  7989  7998       L1     1  0.41
      P1  H 10752 10763       L1     6  0.93

> <Gold.PLP.Chemscore.Internal.Correction>
1.5683

> <Gold.Rescore>
     Score         DG    S(hbond)    S(metal)    S(lipo)     H(rot)  DE(clash)    DE(int)     intcor
     19.60     -25.07       2.18        0.00     139.18       1.55       0.49       4.99       ----

> <Gold.Chemscore.Fitness>
19.5987

> <Gold.Chemscore.DG>
-25.0722

> <Gold.Chemscore.ZeroCoef>
-5.4800

> <Gold.Chemscore.Hbond>
2.1814

> <Gold.Chemscore.Metal>
0.0000

> <Gold.Chemscore.Lipo>
139.1767

> <Gold.Chemscore.Internal_Hbond>
0.0000

> <Gold.Chemscore.DEClash>
0.4855

> <Gold.Chemscore.DEInternal>
4.9880

> <Gold.Chemscore.Rot>
1.5537

> <Gold.Chemscore.Internal.Correction>
   9.000000E+99

> <Gold.Chemscore.Hbonds>
donor molecule, donor type, donor heavy atom, donor atom, acceptor molecule, acceptor atom, score
      L1  H    26    33       P1  8028  0.54
      P1  H  7989  7998       L1     1  0.40
      P1  H 10752 10763       L1     6  0.90

> <Gold.Chemscore.Hbond.Weighted>
-7.2860

> <Gold.Chemscore.Metal.Weighted>
-0.0000

> <Gold.Chemscore.Lipo.Weighted>
-16.2837

> <Gold.Chemscore.Internal_Hbond.Weighted>
0.0000

> <Gold.Chemscore.DEClash.Weighted>
0.4855

> <Gold.Chemscore.DEInternal.Weighted>
4.9880

> <Gold.Chemscore.Rot.Weighted>
3.9774

> <Gold.Chemscore.Internal.Correction.Weighted>
   9.000000E+99

> <Gold.Protein.RotatedTorsions>
[ 6907 6896 6895 6894 ] final  179.22 input  -60.11 | X-H torsion
[ 7974 7965 7964 7962 ] final  -61.76 input  175.53 | X-H torsion
[ 8008 7997 7996 7995 ] final -114.19 input   59.86 | X-H torsion
[ 10167 10162 10161 10158 ] final  141.34 input  -65.29 | X-H torsion
[ 10718 10713 10712 10709 ] final  169.38 input   66.30 | X-H torsion
[ 10763 10752 10751 10750 ] final   49.33 input  -60.55 | X-H torsion
[ 11005 11000 10999 10996 ] final   -0.66 input  -57.11 | X-H torsion

> <Gold.Protein.ActiveResidues>
 VAL166  LYS551  ARG553  GLY616  TRP617  ASP618  TYR619  PRO620  LYS621  CYS622 
 ASP623  PHE694  ASN695  SER759  ASP760  ASP761  ALA762  ILE779  LEU786  VAL792 
 PHE793  MET794  SER795  GLU796  ALA797  LYS798  CYS799  TRP800  GLU811  SER814 

> <Gold.Protein.RotatedAtoms>
  151.6752  133.3313  159.3205 H   0  0  0  0  0  0  0  0  0  0  0  0  # atno 6907 bound_to 6896
  150.7849  134.6828  159.6463 H   0  0  0  0  0  0  0  0  0  0  0  0  # atno 6908 bound_to 6896
  152.3916  134.6436  160.0157 H   0  0  0  0  0  0  0  0  0  0  0  0  # atno 6909 bound_to 6896
  145.7996  140.8663  143.0238 H   0  0  0  0  0  0  0  0  0  0  0  0  # atno 7974 bound_to 7965
  155.0325  140.0393  157.2479 H   0  0  0  0  0  0  0  0  0  0  0  0  # atno 8008 bound_to 7997
  154.7284  140.2726  155.6454 H   0  0  0  0  0  0  0  0  0  0  0  0  # atno 8009 bound_to 7997
  156.2835  140.2689  156.1977 H   0  0  0  0  0  0  0  0  0  0  0  0  # atno 8010 bound_to 7997
  139.5023  144.6177  151.6124 H   0  0  0  0  0  0  0  0  0  0  0  0  # atno 10167 bound_to 10162
  157.0235  131.0239  151.2767 H   0  0  0  0  0  0  0  0  0  0  0  0  # atno 10718 bound_to 10713
  152.9787  135.5915  154.4072 H   0  0  0  0  0  0  0  0  0  0  0  0  # atno 10763 bound_to 10752
  154.3711  135.2767  155.2267 H   0  0  0  0  0  0  0  0  0  0  0  0  # atno 10764 bound_to 10752
  154.4222  135.6056  153.6072 H   0  0  0  0  0  0  0  0  0  0  0  0  # atno 10765 bound_to 10752
  140.6387  133.9509  155.8314 H   0  0  0  0  0  0  0  0  0  0  0  0  # atno 11005 bound_to 11000
  144.6770  140.0239  143.7483 LP  0  0  0  0  0  0  0  0  0  0  0  0  # atno 17320 bound_to 7965
  145.9892  139.3001  143.0995 LP  0  0  0  0  0  0  0  0  0  0  0  0  # atno 17321 bound_to 7965
  140.5870  143.9846  150.6302 LP  0  0  0  0  0  0  0  0  0  0  0  0  # atno 17342 bound_to 10162
  140.3014  143.3258  152.0968 LP  0  0  0  0  0  0  0  0  0  0  0  0  # atno 17343 bound_to 10162
  157.5231  130.8011  149.7832 LP  0  0  0  0  0  0  0  0  0  0  0  0  # atno 17370 bound_to 10713
  156.0094  130.3840  150.2318 LP  0  0  0  0  0  0  0  0  0  0  0  0  # atno 17371 bound_to 10713
  141.0622  134.0329  157.3642 LP  0  0  0  0  0  0  0  0  0  0  0  0  # atno 17394 bound_to 11000
  139.9088  135.0186  156.7603 LP  0  0  0  0  0  0  0  0  0  0  0  0  # atno 17395 bound_to 11000

$$$$
