#       Name:                AV-unprocessed.smi:2528
#       Creating user name   scv26
#       Creation time:       Fri Mar 27 13:59:33 2020


#       File generated by GOLD software.
#

@<TRIPOS>MOLECULE
AV-unprocessed.smi:2528
    49    51     1
SMALL
NO_CHARGES


@<TRIPOS>ATOM
      1 ****        -1.3454   1.8533   1.6668 O.2            1 S1                 0.0000
      2 ****        -1.8608   0.7654   1.9264 C.2            1 S1                 0.0000
      3 ****        -1.1534  -0.3606   2.0984 N.am           1 S1                 0.0000
      4 ****         0.3010  -0.4537   2.0217 C.3            1 S1                 0.0000
      5 ****         0.8050  -0.4221   0.5678 C.3            1 S1                 0.0000
      6 ****         2.3423  -0.4404   0.4903 C.3            1 S1                 0.0000
      7 ****         2.7883  -0.4622  -0.9219 N.4            1 S1                 1.0000
      8 ****         4.2671  -0.4314  -1.0501 C.3            1 S1                 0.0000
      9 ****         4.6916  -0.3558  -2.5253 C.3            1 S1                 0.0000
     10 ****         4.0935  -1.5209  -3.3243 C.3            1 S1                 0.0000
     11 ****         2.5686  -1.5482  -3.1528 C.3            1 S1                 0.0000
     12 ****         2.1736  -1.5970  -1.6634 C.3            1 S1                 0.0000
     13 ****         0.6419  -1.5717  -1.4894 C.3            1 S1                 0.0000
     14 ****         0.3095  -1.5737  -0.1070 O.3            1 S1                 0.0000
     15 ****        -3.1788   0.5419   2.0715 N.am           1 S1                 0.0000
     16 ****        -4.2437   1.4779   1.9797 C.ar           1 S1                 0.0000
     17 ****        -5.5325   0.9424   2.2031 C.ar           1 S1                 0.0000
     18 ****        -6.6557   1.7897   2.1386 C.ar           1 S1                 0.0000
     19 ****        -6.4616   3.1524   1.8508 C.ar           1 S1                 0.0000
     20 ****        -5.1459   3.6041   1.6396 C.ar           1 S1                 0.0000
     21 ****        -4.0678   2.7940   1.7010 N.ar           1 S1                 0.0000
     22 ****        -1.6540  -1.2127   2.3047 H              1 S1                 0.0000
     23 ****         0.7462   0.3612   2.5951 H              1 S1                 0.0000
     24 ****         0.6127  -1.3789   2.5072 H              1 S1                 0.0000
     25 ****         0.4330   0.4782   0.0752 H              1 S1                 0.0000
     26 ****         2.7497   0.4416   0.9861 H              1 S1                 0.0000
     27 ****         2.7369  -1.3138   1.0123 H              1 S1                 0.0000
     28 ****         4.6624   0.4316  -0.5130 H              1 S1                 0.0000
     29 ****         4.6942  -1.3198  -0.5821 H              1 S1                 0.0000
     30 ****         4.3622   0.5918  -2.9538 H              1 S1                 0.0000
     31 ****         5.7791  -0.3694  -2.6025 H              1 S1                 0.0000
     32 ****         4.3527  -1.4273  -4.3792 H              1 S1                 0.0000
     33 ****         4.5205  -2.4633  -2.9790 H              1 S1                 0.0000
     34 ****         2.1352  -0.6633  -3.6216 H              1 S1                 0.0000
     35 ****         2.1550  -2.4096  -3.6787 H              1 S1                 0.0000
     36 ****         2.5517  -2.5261  -1.2326 H              1 S1                 0.0000
     37 ****         0.2034  -0.6991  -1.9769 H              1 S1                 0.0000
     38 ****         0.1962  -2.4514  -1.9546 H              1 S1                 0.0000
     39 ****        -3.4530  -0.4061   2.2829 H              1 S1                 0.0000
     40 ****        -5.6645  -0.1069   2.4242 H              1 S1                 0.0000
     41 ****        -7.6486   1.3999   2.3075 H              1 S1                 0.0000
     42 ****        -7.2982   3.8331   1.7928 H              1 S1                 0.0000
     43 ****        -4.9533   4.6427   1.4149 H              1 S1                 0.0000
     44 ****         2.4419   0.3854  -1.3485 H              1 S1                 0.0000
     45 ****        -0.3523   1.9268   1.5745 LP             1 S1                 0.0000
     46 ****        -1.9199   2.6631   1.5482 LP             1 S1                 0.0000
     47 ****        -0.6860  -1.5971  -0.0154 LP             1 S1                 0.0000
     48 ****         0.7026  -2.3895   0.3173 LP             1 S1                 0.0000
     49 ****        -3.1505   3.1595   1.5429 LP             1 S1                 0.0000
@<TRIPOS>BOND
    1    1    2 2     
    2    2    3 am    
    3    2   15 am    
    4    3    4 1     
    5    3   22 1     
    6    4    5 1     
    7    4   23 1     
    8    4   24 1     
    9    5   14 1     
   10    5    6 1     
   11    5   25 1     
   12    6    7 1     
   13    6   26 1     
   14    6   27 1     
   15    7   12 1     
   16    7    8 1     
   17    7   44 1     
   18    8    9 1     
   19    8   28 1     
   20    8   29 1     
   21    9   10 1     
   22    9   30 1     
   23    9   31 1     
   24   10   11 1     
   25   10   32 1     
   26   10   33 1     
   27   11   12 1     
   28   11   34 1     
   29   11   35 1     
   30   12   13 1     
   31   12   36 1     
   32   13   14 1     
   33   13   37 1     
   34   13   38 1     
   35   15   16 1     
   36   15   39 1     
   37   16   21 ar    
   38   16   17 ar    
   39   17   18 ar    
   40   17   40 1     
   41   18   19 ar    
   42   18   41 1     
   43   19   20 ar    
   44   19   42 1     
   45   20   21 ar    
   46   20   43 1     
   47    1   45 1     
   48    1   46 1     
   49   14   47 1     
   50   14   48 1     
   51   21   49 1     
@<TRIPOS>SUBSTRUCTURE
      1 S1             1
@<TRIPOS>SET
LONE_PAIRS      STATIC     ATOMS    <user>   **** ""
5 45 46 47 48 49
DONOR_HYDROGENS      STATIC     ATOMS    <user>   **** ""
3 22 44 39
ATOM$BLUE        STATIC     ATOMS    COLORGROUP SYSTEM
5 45 46 47 48 49
ATOM$RED        STATIC     ATOMS    COLORGROUP SYSTEM
3 22 44 39
