AV-unprocessed.smi:2340|AV-procd|sdf|9345|dock10
  -GOLD-   2272012563D 1   1.00000     0.00000
 Structure written by MMmdl.
 40 41  0  0  0  0  0  0  0  0  1 V2000
  146.8884  151.5350  159.8403 C   0  0  0  0  0  0  0  0  0  0  0  0
  146.3517  150.3610  159.0836 C   0  0  0  0  0  0  0  0  0  0  0  0
  146.2280  150.2424  157.7220 C   0  0  0  0  0  0  0  0  0  0  0  0
  145.5597  148.7005  157.2625 S   0  0  0  0  0  0  0  0  0  0  0  0
  145.4719  148.2637  158.9656 C   0  0  0  0  0  0  0  0  0  0  0  0
  144.9491  146.9469  159.4470 C   0  0  1  0  0  0  0  0  0  0  0  0
  144.4202  146.0886  158.2844 C   0  0  0  0  0  0  0  0  0  0  0  0
  145.9729  146.2273  160.3522 C   0  0  0  0  0  0  0  0  0  0  0  0
  147.1554  145.7784  159.6241 N   0  0  0  0  0  0  0  0  0  0  0  0
  148.1896  145.1227  160.1680 C   0  0  0  0  0  0  0  0  0  0  0  0
  148.2712  144.8320  161.3614 O   0  0  0  0  0  0  0  0  0  0  0  0
  149.1170  144.8127  159.2522 N   0  0  0  0  0  0  0  0  0  0  0  0
  150.3428  144.0676  159.5208 C   0  0  2  0  0  0  0  0  0  0  0  0
  151.3712  144.9216  160.2336 C   0  0  0  0  0  0  0  0  0  0  0  0
  152.6776  144.2205  159.8735 C   0  0  0  0  0  0  0  0  0  0  0  0
  152.4625  143.6020  158.6085 O   0  0  0  0  0  0  0  0  0  0  0  0
  151.0921  143.7027  158.2335 C   0  0  1  0  0  0  0  0  0  0  0  0
  150.6267  142.3989  157.5734 C   0  0  0  0  0  0  0  0  0  0  0  0
  145.9143  149.2294  159.7777 N   0  0  0  0  0  0  0  0  0  0  0  0
  147.1297  152.3630  159.1732 H   0  0  0  0  0  0  0  0  0  0  0  0
  147.7981  151.2716  160.3802 H   0  0  0  0  0  0  0  0  0  0  0  0
  146.1639  151.8997  160.5688 H   0  0  0  0  0  0  0  0  0  0  0  0
  146.4893  150.9654  156.9635 H   0  0  0  0  0  0  0  0  0  0  0  0
  144.0842  147.1802  160.0694 H   0  0  0  0  0  0  0  0  0  0  0  0
  143.6706  146.6321  157.7087 H   0  0  0  0  0  0  0  0  0  0  0  0
  143.9517  145.1714  158.6415 H   0  0  0  0  0  0  0  0  0  0  0  0
  145.2240  145.8081  157.6031 H   0  0  0  0  0  0  0  0  0  0  0  0
  146.3041  146.8978  161.1458 H   0  0  0  0  0  0  0  0  0  0  0  0
  145.5053  145.3741  160.8467 H   0  0  0  0  0  0  0  0  0  0  0  0
  147.1805  145.9715  158.6335 H   0  0  0  0  0  0  0  0  0  0  0  0
  148.9562  145.0957  158.2966 H   0  0  0  0  0  0  0  0  0  0  0  0
  150.1488  143.1740  160.1180 H   0  0  0  0  0  0  0  0  0  0  0  0
  151.3763  145.9349  159.8284 H   0  0  0  0  0  0  0  0  0  0  0  0
  151.2054  144.9860  161.3093 H   0  0  0  0  0  0  0  0  0  0  0  0
  153.5223  144.9089  159.8420 H   0  0  0  0  0  0  0  0  0  0  0  0
  152.9037  143.4419  160.6030 H   0  0  0  0  0  0  0  0  0  0  0  0
  151.0167  144.5234  157.5178 H   0  0  0  0  0  0  0  0  0  0  0  0
  149.5856  142.4672  157.2581 H   0  0  0  0  0  0  0  0  0  0  0  0
  150.7155  141.5553  158.2585 H   0  0  0  0  0  0  0  0  0  0  0  0
  151.2257  142.1759  156.6904 H   0  0  0  0  0  0  0  0  0  0  0  0
  1  2  1  0  0  0  0
  1 20  1  0  0  0  0
  1 21  1  0  0  0  0
  1 22  1  0  0  0  0
  2 19  1  0  0  0  0
  2  3  2  0  0  0  0
  3  4  1  0  0  0  0
  3 23  1  0  0  0  0
  4  5  1  0  0  0  0
  5  6  1  0  0  0  0
  5 19  2  0  0  0  0
  6  7  1  0  0  0  0
  6  8  1  0  0  0  0
  6 24  1  0  0  0  0
  7 25  1  0  0  0  0
  7 26  1  0  0  0  0
  7 27  1  0  0  0  0
  8  9  1  0  0  0  0
  8 28  1  0  0  0  0
  8 29  1  0  0  0  0
  9 10  1  0  0  0  0
  9 30  1  0  0  0  0
 10 11  2  0  0  0  0
 10 12  1  0  0  0  0
 12 13  1  0  0  0  0
 12 31  1  0  0  0  0
 13 17  1  0  0  0  0
 13 14  1  0  0  0  0
 13 32  1  0  0  0  0
 14 15  1  0  0  0  0
 14 33  1  0  0  0  0
 14 34  1  0  0  0  0
 15 16  1  0  0  0  0
 15 35  1  0  0  0  0
 15 36  1  0  0  0  0
 16 17  1  0  0  0  0
 17 18  1  0  0  0  0
 17 37  1  0  0  0  0
 18 38  1  0  0  0  0
 18 39  1  0  0  0  0
 18 40  1  0  0  0  0
M  END
> <s_m_source_file>
AV-unprocessed.smi

> <i_m_source_file_index>
2340

> <i_lp_mmshare_version>
43012

> <i_f3d_flags>
0

> <s_epik_input>
W0NIM11jMVtjSF1zYyhuMSlbQ0BIXShbQ0gzXSlbQ0gyXVtOSF1DKD1PKVtOSF1bQ0BASF0yW0NIMl1bQ0gyXU9bQ0BIXTJbQ0gzXQ==

> <s_epik_cmdline>
J2VwaWtfcHl0aG9uJywgJy1waCcsICc3LjAnLCAnLXRuJywgJzgnLCAnLW1hJywgJzIwMCcsICctbWV0YWxfYmluZGluZycsICctaW1hZScsICc8aW5maWxlLm1hZT4nLCAnLW9tYWUnLCAnPG91dGZpbGUubWFlPic=

> <r_epik_Ionization_Penalty>
0.00156622

> <r_epik_Ionization_Penalty_Charging>
0

> <r_epik_Ionization_Penalty_Neutral>
0.00156622

> <r_epik_State_Penalty>
0.00101902

> <r_epik_Charging_Adjusted_Penalty>
0.00101902

> <i_epik_Tot_Q>
0

> <i_epik_Tot_abs_Q>
0

> <r_epik_Metal_State_Penalty>
-0

> <b_epik_Metal_Only>
0

> <s_lp_Force_Field>
OPLS_2005

> <r_lp_Energy>
4.85076

> <b_lp_Chiralities_Consistent>
1

> <s_lp_Variant>
AV-unprocessed.smi:2340-2

> <Gold.Version>
5.8.1

> <Gold.Id.Protein>
6NUR|6NUR_protein|mol2

> <Gold.PLP.Fitness>
51.3812

> <Gold.PLP.PLP>
-42.9242

> <Gold.PLP.part.hbond>
-2.7695

> <Gold.PLP.part.metal>
0.0000

> <Gold.PLP.part.buried>
-9.4490

> <Gold.PLP.part.nonpolar>
-32.2374

> <Gold.PLP.part.repulsive>
0.5425

> <Gold.PLP.ligand.clash>
0.0000

> <Gold.PLP.ligand.torsion>
0.1904

> <Gold.PLP.Chemscore.Hbond>
2.9033

> <Gold.PLP.Chemscore.CHOScore>
0.0000

> <Gold.PLP.Chemscore.Metal>
0.0000

> <Gold.Chemscore.Hbonds>
donor molecule, donor type, donor heavy atom, donor atom, acceptor molecule, acceptor atom, score
      L1  H     9    30       P1  8029  0.93
      L1  H    12    31       P1  8029  0.90

> <Gold.PLP.Chemscore.Internal.Correction>
0.1280

> <Gold.Rescore>
     Score         DG    S(hbond)    S(metal)    S(lipo)     H(rot)  DE(clash)    DE(int)     intcor
     23.82     -24.12       2.80        0.00     112.80       1.53       0.10       0.19       ----

> <Gold.Chemscore.Fitness>
23.8217

> <Gold.Chemscore.DG>
-24.1176

> <Gold.Chemscore.ZeroCoef>
-5.4800

> <Gold.Chemscore.Hbond>
2.8035

> <Gold.Chemscore.Metal>
0.0000

> <Gold.Chemscore.Lipo>
112.7975

> <Gold.Chemscore.Internal_Hbond>
0.0000

> <Gold.Chemscore.DEClash>
0.1034

> <Gold.Chemscore.DEInternal>
0.1925

> <Gold.Chemscore.Rot>
1.5325

> <Gold.Chemscore.Internal.Correction>
   9.000000E+99

> <Gold.Chemscore.Hbonds>
donor molecule, donor type, donor heavy atom, donor atom, acceptor molecule, acceptor atom, score
      L1  H     9    30       P1  8029  0.86
      L1  H    12    31       P1  8029  0.69
      P1  H  6933  6944       L1    11  0.02

> <Gold.Chemscore.Hbond.Weighted>
-9.3637

> <Gold.Chemscore.Metal.Weighted>
-0.0000

> <Gold.Chemscore.Lipo.Weighted>
-13.1973

> <Gold.Chemscore.Internal_Hbond.Weighted>
0.0000

> <Gold.Chemscore.DEClash.Weighted>
0.1034

> <Gold.Chemscore.DEInternal.Weighted>
0.1925

> <Gold.Chemscore.Rot.Weighted>
3.9233

> <Gold.Chemscore.Internal.Correction.Weighted>
   9.000000E+99

> <Gold.Protein.RotatedTorsions>
[ 6907 6896 6895 6894 ] final  -12.91 input  -60.11 | X-H torsion
[ 7974 7965 7964 7962 ] final  121.50 input  175.53 | X-H torsion
[ 8008 7997 7996 7995 ] final -170.18 input   59.86 | X-H torsion
[ 10167 10162 10161 10158 ] final   59.60 input  -65.29 | X-H torsion
[ 10718 10713 10712 10709 ] final -143.47 input   66.30 | X-H torsion
[ 10763 10752 10751 10750 ] final   51.01 input  -60.55 | X-H torsion
[ 11005 11000 10999 10996 ] final   25.83 input  -57.11 | X-H torsion

> <Gold.Protein.ActiveResidues>
 VAL166  LYS551  ARG553  GLY616  TRP617  ASP618  TYR619  PRO620  LYS621  CYS622 
 ASP623  PHE694  ASN695  SER759  ASP760  ASP761  ALA762  ILE779  LEU786  VAL792 
 PHE793  MET794  SER795  GLU796  ALA797  LYS798  CYS799  TRP800  GLU811  SER814 

> <Gold.Protein.RotatedAtoms>
  151.3631  135.0908  159.9440 H   0  0  0  0  0  0  0  0  0  0  0  0  # atno 6907 bound_to 6896
  152.5156  133.9238  159.7558 H   0  0  0  0  0  0  0  0  0  0  0  0  # atno 6908 bound_to 6896
  150.9637  133.6363  159.2779 H   0  0  0  0  0  0  0  0  0  0  0  0  # atno 6909 bound_to 6896
  145.1186  139.3404  143.4726 H   0  0  0  0  0  0  0  0  0  0  0  0  # atno 7974 bound_to 7965
  155.9148  140.1064  157.1252 H   0  0  0  0  0  0  0  0  0  0  0  0  # atno 8008 bound_to 7997
  154.4045  140.1267  156.4669 H   0  0  0  0  0  0  0  0  0  0  0  0  # atno 8009 bound_to 7997
  155.7266  140.3469  155.5042 H   0  0  0  0  0  0  0  0  0  0  0  0  # atno 8010 bound_to 7997
  140.1747  144.4242  150.6644 H   0  0  0  0  0  0  0  0  0  0  0  0  # atno 10167 bound_to 10162
  156.3583  130.7725  151.1888 H   0  0  0  0  0  0  0  0  0  0  0  0  # atno 10718 bound_to 10713
  152.9785  135.5860  154.4345 H   0  0  0  0  0  0  0  0  0  0  0  0  # atno 10763 bound_to 10752
  154.3954  135.2768  155.2131 H   0  0  0  0  0  0  0  0  0  0  0  0  # atno 10764 bound_to 10752
  154.3985  135.6109  153.5938 H   0  0  0  0  0  0  0  0  0  0  0  0  # atno 10765 bound_to 10752
  140.3436  134.2306  155.7687 H   0  0  0  0  0  0  0  0  0  0  0  0  # atno 11005 bound_to 11000
  146.3522  140.1136  142.8603 LP  0  0  0  0  0  0  0  0  0  0  0  0  # atno 17320 bound_to 7965
  145.0766  140.9192  143.4850 LP  0  0  0  0  0  0  0  0  0  0  0  0  # atno 17321 bound_to 7965
  140.6559  143.2237  151.5970 LP  0  0  0  0  0  0  0  0  0  0  0  0  # atno 17342 bound_to 10162
  139.5322  144.2883  152.1173 LP  0  0  0  0  0  0  0  0  0  0  0  0  # atno 17343 bound_to 10162
  157.7470  131.0407  150.4613 LP  0  0  0  0  0  0  0  0  0  0  0  0  # atno 17370 bound_to 10713
  156.4819  130.4076  149.6456 LP  0  0  0  0  0  0  0  0  0  0  0  0  # atno 17371 bound_to 10713
  141.2032  133.7919  157.0353 LP  0  0  0  0  0  0  0  0  0  0  0  0  # atno 17394 bound_to 11000
  140.0761  134.9675  157.1547 LP  0  0  0  0  0  0  0  0  0  0  0  0  # atno 17395 bound_to 11000

$$$$
