AV-unprocessed.smi:1671|AV-procd|sdf|6700|dock3
  -GOLD-   22720 7433D 1   1.00000     0.00000
 Structure written by MMmdl.
 44 45  0  0  0  0  0  0  0  0  1 V2000
  149.3719  132.8395  154.1528 C   0  0  0  0  0  0  0  0  0  0  0  0
  148.8691  133.6122  155.7148 S   0  0  0  0  0  0  0  0  0  0  0  0
  148.6333  135.3363  155.1889 C   0  0  1  0  0  0  0  0  0  0  0  0
  147.7298  136.0771  156.1872 C   0  0  0  0  0  0  0  0  0  0  0  0
  149.9689  136.0670  155.0046 C   0  0  0  0  0  0  0  0  0  0  0  0
  151.0256  135.5266  155.3336 O   0  0  0  0  0  0  0  0  0  0  0  0
  149.9091  137.2973  154.4711 N   0  0  0  0  0  0  0  0  0  0  0  0
  151.0628  138.1526  154.2128 C   0  0  0  0  0  0  0  0  0  0  0  0
  151.3778  139.1395  155.3282 C   0  0  0  0  0  0  0  0  0  0  0  0
  150.6364  140.3254  155.5138 C   0  0  0  0  0  0  0  0  0  0  0  0
  150.9880  141.1943  156.5641 C   0  0  0  0  0  0  0  0  0  0  0  0
  152.0757  140.8583  157.4050 C   0  0  0  0  0  0  0  0  0  0  0  0
  152.4440  141.7123  158.4675 N   0  0  0  0  0  0  0  0  0  0  0  0
  152.5834  141.1283  159.8001 C   0  0  0  0  0  0  0  0  0  0  0  0
  153.2662  142.1236  160.7520 C   0  0  0  0  0  0  0  0  0  0  0  0
  152.5454  143.3514  160.7587 O   0  0  0  0  0  0  0  0  0  0  0  0
  152.5164  143.9637  159.4724 C   0  0  2  0  0  0  0  0  0  0  0  0
  151.8043  145.3144  159.5988 C   0  0  0  0  0  0  0  0  0  0  0  0
  151.8055  143.0261  158.4770 C   0  0  0  0  0  0  0  0  0  0  0  0
  152.7947  139.7247  157.2130 N   0  0  0  0  0  0  0  0  0  0  0  0
  152.4526  138.8948  156.2056 C   0  0  0  0  0  0  0  0  0  0  0  0
  149.4910  131.7651  154.2900 H   0  0  0  0  0  0  0  0  0  0  0  0
  150.3217  133.2473  153.8075 H   0  0  0  0  0  0  0  0  0  0  0  0
  148.6183  133.0075  153.3835 H   0  0  0  0  0  0  0  0  0  0  0  0
  148.1126  135.3133  154.2302 H   0  0  0  0  0  0  0  0  0  0  0  0
  147.5823  137.1173  155.8941 H   0  0  0  0  0  0  0  0  0  0  0  0
  148.1519  136.0700  157.1928 H   0  0  0  0  0  0  0  0  0  0  0  0
  146.7459  135.6104  156.2406 H   0  0  0  0  0  0  0  0  0  0  0  0
  149.0018  137.6661  154.2255 H   0  0  0  0  0  0  0  0  0  0  0  0
  151.9385  137.5338  154.0088 H   0  0  0  0  0  0  0  0  0  0  0  0
  150.8677  138.7189  153.3020 H   0  0  0  0  0  0  0  0  0  0  0  0
  149.8113  140.5751  154.8632 H   0  0  0  0  0  0  0  0  0  0  0  0
  150.4318  142.1095  156.7009 H   0  0  0  0  0  0  0  0  0  0  0  0
  151.5971  140.8628  160.1833 H   0  0  0  0  0  0  0  0  0  0  0  0
  153.1736  140.2122  159.7527 H   0  0  0  0  0  0  0  0  0  0  0  0
  153.2888  141.7196  161.7640 H   0  0  0  0  0  0  0  0  0  0  0  0
  154.3019  142.2979  160.4557 H   0  0  0  0  0  0  0  0  0  0  0  0
  153.5404  144.1425  159.1389 H   0  0  0  0  0  0  0  0  0  0  0  0
  151.7658  145.8288  158.6382 H   0  0  0  0  0  0  0  0  0  0  0  0
  152.3241  145.9643  160.3031 H   0  0  0  0  0  0  0  0  0  0  0  0
  150.7808  145.1893  159.9536 H   0  0  0  0  0  0  0  0  0  0  0  0
  151.8154  143.4854  157.4898 H   0  0  0  0  0  0  0  0  0  0  0  0
  150.7584  142.9034  158.7578 H   0  0  0  0  0  0  0  0  0  0  0  0
  153.0568  138.0059  156.0992 H   0  0  0  0  0  0  0  0  0  0  0  0
  1  2  1  0  0  0  0
  1 22  1  0  0  0  0
  1 23  1  0  0  0  0
  1 24  1  0  0  0  0
  2  3  1  0  0  0  0
  3  4  1  0  0  0  0
  3  5  1  0  0  0  0
  3 25  1  0  0  0  0
  4 26  1  0  0  0  0
  4 27  1  0  0  0  0
  4 28  1  0  0  0  0
  5  6  2  0  0  0  0
  5  7  1  0  0  0  0
  7  8  1  0  0  0  0
  7 29  1  0  0  0  0
  8  9  1  0  0  0  0
  8 30  1  0  0  0  0
  8 31  1  0  0  0  0
  9 21  1  0  0  0  0
  9 10  2  0  0  0  0
 10 11  1  0  0  0  0
 10 32  1  0  0  0  0
 11 12  2  0  0  0  0
 11 33  1  0  0  0  0
 12 13  1  0  0  0  0
 12 20  1  0  0  0  0
 13 19  1  0  0  0  0
 13 14  1  0  0  0  0
 14 15  1  0  0  0  0
 14 34  1  0  0  0  0
 14 35  1  0  0  0  0
 15 16  1  0  0  0  0
 15 36  1  0  0  0  0
 15 37  1  0  0  0  0
 16 17  1  0  0  0  0
 17 18  1  0  0  0  0
 17 19  1  0  0  0  0
 17 38  1  0  0  0  0
 18 39  1  0  0  0  0
 18 40  1  0  0  0  0
 18 41  1  0  0  0  0
 19 42  1  0  0  0  0
 19 43  1  0  0  0  0
 20 21  2  0  0  0  0
 21 44  1  0  0  0  0
M  END
> <s_m_source_file>
AV-unprocessed.smi

> <i_m_source_file_index>
1671

> <i_lp_mmshare_version>
43012

> <i_f3d_flags>
0

> <s_epik_input>
W0NIM11TW0NASF0oW0NIM10pQyg9TylbTkhdW0NIMl1jMVtjSF1bY0hdYyhuW2NIXTEpTjJbQ0gyXVtDSDJdT1tDQEBIXShbQ0gzXSlbQ0gyXTI=

> <s_epik_cmdline>
J2VwaWtfcHl0aG9uJywgJy1waCcsICc3LjAnLCAnLXRuJywgJzgnLCAnLW1hJywgJzIwMCcsICctbWV0YWxfYmluZGluZycsICctaW1hZScsICc8aW5maWxlLm1hZT4nLCAnLW9tYWUnLCAnPG91dGZpbGUubWFlPic=

> <r_lp_tautomer_probability>
1

> <r_epik_Ionization_Penalty>
0.00480033

> <r_epik_Ionization_Penalty_Charging>
0

> <r_epik_Ionization_Penalty_Neutral>
0.00480033

> <r_epik_State_Penalty>
0.00347981

> <r_epik_Charging_Adjusted_Penalty>
0.00347981

> <i_epik_Tot_Q>
0

> <i_epik_Tot_abs_Q>
0

> <r_epik_Metal_State_Penalty>
-0

> <b_epik_Metal_Only>
0

> <s_lp_Force_Field>
OPLS_2005

> <r_lp_Energy>
15.0592

> <b_lp_Chiralities_Consistent>
1

> <s_lp_Variant>
AV-unprocessed.smi:1671-4

> <Gold.Version>
5.8.1

> <Gold.Id.Protein>
6NUR|6NUR_protein|mol2

> <Gold.PLP.Fitness>
47.0610

> <Gold.PLP.PLP>
-42.2630

> <Gold.PLP.part.hbond>
-3.0000

> <Gold.PLP.part.metal>
0.0000

> <Gold.PLP.part.buried>
-4.3565

> <Gold.PLP.part.nonpolar>
-34.7582

> <Gold.PLP.part.repulsive>
0.1952

> <Gold.PLP.ligand.clash>
0.0000

> <Gold.PLP.ligand.torsion>
0.8026

> <Gold.PLP.Chemscore.Hbond>
2.0000

> <Gold.PLP.Chemscore.CHOScore>
0.0000

> <Gold.PLP.Chemscore.Metal>
0.0000

> <Gold.Chemscore.Hbonds>
donor molecule, donor type, donor heavy atom, donor atom, acceptor molecule, acceptor atom, score
      P1  H  7997  8009       L1    20  1.00
      P1  H 10752 10765       L1     6  0.93

> <Gold.PLP.Chemscore.Internal.Correction>
0.4033

> <Gold.Rescore>
     Score         DG    S(hbond)    S(metal)    S(lipo)     H(rot)  DE(clash)    DE(int)     intcor
     18.24     -19.32       1.58        0.00     108.69       1.63       0.33       0.75       ----

> <Gold.Chemscore.Fitness>
18.2375

> <Gold.Chemscore.DG>
-19.3152

> <Gold.Chemscore.ZeroCoef>
-5.4800

> <Gold.Chemscore.Hbond>
1.5821

> <Gold.Chemscore.Metal>
0.0000

> <Gold.Chemscore.Lipo>
108.6888

> <Gold.Chemscore.Internal_Hbond>
0.0000

> <Gold.Chemscore.DEClash>
0.3290

> <Gold.Chemscore.DEInternal>
0.7487

> <Gold.Chemscore.Rot>
1.6272

> <Gold.Chemscore.Internal.Correction>
   9.000000E+99

> <Gold.Chemscore.Hbonds>
donor molecule, donor type, donor heavy atom, donor atom, acceptor molecule, acceptor atom, score
      P1  H  7997  8009       L1    20  0.32
      P1  H 10752 10765       L1     6  0.85

> <Gold.Chemscore.Hbond.Weighted>
-5.2844

> <Gold.Chemscore.Metal.Weighted>
-0.0000

> <Gold.Chemscore.Lipo.Weighted>
-12.7166

> <Gold.Chemscore.Internal_Hbond.Weighted>
0.0000

> <Gold.Chemscore.DEClash.Weighted>
0.3290

> <Gold.Chemscore.DEInternal.Weighted>
0.7487

> <Gold.Chemscore.Rot.Weighted>
4.1657

> <Gold.Chemscore.Internal.Correction.Weighted>
   9.000000E+99

> <Gold.Protein.RotatedTorsions>
[ 6907 6896 6895 6894 ] final  -94.86 input  -60.11 | X-H torsion
[ 7974 7965 7964 7962 ] final  103.19 input  175.53 | X-H torsion
[ 8008 7997 7996 7995 ] final  161.53 input   59.86 | X-H torsion
[ 10167 10162 10161 10158 ] final -101.91 input  -65.29 | X-H torsion
[ 10718 10713 10712 10709 ] final  118.70 input   66.30 | X-H torsion
[ 10763 10752 10751 10750 ] final  175.64 input  -60.55 | X-H torsion
[ 11005 11000 10999 10996 ] final  -73.06 input  -57.11 | X-H torsion

> <Gold.Protein.ActiveResidues>
 VAL166  LYS551  ARG553  GLY616  TRP617  ASP618  TYR619  PRO620  LYS621  CYS622 
 ASP623  PHE694  ASN695  SER759  ASP760  ASP761  ALA762  ILE779  LEU786  VAL792 
 PHE793  MET794  SER795  GLU796  ALA797  LYS798  CYS799  TRP800  GLU811  SER814 

> <Gold.Protein.RotatedAtoms>
  150.6951  134.1747  159.4225 H   0  0  0  0  0  0  0  0  0  0  0  0  # atno 6907 bound_to 6896
  151.9724  135.0068  160.0562 H   0  0  0  0  0  0  0  0  0  0  0  0  # atno 6908 bound_to 6896
  152.1830  133.4685  159.5005 H   0  0  0  0  0  0  0  0  0  0  0  0  # atno 6909 bound_to 6896
  145.3491  139.2443  143.3568 H   0  0  0  0  0  0  0  0  0  0  0  0  # atno 7974 bound_to 7965
  156.2096  140.1775  156.7723 H   0  0  0  0  0  0  0  0  0  0  0  0  # atno 8008 bound_to 7997
  154.5704  140.0683  156.8985 H   0  0  0  0  0  0  0  0  0  0  0  0  # atno 8009 bound_to 7997
  155.2683  140.3340  155.4270 H   0  0  0  0  0  0  0  0  0  0  0  0  # atno 8010 bound_to 7997
  140.2363  143.3571  152.0842 H   0  0  0  0  0  0  0  0  0  0  0  0  # atno 10167 bound_to 10162
  157.6012  131.1050  150.7793 H   0  0  0  0  0  0  0  0  0  0  0  0  # atno 10718 bound_to 10713
  154.4703  135.2771  155.1647 H   0  0  0  0  0  0  0  0  0  0  0  0  # atno 10763 bound_to 10752
  154.3399  135.6172  153.5595 H   0  0  0  0  0  0  0  0  0  0  0  0  # atno 10764 bound_to 10752
  152.9863  135.5786  154.5083 H   0  0  0  0  0  0  0  0  0  0  0  0  # atno 10765 bound_to 10752
  141.1617  133.6866  156.7154 H   0  0  0  0  0  0  0  0  0  0  0  0  # atno 11005 bound_to 11000
  146.2975  140.4104  142.8716 LP  0  0  0  0  0  0  0  0  0  0  0  0  # atno 17320 bound_to 7965
  144.8731  140.7300  143.6034 LP  0  0  0  0  0  0  0  0  0  0  0  0  # atno 17321 bound_to 7965
  139.5092  144.6864  151.5876 LP  0  0  0  0  0  0  0  0  0  0  0  0  # atno 17342 bound_to 10162
  140.6147  143.9370  150.6480 LP  0  0  0  0  0  0  0  0  0  0  0  0  # atno 17343 bound_to 10162
  156.8192  130.4978  149.5345 LP  0  0  0  0  0  0  0  0  0  0  0  0  # atno 17370 bound_to 10713
  156.1086  130.6023  151.0011 LP  0  0  0  0  0  0  0  0  0  0  0  0  # atno 17371 bound_to 10713
  140.2855  134.8282  157.3971 LP  0  0  0  0  0  0  0  0  0  0  0  0  # atno 17394 bound_to 11000
  140.1394  134.4992  155.8043 LP  0  0  0  0  0  0  0  0  0  0  0  0  # atno 17395 bound_to 11000

$$$$
