AV-unprocessed.smi:1811|AV-procd|sdf|7335|dock5
  -GOLD-   22720 8593D 1   1.00000     0.00000
 Structure written by MMmdl.
 43 44  0  0  0  0  0  0  0  0  1 V2000
  152.8104  144.8049  157.6957 C   0  0  0  0  0  0  0  0  0  0  0  0
  152.1752  144.2426  158.9854 C   0  0  0  0  0  0  0  0  0  0  0  0
  153.2608  143.4766  159.7658 C   0  0  0  0  0  0  0  0  0  0  0  0
  151.6788  145.4137  159.8600 C   0  0  0  0  0  0  0  0  0  0  0  0
  151.0191  143.2503  158.6731 C   0  0  0  0  0  0  0  0  0  0  0  0
  151.4275  141.9625  157.9447 C   0  0  0  0  0  0  0  0  0  0  0  0
  152.3169  141.2553  158.4160 O   0  0  0  0  0  0  0  0  0  0  0  0
  150.7245  141.6763  156.8339 N   0  0  0  0  0  0  0  0  0  0  0  0
  150.8557  140.5779  155.9353 C   0  0  0  0  0  0  0  0  0  0  0  0
  151.9990  139.7426  155.8813 C   0  0  0  0  0  0  0  0  0  0  0  0
  152.0375  138.6923  154.9458 C   0  0  0  0  0  0  0  0  0  0  0  0
  150.9354  138.5159  154.0905 C   0  0  0  0  0  0  0  0  0  0  0  0
  149.8463  139.3103  154.1174 N   0  0  0  0  0  0  0  0  0  0  0  0
  149.8058  140.3241  155.0153 C   0  0  0  0  0  0  0  0  0  0  0  0
  148.6649  141.1445  155.0085 N   0  0  0  0  0  0  0  0  0  0  0  0
  147.8568  141.0465  156.2168 C   0  0  0  0  0  0  0  0  0  0  0  0
  146.7270  142.0903  156.1751 C   0  0  0  0  0  0  0  0  0  0  0  0
  145.9575  141.9154  154.9883 O   0  0  0  0  0  0  0  0  0  0  0  0
  146.7419  142.0829  153.8104 C   0  0  0  0  0  0  0  0  0  0  0  0
  147.8720  141.0394  153.7906 C   0  0  0  0  0  0  0  0  0  0  0  0
  153.6843  145.4171  157.9206 H   0  0  0  0  0  0  0  0  0  0  0  0
  152.1168  145.4358  157.1395 H   0  0  0  0  0  0  0  0  0  0  0  0
  153.1347  144.0034  157.0312 H   0  0  0  0  0  0  0  0  0  0  0  0
  153.6539  142.6422  159.1837 H   0  0  0  0  0  0  0  0  0  0  0  0
  152.8688  143.0697  160.6986 H   0  0  0  0  0  0  0  0  0  0  0  0
  154.1024  144.1220  160.0200 H   0  0  0  0  0  0  0  0  0  0  0  0
  152.5021  146.0675  160.1501 H   0  0  0  0  0  0  0  0  0  0  0  0
  151.2086  145.0532  160.7757 H   0  0  0  0  0  0  0  0  0  0  0  0
  150.9491  146.0325  159.3369 H   0  0  0  0  0  0  0  0  0  0  0  0
  150.5286  142.9589  159.6030 H   0  0  0  0  0  0  0  0  0  0  0  0
  150.2503  143.7560  158.0858 H   0  0  0  0  0  0  0  0  0  0  0  0
  149.9657  142.3087  156.6228 H   0  0  0  0  0  0  0  0  0  0  0  0
  152.8527  139.8901  156.5234 H   0  0  0  0  0  0  0  0  0  0  0  0
  152.8957  138.0397  154.8830 H   0  0  0  0  0  0  0  0  0  0  0  0
  150.9311  137.7202  153.3604 H   0  0  0  0  0  0  0  0  0  0  0  0
  147.4332  140.0444  156.2982 H   0  0  0  0  0  0  0  0  0  0  0  0
  148.4835  141.2058  157.0951 H   0  0  0  0  0  0  0  0  0  0  0  0
  146.0759  141.9760  157.0418 H   0  0  0  0  0  0  0  0  0  0  0  0
  147.1319  143.1030  156.2119 H   0  0  0  0  0  0  0  0  0  0  0  0
  146.1021  141.9618  152.9362 H   0  0  0  0  0  0  0  0  0  0  0  0
  147.1472  143.0953  153.7722 H   0  0  0  0  0  0  0  0  0  0  0  0
  148.5101  141.1926  152.9194 H   0  0  0  0  0  0  0  0  0  0  0  0
  147.4491  140.0370  153.7105 H   0  0  0  0  0  0  0  0  0  0  0  0
  1  2  1  0  0  0  0
  1 21  1  0  0  0  0
  1 22  1  0  0  0  0
  1 23  1  0  0  0  0
  2  3  1  0  0  0  0
  2  4  1  0  0  0  0
  2  5  1  0  0  0  0
  3 24  1  0  0  0  0
  3 25  1  0  0  0  0
  3 26  1  0  0  0  0
  4 27  1  0  0  0  0
  4 28  1  0  0  0  0
  4 29  1  0  0  0  0
  5  6  1  0  0  0  0
  5 30  1  0  0  0  0
  5 31  1  0  0  0  0
  6  7  2  0  0  0  0
  6  8  1  0  0  0  0
  8  9  1  0  0  0  0
  8 32  1  0  0  0  0
  9 14  1  0  0  0  0
  9 10  2  0  0  0  0
 10 11  1  0  0  0  0
 10 33  1  0  0  0  0
 11 12  2  0  0  0  0
 11 34  1  0  0  0  0
 12 13  1  0  0  0  0
 12 35  1  0  0  0  0
 13 14  2  0  0  0  0
 14 15  1  0  0  0  0
 15 20  1  0  0  0  0
 15 16  1  0  0  0  0
 16 17  1  0  0  0  0
 16 36  1  0  0  0  0
 16 37  1  0  0  0  0
 17 18  1  0  0  0  0
 17 38  1  0  0  0  0
 17 39  1  0  0  0  0
 18 19  1  0  0  0  0
 19 20  1  0  0  0  0
 19 40  1  0  0  0  0
 19 41  1  0  0  0  0
 20 42  1  0  0  0  0
 20 43  1  0  0  0  0
M  END
> <s_m_source_file>
AV-unprocessed.smi

> <i_m_source_file_index>
1811

> <i_lp_mmshare_version>
43012

> <i_f3d_flags>
0

> <s_epik_input>
W0NIM11DKFtDSDNdKShbQ0gzXSlbQ0gyXUMoPU8pW05IXWMxW2NIXVtjSF1bY0hdbmMxTjJbQ0gyXVtDSDJdT1tDSDJdW0NIMl0y

> <s_epik_cmdline>
J2VwaWtfcHl0aG9uJywgJy1waCcsICc3LjAnLCAnLXRuJywgJzgnLCAnLW1hJywgJzIwMCcsICctbWV0YWxfYmluZGluZycsICctaW1hZScsICc8aW5maWxlLm1hZT4nLCAnLW9tYWUnLCAnPG91dGZpbGUubWFlPic=

> <r_lp_tautomer_probability>
1

> <r_epik_Ionization_Penalty>
0.000654353

> <r_epik_Ionization_Penalty_Charging>
0

> <r_epik_Ionization_Penalty_Neutral>
0.000654353

> <r_epik_State_Penalty>
0.000408291

> <r_epik_Charging_Adjusted_Penalty>
0.000408291

> <i_epik_Tot_Q>
0

> <i_epik_Tot_abs_Q>
0

> <r_epik_Metal_State_Penalty>
-0

> <b_epik_Metal_Only>
0

> <s_lp_Force_Field>
OPLS_2005

> <r_lp_Energy>
24.8373

> <b_lp_Chiralities_Consistent>
1

> <s_lp_Variant>
AV-unprocessed.smi:1811-1

> <Gold.Version>
5.8.1

> <Gold.Id.Protein>
6NUR|6NUR_protein|mol2

> <Gold.PLP.Fitness>
47.0972

> <Gold.PLP.PLP>
-44.6110

> <Gold.PLP.part.hbond>
-0.0181

> <Gold.PLP.part.metal>
0.0000

> <Gold.PLP.part.buried>
-8.3571

> <Gold.PLP.part.nonpolar>
-37.4941

> <Gold.PLP.part.repulsive>
1.1910

> <Gold.PLP.ligand.clash>
0.0000

> <Gold.PLP.ligand.torsion>
0.4010

> <Gold.PLP.Chemscore.Hbond>
0.0000

> <Gold.PLP.Chemscore.CHOScore>
1.0470

> <Gold.PLP.Chemscore.Metal>
0.0000

> <Gold.Chemscore.Hbonds>
donor molecule, donor type, donor heavy atom, donor atom, acceptor molecule, acceptor atom, score
      L1  C    12    35       P1  7948  0.09
      L1  C    12    35       P1  7949  0.93

> <Gold.PLP.Chemscore.Internal.Correction>
0.1471

> <Gold.Rescore>
     Score         DG    S(hbond)    S(metal)    S(lipo)     H(rot)  DE(clash)    DE(int)     intcor
     12.09     -15.17       0.00        0.00     111.39       1.30       0.10       2.98       ----

> <Gold.Chemscore.Fitness>
12.0871

> <Gold.Chemscore.DG>
-15.1740

> <Gold.Chemscore.ZeroCoef>
-5.4800

> <Gold.Chemscore.Hbond>
0.0000

> <Gold.Chemscore.Metal>
0.0000

> <Gold.Chemscore.Lipo>
111.3920

> <Gold.Chemscore.Internal_Hbond>
0.0000

> <Gold.Chemscore.DEClash>
0.1047

> <Gold.Chemscore.DEInternal>
2.9823

> <Gold.Chemscore.Rot>
1.3042

> <Gold.Chemscore.Internal.Correction>
   9.000000E+99

> <Gold.Chemscore.Hbond.Weighted>
-0.0000

> <Gold.Chemscore.Metal.Weighted>
-0.0000

> <Gold.Chemscore.Lipo.Weighted>
-13.0329

> <Gold.Chemscore.Internal_Hbond.Weighted>
0.0000

> <Gold.Chemscore.DEClash.Weighted>
0.1047

> <Gold.Chemscore.DEInternal.Weighted>
2.9823

> <Gold.Chemscore.Rot.Weighted>
3.3389

> <Gold.Chemscore.Internal.Correction.Weighted>
   9.000000E+99

> <Gold.Protein.RotatedTorsions>
[ 6907 6896 6895 6894 ] final  -23.33 input  -60.11 | X-H torsion
[ 7974 7965 7964 7962 ] final   71.78 input  175.53 | X-H torsion
[ 8008 7997 7996 7995 ] final -167.61 input   59.86 | X-H torsion
[ 10167 10162 10161 10158 ] final -162.90 input  -65.29 | X-H torsion
[ 10718 10713 10712 10709 ] final    1.48 input   66.30 | X-H torsion
[ 10763 10752 10751 10750 ] final   74.20 input  -60.55 | X-H torsion
[ 11005 11000 10999 10996 ] final  130.69 input  -57.11 | X-H torsion

> <Gold.Protein.ActiveResidues>
 VAL166  LYS551  ARG553  GLY616  TRP617  ASP618  TYR619  PRO620  LYS621  CYS622 
 ASP623  PHE694  ASN695  SER759  ASP760  ASP761  ALA762  ILE779  LEU786  VAL792 
 PHE793  MET794  SER795  GLU796  ALA797  LYS798  CYS799  TRP800  GLU811  SER814 

> <Gold.Protein.RotatedAtoms>
  151.2055  135.0460  159.8889 H   0  0  0  0  0  0  0  0  0  0  0  0  # atno 6907 bound_to 6896
  152.5429  134.0802  159.8242 H   0  0  0  0  0  0  0  0  0  0  0  0  # atno 6908 bound_to 6896
  151.0949  133.5240  159.2645 H   0  0  0  0  0  0  0  0  0  0  0  0  # atno 6909 bound_to 6896
  145.7616  139.2803  143.1373 H   0  0  0  0  0  0  0  0  0  0  0  0  # atno 7974 bound_to 7965
  155.8800  140.1007  157.1492 H   0  0  0  0  0  0  0  0  0  0  0  0  # atno 8008 bound_to 7997
  154.4004  140.1331  156.4248 H   0  0  0  0  0  0  0  0  0  0  0  0  # atno 8009 bound_to 7997
  155.7653  140.3462  155.5221 H   0  0  0  0  0  0  0  0  0  0  0  0  # atno 8010 bound_to 7997
  139.6359  144.0351  152.2054 H   0  0  0  0  0  0  0  0  0  0  0  0  # atno 10167 bound_to 10162
  156.8488  130.5546  149.5671 H   0  0  0  0  0  0  0  0  0  0  0  0  # atno 10718 bound_to 10713
  153.0571  135.5035  154.8006 H   0  0  0  0  0  0  0  0  0  0  0  0  # atno 10763 bound_to 10752
  154.6824  135.2970  154.9597 H   0  0  0  0  0  0  0  0  0  0  0  0  # atno 10764 bound_to 10752
  154.0379  135.6721  153.4840 H   0  0  0  0  0  0  0  0  0  0  0  0  # atno 10765 bound_to 10752
  139.9686  134.9583  156.9330 H   0  0  0  0  0  0  0  0  0  0  0  0  # atno 11005 bound_to 11000
  146.0258  140.8304  142.9900 LP  0  0  0  0  0  0  0  0  0  0  0  0  # atno 17320 bound_to 7965
  144.6829  140.2696  143.7307 LP  0  0  0  0  0  0  0  0  0  0  0  0  # atno 17321 bound_to 7965
  140.0028  144.6281  150.7715 LP  0  0  0  0  0  0  0  0  0  0  0  0  # atno 17342 bound_to 10162
  140.7465  143.2891  151.3379 LP  0  0  0  0  0  0  0  0  0  0  0  0  # atno 17343 bound_to 10162
  156.0840  130.5843  150.9614 LP  0  0  0  0  0  0  0  0  0  0  0  0  # atno 17370 bound_to 10713
  157.6315  131.0920  150.8432 LP  0  0  0  0  0  0  0  0  0  0  0  0  # atno 17371 bound_to 10713
  140.5341  134.0784  155.7323 LP  0  0  0  0  0  0  0  0  0  0  0  0  # atno 17394 bound_to 11000
  141.1366  133.9210  157.2419 LP  0  0  0  0  0  0  0  0  0  0  0  0  # atno 17395 bound_to 11000

$$$$
