#       Name:                AV-unprocessed.smi:2881
#       Creating user name   scv26
#       Creation time:       Fri Mar 27 15:54:19 2020


#       File generated by GOLD software.
#

@<TRIPOS>MOLECULE
AV-unprocessed.smi:2881
    45    47     1
SMALL
NO_CHARGES


@<TRIPOS>ATOM
      1 ****        -3.6869   4.2767   0.7808 C.3            1 S1                 0.0000
      2 ****        -3.2647   2.9628   1.3695 C.2            1 S1                 0.0000
      3 ****        -2.9904   1.7403   0.6887 C.2            1 S1                 0.0000
      4 ****        -2.6521   0.8670   1.6846 C.2            1 S1                 0.0000
      5 ****        -2.2575  -0.5742   1.6429 C.3            1 S1                 0.0000
      6 ****        -0.7372  -0.7233   1.6038 C.2            1 S1                 0.0000
      7 ****        -0.1136  -0.9509   2.6403 O.2            1 S1                 0.0000
      8 ****        -0.1541  -0.5954   0.4025 N.am           1 S1                 0.0000
      9 ****         1.2814  -0.7047   0.1543 C.3            1 S1                 0.0000
     10 ****         1.7990  -2.1657   0.1593 C.3            1 S1                 0.0000
     11 ****         0.9619  -3.0666  -0.7743 C.3            1 S1                 0.0000
     12 ****         1.3507  -2.5536  -2.1733 C.3            1 S1                 0.0000
     13 ****         2.3798  -1.4501  -1.8585 C.3            1 S1                 0.0000
     14 ****         3.0879  -2.0346  -0.6415 C.3            1 S1                 0.0000
     15 ****         1.6474  -0.2187  -1.2721 C.3            1 S1                 0.0000
     16 ****         2.5012   1.0644  -1.2612 C.3            1 S1                 0.0000
     17 ****         2.7157   1.5242  -2.5789 O.3            1 S1                 0.0000
     18 ****        -2.7385   1.5762   2.8614 N.pl3          1 S1                 0.0000
     19 ****        -3.1111   2.8569   2.6811 N.2            1 S1                 0.0000
     20 ****        -2.5455   1.2046   3.7809 H              1 S1                 0.0000
     21 ****        -3.6185   4.2609  -0.3071 H              1 S1                 0.0000
     22 ****        -3.0569   5.0909   1.1399 H              1 S1                 0.0000
     23 ****        -4.7184   4.5107   1.0452 H              1 S1                 0.0000
     24 ****        -3.0350   1.5367  -0.3710 H              1 S1                 0.0000
     25 ****        -2.6943  -1.0576   0.7680 H              1 S1                 0.0000
     26 ****        -2.6511  -1.0981   2.5150 H              1 S1                 0.0000
     27 ****        -0.7432  -0.4078  -0.3958 H              1 S1                 0.0000
     28 ****         1.8252  -0.1228   0.9016 H              1 S1                 0.0000
     29 ****         1.9260  -2.5786   1.1606 H              1 S1                 0.0000
     30 ****         1.2563  -4.1106  -0.6599 H              1 S1                 0.0000
     31 ****        -0.1108  -3.0111  -0.5888 H              1 S1                 0.0000
     32 ****         1.8049  -3.3528  -2.7603 H              1 S1                 0.0000
     33 ****         0.4935  -2.1765  -2.7321 H              1 S1                 0.0000
     34 ****         3.0315  -1.2205  -2.7019 H              1 S1                 0.0000
     35 ****         3.8130  -1.3584  -0.1868 H              1 S1                 0.0000
     36 ****         3.5737  -2.9913  -0.8418 H              1 S1                 0.0000
     37 ****         0.7461  -0.0170  -1.8545 H              1 S1                 0.0000
     38 ****         1.9894   1.8505  -0.7052 H              1 S1                 0.0000
     39 ****         3.4633   0.9020  -0.7753 H              1 S1                 0.0000
     40 ****         3.2300   2.3162  -2.5412 H              1 S1                 0.0000
     41 ****        -0.6018  -1.0383   3.5086 LP             1 S1                 0.0000
     42 ****         0.8813  -1.0484   2.6141 LP             1 S1                 0.0000
     43 ****         1.8370   1.7135  -3.0171 LP             1 S1                 0.0000
     44 ****         3.2065   0.8282  -3.1030 LP             1 S1                 0.0000
     45 ****        -3.2416   3.5642   3.3759 LP             1 S1                 0.0000
@<TRIPOS>BOND
    1    1   21 1     
    2    1   22 1     
    3    1   23 1     
    4    1    2 1     
    5    2   19 2     
    6    2    3 1     
    7    3    4 2     
    8    3   24 1     
    9    4   18 1     
   10    4    5 1     
   11    5    6 1     
   12    5   25 1     
   13    5   26 1     
   14    6    7 2     
   15    6    8 am    
   16    8    9 1     
   17    8   27 1     
   18    9   15 1     
   19    9   10 1     
   20    9   28 1     
   21   10   14 1     
   22   10   11 1     
   23   10   29 1     
   24   11   12 1     
   25   11   30 1     
   26   11   31 1     
   27   12   13 1     
   28   12   32 1     
   29   12   33 1     
   30   13   14 1     
   31   13   15 1     
   32   13   34 1     
   33   14   35 1     
   34   14   36 1     
   35   15   16 1     
   36   15   37 1     
   37   16   17 1     
   38   16   38 1     
   39   16   39 1     
   40   17   40 1     
   41   18   19 1     
   42   18   20 1     
   43    7   41 1     
   44    7   42 1     
   45   17   43 1     
   46   17   44 1     
   47   19   45 1     
@<TRIPOS>SUBSTRUCTURE
      1 S1             1
@<TRIPOS>SET
LONE_PAIRS      STATIC     ATOMS    <user>   **** ""
5 41 42 43 44 45
DONOR_HYDROGENS      STATIC     ATOMS    <user>   **** ""
3 27 40 20
ATOM$BLUE        STATIC     ATOMS    COLORGROUP SYSTEM
5 41 42 43 44 45
ATOM$RED        STATIC     ATOMS    COLORGROUP SYSTEM
3 27 40 20
