#       Name:                AV-unprocessed.smi:1065
#       Creating user name   scv26
#       Creation time:       Fri Mar 27 03:18:01 2020


#       File generated by GOLD software.
#

@<TRIPOS>MOLECULE
AV-unprocessed.smi:1065
    44    45     1
SMALL
NO_CHARGES


@<TRIPOS>ATOM
      1 ****        -1.6947  -4.1553  -0.3296 C.3            1 S1                 0.0000
      2 ****        -1.1007  -3.2183  -1.3906 C.3            1 S1                 0.0000
      3 ****        -1.4996  -1.7384  -1.2190 C.3            1 S1                 0.0000
      4 ****        -1.0877  -0.9149  -2.4561 C.3            1 S1                 0.0000
      5 ****        -1.4670   0.5699  -2.3136 C.3            1 S1                 0.0000
      6 ****        -0.8857   1.2085  -1.0363 C.3            1 S1                 0.0000
      7 ****         0.6356   1.4504  -1.1480 C.3            1 S1                 0.0000
      8 ****         1.1482   2.1359   0.0305 N.am           1 S1                 0.0000
      9 ****         2.4341   2.1592   0.4096 C.2            1 S1                 0.0000
     10 ****         3.3449   1.6508  -0.2431 O.2            1 S1                 0.0000
     11 ****         2.7384   2.8552   1.7365 C.3            1 S1                 0.0000
     12 ****         2.1431   2.1349   2.8471 N.pl3          1 S1                 0.0000
     13 ****         2.5400   1.0370   3.4940 C.2            1 S1                 0.0000
     14 ****         1.6845   0.6944   4.4450 N.2            1 S1                 0.0000
     15 ****         0.7044   1.6689   4.3532 N.2            1 S1                 0.0000
     16 ****         0.9707   2.5263   3.4066 N.2            1 S1                 0.0000
     17 ****        -1.2945   0.3730   0.1977 C.3            1 S1                 0.0000
     18 ****        -0.9053  -1.1088   0.0593 C.3            1 S1                 0.0000
     19 ****        -1.4441  -5.1932  -0.5500 H              1 S1                 0.0000
     20 ****        -2.7817  -4.0771  -0.2984 H              1 S1                 0.0000
     21 ****        -1.3113  -3.9336   0.6660 H              1 S1                 0.0000
     22 ****        -0.0141  -3.3126  -1.3942 H              1 S1                 0.0000
     23 ****        -1.4354  -3.5645  -2.3691 H              1 S1                 0.0000
     24 ****        -2.5871  -1.6928  -1.1433 H              1 S1                 0.0000
     25 ****        -0.0142  -1.0090  -2.6229 H              1 S1                 0.0000
     26 ****        -1.5671  -1.3216  -3.3473 H              1 S1                 0.0000
     27 ****        -1.1415   1.1238  -3.1947 H              1 S1                 0.0000
     28 ****        -2.5542   0.6546  -2.2906 H              1 S1                 0.0000
     29 ****        -1.3492   2.1907  -0.9300 H              1 S1                 0.0000
     30 ****         1.1642   0.5061  -1.2837 H              1 S1                 0.0000
     31 ****         0.8544   2.0616  -2.0243 H              1 S1                 0.0000
     32 ****         0.4687   2.5849   0.6279 H              1 S1                 0.0000
     33 ****         3.8161   2.9117   1.8941 H              1 S1                 0.0000
     34 ****         2.3585   3.8779   1.7175 H              1 S1                 0.0000
     35 ****         3.4436   0.4908   3.2653 H              1 S1                 0.0000
     36 ****        -0.8656   0.7860   1.1112 H              1 S1                 0.0000
     37 ****        -2.3756   0.4393   0.3261 H              1 S1                 0.0000
     38 ****        -1.2552  -1.6434   0.9421 H              1 S1                 0.0000
     39 ****         0.1807  -1.2077   0.0546 H              1 S1                 0.0000
     40 ****         3.1436   1.1888  -1.1068 LP             1 S1                 0.0000
     41 ****         4.2865   1.6996   0.0902 LP             1 S1                 0.0000
     42 ****         1.7341  -0.0798   5.0761 LP             1 S1                 0.0000
     43 ****        -0.1052   1.7100   4.9387 LP             1 S1                 0.0000
     44 ****         0.4184   3.3177   3.1445 LP             1 S1                 0.0000
@<TRIPOS>BOND
    1    1    2 1     
    2    1   19 1     
    3    1   20 1     
    4    1   21 1     
    5    2    3 1     
    6    2   22 1     
    7    2   23 1     
    8    3   18 1     
    9    3    4 1     
   10    3   24 1     
   11    4    5 1     
   12    4   25 1     
   13    4   26 1     
   14    5    6 1     
   15    5   27 1     
   16    5   28 1     
   17    6    7 1     
   18    6   17 1     
   19    6   29 1     
   20    7    8 1     
   21    7   30 1     
   22    7   31 1     
   23    8    9 am    
   24    8   32 1     
   25    9   10 2     
   26    9   11 1     
   27   11   12 1     
   28   11   33 1     
   29   11   34 1     
   30   12   16 1     
   31   12   13 1     
   32   13   14 2     
   33   13   35 1     
   34   14   15 1     
   35   15   16 2     
   36   17   18 1     
   37   17   36 1     
   38   17   37 1     
   39   18   38 1     
   40   18   39 1     
   41   10   40 1     
   42   10   41 1     
   43   14   42 1     
   44   15   43 1     
   45   16   44 1     
@<TRIPOS>SUBSTRUCTURE
      1 S1             1
@<TRIPOS>SET
LONE_PAIRS      STATIC     ATOMS    <user>   **** ""
5 40 41 42 43 44
DONOR_HYDROGENS      STATIC     ATOMS    <user>   **** ""
1 32
ATOM$BLUE        STATIC     ATOMS    COLORGROUP SYSTEM
5 40 41 42 43 44
ATOM$RED        STATIC     ATOMS    COLORGROUP SYSTEM
1 32
