AV-unprocessed.smi:2807|AV-procd|sdf|10822|dock4
  -GOLD-   2272015263D 1   1.00000     0.00000
 Structure written by MMmdl.
 31 32  0  0  0  0  0  0  0  0  2 V2000
  152.8489  140.2123  157.7295 O   0  0  0  0  0  0  0  0  0  0  0  0
  151.7249  140.1236  157.2223 C   0  0  0  0  0  0  0  0  0  0  0  0
  151.1190  139.0573  156.6260 N   0  5  0  0  0  0  0  0  0  0  0  0
  151.1468  138.7846  155.1843 C   0  0  2  0  0  0  0  0  0  0  0  0
  149.7950  139.1718  154.5657 C   0  0  0  0  0  0  0  0  0  0  0  0
  148.8841  137.9346  154.6755 C   0  0  0  0  0  0  0  0  0  0  0  0
  149.7895  136.7499  155.0461 C   0  0  0  0  0  0  0  0  0  0  0  0
  151.2233  137.2735  154.8938 C   0  0  2  0  0  0  0  0  0  0  0  0
  152.1503  136.5663  155.6955 O   0  0  0  0  0  0  0  0  0  0  0  0
  150.8194  141.3736  157.2192 C   0  0  0  0  0  0  0  0  0  0  0  0
  150.5362  141.7236  155.9598 F   0  0  0  0  0  0  0  0  0  0  0  0
  149.6642  141.0702  157.8169 F   0  0  0  0  0  0  0  0  0  0  0  0
  151.4787  142.5246  157.9781 C   0  0  0  0  0  0  0  0  0  0  0  0
  151.9346  142.3433  159.3040 C   0  0  0  0  0  0  0  0  0  0  0  0
  152.5499  143.4253  159.9619 C   0  0  0  0  0  0  0  0  0  0  0  0
  152.6869  144.6469  159.2763 C   0  0  0  0  0  0  0  0  0  0  0  0
  152.2010  144.7313  157.9567 C   0  0  0  0  0  0  0  0  0  0  0  0
  151.6087  143.7007  157.3176 N   0  0  0  0  0  0  0  0  0  0  0  0
  151.9571  139.3086  154.6748 H   0  0  0  0  0  0  0  0  0  0  0  0
  149.3517  140.0575  155.0238 H   0  0  0  0  0  0  0  0  0  0  0  0
  149.9444  139.4057  153.5109 H   0  0  0  0  0  0  0  0  0  0  0  0
  148.1201  138.0785  155.4411 H   0  0  0  0  0  0  0  0  0  0  0  0
  148.3658  137.7567  153.7325 H   0  0  0  0  0  0  0  0  0  0  0  0
  149.5941  136.4522  156.0789 H   0  0  0  0  0  0  0  0  0  0  0  0
  149.6054  135.8763  154.4201 H   0  0  0  0  0  0  0  0  0  0  0  0
  151.5268  137.1478  153.8536 H   0  0  0  0  0  0  0  0  0  0  0  0
  152.0618  136.8755  156.5841 H   0  0  0  0  0  0  0  0  0  0  0  0
  151.8223  141.3915  159.8018 H   0  0  0  0  0  0  0  0  0  0  0  0
  152.9120  143.3192  160.9738 H   0  0  0  0  0  0  0  0  0  0  0  0
  153.1545  145.4980  159.7484 H   0  0  0  0  0  0  0  0  0  0  0  0
  152.2890  145.6524  157.3998 H   0  0  0  0  0  0  0  0  0  0  0  0
  1  2  2  0  0  0  0
  2  3  1  0  0  0  0
  2 10  1  0  0  0  0
  3  4  1  0  0  0  0
  4  8  1  0  0  0  0
  4  5  1  0  0  0  0
  4 19  1  0  0  0  0
  5  6  1  0  0  0  0
  5 20  1  0  0  0  0
  5 21  1  0  0  0  0
  6  7  1  0  0  0  0
  6 22  1  0  0  0  0
  6 23  1  0  0  0  0
  7  8  1  0  0  0  0
  7 24  1  0  0  0  0
  7 25  1  0  0  0  0
  8  9  1  0  0  0  0
  8 26  1  0  0  0  0
  9 27  1  0  0  0  0
 10 11  1  0  0  0  0
 10 12  1  0  0  0  0
 10 13  1  0  0  0  0
 13 18  1  0  0  0  0
 13 14  2  0  0  0  0
 14 15  1  0  0  0  0
 14 28  1  0  0  0  0
 15 16  2  0  0  0  0
 15 29  1  0  0  0  0
 16 17  1  0  0  0  0
 16 30  1  0  0  0  0
 17 18  2  0  0  0  0
 17 31  1  0  0  0  0
M  CHG  1   3  -1
M  END
> <s_m_source_file>
AV-unprocessed.smi

> <i_m_source_file_index>
2807

> <i_lp_mmshare_version>
43012

> <i_f3d_flags>
0

> <s_epik_input>
bjFbY0hdW2NIXVtjSF1bY0hdYzFDKEYpKEYpQyg9TylbTkhdW0NAQEhdMltDSDJdW0NIMl1bQ0gyXVtDQEhdMltPSF0=

> <s_epik_cmdline>
J2VwaWtfcHl0aG9uJywgJy1waCcsICc3LjAnLCAnLXRuJywgJzgnLCAnLW1hJywgJzIwMCcsICctbWV0YWxfYmluZGluZycsICctaW1hZScsICc8aW5maWxlLm1hZT4nLCAnLW9tYWUnLCAnPG91dGZpbGUubWFlPic=

> <r_lp_tautomer_probability>
1

> <r_epik_Ionization_Penalty>
5.72231

> <r_epik_Ionization_Penalty_Charging>
5.72231

> <r_epik_Ionization_Penalty_Neutral>
5.49816e-06

> <r_epik_State_Penalty>
5.72227

> <r_epik_Charging_Adjusted_Penalty>
11.4446

> <i_epik_Tot_Q>
-1

> <i_epik_Tot_abs_Q>
1

> <r_epik_Metal_State_Penalty>
1.70075

> <b_epik_Metal_Only>
1

> <s_lp_Force_Field>
OPLS_2005

> <r_lp_Energy>
37.6883

> <b_lp_Chiralities_Consistent>
1

> <s_lp_Variant>
AV-unprocessed.smi:2807-7

> <Gold.Version>
5.8.1

> <Gold.Id.Protein>
6NUR|6NUR_protein|mol2

> <Gold.PLP.Fitness>
39.3639

> <Gold.PLP.PLP>
-35.6328

> <Gold.PLP.part.hbond>
-1.9103

> <Gold.PLP.part.metal>
0.0000

> <Gold.PLP.part.buried>
-4.0540

> <Gold.PLP.part.nonpolar>
-29.7824

> <Gold.PLP.part.repulsive>
0.1339

> <Gold.PLP.ligand.clash>
0.0000

> <Gold.PLP.ligand.torsion>
1.1350

> <Gold.PLP.Chemscore.Hbond>
1.9760

> <Gold.PLP.Chemscore.CHOScore>
0.0000

> <Gold.PLP.Chemscore.Metal>
0.0000

> <Gold.Chemscore.Hbonds>
donor molecule, donor type, donor heavy atom, donor atom, acceptor molecule, acceptor atom, score
      P1  H  7997  8010       L1     1  0.98
      P1  H 10752 10765       L1     9  1.00

> <Gold.PLP.Chemscore.Internal.Correction>
0.0729

> <Gold.Rescore>
     Score         DG    S(hbond)    S(metal)    S(lipo)     H(rot)  DE(clash)    DE(int)     intcor
     14.94     -17.39       1.93        0.00      90.33       2.00       0.03       2.43       ----

> <Gold.Chemscore.Fitness>
14.9393

> <Gold.Chemscore.DG>
-17.3945

> <Gold.Chemscore.ZeroCoef>
-5.4800

> <Gold.Chemscore.Hbond>
1.9333

> <Gold.Chemscore.Metal>
0.0000

> <Gold.Chemscore.Lipo>
90.3253

> <Gold.Chemscore.Internal_Hbond>
0.0000

> <Gold.Chemscore.DEClash>
0.0272

> <Gold.Chemscore.DEInternal>
2.4281

> <Gold.Chemscore.Rot>
1.9964

> <Gold.Chemscore.Internal.Correction>
   9.000000E+99

> <Gold.Chemscore.Hbonds>
donor molecule, donor type, donor heavy atom, donor atom, acceptor molecule, acceptor atom, score
      P1  H  7997  8010       L1     1  0.93
      P1  H 10752 10765       L1     9  0.79

> <Gold.Chemscore.Hbond.Weighted>
-6.4573

> <Gold.Chemscore.Metal.Weighted>
-0.0000

> <Gold.Chemscore.Lipo.Weighted>
-10.5681

> <Gold.Chemscore.Internal_Hbond.Weighted>
0.0000

> <Gold.Chemscore.DEClash.Weighted>
0.0272

> <Gold.Chemscore.DEInternal.Weighted>
2.4281

> <Gold.Chemscore.Rot.Weighted>
5.1108

> <Gold.Chemscore.Internal.Correction.Weighted>
   9.000000E+99

> <Gold.Protein.RotatedTorsions>
[ 6907 6896 6895 6894 ] final  111.80 input  -60.11 | X-H torsion
[ 7974 7965 7964 7962 ] final -121.63 input  175.53 | X-H torsion
[ 8008 7997 7996 7995 ] final   44.51 input   59.86 | X-H torsion
[ 10167 10162 10161 10158 ] final  150.66 input  -65.29 | X-H torsion
[ 10718 10713 10712 10709 ] final -162.05 input   66.30 | X-H torsion
[ 10763 10752 10751 10750 ] final -166.23 input  -60.55 | X-H torsion
[ 11005 11000 10999 10996 ] final   84.61 input  -57.11 | X-H torsion

> <Gold.Protein.ActiveResidues>
 VAL166  LYS551  ARG553  GLY616  TRP617  ASP618  TYR619  PRO620  LYS621  CYS622 
 ASP623  PHE694  ASN695  SER759  ASP760  ASP761  ALA762  ILE779  LEU786  VAL792 
 PHE793  MET794  SER795  GLU796  ALA797  LYS798  CYS799  TRP800  GLU811  SER814 

> <Gold.Protein.RotatedAtoms>
  152.4950  133.8606  159.7247 H   0  0  0  0  0  0  0  0  0  0  0  0  # atno 6907 bound_to 6896
  150.9118  133.6979  159.2859 H   0  0  0  0  0  0  0  0  0  0  0  0  # atno 6908 bound_to 6896
  151.4385  135.1022  159.9716 H   0  0  0  0  0  0  0  0  0  0  0  0  # atno 6909 bound_to 6896
  145.0382  140.8123  143.4282 H   0  0  0  0  0  0  0  0  0  0  0  0  # atno 7974 bound_to 7965
  155.3206  140.3396  155.4241 H   0  0  0  0  0  0  0  0  0  0  0  0  # atno 8008 bound_to 7997
  156.1911  140.1698  156.8127 H   0  0  0  0  0  0  0  0  0  0  0  0  # atno 8009 bound_to 7997
  154.5443  140.0718  156.8546 H   0  0  0  0  0  0  0  0  0  0  0  0  # atno 8010 bound_to 7997
  139.4848  144.5504  151.7411 H   0  0  0  0  0  0  0  0  0  0  0  0  # atno 10167 bound_to 10162
  156.6049  130.8826  151.2922 H   0  0  0  0  0  0  0  0  0  0  0  0  # atno 10718 bound_to 10713
  154.6854  135.2961  154.9555 H   0  0  0  0  0  0  0  0  0  0  0  0  # atno 10763 bound_to 10752
  154.0536  135.6641  153.4807 H   0  0  0  0  0  0  0  0  0  0  0  0  # atno 10764 bound_to 10752
  153.0575  135.5135  154.7918 H   0  0  0  0  0  0  0  0  0  0  0  0  # atno 10765 bound_to 10752
  139.8995  134.8228  156.2468 H   0  0  0  0  0  0  0  0  0  0  0  0  # atno 11005 bound_to 11000
  145.1682  139.2419  143.5356 LP  0  0  0  0  0  0  0  0  0  0  0  0  # atno 17320 bound_to 7965
  146.3506  140.1426  142.8594 LP  0  0  0  0  0  0  0  0  0  0  0  0  # atno 17321 bound_to 7965
  140.5057  144.1102  150.5982 LP  0  0  0  0  0  0  0  0  0  0  0  0  # atno 17342 bound_to 10162
  140.4010  143.2704  151.9948 LP  0  0  0  0  0  0  0  0  0  0  0  0  # atno 17343 bound_to 10162
  157.7270  130.9637  150.1679 LP  0  0  0  0  0  0  0  0  0  0  0  0  # atno 17370 bound_to 10713
  156.2438  130.3693  149.8307 LP  0  0  0  0  0  0  0  0  0  0  0  0  # atno 17371 bound_to 10713
  141.0249  133.7020  156.1331 LP  0  0  0  0  0  0  0  0  0  0  0  0  # atno 17394 bound_to 11000
  140.7180  134.4389  157.5577 LP  0  0  0  0  0  0  0  0  0  0  0  0  # atno 17395 bound_to 11000

$$$$
