AV-unprocessed.smi:2086|AV-procd|sdf|8519|dock9
  -GOLD-   2272011233D 1   1.00000     0.00000
 Structure written by MMmdl.
 33 34  0  0  0  0  0  0  0  0  2 V2000
  152.6804  140.3046  158.2576 O   0  0  0  0  0  0  0  0  0  0  0  0
  151.7818  141.0517  157.8550 C   0  0  0  0  0  0  0  0  0  0  0  0
  151.3115  142.2142  158.3864 N   0  5  0  0  0  0  0  0  0  0  0  0
  151.9105  142.8854  159.5393 C   0  0  0  0  0  0  0  0  0  0  0  0
  151.9521  144.4092  159.3198 C   0  0  0  0  0  0  0  0  0  0  0  0
  150.7345  144.8358  158.9840 F   0  0  0  0  0  0  0  0  0  0  0  0
  152.3278  145.0386  160.4344 F   0  0  0  0  0  0  0  0  0  0  0  0
  152.7953  144.7212  158.3343 F   0  0  0  0  0  0  0  0  0  0  0  0
  151.1134  140.7020  156.5492 C   0  0  0  0  0  0  0  0  0  0  0  0
  150.0070  141.4775  156.1364 C   0  0  0  0  0  0  0  0  0  0  0  0
  149.3538  141.1735  154.9291 C   0  0  0  0  0  0  0  0  0  0  0  0
  149.8390  140.0987  154.1656 C   0  0  0  0  0  0  0  0  0  0  0  0
  150.9060  139.3591  154.5275 N   0  0  0  0  0  0  0  0  0  0  0  0
  151.5483  139.6468  155.6879 C   0  0  0  0  0  0  0  0  0  0  0  0
  152.6955  138.8768  155.9713 N   0  0  0  0  0  0  0  0  0  0  0  0
  152.5921  137.8533  157.0052 C   0  0  0  0  0  0  0  0  0  0  0  0
  153.9951  137.3356  157.3648 C   0  0  0  0  0  0  0  0  0  0  0  0
  154.6497  136.8661  156.1889 O   0  0  0  0  0  0  0  0  0  0  0  0
  154.8118  137.8977  155.2183 C   0  0  0  0  0  0  0  0  0  0  0  0
  153.4334  138.4333  154.7957 C   0  0  0  0  0  0  0  0  0  0  0  0
  151.3564  142.6814  160.4571 H   0  0  0  0  0  0  0  0  0  0  0  0
  152.9244  142.5264  159.7219 H   0  0  0  0  0  0  0  0  0  0  0  0
  149.6490  142.2946  156.7462 H   0  0  0  0  0  0  0  0  0  0  0  0
  148.5002  141.7473  154.6005 H   0  0  0  0  0  0  0  0  0  0  0  0
  149.3631  139.8306  153.2340 H   0  0  0  0  0  0  0  0  0  0  0  0
  152.1071  138.2667  157.8903 H   0  0  0  0  0  0  0  0  0  0  0  0
  151.9738  137.0295  156.6462 H   0  0  0  0  0  0  0  0  0  0  0  0
  154.5895  138.1203  157.8355 H   0  0  0  0  0  0  0  0  0  0  0  0
  153.9216  136.5180  158.0819 H   0  0  0  0  0  0  0  0  0  0  0  0
  155.4314  138.6997  155.6233 H   0  0  0  0  0  0  0  0  0  0  0  0
  155.3388  137.4936  154.3542 H   0  0  0  0  0  0  0  0  0  0  0  0
  152.8645  137.6502  154.2929 H   0  0  0  0  0  0  0  0  0  0  0  0
  153.5551  139.2470  154.0810 H   0  0  0  0  0  0  0  0  0  0  0  0
  1  2  2  0  0  0  0
  2  3  1  0  0  0  0
  2  9  1  0  0  0  0
  3  4  1  0  0  0  0
  4  5  1  0  0  0  0
  4 21  1  0  0  0  0
  4 22  1  0  0  0  0
  5  6  1  0  0  0  0
  5  7  1  0  0  0  0
  5  8  1  0  0  0  0
  9 14  1  0  0  0  0
  9 10  2  0  0  0  0
 10 11  1  0  0  0  0
 10 23  1  0  0  0  0
 11 12  2  0  0  0  0
 11 24  1  0  0  0  0
 12 13  1  0  0  0  0
 12 25  1  0  0  0  0
 13 14  2  0  0  0  0
 14 15  1  0  0  0  0
 15 20  1  0  0  0  0
 15 16  1  0  0  0  0
 16 17  1  0  0  0  0
 16 26  1  0  0  0  0
 16 27  1  0  0  0  0
 17 18  1  0  0  0  0
 17 28  1  0  0  0  0
 17 29  1  0  0  0  0
 18 19  1  0  0  0  0
 19 20  1  0  0  0  0
 19 30  1  0  0  0  0
 19 31  1  0  0  0  0
 20 32  1  0  0  0  0
 20 33  1  0  0  0  0
M  CHG  1   3  -1
M  END
> <s_m_source_file>
AV-unprocessed.smi

> <i_m_source_file_index>
2086

> <i_lp_mmshare_version>
43012

> <i_f3d_flags>
0

> <s_epik_input>
RkMoRikoRilbQ0gyXVtOSF1DKD1PKWMxW2NIXVtjSF1bY0hdbmMxTjJbQ0gyXVtDSDJdT1tDSDJdW0NIMl0y

> <s_epik_cmdline>
J2VwaWtfcHl0aG9uJywgJy1waCcsICc3LjAnLCAnLXRuJywgJzgnLCAnLW1hJywgJzIwMCcsICctbWV0YWxfYmluZGluZycsICctaW1hZScsICc8aW5maWxlLm1hZT4nLCAnLW9tYWUnLCAnPG91dGZpbGUubWFlPic=

> <r_lp_tautomer_probability>
1

> <r_epik_Ionization_Penalty>
6.70774

> <r_epik_Ionization_Penalty_Charging>
6.70732

> <r_epik_Ionization_Penalty_Neutral>
0.000422769

> <r_epik_State_Penalty>
6.70731

> <r_epik_Charging_Adjusted_Penalty>
13.4146

> <i_epik_Tot_Q>
-1

> <i_epik_Tot_abs_Q>
1

> <r_epik_Metal_State_Penalty>
2.62875

> <b_epik_Metal_Only>
1

> <s_lp_Force_Field>
OPLS_2005

> <r_lp_Energy>
34.3175

> <b_lp_Chiralities_Consistent>
1

> <s_lp_Variant>
AV-unprocessed.smi:2086-2

> <Gold.Version>
5.8.1

> <Gold.Id.Protein>
6NUR|6NUR_protein|mol2

> <Gold.PLP.Fitness>
41.9544

> <Gold.PLP.PLP>
-38.2702

> <Gold.PLP.part.hbond>
-4.0000

> <Gold.PLP.part.metal>
0.0000

> <Gold.PLP.part.buried>
2.6437

> <Gold.PLP.part.nonpolar>
-36.1110

> <Gold.PLP.part.repulsive>
0.1593

> <Gold.PLP.ligand.clash>
1.6915

> <Gold.PLP.ligand.torsion>
0.7708

> <Gold.PLP.Chemscore.Hbond>
1.0140

> <Gold.PLP.Chemscore.CHOScore>
1.0000

> <Gold.PLP.Chemscore.Metal>
0.0000

> <Gold.Chemscore.Hbonds>
donor molecule, donor type, donor heavy atom, donor atom, acceptor molecule, acceptor atom, score
      P1  H  7997  8009       L1    15  0.30
      P1  H 10752 10764       L1    18  0.38
      L1  C    12    25       P1  7957  1.00

> <Gold.PLP.Chemscore.Internal.Correction>
0.8752

> <Gold.Rescore>
     Score         DG    S(hbond)    S(metal)    S(lipo)     H(rot)  DE(clash)    DE(int)     intcor
      8.91     -14.15       0.86        0.00      78.43       1.32       1.66       3.58       ----

> <Gold.Chemscore.Fitness>
8.9129

> <Gold.Chemscore.DG>
-14.1549

> <Gold.Chemscore.ZeroCoef>
-5.4800

> <Gold.Chemscore.Hbond>
0.8580

> <Gold.Chemscore.Metal>
0.0000

> <Gold.Chemscore.Lipo>
78.4334

> <Gold.Chemscore.Internal_Hbond>
0.0000

> <Gold.Chemscore.DEClash>
1.6607

> <Gold.Chemscore.DEInternal>
3.5813

> <Gold.Chemscore.Rot>
1.3154

> <Gold.Chemscore.Internal.Correction>
   9.000000E+99

> <Gold.Chemscore.Hbonds>
donor molecule, donor type, donor heavy atom, donor atom, acceptor molecule, acceptor atom, score
      P1  H  7997  8009       L1     1  0.01
      P1  H 10752 10764       L1    18  0.10

> <Gold.Chemscore.Hbond.Weighted>
-2.8657

> <Gold.Chemscore.Metal.Weighted>
-0.0000

> <Gold.Chemscore.Lipo.Weighted>
-9.1767

> <Gold.Chemscore.Internal_Hbond.Weighted>
0.0000

> <Gold.Chemscore.DEClash.Weighted>
1.6607

> <Gold.Chemscore.DEInternal.Weighted>
3.5813

> <Gold.Chemscore.Rot.Weighted>
3.3675

> <Gold.Chemscore.Internal.Correction.Weighted>
   9.000000E+99

> <Gold.Protein.RotatedTorsions>
[ 6907 6896 6895 6894 ] final   36.26 input  -60.11 | X-H torsion
[ 7974 7965 7964 7962 ] final  162.67 input  175.53 | X-H torsion
[ 8008 7997 7996 7995 ] final -166.76 input   59.86 | X-H torsion
[ 10167 10162 10161 10158 ] final  120.44 input  -65.29 | X-H torsion
[ 10718 10713 10712 10709 ] final  -21.88 input   66.30 | X-H torsion
[ 10763 10752 10751 10750 ] final   71.07 input  -60.55 | X-H torsion
[ 11005 11000 10999 10996 ] final -155.67 input  -57.11 | X-H torsion

> <Gold.Protein.ActiveResidues>
 VAL166  LYS551  ARG553  GLY616  TRP617  ASP618  TYR619  PRO620  LYS621  CYS622 
 ASP623  PHE694  ASN695  SER759  ASP760  ASP761  ALA762  ILE779  LEU786  VAL792 
 PHE793  MET794  SER795  GLU796  ALA797  LYS798  CYS799  TRP800  GLU811  SER814 

> <Gold.Protein.RotatedAtoms>
  152.1274  134.9161  160.0560 H   0  0  0  0  0  0  0  0  0  0  0  0  # atno 6907 bound_to 6896
  152.0278  133.3920  159.4293 H   0  0  0  0  0  0  0  0  0  0  0  0  # atno 6908 bound_to 6896
  150.6853  134.3475  159.4938 H   0  0  0  0  0  0  0  0  0  0  0  0  # atno 6909 bound_to 6896
  144.7626  139.8072  143.6327 H   0  0  0  0  0  0  0  0  0  0  0  0  # atno 7974 bound_to 7965
  155.8684  140.0989  157.1567 H   0  0  0  0  0  0  0  0  0  0  0  0  # atno 8008 bound_to 7997
  154.3995  140.1352  156.4110 H   0  0  0  0  0  0  0  0  0  0  0  0  # atno 8009 bound_to 7997
  155.7779  140.3459  155.5284 H   0  0  0  0  0  0  0  0  0  0  0  0  # atno 8010 bound_to 7997
  139.5982  144.7048  151.3126 H   0  0  0  0  0  0  0  0  0  0  0  0  # atno 10167 bound_to 10162
  156.5122  130.4612  149.6642 H   0  0  0  0  0  0  0  0  0  0  0  0  # atno 10718 bound_to 10713
  153.0378  135.5150  154.7537 H   0  0  0  0  0  0  0  0  0  0  0  0  # atno 10763 bound_to 10752
  154.6500  135.2924  155.0001 H   0  0  0  0  0  0  0  0  0  0  0  0  # atno 10764 bound_to 10752
  154.0888  135.6653  153.4902 H   0  0  0  0  0  0  0  0  0  0  0  0  # atno 10765 bound_to 10752
  140.6839  134.4115  157.5224 H   0  0  0  0  0  0  0  0  0  0  0  0  # atno 11005 bound_to 11000
  146.1703  139.4851  142.9932 LP  0  0  0  0  0  0  0  0  0  0  0  0  # atno 17320 bound_to 7965
  145.6572  141.0249  143.1728 LP  0  0  0  0  0  0  0  0  0  0  0  0  # atno 17321 bound_to 7965
  140.7229  143.7086  150.7787 LP  0  0  0  0  0  0  0  0  0  0  0  0  # atno 17342 bound_to 10162
  140.0657  143.5110  152.2605 LP  0  0  0  0  0  0  0  0  0  0  0  0  # atno 17343 bound_to 10162
  156.3229  130.7290  151.2206 LP  0  0  0  0  0  0  0  0  0  0  0  0  # atno 17370 bound_to 10713
  157.7449  131.0450  150.4824 LP  0  0  0  0  0  0  0  0  0  0  0  0  # atno 17371 bound_to 10713
  139.8943  134.8709  156.2182 LP  0  0  0  0  0  0  0  0  0  0  0  0  # atno 17394 bound_to 11000
  141.0295  133.6996  156.1406 LP  0  0  0  0  0  0  0  0  0  0  0  0  # atno 17395 bound_to 11000

$$$$
