AV-unprocessed.smi:3235|AV-procd|sdf|12360|dock8
  -GOLD-   2272018223D 1   1.00000     0.00000
 Structure written by MMmdl.
 41 42  0  0  0  0  0  0  0  0  2 V2000
  146.2485  132.2511  149.9748 C   0  0  0  0  0  0  0  0  0  0  0  0
  145.8605  133.6943  150.1205 C   0  0  0  0  0  0  0  0  0  0  0  0
  144.7180  134.3493  149.5791 C   0  0  0  0  0  0  0  0  0  0  0  0
  144.6657  135.6340  149.8918 N   0  0  0  0  0  0  0  0  0  0  0  0
  145.7699  135.8444  150.6388 N   0  0  0  0  0  0  0  0  0  0  0  0
  146.0413  137.1692  151.1620 C   0  0  0  0  0  0  0  0  0  0  0  0
  145.8061  137.2396  152.6778 C   0  0  0  0  0  0  0  0  0  0  0  0
  147.0695  137.4749  153.4028 N   0  3  0  0  0  0  0  0  0  0  0  0
  147.4183  138.9017  153.5459 C   0  0  0  0  0  0  0  0  0  0  0  0
  148.7737  139.0737  154.2430 C   0  0  0  0  0  0  0  0  0  0  0  0
  149.0354  140.5316  154.6577 C   0  0  0  0  0  0  0  0  0  0  0  0
  149.7198  140.6160  155.9453 N   0  0  0  0  0  0  0  0  0  0  0  0
  149.0117  141.0568  157.1354 C   0  0  0  0  0  0  0  0  0  0  0  0
  150.0920  141.1806  158.2197 C   0  0  0  0  0  0  0  0  0  0  0  0
  151.3247  140.4583  157.6648 C   0  0  0  0  0  0  0  0  0  0  0  0
  150.9850  140.2592  156.1976 C   0  0  0  0  0  0  0  0  0  0  0  0
  151.7921  139.8234  155.3779 O   0  0  0  0  0  0  0  0  0  0  0  0
  146.5072  134.6900  150.7968 C   0  0  0  0  0  0  0  0  0  0  0  0
  146.0778  131.8890  148.9607 H   0  0  0  0  0  0  0  0  0  0  0  0
  145.6748  131.6116  150.6456 H   0  0  0  0  0  0  0  0  0  0  0  0
  147.3030  132.0896  150.1991 H   0  0  0  0  0  0  0  0  0  0  0  0
  143.9300  133.9308  148.9704 H   0  0  0  0  0  0  0  0  0  0  0  0
  147.0724  137.4321  150.9204 H   0  0  0  0  0  0  0  0  0  0  0  0
  145.4012  137.8848  150.6440 H   0  0  0  0  0  0  0  0  0  0  0  0
  145.1034  138.0415  152.9092 H   0  0  0  0  0  0  0  0  0  0  0  0
  145.3612  136.3089  153.0330 H   0  0  0  0  0  0  0  0  0  0  0  0
  146.9893  137.0709  154.3251 H   0  0  0  0  0  0  0  0  0  0  0  0
  147.4444  139.3660  152.5593 H   0  0  0  0  0  0  0  0  0  0  0  0
  146.6383  139.4045  154.1192 H   0  0  0  0  0  0  0  0  0  0  0  0
  148.8095  138.4283  155.1217 H   0  0  0  0  0  0  0  0  0  0  0  0
  149.5711  138.7372  153.5791 H   0  0  0  0  0  0  0  0  0  0  0  0
  149.6368  141.0315  153.8971 H   0  0  0  0  0  0  0  0  0  0  0  0
  148.0951  141.0820  154.7158 H   0  0  0  0  0  0  0  0  0  0  0  0
  148.4990  142.0044  156.9649 H   0  0  0  0  0  0  0  0  0  0  0  0
  148.2667  140.3085  157.4100 H   0  0  0  0  0  0  0  0  0  0  0  0
  150.3267  142.2311  158.3968 H   0  0  0  0  0  0  0  0  0  0  0  0
  149.7621  140.7546  159.1678 H   0  0  0  0  0  0  0  0  0  0  0  0
  152.2361  141.0443  157.7876 H   0  0  0  0  0  0  0  0  0  0  0  0
  151.4645  139.4870  158.1401 H   0  0  0  0  0  0  0  0  0  0  0  0
  147.4231  134.6716  151.3690 H   0  0  0  0  0  0  0  0  0  0  0  0
  147.8167  137.0082  152.9090 H   0  0  0  0  0  0  0  0  0  0  0  0
  1  2  1  0  0  0  0
  1 19  1  0  0  0  0
  1 20  1  0  0  0  0
  1 21  1  0  0  0  0
  2 18  2  0  0  0  0
  2  3  1  0  0  0  0
  3  4  2  0  0  0  0
  3 22  1  0  0  0  0
  4  5  1  0  0  0  0
  5  6  1  0  0  0  0
  5 18  1  0  0  0  0
  6  7  1  0  0  0  0
  6 23  1  0  0  0  0
  6 24  1  0  0  0  0
  7  8  1  0  0  0  0
  7 25  1  0  0  0  0
  7 26  1  0  0  0  0
  8  9  1  0  0  0  0
  8 27  1  0  0  0  0
  8 41  1  0  0  0  0
  9 10  1  0  0  0  0
  9 28  1  0  0  0  0
  9 29  1  0  0  0  0
 10 11  1  0  0  0  0
 10 30  1  0  0  0  0
 10 31  1  0  0  0  0
 11 12  1  0  0  0  0
 11 32  1  0  0  0  0
 11 33  1  0  0  0  0
 12 16  1  0  0  0  0
 12 13  1  0  0  0  0
 13 14  1  0  0  0  0
 13 34  1  0  0  0  0
 13 35  1  0  0  0  0
 14 15  1  0  0  0  0
 14 36  1  0  0  0  0
 14 37  1  0  0  0  0
 15 16  1  0  0  0  0
 15 38  1  0  0  0  0
 15 39  1  0  0  0  0
 16 17  2  0  0  0  0
 18 40  1  0  0  0  0
M  CHG  1   8   1
M  END
> <s_m_source_file>
AV-unprocessed.smi

> <i_m_source_file_index>
3235

> <i_lp_mmshare_version>
43012

> <i_f3d_flags>
0

> <s_epik_input>
W0NIM11jMVtjSF1ubihbY0hdMSlbQ0gyXVtDSDJdW05IXVtDSDJdW0NIMl1bQ0gyXU4yW0NIMl1bQ0gyXVtDSDJdQzI9Tw==

> <s_epik_cmdline>
J2VwaWtfcHl0aG9uJywgJy1waCcsICc3LjAnLCAnLXRuJywgJzgnLCAnLW1hJywgJzIwMCcsICctbWV0YWxfYmluZGluZycsICctaW1hZScsICc8aW5maWxlLm1hZT4nLCAnLW9tYWUnLCAnPG91dGZpbGUubWFlPic=

> <r_lp_tautomer_probability>
1

> <r_epik_Ionization_Penalty>
0.00490609

> <r_epik_Ionization_Penalty_Charging>
0.00490019

> <r_epik_Ionization_Penalty_Neutral>
5.89696e-06

> <r_epik_State_Penalty>
-0

> <r_epik_Charging_Adjusted_Penalty>
0.00490019

> <i_epik_Tot_Q>
1

> <i_epik_Tot_abs_Q>
1

> <r_epik_Metal_State_Penalty>
-0

> <b_epik_Metal_Only>
0

> <s_lp_Force_Field>
OPLS_2005

> <r_lp_Energy>
17.6896

> <b_lp_Chiralities_Consistent>
1

> <s_lp_Variant>
AV-unprocessed.smi:3235-1

> <Gold.Version>
5.8.1

> <Gold.Id.Protein>
6NUR|6NUR_protein|mol2

> <Gold.PLP.Fitness>
46.5570

> <Gold.PLP.PLP>
-33.9665

> <Gold.PLP.part.hbond>
-2.0000

> <Gold.PLP.part.metal>
0.0000

> <Gold.PLP.part.buried>
-2.4376

> <Gold.PLP.part.nonpolar>
-30.3582

> <Gold.PLP.part.repulsive>
0.3092

> <Gold.PLP.ligand.clash>
0.0000

> <Gold.PLP.ligand.torsion>
1.0676

> <Gold.PLP.Chemscore.Hbond>
2.8640

> <Gold.PLP.Chemscore.CHOScore>
1.9957

> <Gold.PLP.Chemscore.Metal>
0.0000

> <Gold.Chemscore.Hbonds>
donor molecule, donor type, donor heavy atom, donor atom, acceptor molecule, acceptor atom, score
      L1  H     8    41       P1  7948  2.00
      P1  H  7989  7998       L1    17  0.69
      L1  C    18    40       P1  7948  1.00

> <Gold.PLP.Chemscore.Internal.Correction>
0.1465

> <Gold.Rescore>
     Score         DG    S(hbond)    S(metal)    S(lipo)     H(rot)  DE(clash)    DE(int)     intcor
     13.11     -14.77       1.84        0.00      74.03       2.16       0.15       1.51       ----

> <Gold.Chemscore.Fitness>
13.1053

> <Gold.Chemscore.DG>
-14.7681

> <Gold.Chemscore.ZeroCoef>
-5.4800

> <Gold.Chemscore.Hbond>
1.8430

> <Gold.Chemscore.Metal>
0.0000

> <Gold.Chemscore.Lipo>
74.0307

> <Gold.Chemscore.Internal_Hbond>
0.0000

> <Gold.Chemscore.DEClash>
0.1514

> <Gold.Chemscore.DEInternal>
1.5114

> <Gold.Chemscore.Rot>
2.1598

> <Gold.Chemscore.Internal.Correction>
   9.000000E+99

> <Gold.Chemscore.Hbonds>
donor molecule, donor type, donor heavy atom, donor atom, acceptor molecule, acceptor atom, score
      L1  H     8    41       P1  7948  1.00
      P1  H  7989  7998       L1    17  0.54

> <Gold.Chemscore.Hbond.Weighted>
-6.1556

> <Gold.Chemscore.Metal.Weighted>
-0.0000

> <Gold.Chemscore.Lipo.Weighted>
-8.6616

> <Gold.Chemscore.Internal_Hbond.Weighted>
0.0000

> <Gold.Chemscore.DEClash.Weighted>
0.1514

> <Gold.Chemscore.DEInternal.Weighted>
1.5114

> <Gold.Chemscore.Rot.Weighted>
5.5291

> <Gold.Chemscore.Internal.Correction.Weighted>
   9.000000E+99

> <Gold.Protein.RotatedTorsions>
[ 6907 6896 6895 6894 ] final  124.03 input  -60.11 | X-H torsion
[ 7974 7965 7964 7962 ] final  106.89 input  175.53 | X-H torsion
[ 8008 7997 7996 7995 ] final -123.47 input   59.86 | X-H torsion
[ 10167 10162 10161 10158 ] final -125.31 input  -65.29 | X-H torsion
[ 10718 10713 10712 10709 ] final  -88.09 input   66.30 | X-H torsion
[ 10763 10752 10751 10750 ] final   40.87 input  -60.55 | X-H torsion
[ 11005 11000 10999 10996 ] final  -96.45 input  -57.11 | X-H torsion

> <Gold.Protein.ActiveResidues>
 VAL166  LYS551  ARG553  GLY616  TRP617  ASP618  TYR619  PRO620  LYS621  CYS622 
 ASP623  PHE694  ASN695  SER759  ASP760  ASP761  ALA762  ILE779  LEU786  VAL792 
 PHE793  MET794  SER795  GLU796  ALA797  LYS798  CYS799  TRP800  GLU811  SER814 

> <Gold.Protein.RotatedAtoms>
  152.4112  133.6967  159.6399 H   0  0  0  0  0  0  0  0  0  0  0  0  # atno 6907 bound_to 6896
  150.7992  133.8620  159.3243 H   0  0  0  0  0  0  0  0  0  0  0  0  # atno 6908 bound_to 6896
  151.6362  135.1019  160.0183 H   0  0  0  0  0  0  0  0  0  0  0  0  # atno 6909 bound_to 6896
  145.3008  139.2570  143.3815 H   0  0  0  0  0  0  0  0  0  0  0  0  # atno 7974 bound_to 7965
  155.1811  140.0410  157.2882 H   0  0  0  0  0  0  0  0  0  0  0  0  # atno 8008 bound_to 7997
  154.6203  140.2499  155.7530 H   0  0  0  0  0  0  0  0  0  0  0  0  # atno 8009 bound_to 7997
  156.2430  140.2896  156.0508 H   0  0  0  0  0  0  0  0  0  0  0  0  # atno 8010 bound_to 7997
  139.9835  143.5717  152.2369 H   0  0  0  0  0  0  0  0  0  0  0  0  # atno 10167 bound_to 10162
  155.9984  130.4823  150.4966 H   0  0  0  0  0  0  0  0  0  0  0  0  # atno 10718 bound_to 10713
  152.9924  135.6178  154.2696 H   0  0  0  0  0  0  0  0  0  0  0  0  # atno 10763 bound_to 10752
  154.2429  135.2788  155.2848 H   0  0  0  0  0  0  0  0  0  0  0  0  # atno 10764 bound_to 10752
  154.5353  135.5776  153.6851 H   0  0  0  0  0  0  0  0  0  0  0  0  # atno 10765 bound_to 10752
  141.1411  133.8099  157.0573 H   0  0  0  0  0  0  0  0  0  0  0  0  # atno 11005 bound_to 11000
  146.3153  140.3521  142.8657 LP  0  0  0  0  0  0  0  0  0  0  0  0  # atno 17320 bound_to 7965
  144.9095  140.7741  143.5816 LP  0  0  0  0  0  0  0  0  0  0  0  0  # atno 17321 bound_to 7965
  139.6392  144.7653  151.2374 LP  0  0  0  0  0  0  0  0  0  0  0  0  # atno 17342 bound_to 10162
  140.7480  143.6346  150.8391 LP  0  0  0  0  0  0  0  0  0  0  0  0  # atno 17343 bound_to 10162
  157.2955  131.0635  151.2104 LP  0  0  0  0  0  0  0  0  0  0  0  0  # atno 17370 bound_to 10713
  157.3102  130.6886  149.6211 LP  0  0  0  0  0  0  0  0  0  0  0  0  # atno 17371 bound_to 10713
  140.0593  134.9763  157.1277 LP  0  0  0  0  0  0  0  0  0  0  0  0  # atno 17394 bound_to 11000
  140.3872  134.2224  155.7168 LP  0  0  0  0  0  0  0  0  0  0  0  0  # atno 17395 bound_to 11000

$$$$
