AV-unprocessed.smi:1715|AV-procd|sdf|6911|dock9
  -GOLD-   22720 8113D 1   1.00000     0.00000
 Structure written by MMmdl.
 40 41  0  0  0  0  0  0  0  0  1 V2000
  150.8356  142.0165  156.1619 C   0  0  0  0  0  0  0  0  0  0  0  0
  150.8182  140.5724  156.6914 C   0  0  1  0  0  0  0  0  0  0  0  0
  149.4725  139.8539  156.4672 C   0  0  0  0  0  0  0  0  0  0  0  0
  149.2547  139.4785  155.0739 N   0  0  0  0  0  0  0  0  0  0  0  0
  147.9713  138.7972  154.9136 C   0  0  0  0  0  0  0  0  0  0  0  0
  147.2659  139.0467  153.5673 C   0  0  0  0  0  0  0  0  0  0  0  0
  147.1621  137.8190  152.7880 N   0  0  0  0  0  0  0  0  0  0  0  0
  146.0139  137.2144  152.4522 C   0  0  0  0  0  0  0  0  0  0  0  0
  144.9025  137.6363  152.7727 O   0  0  0  0  0  0  0  0  0  0  0  0
  146.2402  136.1036  151.7315 N   0  0  0  0  0  0  0  0  0  0  0  0
  145.2765  135.2073  151.2043 C   0  0  0  0  0  0  0  0  0  0  0  0
  145.5221  133.8394  150.9062 C   0  0  0  0  0  0  0  0  0  0  0  0
  144.4377  133.2466  150.4275 N   0  0  0  0  0  0  0  0  0  0  0  0
  143.5026  134.2231  150.4160 N   0  0  0  0  0  0  0  0  0  0  0  0
  143.9681  135.4337  150.8801 C   0  0  0  0  0  0  0  0  0  0  0  0
  150.3821  138.6696  154.6194 C   0  0  0  0  0  0  0  0  0  0  0  0
  151.7241  139.4057  154.7873 C   0  0  2  0  0  0  0  0  0  0  0  0
  152.9169  138.5264  154.3978 C   0  0  0  0  0  0  0  0  0  0  0  0
  151.8872  139.7952  156.1497 O   0  0  0  0  0  0  0  0  0  0  0  0
  142.5615  134.0500  150.0918 H   0  0  0  0  0  0  0  0  0  0  0  0
  150.0877  142.6247  156.6712 H   0  0  0  0  0  0  0  0  0  0  0  0
  150.6214  142.0654  155.0946 H   0  0  0  0  0  0  0  0  0  0  0  0
  151.8080  142.4799  156.3295 H   0  0  0  0  0  0  0  0  0  0  0  0
  150.9939  140.6261  157.7662 H   0  0  0  0  0  0  0  0  0  0  0  0
  149.4461  138.9583  157.0901 H   0  0  0  0  0  0  0  0  0  0  0  0
  148.6583  140.4914  156.8142 H   0  0  0  0  0  0  0  0  0  0  0  0
  148.1028  137.7247  155.0646 H   0  0  0  0  0  0  0  0  0  0  0  0
  147.3011  139.1301  155.7074 H   0  0  0  0  0  0  0  0  0  0  0  0
  146.2750  139.4751  153.7280 H   0  0  0  0  0  0  0  0  0  0  0  0
  147.8222  139.7635  152.9645 H   0  0  0  0  0  0  0  0  0  0  0  0
  148.0282  137.4006  152.4816 H   0  0  0  0  0  0  0  0  0  0  0  0
  147.2043  135.8735  151.5404 H   0  0  0  0  0  0  0  0  0  0  0  0
  146.4322  133.2689  151.0195 H   0  0  0  0  0  0  0  0  0  0  0  0
  143.3424  136.3122  150.9334 H   0  0  0  0  0  0  0  0  0  0  0  0
  150.4086  137.7297  155.1732 H   0  0  0  0  0  0  0  0  0  0  0  0
  150.2615  138.4099  153.5684 H   0  0  0  0  0  0  0  0  0  0  0  0
  151.7335  140.2936  154.1543 H   0  0  0  0  0  0  0  0  0  0  0  0
  152.8525  138.2168  153.3544 H   0  0  0  0  0  0  0  0  0  0  0  0
  152.9617  137.6269  155.0126 H   0  0  0  0  0  0  0  0  0  0  0  0
  153.8559  139.0650  154.5268 H   0  0  0  0  0  0  0  0  0  0  0  0
  1  2  1  0  0  0  0
  1 21  1  0  0  0  0
  1 22  1  0  0  0  0
  1 23  1  0  0  0  0
  2 19  1  0  0  0  0
  2  3  1  0  0  0  0
  2 24  1  0  0  0  0
  3  4  1  0  0  0  0
  3 25  1  0  0  0  0
  3 26  1  0  0  0  0
  4  5  1  0  0  0  0
  4 16  1  0  0  0  0
  5  6  1  0  0  0  0
  5 27  1  0  0  0  0
  5 28  1  0  0  0  0
  6  7  1  0  0  0  0
  6 29  1  0  0  0  0
  6 30  1  0  0  0  0
  7  8  1  0  0  0  0
  7 31  1  0  0  0  0
  8  9  2  0  0  0  0
  8 10  1  0  0  0  0
 10 11  1  0  0  0  0
 10 32  1  0  0  0  0
 11 15  2  0  0  0  0
 11 12  1  0  0  0  0
 12 13  2  0  0  0  0
 12 33  1  0  0  0  0
 13 14  1  0  0  0  0
 14 20  1  0  0  0  0
 14 15  1  0  0  0  0
 15 34  1  0  0  0  0
 16 17  1  0  0  0  0
 16 35  1  0  0  0  0
 16 36  1  0  0  0  0
 17 18  1  0  0  0  0
 17 19  1  0  0  0  0
 17 37  1  0  0  0  0
 18 38  1  0  0  0  0
 18 39  1  0  0  0  0
 18 40  1  0  0  0  0
M  END
> <s_m_source_file>
AV-unprocessed.smi

> <i_m_source_file_index>
1715

> <i_lp_mmshare_version>
43012

> <i_f3d_flags>
0

> <s_epik_input>
W0NIM11bQ0BASF0xW0NIMl1OKFtDSDJdW0NASF0oTzEpW0NIM10pW0NIMl1bQ0gyXVtOSF1DKD1PKVtOSF1jMltjSF1uW25IXVtjSF0y

> <s_epik_cmdline>
J2VwaWtfcHl0aG9uJywgJy1waCcsICc3LjAnLCAnLXRuJywgJzgnLCAnLW1hJywgJzIwMCcsICctbWV0YWxfYmluZGluZycsICctaW1hZScsICc8aW5maWxlLm1hZT4nLCAnLW9tYWUnLCAnPG91dGZpbGUubWFlPic=

> <r_lp_tautomer_probability>
0.5

> <r_epik_Ionization_Penalty>
0.242771

> <r_epik_Ionization_Penalty_Charging>
0

> <r_epik_Ionization_Penalty_Neutral>
0.242771

> <r_epik_State_Penalty>
0.233765

> <r_epik_Charging_Adjusted_Penalty>
0.233765

> <i_epik_Tot_Q>
0

> <i_epik_Tot_abs_Q>
0

> <r_epik_Metal_State_Penalty>
0.233764

> <b_epik_Metal_Only>
0

> <s_lp_Force_Field>
OPLS_2005

> <r_lp_Energy>
25.0708

> <b_lp_Chiralities_Consistent>
1

> <s_lp_Variant>
AV-unprocessed.smi:1715-3

> <Gold.Version>
5.8.1

> <Gold.Id.Protein>
6NUR|6NUR_protein|mol2

> <Gold.PLP.Fitness>
38.8926

> <Gold.PLP.PLP>
-28.7535

> <Gold.PLP.part.hbond>
-2.8881

> <Gold.PLP.part.metal>
0.0000

> <Gold.PLP.part.buried>
-4.3271

> <Gold.PLP.part.nonpolar>
-23.6843

> <Gold.PLP.part.repulsive>
0.6255

> <Gold.PLP.ligand.clash>
0.0000

> <Gold.PLP.ligand.torsion>
0.9234

> <Gold.PLP.Chemscore.Hbond>
2.9920

> <Gold.PLP.Chemscore.CHOScore>
1.0000

> <Gold.PLP.Chemscore.Metal>
0.0000

> <Gold.Chemscore.Hbonds>
donor molecule, donor type, donor heavy atom, donor atom, acceptor molecule, acceptor atom, score
      L1  H     7    31       P1  7948  1.00
      L1  H    10    32       P1  7948  0.98
      L1  H    14    20       P1 10186  1.00
      L1  C    15    34       P1 10171  0.82

> <Gold.PLP.Chemscore.Internal.Correction>
0.0099

> <Gold.Rescore>
     Score         DG    S(hbond)    S(metal)    S(lipo)     H(rot)  DE(clash)    DE(int)     intcor
     16.90     -18.62       2.89        0.00      65.28       1.63       0.10       1.62       ----

> <Gold.Chemscore.Fitness>
16.9028

> <Gold.Chemscore.DG>
-18.6176

> <Gold.Chemscore.ZeroCoef>
-5.4800

> <Gold.Chemscore.Hbond>
2.8949

> <Gold.Chemscore.Metal>
0.0000

> <Gold.Chemscore.Lipo>
65.2828

> <Gold.Chemscore.Internal_Hbond>
0.0000

> <Gold.Chemscore.DEClash>
0.0961

> <Gold.Chemscore.DEInternal>
1.6186

> <Gold.Chemscore.Rot>
1.6287

> <Gold.Chemscore.Internal.Correction>
   9.000000E+99

> <Gold.Chemscore.Hbonds>
donor molecule, donor type, donor heavy atom, donor atom, acceptor molecule, acceptor atom, score
      L1  H     7    31       P1  7948  0.97
      L1  H    10    32       P1  7948  0.93
      L1  H    14    20       P1 10186  0.97

> <Gold.Chemscore.Hbond.Weighted>
-9.6690

> <Gold.Chemscore.Metal.Weighted>
-0.0000

> <Gold.Chemscore.Lipo.Weighted>
-7.6381

> <Gold.Chemscore.Internal_Hbond.Weighted>
0.0000

> <Gold.Chemscore.DEClash.Weighted>
0.0961

> <Gold.Chemscore.DEInternal.Weighted>
1.6186

> <Gold.Chemscore.Rot.Weighted>
4.1695

> <Gold.Chemscore.Internal.Correction.Weighted>
   9.000000E+99

> <Gold.Protein.RotatedTorsions>
[ 6907 6896 6895 6894 ] final  132.46 input  -60.11 | X-H torsion
[ 7974 7965 7964 7962 ] final -162.10 input  175.53 | X-H torsion
[ 8008 7997 7996 7995 ] final  156.42 input   59.86 | X-H torsion
[ 10167 10162 10161 10158 ] final  173.51 input  -65.29 | X-H torsion
[ 10718 10713 10712 10709 ] final   54.54 input   66.30 | X-H torsion
[ 10763 10752 10751 10750 ] final  179.72 input  -60.55 | X-H torsion
[ 11005 11000 10999 10996 ] final  152.19 input  -57.11 | X-H torsion

> <Gold.Protein.ActiveResidues>
 VAL166  LYS551  ARG553  GLY616  TRP617  ASP618  TYR619  PRO620  LYS621  CYS622 
 ASP623  PHE694  ASN695  SER759  ASP760  ASP761  ALA762  ILE779  LEU786  VAL792 
 PHE793  MET794  SER795  GLU796  ALA797  LYS798  CYS799  TRP800  GLU811  SER814 

> <Gold.Protein.RotatedAtoms>
  152.3321  133.5970  159.5816 H   0  0  0  0  0  0  0  0  0  0  0  0  # atno 6907 bound_to 6896
  150.7429  133.9851  159.3598 H   0  0  0  0  0  0  0  0  0  0  0  0  # atno 6908 bound_to 6896
  151.7725  135.0783  160.0413 H   0  0  0  0  0  0  0  0  0  0  0  0  # atno 6909 bound_to 6896
  144.7369  140.3302  143.6154 H   0  0  0  0  0  0  0  0  0  0  0  0  # atno 7974 bound_to 7965
  156.2423  140.1913  156.6952 H   0  0  0  0  0  0  0  0  0  0  0  0  # atno 8008 bound_to 7997
  154.6222  140.0607  156.9656 H   0  0  0  0  0  0  0  0  0  0  0  0  # atno 8009 bound_to 7997
  155.1843  140.3279  155.4372 H   0  0  0  0  0  0  0  0  0  0  0  0  # atno 8010 bound_to 7997
  139.5111  144.3252  152.0164 H   0  0  0  0  0  0  0  0  0  0  0  0  # atno 10167 bound_to 10162
  157.5266  130.8601  149.8630 H   0  0  0  0  0  0  0  0  0  0  0  0  # atno 10718 bound_to 10713
  154.5243  135.2796  155.1235 H   0  0  0  0  0  0  0  0  0  0  0  0  # atno 10763 bound_to 10752
  154.2780  135.6291  153.5339 H   0  0  0  0  0  0  0  0  0  0  0  0  # atno 10764 bound_to 10752
  152.9943  135.5644  154.5741 H   0  0  0  0  0  0  0  0  0  0  0  0  # atno 10765 bound_to 10752
  140.1286  134.8817  157.2172 H   0  0  0  0  0  0  0  0  0  0  0  0  # atno 11005 bound_to 11000
  145.7480  139.1784  143.2338 LP  0  0  0  0  0  0  0  0  0  0  0  0  # atno 17320 bound_to 7965
  146.1083  140.7460  142.9515 LP  0  0  0  0  0  0  0  0  0  0  0  0  # atno 17321 bound_to 7965
  140.2693  144.3981  150.6157 LP  0  0  0  0  0  0  0  0  0  0  0  0  # atno 17342 bound_to 10162
  140.6100  143.2169  151.6905 LP  0  0  0  0  0  0  0  0  0  0  0  0  # atno 17343 bound_to 10162
  156.0391  130.3743  150.1481 LP  0  0  0  0  0  0  0  0  0  0  0  0  # atno 17370 bound_to 10713
  156.9668  130.9822  151.3467 LP  0  0  0  0  0  0  0  0  0  0  0  0  # atno 17371 bound_to 10713
  140.2872  134.3282  155.7325 LP  0  0  0  0  0  0  0  0  0  0  0  0  # atno 17394 bound_to 11000
  141.2166  133.7513  156.9450 LP  0  0  0  0  0  0  0  0  0  0  0  0  # atno 17395 bound_to 11000

$$$$
