AV-unprocessed.smi:1957|AV-procd|sdf|7905|dock1
  -GOLD-   2272010 63D 1   1.00000     0.00000
 Structure written by MMmdl.
 42 43  0  0  0  0  0  0  0  0  1 V2000
  151.1991  143.5103  158.7505 C   0  0  0  0  0  0  0  0  0  0  0  0
  150.4795  142.3480  159.1227 O   0  0  0  0  0  0  0  0  0  0  0  0
  151.0320  141.1671  158.5665 C   0  0  0  0  0  0  0  0  0  0  0  0
  150.3679  140.9014  157.2071 C   0  0  0  0  0  0  0  0  0  0  0  0
  150.5691  139.5158  156.7716 N   0  0  0  0  0  0  0  0  0  0  0  0
  150.1619  138.5688  157.6966 N   0  0  0  0  0  0  0  0  0  0  0  0
  150.2752  137.3078  157.4290 C   0  0  0  0  0  0  0  0  0  0  0  0
  149.8454  136.2586  158.3941 C   0  0  0  0  0  0  0  0  0  0  0  0
  150.2290  135.0914  158.3009 O   0  0  0  0  0  0  0  0  0  0  0  0
  149.0085  136.6763  159.3623 N   0  0  0  0  0  0  0  0  0  0  0  0
  148.4057  135.8284  160.3931 C   0  0  1  0  0  0  0  0  0  0  0  0
  147.4383  136.7106  161.2150 C   0  0  0  0  0  0  0  0  0  0  0  0
  147.1343  136.1564  162.6180 C   0  0  0  0  0  0  0  0  0  0  0  0
  146.3725  134.8224  162.6385 C   0  0  0  0  0  0  0  0  0  0  0  0
  147.1431  133.6599  161.9895 C   0  0  0  0  0  0  0  0  0  0  0  0
  147.0949  133.7151  160.5343 N   0  0  0  0  0  0  0  0  0  0  0  0
  147.6101  134.6703  159.7458 C   0  0  0  0  0  0  0  0  0  0  0  0
  147.4455  134.6241  158.5266 O   0  0  0  0  0  0  0  0  0  0  0  0
  150.8300  136.8630  156.1616 C   0  0  0  0  0  0  0  0  0  0  0  0
  151.2203  137.7985  155.2684 C   0  0  0  0  0  0  0  0  0  0  0  0
  151.0993  139.2310  155.5441 C   0  0  0  0  0  0  0  0  0  0  0  0
  151.4398  140.1015  154.7438 O   0  0  0  0  0  0  0  0  0  0  0  0
  150.7411  144.3870  159.2082 H   0  0  0  0  0  0  0  0  0  0  0  0
  151.1880  143.6505  157.6688 H   0  0  0  0  0  0  0  0  0  0  0  0
  152.2355  143.4579  159.0865 H   0  0  0  0  0  0  0  0  0  0  0  0
  152.1100  141.2823  158.4408 H   0  0  0  0  0  0  0  0  0  0  0  0
  150.8671  140.3270  159.2428 H   0  0  0  0  0  0  0  0  0  0  0  0
  149.3027  141.1339  157.2583 H   0  0  0  0  0  0  0  0  0  0  0  0
  150.7788  141.5876  156.4642 H   0  0  0  0  0  0  0  0  0  0  0  0
  148.7408  137.6500  159.3632 H   0  0  0  0  0  0  0  0  0  0  0  0
  149.1925  135.4315  161.0372 H   0  0  0  0  0  0  0  0  0  0  0  0
  147.8876  137.6954  161.3534 H   0  0  0  0  0  0  0  0  0  0  0  0
  146.5101  136.8891  160.6690 H   0  0  0  0  0  0  0  0  0  0  0  0
  148.0668  136.0484  163.1734 H   0  0  0  0  0  0  0  0  0  0  0  0
  146.5492  136.8971  163.1642 H   0  0  0  0  0  0  0  0  0  0  0  0
  146.1716  134.5638  163.6786 H   0  0  0  0  0  0  0  0  0  0  0  0
  145.3958  134.9379  162.1663 H   0  0  0  0  0  0  0  0  0  0  0  0
  148.1761  133.6246  162.3383 H   0  0  0  0  0  0  0  0  0  0  0  0
  146.6862  132.7163  162.2887 H   0  0  0  0  0  0  0  0  0  0  0  0
  146.5910  132.9685  160.0776 H   0  0  0  0  0  0  0  0  0  0  0  0
  150.9308  135.8123  155.9312 H   0  0  0  0  0  0  0  0  0  0  0  0
  151.6334  137.4819  154.3219 H   0  0  0  0  0  0  0  0  0  0  0  0
  1  2  1  0  0  0  0
  1 23  1  0  0  0  0
  1 24  1  0  0  0  0
  1 25  1  0  0  0  0
  2  3  1  0  0  0  0
  3  4  1  0  0  0  0
  3 26  1  0  0  0  0
  3 27  1  0  0  0  0
  4  5  1  0  0  0  0
  4 28  1  0  0  0  0
  4 29  1  0  0  0  0
  5 21  1  0  0  0  0
  5  6  1  0  0  0  0
  6  7  2  0  0  0  0
  7  8  1  0  0  0  0
  7 19  1  0  0  0  0
  8  9  2  0  0  0  0
  8 10  1  0  0  0  0
 10 11  1  0  0  0  0
 10 30  1  0  0  0  0
 11 17  1  0  0  0  0
 11 12  1  0  0  0  0
 11 31  1  0  0  0  0
 12 13  1  0  0  0  0
 12 32  1  0  0  0  0
 12 33  1  0  0  0  0
 13 14  1  0  0  0  0
 13 34  1  0  0  0  0
 13 35  1  0  0  0  0
 14 15  1  0  0  0  0
 14 36  1  0  0  0  0
 14 37  1  0  0  0  0
 15 16  1  0  0  0  0
 15 38  1  0  0  0  0
 15 39  1  0  0  0  0
 16 17  1  0  0  0  0
 16 40  1  0  0  0  0
 17 18  2  0  0  0  0
 19 20  2  0  0  0  0
 19 41  1  0  0  0  0
 20 21  1  0  0  0  0
 20 42  1  0  0  0  0
 21 22  2  0  0  0  0
M  END
> <s_m_source_file>
AV-unprocessed.smi

> <i_m_source_file_index>
1957

> <i_lp_mmshare_version>
43012

> <i_f3d_flags>
0

> <s_epik_input>
W0NIM11PW0NIMl1bQ0gyXW4xbmMoW2NIXVtjSF1jMT1PKUMoPU8pW05IXVtDQEBIXTJbQ0gyXVtDSDJdW0NIMl1bQ0gyXVtOSF1DMj1P

> <s_epik_cmdline>
J2VwaWtfcHl0aG9uJywgJy1waCcsICc3LjAnLCAnLXRuJywgJzgnLCAnLW1hJywgJzIwMCcsICctbWV0YWxfYmluZGluZycsICctaW1hZScsICc8aW5maWxlLm1hZT4nLCAnLW9tYWUnLCAnPG91dGZpbGUubWFlPic=

> <r_lp_tautomer_probability>
1

> <r_epik_Ionization_Penalty>
2.17512e-06

> <r_epik_Ionization_Penalty_Charging>
5.0222e-09

> <r_epik_Ionization_Penalty_Neutral>
2.1701e-06

> <r_epik_State_Penalty>
-0

> <r_epik_Charging_Adjusted_Penalty>
5.0222e-09

> <i_epik_Tot_Q>
0

> <i_epik_Tot_abs_Q>
0

> <r_epik_Metal_State_Penalty>
-0

> <b_epik_Metal_Only>
0

> <s_lp_Force_Field>
OPLS_2005

> <r_lp_Energy>
29.6922

> <b_lp_Chiralities_Consistent>
1

> <s_lp_Variant>
AV-unprocessed.smi:1957-2

> <Gold.Version>
5.8.1

> <Gold.Id.Protein>
6NUR|6NUR_protein|mol2

> <Gold.PLP.Fitness>
39.8945

> <Gold.PLP.PLP>
-34.7770

> <Gold.PLP.part.hbond>
-2.5668

> <Gold.PLP.part.metal>
0.0000

> <Gold.PLP.part.buried>
-4.4517

> <Gold.PLP.part.nonpolar>
-28.4020

> <Gold.PLP.part.repulsive>
0.2468

> <Gold.PLP.ligand.clash>
0.0000

> <Gold.PLP.ligand.torsion>
0.4578

> <Gold.PLP.Chemscore.Hbond>
2.0000

> <Gold.PLP.Chemscore.CHOScore>
0.0000

> <Gold.PLP.Chemscore.Metal>
0.0000

> <Gold.Chemscore.Hbonds>
donor molecule, donor type, donor heavy atom, donor atom, acceptor molecule, acceptor atom, score
      P1  H  6896  6909       L1     9  0.55
      P1  H  7989  7998       L1    22  0.86

> <Gold.PLP.Chemscore.Internal.Correction>
0.0331

> <Gold.Rescore>
     Score         DG    S(hbond)    S(metal)    S(lipo)     H(rot)  DE(clash)    DE(int)     intcor
     11.61     -15.71       1.90        0.00      72.28       1.78       0.07       4.03       ----

> <Gold.Chemscore.Fitness>
11.6076

> <Gold.Chemscore.DG>
-15.7128

> <Gold.Chemscore.ZeroCoef>
-5.4800

> <Gold.Chemscore.Hbond>
1.8953

> <Gold.Chemscore.Metal>
0.0000

> <Gold.Chemscore.Lipo>
72.2803

> <Gold.Chemscore.Internal_Hbond>
0.0000

> <Gold.Chemscore.DEClash>
0.0710

> <Gold.Chemscore.DEInternal>
4.0341

> <Gold.Chemscore.Rot>
1.7791

> <Gold.Chemscore.Internal.Correction>
   9.000000E+99

> <Gold.Chemscore.Hbonds>
donor molecule, donor type, donor heavy atom, donor atom, acceptor molecule, acceptor atom, score
      P1  H  6896  6909       L1     9  0.55
      P1  H  7989  7998       L1    22  0.83

> <Gold.Chemscore.Hbond.Weighted>
-6.3304

> <Gold.Chemscore.Metal.Weighted>
-0.0000

> <Gold.Chemscore.Lipo.Weighted>
-8.4568

> <Gold.Chemscore.Internal_Hbond.Weighted>
0.0000

> <Gold.Chemscore.DEClash.Weighted>
0.0710

> <Gold.Chemscore.DEInternal.Weighted>
4.0341

> <Gold.Chemscore.Rot.Weighted>
4.5544

> <Gold.Chemscore.Internal.Correction.Weighted>
   9.000000E+99

> <Gold.Protein.RotatedTorsions>
[ 6907 6896 6895 6894 ] final   31.66 input  -60.11 | X-H torsion
[ 7974 7965 7964 7962 ] final   95.92 input  175.53 | X-H torsion
[ 8008 7997 7996 7995 ] final  158.08 input   59.86 | X-H torsion
[ 10167 10162 10161 10158 ] final   82.72 input  -65.29 | X-H torsion
[ 10718 10713 10712 10709 ] final  106.77 input   66.30 | X-H torsion
[ 10763 10752 10751 10750 ] final -172.40 input  -60.55 | X-H torsion
[ 11005 11000 10999 10996 ] final -128.75 input  -57.11 | X-H torsion

> <Gold.Protein.ActiveResidues>
 VAL166  LYS551  ARG553  GLY616  TRP617  ASP618  TYR619  PRO620  LYS621  CYS622 
 ASP623  PHE694  ASN695  SER759  ASP760  ASP761  ALA762  ILE779  LEU786  VAL792 
 PHE793  MET794  SER795  GLU796  ALA797  LYS798  CYS799  TRP800  GLU811  SER814 

> <Gold.Protein.RotatedAtoms>
  152.0634  134.9580  160.0574 H   0  0  0  0  0  0  0  0  0  0  0  0  # atno 6907 bound_to 6896
  152.0934  133.4207  159.4562 H   0  0  0  0  0  0  0  0  0  0  0  0  # atno 6908 bound_to 6896
  150.6837  134.2764  159.4653 H   0  0  0  0  0  0  0  0  0  0  0  0  # atno 6909 bound_to 6896
  145.4458  139.2297  143.3067 H   0  0  0  0  0  0  0  0  0  0  0  0  # atno 7974 bound_to 7965
  156.2325  140.1868  156.7206 H   0  0  0  0  0  0  0  0  0  0  0  0  # atno 8008 bound_to 7997
  154.6047  140.0631  156.9442 H   0  0  0  0  0  0  0  0  0  0  0  0  # atno 8009 bound_to 7997
  155.2116  140.3300  155.4330 H   0  0  0  0  0  0  0  0  0  0  0  0  # atno 8010 bound_to 7997
  139.9258  144.6183  150.8394 H   0  0  0  0  0  0  0  0  0  0  0  0  # atno 10167 bound_to 10162
  157.6655  131.0858  150.6056 H   0  0  0  0  0  0  0  0  0  0  0  0  # atno 10718 bound_to 10713
  154.6198  135.2874  155.0339 H   0  0  0  0  0  0  0  0  0  0  0  0  # atno 10763 bound_to 10752
  154.1538  135.6499  153.4973 H   0  0  0  0  0  0  0  0  0  0  0  0  # atno 10764 bound_to 10752
  153.0231  135.5362  154.6983 H   0  0  0  0  0  0  0  0  0  0  0  0  # atno 10765 bound_to 10752
  140.9490  134.1091  157.4080 H   0  0  0  0  0  0  0  0  0  0  0  0  # atno 11005 bound_to 11000
  146.2532  140.5211  142.8885 LP  0  0  0  0  0  0  0  0  0  0  0  0  # atno 17320 bound_to 7965
  144.8093  140.6356  143.6426 LP  0  0  0  0  0  0  0  0  0  0  0  0  # atno 17321 bound_to 7965
  140.7650  143.3264  151.2506 LP  0  0  0  0  0  0  0  0  0  0  0  0  # atno 17342 bound_to 10162
  139.6823  143.9833  152.2815 LP  0  0  0  0  0  0  0  0  0  0  0  0  # atno 17343 bound_to 10162
  156.6357  130.4444  149.5770 LP  0  0  0  0  0  0  0  0  0  0  0  0  # atno 17370 bound_to 10713
  156.2247  130.6758  151.1404 LP  0  0  0  0  0  0  0  0  0  0  0  0  # atno 17371 bound_to 10713
  139.8842  135.0060  156.6351 LP  0  0  0  0  0  0  0  0  0  0  0  0  # atno 17394 bound_to 11000
  140.7629  133.8802  155.8432 LP  0  0  0  0  0  0  0  0  0  0  0  0  # atno 17395 bound_to 11000

$$$$
