AV-unprocessed.smi:2962|AV-procd|sdf|11318|dock10
  -GOLD-   2272016223D 1   1.00000     0.00000
 Structure written by MMmdl.
 37 38  0  0  0  0  0  0  0  0  2 V2000
  150.6943  138.1234  154.2554 C   0  0  0  0  0  0  0  0  0  0  0  0
  151.5527  139.2349  154.4394 O   0  0  0  0  0  0  0  0  0  0  0  0
  152.3530  139.1173  155.6047 C   0  0  0  0  0  0  0  0  0  0  0  0
  151.5215  139.4937  156.8388 C   0  0  0  0  0  0  0  0  0  0  0  0
  151.2230  140.9314  156.8908 N   0  0  0  0  0  0  0  0  0  0  0  0
  150.4363  141.7014  156.0892 C   0  0  0  0  0  0  0  0  0  0  0  0
  149.4998  141.1558  154.7004 S   0  0  0  0  0  0  0  0  0  0  0  0
  147.8140  141.7500  155.0176 C   0  0  1  0  0  0  0  0  0  0  0  0
  146.9308  141.5432  153.7773 C   0  0  0  0  0  0  0  0  0  0  0  0
  147.2057  141.0760  156.2541 C   0  0  0  0  0  0  0  0  0  0  0  0
  145.9814  141.4646  156.6209 N   0  0  0  0  0  0  0  0  0  0  0  0
  147.8366  140.2290  156.8829 O   0  0  0  0  0  0  0  0  0  0  0  0
  150.4832  142.9767  156.5618 N   0  3  0  0  0  0  0  0  0  0  0  0
  151.3197  143.0271  157.6784 C   0  0  0  0  0  0  0  0  0  0  0  0
  151.6849  144.0918  158.4964 C   0  0  0  0  0  0  0  0  0  0  0  0
  152.5653  143.8003  159.5591 C   0  0  0  0  0  0  0  0  0  0  0  0
  153.0476  142.4932  159.7765 C   0  0  0  0  0  0  0  0  0  0  0  0
  152.6699  141.4209  158.9418 C   0  0  0  0  0  0  0  0  0  0  0  0
  151.7991  141.7172  157.8940 C   0  0  0  0  0  0  0  0  0  0  0  0
  150.0946  138.2680  153.3570 H   0  0  0  0  0  0  0  0  0  0  0  0
  150.0131  138.0059  155.0992 H   0  0  0  0  0  0  0  0  0  0  0  0
  151.2649  137.2015  154.1344 H   0  0  0  0  0  0  0  0  0  0  0  0
  152.7208  138.0951  155.7055 H   0  0  0  0  0  0  0  0  0  0  0  0
  153.2232  139.7704  155.5257 H   0  0  0  0  0  0  0  0  0  0  0  0
  150.5729  138.9561  156.8282 H   0  0  0  0  0  0  0  0  0  0  0  0
  152.0293  139.2040  157.7593 H   0  0  0  0  0  0  0  0  0  0  0  0
  147.8838  142.8225  155.2054 H   0  0  0  0  0  0  0  0  0  0  0  0
  145.9121  141.8913  153.9531 H   0  0  0  0  0  0  0  0  0  0  0  0
  146.8801  140.4920  153.4904 H   0  0  0  0  0  0  0  0  0  0  0  0
  147.3230  142.0983  152.9247 H   0  0  0  0  0  0  0  0  0  0  0  0
  145.5438  141.0616  157.4365 H   0  0  0  0  0  0  0  0  0  0  0  0
  145.5027  142.1748  156.0856 H   0  0  0  0  0  0  0  0  0  0  0  0
  151.3182  145.0944  158.3317 H   0  0  0  0  0  0  0  0  0  0  0  0
  152.8778  144.5955  160.2204 H   0  0  0  0  0  0  0  0  0  0  0  0
  153.7215  142.3092  160.6006 H   0  0  0  0  0  0  0  0  0  0  0  0
  153.0457  140.4232  159.1154 H   0  0  0  0  0  0  0  0  0  0  0  0
  149.9854  143.7528  156.1450 H   0  0  0  0  0  0  0  0  0  0  0  0
  1  2  1  0  0  0  0
  1 20  1  0  0  0  0
  1 21  1  0  0  0  0
  1 22  1  0  0  0  0
  2  3  1  0  0  0  0
  3  4  1  0  0  0  0
  3 23  1  0  0  0  0
  3 24  1  0  0  0  0
  4  5  1  0  0  0  0
  4 25  1  0  0  0  0
  4 26  1  0  0  0  0
  5 19  1  0  0  0  0
  5  6  1  0  0  0  0
  6  7  1  0  0  0  0
  6 13  2  0  0  0  0
  7  8  1  0  0  0  0
  8  9  1  0  0  0  0
  8 10  1  0  0  0  0
  8 27  1  0  0  0  0
  9 28  1  0  0  0  0
  9 29  1  0  0  0  0
  9 30  1  0  0  0  0
 10 11  1  0  0  0  0
 10 12  2  0  0  0  0
 11 31  1  0  0  0  0
 11 32  1  0  0  0  0
 13 14  1  0  0  0  0
 13 37  1  0  0  0  0
 14 19  2  0  0  0  0
 14 15  1  0  0  0  0
 15 16  2  0  0  0  0
 15 33  1  0  0  0  0
 16 17  1  0  0  0  0
 16 34  1  0  0  0  0
 17 18  2  0  0  0  0
 17 35  1  0  0  0  0
 18 19  1  0  0  0  0
 18 36  1  0  0  0  0
M  CHG  1  13   1
M  END
> <s_m_source_file>
AV-unprocessed.smi

> <i_m_source_file_index>
2962

> <i_lp_mmshare_version>
43012

> <i_f3d_flags>
0

> <s_epik_input>
W2NIXTFbY0hdW2NIXVtjSF1jKGMxMiluKFtDSDJdW0NIMl1PW0NIM10pYyhuMilTW0NASF0oW0NIM10pQyg9TylbTkgyXQ==

> <s_epik_cmdline>
J2VwaWtfcHl0aG9uJywgJy1waCcsICc3LjAnLCAnLXRuJywgJzgnLCAnLW1hJywgJzIwMCcsICctbWV0YWxfYmluZGluZycsICctaW1hZScsICc8aW5maWxlLm1hZT4nLCAnLW9tYWUnLCAnPG91dGZpbGUubWFlPic=

> <r_epik_Ionization_Penalty>
2.01771

> <r_epik_Ionization_Penalty_Charging>
2.01771

> <r_epik_Ionization_Penalty_Neutral>
3.318e-07

> <r_epik_State_Penalty>
2.14773

> <r_epik_Charging_Adjusted_Penalty>
4.16544

> <i_epik_Tot_Q>
1

> <i_epik_Tot_abs_Q>
1

> <r_epik_Metal_State_Penalty>
2.1675

> <b_epik_Metal_Only>
0

> <s_lp_Force_Field>
OPLS_2005

> <r_lp_Energy>
8.26224

> <b_lp_Chiralities_Consistent>
1

> <s_lp_Variant>
AV-unprocessed.smi:2962-4

> <Gold.Version>
5.8.1

> <Gold.Id.Protein>
6NUR|6NUR_protein|mol2

> <Gold.PLP.Fitness>
50.1588

> <Gold.PLP.PLP>
-41.6247

> <Gold.PLP.part.hbond>
-1.9852

> <Gold.PLP.part.metal>
0.0000

> <Gold.PLP.part.buried>
-3.6157

> <Gold.PLP.part.nonpolar>
-36.3320

> <Gold.PLP.part.repulsive>
0.1996

> <Gold.PLP.ligand.clash>
0.0000

> <Gold.PLP.ligand.torsion>
0.2614

> <Gold.PLP.Chemscore.Hbond>
3.0000

> <Gold.PLP.Chemscore.CHOScore>
0.0000

> <Gold.PLP.Chemscore.Metal>
0.0000

> <Gold.Chemscore.Hbonds>
donor molecule, donor type, donor heavy atom, donor atom, acceptor molecule, acceptor atom, score
      L1  H    13    37       P1  8028  2.00
      P1  H  7989  7998       L1     2  1.00

> <Gold.PLP.Chemscore.Internal.Correction>
0.0570

> <Gold.Rescore>
     Score         DG    S(hbond)    S(metal)    S(lipo)     H(rot)  DE(clash)    DE(int)     intcor
     15.77     -17.50       1.93        0.00     103.93       2.57       0.03       1.70       ----

> <Gold.Chemscore.Fitness>
15.7718

> <Gold.Chemscore.DG>
-17.5030

> <Gold.Chemscore.ZeroCoef>
-5.4800

> <Gold.Chemscore.Hbond>
1.9307

> <Gold.Chemscore.Metal>
0.0000

> <Gold.Chemscore.Lipo>
103.9255

> <Gold.Chemscore.Internal_Hbond>
0.0000

> <Gold.Chemscore.DEClash>
0.0314

> <Gold.Chemscore.DEInternal>
1.6997

> <Gold.Chemscore.Rot>
2.5723

> <Gold.Chemscore.Internal.Correction>
   9.000000E+99

> <Gold.Chemscore.Hbonds>
donor molecule, donor type, donor heavy atom, donor atom, acceptor molecule, acceptor atom, score
      L1  H    13    37       P1  8028  0.93
      P1  H  7989  7998       L1     2  0.93

> <Gold.Chemscore.Hbond.Weighted>
-6.4487

> <Gold.Chemscore.Metal.Weighted>
-0.0000

> <Gold.Chemscore.Lipo.Weighted>
-12.1593

> <Gold.Chemscore.Internal_Hbond.Weighted>
0.0000

> <Gold.Chemscore.DEClash.Weighted>
0.0314

> <Gold.Chemscore.DEInternal.Weighted>
1.6997

> <Gold.Chemscore.Rot.Weighted>
6.5850

> <Gold.Chemscore.Internal.Correction.Weighted>
   9.000000E+99

> <Gold.Protein.RotatedTorsions>
[ 6907 6896 6895 6894 ] final  -19.76 input  -60.11 | X-H torsion
[ 7974 7965 7964 7962 ] final   29.03 input  175.53 | X-H torsion
[ 8008 7997 7996 7995 ] final   13.43 input   59.86 | X-H torsion
[ 10167 10162 10161 10158 ] final -158.89 input  -65.29 | X-H torsion
[ 10718 10713 10712 10709 ] final -149.54 input   66.30 | X-H torsion
[ 10763 10752 10751 10750 ] final   -2.36 input  -60.55 | X-H torsion
[ 11005 11000 10999 10996 ] final -153.02 input  -57.11 | X-H torsion

> <Gold.Protein.ActiveResidues>
 VAL166  LYS551  ARG553  GLY616  TRP617  ASP618  TYR619  PRO620  LYS621  CYS622 
 ASP623  PHE694  ASN695  SER759  ASP760  ASP761  ALA762  ILE779  LEU786  VAL792 
 PHE793  MET794  SER795  GLU796  ALA797  LYS798  CYS799  TRP800  GLU811  SER814 

> <Gold.Protein.RotatedAtoms>
  151.2582  135.0645  159.9087 H   0  0  0  0  0  0  0  0  0  0  0  0  # atno 6907 bound_to 6896
  152.5370  134.0259  159.8013 H   0  0  0  0  0  0  0  0  0  0  0  0  # atno 6908 bound_to 6896
  151.0478  133.5601  159.2676 H   0  0  0  0  0  0  0  0  0  0  0  0  # atno 6909 bound_to 6896
  146.1695  139.6977  142.8977 H   0  0  0  0  0  0  0  0  0  0  0  0  # atno 7974 bound_to 7965
  154.8343  140.2904  155.5701 H   0  0  0  0  0  0  0  0  0  0  0  0  # atno 8008 bound_to 7997
  156.3007  140.2526  156.3205 H   0  0  0  0  0  0  0  0  0  0  0  0  # atno 8009 bound_to 7997
  154.9196  140.0386  157.1980 H   0  0  0  0  0  0  0  0  0  0  0  0  # atno 8010 bound_to 7997
  139.6657  143.9833  152.2253 H   0  0  0  0  0  0  0  0  0  0  0  0  # atno 10167 bound_to 10162
  156.4344  130.8091  151.2319 H   0  0  0  0  0  0  0  0  0  0  0  0  # atno 10718 bound_to 10713
  153.3570  135.6988  153.6742 H   0  0  0  0  0  0  0  0  0  0  0  0  # atno 10763 bound_to 10752
  153.5446  135.3566  155.2734 H   0  0  0  0  0  0  0  0  0  0  0  0  # atno 10764 bound_to 10752
  154.8662  135.4212  154.2819 H   0  0  0  0  0  0  0  0  0  0  0  0  # atno 10765 bound_to 10752
  140.7127  134.3815  157.5195 H   0  0  0  0  0  0  0  0  0  0  0  0  # atno 11005 bound_to 11000
  145.4378  141.0420  143.2874 LP  0  0  0  0  0  0  0  0  0  0  0  0  # atno 17320 bound_to 7965
  144.8142  139.5907  143.7016 LP  0  0  0  0  0  0  0  0  0  0  0  0  # atno 17321 bound_to 7965
  139.9584  144.6574  150.8103 LP  0  0  0  0  0  0  0  0  0  0  0  0  # atno 17342 bound_to 10162
  140.7598  143.3137  151.2783 LP  0  0  0  0  0  0  0  0  0  0  0  0  # atno 17343 bound_to 10162
  157.7507  131.0188  150.3641 LP  0  0  0  0  0  0  0  0  0  0  0  0  # atno 17370 bound_to 10713
  156.3985  130.3911  149.6977 LP  0  0  0  0  0  0  0  0  0  0  0  0  # atno 17371 bound_to 10713
  139.8868  134.8901  156.2566 LP  0  0  0  0  0  0  0  0  0  0  0  0  # atno 17394 bound_to 11000
  141.0071  133.7117  156.1052 LP  0  0  0  0  0  0  0  0  0  0  0  0  # atno 17395 bound_to 11000

$$$$
