AV-unprocessed.smi:3035|AV-procd|sdf|11581|dock2
  -GOLD-   2272016553D 1   1.00000     0.00000
 Structure written by MMmdl.
 38 39  0  0  0  0  0  0  0  0  1 V2000
  146.7561  136.7291  162.1653 C   0  0  0  0  0  0  0  0  0  0  0  0
  147.5079  137.5195  161.2610 O   0  0  0  0  0  0  0  0  0  0  0  0
  147.6175  136.9241  159.9790 C   0  0  0  0  0  0  0  0  0  0  0  0
  148.8496  137.4204  159.2841 C   0  0  0  0  0  0  0  0  0  0  0  0
  148.9156  138.1617  158.2439 N   0  0  0  0  0  0  0  0  0  0  0  0
  150.2265  138.3023  158.0429 N   0  0  0  0  0  0  0  0  0  0  0  0
  150.7447  139.1074  156.9426 C   0  0  0  0  0  0  0  0  0  0  0  0
  150.2622  140.5621  157.0423 C   0  0  0  0  0  0  0  0  0  0  0  0
  151.2783  141.3984  157.6651 N   0  0  0  0  0  0  0  0  0  0  0  0
  151.0135  142.4773  158.4160 C   0  0  0  0  0  0  0  0  0  0  0  0
  149.8690  142.8671  158.6506 O   0  0  0  0  0  0  0  0  0  0  0  0
  152.2273  143.2307  158.9853 C   0  0  0  0  0  0  0  0  0  0  0  0
  152.2604  143.1945  160.5313 C   0  0  0  0  0  0  0  0  0  0  0  0
  152.1706  144.6472  161.0172 C   0  0  0  0  0  0  0  0  0  0  0  0
  151.6087  145.4351  159.8373 C   0  0  0  0  0  0  0  0  0  0  0  0
  152.1912  144.7261  158.6158 C   0  0  0  0  0  0  0  0  0  0  0  0
  150.9756  137.6294  158.9895 C   0  0  0  0  0  0  0  0  0  0  0  0
  152.1981  137.5554  159.1017 O   0  0  0  0  0  0  0  0  0  0  0  0
  150.0701  137.0562  159.7938 O   0  0  0  0  0  0  0  0  0  0  0  0
  146.7002  137.2306  163.1315 H   0  0  0  0  0  0  0  0  0  0  0  0
  147.2216  135.7544  162.3183 H   0  0  0  0  0  0  0  0  0  0  0  0
  145.7378  136.5782  161.8049 H   0  0  0  0  0  0  0  0  0  0  0  0
  147.6563  135.8378  160.0757 H   0  0  0  0  0  0  0  0  0  0  0  0
  146.7383  137.1644  159.3791 H   0  0  0  0  0  0  0  0  0  0  0  0
  151.8352  139.0695  156.9527 H   0  0  0  0  0  0  0  0  0  0  0  0
  150.4291  138.6713  155.9932 H   0  0  0  0  0  0  0  0  0  0  0  0
  150.0350  140.9494  156.0477 H   0  0  0  0  0  0  0  0  0  0  0  0
  149.3430  140.6167  157.6282 H   0  0  0  0  0  0  0  0  0  0  0  0
  152.2435  141.1412  157.5176 H   0  0  0  0  0  0  0  0  0  0  0  0
  153.1392  142.7845  158.5844 H   0  0  0  0  0  0  0  0  0  0  0  0
  151.4307  142.6172  160.9428 H   0  0  0  0  0  0  0  0  0  0  0  0
  153.1743  142.7241  160.8951 H   0  0  0  0  0  0  0  0  0  0  0  0
  151.5610  144.7508  161.9154 H   0  0  0  0  0  0  0  0  0  0  0  0
  153.1703  145.0139  161.2539 H   0  0  0  0  0  0  0  0  0  0  0  0
  150.5203  145.3616  159.8274 H   0  0  0  0  0  0  0  0  0  0  0  0
  151.8716  146.4926  159.8747 H   0  0  0  0  0  0  0  0  0  0  0  0
  153.2077  145.0800  158.4385 H   0  0  0  0  0  0  0  0  0  0  0  0
  151.6179  144.9384  157.7120 H   0  0  0  0  0  0  0  0  0  0  0  0
  1  2  1  0  0  0  0
  1 20  1  0  0  0  0
  1 21  1  0  0  0  0
  1 22  1  0  0  0  0
  2  3  1  0  0  0  0
  3  4  1  0  0  0  0
  3 23  1  0  0  0  0
  3 24  1  0  0  0  0
  4 19  1  0  0  0  0
  4  5  2  0  0  0  0
  5  6  1  0  0  0  0
  6  7  1  0  0  0  0
  6 17  1  0  0  0  0
  7  8  1  0  0  0  0
  7 25  1  0  0  0  0
  7 26  1  0  0  0  0
  8  9  1  0  0  0  0
  8 27  1  0  0  0  0
  8 28  1  0  0  0  0
  9 10  1  0  0  0  0
  9 29  1  0  0  0  0
 10 11  2  0  0  0  0
 10 12  1  0  0  0  0
 12 16  1  0  0  0  0
 12 13  1  0  0  0  0
 12 30  1  0  0  0  0
 13 14  1  0  0  0  0
 13 31  1  0  0  0  0
 13 32  1  0  0  0  0
 14 15  1  0  0  0  0
 14 33  1  0  0  0  0
 14 34  1  0  0  0  0
 15 16  1  0  0  0  0
 15 35  1  0  0  0  0
 15 36  1  0  0  0  0
 16 37  1  0  0  0  0
 16 38  1  0  0  0  0
 17 18  2  0  0  0  0
 17 19  1  0  0  0  0
M  END
> <s_m_source_file>
AV-unprocessed.smi

> <i_m_source_file_index>
3035

> <i_lp_mmshare_version>
43012

> <i_f3d_flags>
0

> <s_epik_input>
W0NIM11PW0NIMl1jMW5uKGMoPU8pbzEpW0NIMl1bQ0gyXVtOSF1DKD1PKVtDSF0yW0NIMl1bQ0gyXVtDSDJdW0NIMl0y

> <s_epik_cmdline>
J2VwaWtfcHl0aG9uJywgJy1waCcsICc3LjAnLCAnLXRuJywgJzgnLCAnLW1hJywgJzIwMCcsICctbWV0YWxfYmluZGluZycsICctaW1hZScsICc8aW5maWxlLm1hZT4nLCAnLW9tYWUnLCAnPG91dGZpbGUubWFlPic=

> <r_lp_tautomer_probability>
1

> <r_epik_Ionization_Penalty>
6.81406e-08

> <r_epik_Ionization_Penalty_Charging>
1.21446e-09

> <r_epik_Ionization_Penalty_Neutral>
6.69261e-08

> <r_epik_State_Penalty>
-0

> <r_epik_Charging_Adjusted_Penalty>
1.21446e-09

> <i_epik_Tot_Q>
0

> <i_epik_Tot_abs_Q>
0

> <r_epik_Metal_State_Penalty>
-0

> <b_epik_Metal_Only>
0

> <s_lp_Force_Field>
OPLS_2005

> <r_lp_Energy>
26.4396

> <b_lp_Chiralities_Consistent>
1

> <s_lp_Variant>
AV-unprocessed.smi:3035-1

> <Gold.Version>
5.8.1

> <Gold.Id.Protein>
6NUR|6NUR_protein|mol2

> <Gold.PLP.Fitness>
45.5680

> <Gold.PLP.PLP>
-38.3724

> <Gold.PLP.part.hbond>
-3.6312

> <Gold.PLP.part.metal>
0.0000

> <Gold.PLP.part.buried>
-6.2946

> <Gold.PLP.part.nonpolar>
-28.9223

> <Gold.PLP.part.repulsive>
0.1604

> <Gold.PLP.ligand.clash>
0.0000

> <Gold.PLP.ligand.torsion>
0.6880

> <Gold.PLP.Chemscore.Hbond>
2.8160

> <Gold.PLP.Chemscore.CHOScore>
0.0000

> <Gold.PLP.Chemscore.Metal>
0.0000

> <Gold.Chemscore.Hbonds>
donor molecule, donor type, donor heavy atom, donor atom, acceptor molecule, acceptor atom, score
      P1  H  6896  6908       L1    19  0.32
      P1  H  6931  6943       L1     2  0.74
      P1  H  6934  6947       L1     2  0.88

> <Gold.PLP.Chemscore.Internal.Correction>
0.1236

> <Gold.Rescore>
     Score         DG    S(hbond)    S(metal)    S(lipo)     H(rot)  DE(clash)    DE(int)     intcor
     15.16     -15.72       1.94        0.00      83.64       2.36       0.07       0.49       ----

> <Gold.Chemscore.Fitness>
15.1578

> <Gold.Chemscore.DG>
-15.7189

> <Gold.Chemscore.ZeroCoef>
-5.4800

> <Gold.Chemscore.Hbond>
1.9436

> <Gold.Chemscore.Metal>
0.0000

> <Gold.Chemscore.Lipo>
83.6362

> <Gold.Chemscore.Internal_Hbond>
0.0000

> <Gold.Chemscore.DEClash>
0.0727

> <Gold.Chemscore.DEInternal>
0.4884

> <Gold.Chemscore.Rot>
2.3587

> <Gold.Chemscore.Internal.Correction>
   9.000000E+99

> <Gold.Chemscore.Hbonds>
donor molecule, donor type, donor heavy atom, donor atom, acceptor molecule, acceptor atom, score
      P1  H  6896  6908       L1    19  0.06
      P1  H  6931  6943       L1     2  0.65
      P1  H  6934  6947       L1     2  0.37

> <Gold.Chemscore.Hbond.Weighted>
-6.4917

> <Gold.Chemscore.Metal.Weighted>
-0.0000

> <Gold.Chemscore.Lipo.Weighted>
-9.7854

> <Gold.Chemscore.Internal_Hbond.Weighted>
0.0000

> <Gold.Chemscore.DEClash.Weighted>
0.0727

> <Gold.Chemscore.DEInternal.Weighted>
0.4884

> <Gold.Chemscore.Rot.Weighted>
6.0382

> <Gold.Chemscore.Internal.Correction.Weighted>
   9.000000E+99

> <Gold.Protein.RotatedTorsions>
[ 6907 6896 6895 6894 ] final -166.57 input  -60.11 | X-H torsion
[ 7974 7965 7964 7962 ] final  -37.16 input  175.53 | X-H torsion
[ 8008 7997 7996 7995 ] final   56.44 input   59.86 | X-H torsion
[ 10167 10162 10161 10158 ] final   97.52 input  -65.29 | X-H torsion
[ 10718 10713 10712 10709 ] final    3.21 input   66.30 | X-H torsion
[ 10763 10752 10751 10750 ] final   47.70 input  -60.55 | X-H torsion
[ 11005 11000 10999 10996 ] final  -59.39 input  -57.11 | X-H torsion

> <Gold.Protein.ActiveResidues>
 VAL166  LYS551  ARG553  GLY616  TRP617  ASP618  TYR619  PRO620  LYS621  CYS622 
 ASP623  PHE694  ASN695  SER759  ASP760  ASP761  ALA762  ILE779  LEU786  VAL792 
 PHE793  MET794  SER795  GLU796  ALA797  LYS798  CYS799  TRP800  GLU811  SER814 

> <Gold.Protein.RotatedAtoms>
  151.4458  133.3631  159.2787 H   0  0  0  0  0  0  0  0  0  0  0  0  # atno 6907 bound_to 6896
  150.9126  134.8544  159.7446 H   0  0  0  0  0  0  0  0  0  0  0  0  # atno 6908 bound_to 6896
  152.4940  134.4389  159.9589 H   0  0  0  0  0  0  0  0  0  0  0  0  # atno 6909 bound_to 6896
  146.0599  140.6364  142.9002 H   0  0  0  0  0  0  0  0  0  0  0  0  # atno 7974 bound_to 7965
  155.5175  140.3479  155.4400 H   0  0  0  0  0  0  0  0  0  0  0  0  # atno 8008 bound_to 7997
  156.0807  140.1386  156.9743 H   0  0  0  0  0  0  0  0  0  0  0  0  # atno 8009 bound_to 7997
  154.4578  140.0946  156.6784 H   0  0  0  0  0  0  0  0  0  0  0  0  # atno 8010 bound_to 7997
  139.7793  144.6894  151.0045 H   0  0  0  0  0  0  0  0  0  0  0  0  # atno 10167 bound_to 10162
  156.8744  130.5631  149.5656 H   0  0  0  0  0  0  0  0  0  0  0  0  # atno 10718 bound_to 10713
  152.9797  135.5968  154.3806 H   0  0  0  0  0  0  0  0  0  0  0  0  # atno 10763 bound_to 10752
  154.3471  135.2767  155.2394 H   0  0  0  0  0  0  0  0  0  0  0  0  # atno 10764 bound_to 10752
  154.4450  135.6004  153.6209 H   0  0  0  0  0  0  0  0  0  0  0  0  # atno 10765 bound_to 10752
  141.1246  133.6616  156.5064 H   0  0  0  0  0  0  0  0  0  0  0  0  # atno 11005 bound_to 11000
  144.7169  140.4239  143.7038 LP  0  0  0  0  0  0  0  0  0  0  0  0  # atno 17320 bound_to 7965
  145.6579  139.1576  143.2825 LP  0  0  0  0  0  0  0  0  0  0  0  0  # atno 17321 bound_to 7965
  140.7818  143.4501  151.0426 LP  0  0  0  0  0  0  0  0  0  0  0  0  # atno 17342 bound_to 10162
  139.8182  143.7857  152.3175 LP  0  0  0  0  0  0  0  0  0  0  0  0  # atno 17343 bound_to 10162
  156.0709  130.5742  150.9382 LP  0  0  0  0  0  0  0  0  0  0  0  0  # atno 17370 bound_to 10713
  157.6177  131.0932  150.8681 LP  0  0  0  0  0  0  0  0  0  0  0  0  # atno 17371 bound_to 10713
  140.4404  134.7021  157.4989 LP  0  0  0  0  0  0  0  0  0  0  0  0  # atno 17394 bound_to 11000
  140.0233  134.6515  155.9208 LP  0  0  0  0  0  0  0  0  0  0  0  0  # atno 17395 bound_to 11000

$$$$
