#       Name:                AV-unprocessed.smi:1999
#       Creating user name   scv26
#       Creation time:       Fri Mar 27 10:32:05 2020


#       File generated by GOLD software.
#

@<TRIPOS>MOLECULE
AV-unprocessed.smi:1999
    45    46     1
SMALL
NO_CHARGES


@<TRIPOS>ATOM
      1 ****        -5.2641   3.7471   0.0434 C.3            1 S1                 0.0000
      2 ****        -4.3161   2.6198   0.2709 C.2            1 S1                 0.0000
      3 ****        -4.1644   1.6134  -0.5939 N.2            1 S1                 0.0000
      4 ****        -3.2246   0.6898  -0.1607 N.2            1 S1                 0.0000
      5 ****        -2.6714   1.0155   1.0166 C.2            1 S1                 0.0000
      6 ****        -1.7348   0.2547   1.6066 N.pl3          1 S1                -1.0000
      7 ****        -0.4275   0.4864   1.3580 C.2            1 S1                 0.0000
      8 ****         0.0309   1.3787   0.6413 O.2            1 S1                 0.0000
      9 ****         0.3969  -0.3927   1.9480 N.am           1 S1                 0.0000
     10 ****         1.8487  -0.4803   1.7778 C.3            1 S1                 0.0000
     11 ****         2.4941  -0.8675   3.1151 C.3            1 S1                 0.0000
     12 ****         2.2063  -1.4888   0.6624 C.3            1 S1                 0.0000
     13 ****         1.5302  -1.1800  -0.6226 N.4            1 S1                 1.0000
     14 ****         2.2025  -0.1192  -1.4091 C.3            1 S1                 0.0000
     15 ****         1.3685   0.2148  -2.6565 C.3            1 S1                 0.0000
     16 ****         1.1841  -0.9635  -3.4330 O.3            1 S1                 0.0000
     17 ****         0.4802  -1.9710  -2.7156 C.3            1 S1                 0.0000
     18 ****         1.2807  -2.3717  -1.4646 C.3            1 S1                 0.0000
     19 ****        -3.3015   2.5133   1.6999 S.3            1 S1                 0.0000
     20 ****        -4.7245   4.6152  -0.3355 H              1 S1                 0.0000
     21 ****        -5.7544   4.0191   0.9782 H              1 S1                 0.0000
     22 ****        -6.0285   3.4648  -0.6813 H              1 S1                 0.0000
     23 ****        -0.0309  -1.0935   2.5359 H              1 S1                 0.0000
     24 ****         2.2433   0.5005   1.5092 H              1 S1                 0.0000
     25 ****         3.5797  -0.9155   3.0269 H              1 S1                 0.0000
     26 ****         2.1449  -1.8418   3.4592 H              1 S1                 0.0000
     27 ****         2.2592  -0.1370   3.8901 H              1 S1                 0.0000
     28 ****         3.2858  -1.5413   0.5131 H              1 S1                 0.0000
     29 ****         1.8976  -2.4811   0.9950 H              1 S1                 0.0000
     30 ****         2.3310   0.7781  -0.8041 H              1 S1                 0.0000
     31 ****         3.1990  -0.4526  -1.7022 H              1 S1                 0.0000
     32 ****         0.4023   0.6384  -2.3768 H              1 S1                 0.0000
     33 ****         1.8813   0.9618  -3.2625 H              1 S1                 0.0000
     34 ****        -0.5134  -1.6117  -2.4422 H              1 S1                 0.0000
     35 ****         0.3391  -2.8349  -3.3650 H              1 S1                 0.0000
     36 ****         2.2302  -2.8267  -1.7506 H              1 S1                 0.0000
     37 ****         0.7215  -3.1169  -0.8976 H              1 S1                 0.0000
     38 ****         0.6183  -0.8220  -0.3724 H              1 S1                 0.0000
     39 ****        -4.6694   1.5348  -1.4535 LP             1 S1                 0.0000
     40 ****        -2.9843  -0.1343  -0.6737 LP             1 S1                 0.0000
     41 ****        -2.0045  -0.4810   2.2279 LP             1 S1                 0.0000
     42 ****        -0.5863   2.0156   0.1794 LP             1 S1                 0.0000
     43 ****         1.0199   1.4655   0.5218 LP             1 S1                 0.0000
     44 ****         2.0805  -1.3208  -3.6953 LP             1 S1                 0.0000
     45 ****         0.6647  -0.7303  -4.2551 LP             1 S1                 0.0000
@<TRIPOS>BOND
    1    1    2 1     
    2    1   20 1     
    3    1   21 1     
    4    1   22 1     
    5    2   19 1     
    6    2    3 2     
    7    3    4 1     
    8    4    5 2     
    9    5    6 1     
   10    5   19 1     
   11    6    7 1     
   12    7    8 2     
   13    7    9 am    
   14    9   10 1     
   15    9   23 1     
   16   10   11 1     
   17   10   12 1     
   18   10   24 1     
   19   11   25 1     
   20   11   26 1     
   21   11   27 1     
   22   12   13 1     
   23   12   28 1     
   24   12   29 1     
   25   13   18 1     
   26   13   14 1     
   27   13   38 1     
   28   14   15 1     
   29   14   30 1     
   30   14   31 1     
   31   15   16 1     
   32   15   32 1     
   33   15   33 1     
   34   16   17 1     
   35   17   18 1     
   36   17   34 1     
   37   17   35 1     
   38   18   36 1     
   39   18   37 1     
   40    3   39 1     
   41    4   40 1     
   42    6   41 1     
   43    8   42 1     
   44    8   43 1     
   45   16   44 1     
   46   16   45 1     
@<TRIPOS>SUBSTRUCTURE
      1 S1             1
@<TRIPOS>SET
LONE_PAIRS      STATIC     ATOMS    <user>   **** ""
7 39 40 41 42 43 44 45
DONOR_HYDROGENS      STATIC     ATOMS    <user>   **** ""
2 23 38
ATOM$BLUE        STATIC     ATOMS    COLORGROUP SYSTEM
7 39 40 41 42 43 44 45
ATOM$RED        STATIC     ATOMS    COLORGROUP SYSTEM
2 23 38
