#       Name:                AV-unprocessed.smi:2100
#       Creating user name   scv26
#       Creation time:       Fri Mar 27 11:30:47 2020


#       File generated by GOLD software.
#

@<TRIPOS>MOLECULE
AV-unprocessed.smi:2100
    44    45     1
SMALL
NO_CHARGES


@<TRIPOS>ATOM
      1 ****        -1.2693   4.2312  -2.4159 C.3            1 S1                 0.0000
      2 ****        -1.8332   3.4545  -1.2210 C.3            1 S1                 0.0000
      3 ****        -1.4726   1.9590  -1.2820 C.3            1 S1                 0.0000
      4 ****        -1.8984   1.2609  -0.0572 N.pl3          1 S1                 0.0000
      5 ****        -1.9325  -0.4751  -0.0699 S.o2           1 S1                 0.0000
      6 ****        -2.5857  -0.8858   1.1839 O.2            1 S1                 0.0000
      7 ****        -2.5705  -0.8663  -1.3376 O.2            1 S1                 0.0000
      8 ****        -0.3275  -0.7032  -0.0616 N.pl3          1 S1                -1.0000
      9 ****         0.1928  -2.0590  -0.0770 C.3            1 S1                 0.0000
     10 ****         1.7360  -2.0253  -0.0430 C.3            1 S1                 0.0000
     11 ****         2.3942  -3.4015  -0.0359 C.ar           1 S1                 0.0000
     12 ****         2.7409  -4.0255   1.1844 C.ar           1 S1                 0.0000
     13 ****         3.3601  -5.2895   1.1446 C.ar           1 S1                 0.0000
     14 ****         3.6146  -5.8815  -0.1070 C.ar           1 S1                 0.0000
     15 ****         3.2373  -5.1793  -1.2687 C.ar           1 S1                 0.0000
     16 ****         2.6437  -3.9671  -1.2426 N.ar           1 S1                 0.0000
     17 ****        -1.5005   1.9425   1.1862 C.3            1 S1                 0.0000
     18 ****        -1.8620   3.4382   1.1365 C.3            1 S1                 0.0000
     19 ****        -1.3301   4.1999   2.3556 C.3            1 S1                 0.0000
     20 ****        -1.3051   4.0258  -0.0315 O.3            1 S1                 0.0000
     21 ****        -1.6554   3.8380  -3.3566 H              1 S1                 0.0000
     22 ****        -0.1812   4.1698  -2.4486 H              1 S1                 0.0000
     23 ****        -1.5420   5.2852  -2.3593 H              1 S1                 0.0000
     24 ****        -2.9190   3.5670  -1.2203 H              1 S1                 0.0000
     25 ****        -1.9439   1.5002  -2.1511 H              1 S1                 0.0000
     26 ****        -0.3954   1.8347  -1.4001 H              1 S1                 0.0000
     27 ****        -0.1678  -2.6327   0.7775 H              1 S1                 0.0000
     28 ****        -0.1343  -2.6031  -0.9635 H              1 S1                 0.0000
     29 ****         2.1111  -1.4663  -0.9018 H              1 S1                 0.0000
     30 ****         2.0720  -1.4795   0.8399 H              1 S1                 0.0000
     31 ****         2.5328  -3.5464   2.1299 H              1 S1                 0.0000
     32 ****         3.6356  -5.7953   2.0581 H              1 S1                 0.0000
     33 ****         4.0884  -6.8495  -0.1753 H              1 S1                 0.0000
     34 ****         3.4194  -5.6023  -2.2456 H              1 S1                 0.0000
     35 ****        -1.9912   1.4720   2.0380 H              1 S1                 0.0000
     36 ****        -0.4262   1.8173   1.3266 H              1 S1                 0.0000
     37 ****        -2.9476   3.5493   1.1101 H              1 S1                 0.0000
     38 ****        -1.7393   3.7937   3.2809 H              1 S1                 0.0000
     39 ****        -1.6034   5.2541   2.3059 H              1 S1                 0.0000
     40 ****        -0.2430   4.1399   2.4151 H              1 S1                 0.0000
     41 ****         0.2956   0.0788  -0.0461 LP             1 S1                 0.0000
     42 ****         2.3947  -3.4989  -2.0904 LP             1 S1                 0.0000
     43 ****        -1.5066   5.0053  -0.0272 LP             1 S1                 0.0000
     44 ****        -0.3146   3.8892  -0.0203 LP             1 S1                 0.0000
@<TRIPOS>BOND
    1    1    2 1     
    2    1   21 1     
    3    1   22 1     
    4    1   23 1     
    5    2   20 1     
    6    2    3 1     
    7    2   24 1     
    8    3    4 1     
    9    3   25 1     
   10    3   26 1     
   11    4    5 1     
   12    4   17 1     
   13    5    6 2     
   14    5    7 2     
   15    5    8 1     
   16    8    9 1     
   17    9   10 1     
   18    9   27 1     
   19    9   28 1     
   20   10   11 1     
   21   10   29 1     
   22   10   30 1     
   23   11   16 ar    
   24   11   12 ar    
   25   12   13 ar    
   26   12   31 1     
   27   13   14 ar    
   28   13   32 1     
   29   14   15 ar    
   30   14   33 1     
   31   15   16 ar    
   32   15   34 1     
   33   17   18 1     
   34   17   35 1     
   35   17   36 1     
   36   18   19 1     
   37   18   20 1     
   38   18   37 1     
   39   19   38 1     
   40   19   39 1     
   41   19   40 1     
   42    8   41 1     
   43   16   42 1     
   44   20   43 1     
   45   20   44 1     
@<TRIPOS>SUBSTRUCTURE
      1 S1             1
@<TRIPOS>SET
LONE_PAIRS      STATIC     ATOMS    <user>   **** ""
6 6 7 41 42 43 44
ATOM$BLUE        STATIC     ATOMS    COLORGROUP SYSTEM
6 6 7 41 42 43 44
