AV-unprocessed.smi:3092|AV-procd|sdf|11785|dock6
  -GOLD-   2272017163D 1   1.00000     0.00000
 Structure written by MMmdl.
 26 27  0  0  0  0  0  0  0  0  3 V2000
  153.5872  140.9197  160.4132 C   0  0  0  0  0  0  0  0  0  0  0  0
  153.0898  142.1873  160.9521 N   0  0  0  0  0  0  0  0  0  0  0  0
  153.0832  142.5574  162.2727 C   0  0  0  0  0  0  0  0  0  0  0  0
  152.5312  143.8095  162.3279 C   0  0  0  0  0  0  0  0  0  0  0  0
  152.2242  144.1527  161.0397 N   0  3  0  0  0  0  0  0  0  0  0  0
  152.5644  143.1685  160.1968 C   0  0  0  0  0  0  0  0  0  0  0  0
  152.3716  143.1924  158.7054 C   0  0  1  0  0  0  0  0  0  0  0  0
  151.4962  142.0773  158.1383 C   0  0  0  0  0  0  0  0  0  0  0  0
  151.0957  142.6130  156.7559 C   0  0  0  0  0  0  0  0  0  0  0  0
  151.2533  144.0830  156.8074 N   0  3  0  0  0  0  0  0  0  0  0  0
  151.6833  144.4475  158.1695 C   0  0  0  0  0  0  0  0  0  0  0  0
  153.9547  140.2950  161.2280 H   0  0  0  0  0  0  0  0  0  0  0  0
  154.4025  141.1181  159.7168 H   0  0  0  0  0  0  0  0  0  0  0  0
  152.7764  140.4008  159.9007 H   0  0  0  0  0  0  0  0  0  0  0  0
  153.4618  141.9181  163.0577 H   0  0  0  0  0  0  0  0  0  0  0  0
  152.3383  144.4644  163.1654 H   0  0  0  0  0  0  0  0  0  0  0  0
  153.3578  143.1209  158.2463 H   0  0  0  0  0  0  0  0  0  0  0  0
  152.0054  141.1140  158.0957 H   0  0  0  0  0  0  0  0  0  0  0  0
  150.5994  141.9540  158.7474 H   0  0  0  0  0  0  0  0  0  0  0  0
  151.7565  142.2206  155.9822 H   0  0  0  0  0  0  0  0  0  0  0  0
  150.0735  142.3365  156.4959 H   0  0  0  0  0  0  0  0  0  0  0  0
  151.9744  144.3493  156.1516 H   0  0  0  0  0  0  0  0  0  0  0  0
  150.7925  144.6805  158.7549 H   0  0  0  0  0  0  0  0  0  0  0  0
  152.3311  145.3245  158.1734 H   0  0  0  0  0  0  0  0  0  0  0  0
  150.3899  144.5504  156.5683 H   0  0  0  0  0  0  0  0  0  0  0  0
  151.7965  145.0277  160.7633 H   0  0  0  0  0  0  0  0  0  0  0  0
  1  2  1  0  0  0  0
  1 12  1  0  0  0  0
  1 13  1  0  0  0  0
  1 14  1  0  0  0  0
  2  6  1  0  0  0  0
  2  3  1  0  0  0  0
  3  4  2  0  0  0  0
  3 15  1  0  0  0  0
  4  5  1  0  0  0  0
  4 16  1  0  0  0  0
  5  6  2  0  0  0  0
  5 26  1  0  0  0  0
  6  7  1  0  0  0  0
  7 11  1  0  0  0  0
  7  8  1  0  0  0  0
  7 17  1  0  0  0  0
  8  9  1  0  0  0  0
  8 18  1  0  0  0  0
  8 19  1  0  0  0  0
  9 10  1  0  0  0  0
  9 20  1  0  0  0  0
  9 21  1  0  0  0  0
 10 11  1  0  0  0  0
 10 22  1  0  0  0  0
 10 25  1  0  0  0  0
 11 23  1  0  0  0  0
 11 24  1  0  0  0  0
M  CHG  1   5   1
M  CHG  1  10   1
M  END
> <s_m_source_file>
AV-unprocessed.smi

> <i_m_source_file_index>
3092

> <i_lp_mmshare_version>
43012

> <i_f3d_flags>
0

> <s_epik_input>
W0NIM11uMVtjSF1bY0hdbmMxW0NAQEhdMltDSDJdW0NIMl1bTkhdW0NIMl0y

> <s_epik_cmdline>
J2VwaWtfcHl0aG9uJywgJy1waCcsICc3LjAnLCAnLXRuJywgJzgnLCAnLW1hJywgJzIwMCcsICctbWV0YWxfYmluZGluZycsICctaW1hZScsICc8aW5maWxlLm1hZT4nLCAnLW9tYWUnLCAnPG91dGZpbGUubWFlPic=

> <r_lp_tautomer_probability>
1

> <r_epik_Ionization_Penalty>
0.803493

> <r_epik_Ionization_Penalty_Charging>
0.000689375

> <r_epik_Ionization_Penalty_Neutral>
0.802804

> <r_epik_State_Penalty>
0.834355

> <r_epik_Charging_Adjusted_Penalty>
0.835044

> <i_epik_Tot_Q>
2

> <i_epik_Tot_abs_Q>
2

> <r_epik_Metal_State_Penalty>
4.76097

> <b_epik_Metal_Only>
0

> <s_lp_Force_Field>
OPLS_2005

> <r_lp_Energy>
35.9538

> <b_lp_Chiralities_Consistent>
1

> <s_lp_Variant>
AV-unprocessed.smi:3092-4

> <Gold.Version>
5.8.1

> <Gold.Id.Protein>
6NUR|6NUR_protein|mol2

> <Gold.PLP.Fitness>
40.2977

> <Gold.PLP.PLP>
-34.3076

> <Gold.PLP.part.hbond>
-1.0000

> <Gold.PLP.part.metal>
0.0000

> <Gold.PLP.part.buried>
-3.7014

> <Gold.PLP.part.nonpolar>
-29.6554

> <Gold.PLP.part.repulsive>
0.0877

> <Gold.PLP.ligand.clash>
0.0000

> <Gold.PLP.ligand.torsion>
0.0062

> <Gold.PLP.Chemscore.Hbond>
2.0000

> <Gold.PLP.Chemscore.CHOScore>
0.0000

> <Gold.PLP.Chemscore.Metal>
0.0000

> <Gold.Chemscore.Hbonds>
donor molecule, donor type, donor heavy atom, donor atom, acceptor molecule, acceptor atom, score
      L1  H    10    25       P1  8028  2.00

> <Gold.PLP.Chemscore.Internal.Correction>
0.0025

> <Gold.Rescore>
     Score         DG    S(hbond)    S(metal)    S(lipo)     H(rot)  DE(clash)    DE(int)     intcor
     15.12     -15.28       0.99        0.00      77.36       1.00       0.14       0.01       ----

> <Gold.Chemscore.Fitness>
15.1243

> <Gold.Chemscore.DG>
-15.2819

> <Gold.Chemscore.ZeroCoef>
-5.4800

> <Gold.Chemscore.Hbond>
0.9911

> <Gold.Chemscore.Metal>
0.0000

> <Gold.Chemscore.Lipo>
77.3643

> <Gold.Chemscore.Internal_Hbond>
0.0000

> <Gold.Chemscore.DEClash>
0.1430

> <Gold.Chemscore.DEInternal>
0.0146

> <Gold.Chemscore.Rot>
1.0000

> <Gold.Chemscore.Internal.Correction>
   9.000000E+99

> <Gold.Chemscore.Hbonds>
donor molecule, donor type, donor heavy atom, donor atom, acceptor molecule, acceptor atom, score
      L1  H    10    25       P1  8028  0.94

> <Gold.Chemscore.Hbond.Weighted>
-3.3103

> <Gold.Chemscore.Metal.Weighted>
-0.0000

> <Gold.Chemscore.Lipo.Weighted>
-9.0516

> <Gold.Chemscore.Internal_Hbond.Weighted>
0.0000

> <Gold.Chemscore.DEClash.Weighted>
0.1430

> <Gold.Chemscore.DEInternal.Weighted>
0.0146

> <Gold.Chemscore.Rot.Weighted>
2.5600

> <Gold.Chemscore.Internal.Correction.Weighted>
   9.000000E+99

> <Gold.Protein.RotatedTorsions>
[ 6907 6896 6895 6894 ] final    5.02 input  -60.11 | X-H torsion
[ 7974 7965 7964 7962 ] final -123.49 input  175.53 | X-H torsion
[ 8008 7997 7996 7995 ] final   23.81 input   59.86 | X-H torsion
[ 10167 10162 10161 10158 ] final -164.10 input  -65.29 | X-H torsion
[ 10718 10713 10712 10709 ] final  -93.14 input   66.30 | X-H torsion
[ 10763 10752 10751 10750 ] final   65.13 input  -60.55 | X-H torsion
[ 11005 11000 10999 10996 ] final   70.87 input  -57.11 | X-H torsion

> <Gold.Protein.ActiveResidues>
 VAL166  LYS551  ARG553  GLY616  TRP617  ASP618  TYR619  PRO620  LYS621  CYS622 
 ASP623  PHE694  ASN695  SER759  ASP760  ASP761  ALA762  ILE779  LEU786  VAL792 
 PHE793  MET794  SER795  GLU796  ALA797  LYS798  CYS799  TRP800  GLU811  SER814 

> <Gold.Protein.RotatedAtoms>
  151.6507  135.1002  160.0159 H   0  0  0  0  0  0  0  0  0  0  0  0  # atno 6907 bound_to 6896
  152.4002  133.6802  159.6318 H   0  0  0  0  0  0  0  0  0  0  0  0  # atno 6908 bound_to 6896
  150.7903  133.8721  159.3302 H   0  0  0  0  0  0  0  0  0  0  0  0  # atno 6909 bound_to 6896
  145.0181  140.7965  143.4397 H   0  0  0  0  0  0  0  0  0  0  0  0  # atno 7974 bound_to 7965
  154.9866  140.3108  155.4924 H   0  0  0  0  0  0  0  0  0  0  0  0  # atno 8008 bound_to 7997
  156.2946  140.2257  156.4908 H   0  0  0  0  0  0  0  0  0  0  0  0  # atno 8009 bound_to 7997
  154.7741  140.0450  157.1063 H   0  0  0  0  0  0  0  0  0  0  0  0  # atno 8010 bound_to 7997
  139.6274  144.0505  152.1987 H   0  0  0  0  0  0  0  0  0  0  0  0  # atno 10167 bound_to 10162
  156.0010  130.5015  150.5732 H   0  0  0  0  0  0  0  0  0  0  0  0  # atno 10718 bound_to 10713
  153.0083  135.5368  154.6618 H   0  0  0  0  0  0  0  0  0  0  0  0  # atno 10763 bound_to 10752
  154.5825  135.2851  155.0720 H   0  0  0  0  0  0  0  0  0  0  0  0  # atno 10764 bound_to 10752
  154.1844  135.6511  153.5095 H   0  0  0  0  0  0  0  0  0  0  0  0  # atno 10765 bound_to 10752
  139.9574  134.7120  156.0722 H   0  0  0  0  0  0  0  0  0  0  0  0  # atno 11005 bound_to 11000
  145.1932  139.2290  143.5232 LP  0  0  0  0  0  0  0  0  0  0  0  0  # atno 17320 bound_to 7965
  146.3481  140.1732  142.8589 LP  0  0  0  0  0  0  0  0  0  0  0  0  # atno 17321 bound_to 7965
  140.0162  144.6187  150.7605 LP  0  0  0  0  0  0  0  0  0  0  0  0  # atno 17342 bound_to 10162
  140.7419  143.2825  151.3558 LP  0  0  0  0  0  0  0  0  0  0  0  0  # atno 17343 bound_to 10162
  157.3623  131.0752  151.1626 LP  0  0  0  0  0  0  0  0  0  0  0  0  # atno 17370 bound_to 10713
  157.2406  130.6568  149.5888 LP  0  0  0  0  0  0  0  0  0  0  0  0  # atno 17371 bound_to 10713
  141.1247  133.6602  156.3306 LP  0  0  0  0  0  0  0  0  0  0  0  0  # atno 17394 bound_to 11000
  140.5577  134.5965  157.5425 LP  0  0  0  0  0  0  0  0  0  0  0  0  # atno 17395 bound_to 11000

$$$$
