AV-unprocessed.smi:2906|AV-procd|sdf|11164|dock6
  -GOLD-   2272016 53D 1   1.00000     0.00000
 Structure written by MMmdl.
 39 40  0  0  0  0  0  0  0  0  2 V2000
  144.2196  132.4444  150.6763 C   0  0  0  0  0  0  0  0  0  0  0  0
  145.3883  132.9834  151.5174 C   0  0  0  0  0  0  0  0  0  0  0  0
  146.2023  131.8854  152.2227 C   0  0  0  0  0  0  0  0  0  0  0  0
  145.8995  130.7012  152.0654 O   0  0  0  0  0  0  0  0  0  0  0  0
  147.2391  132.2608  153.0006 N   0  0  0  0  0  0  0  0  0  0  0  0
  148.0999  131.3138  153.7043 C   0  0  0  0  0  0  0  0  0  0  0  0
  149.2589  132.1356  154.2667 C   0  0  0  0  0  0  0  0  0  0  0  0
  148.7107  133.5584  154.3724 C   0  0  1  0  0  0  0  0  0  0  0  0
  149.7461  134.5731  154.1972 N   0  0  0  0  0  0  0  0  0  0  0  0
  150.3938  135.2060  155.1860 C   0  0  0  0  0  0  0  0  0  0  0  0
  150.1224  134.9484  156.3612 O   0  0  0  0  0  0  0  0  0  0  0  0
  151.3181  136.0940  154.7531 N   0  5  0  0  0  0  0  0  0  0  0  0
  151.0120  137.3999  154.6857 C   0  0  0  0  0  0  0  0  0  0  0  0
  149.8031  137.8495  154.3313 N   0  0  0  0  0  0  0  0  0  0  0  0
  149.7024  139.2434  154.3297 C   0  0  0  0  0  0  0  0  0  0  0  0
  148.4076  139.9006  153.9596 C   0  0  0  0  0  0  0  0  0  0  0  0
  148.5333  141.4258  153.8731 C   0  0  0  0  0  0  0  0  0  0  0  0
  150.8722  139.8669  154.6785 C   0  0  0  0  0  0  0  0  0  0  0  0
  152.1344  138.7197  155.0235 S   0  0  0  0  0  0  0  0  0  0  0  0
  147.6565  133.6376  153.2622 C   0  0  0  0  0  0  0  0  0  0  0  0
  143.6862  133.2621  150.1913 H   0  0  0  0  0  0  0  0  0  0  0  0
  143.5003  131.9043  151.2933 H   0  0  0  0  0  0  0  0  0  0  0  0
  144.5686  131.7696  149.8938 H   0  0  0  0  0  0  0  0  0  0  0  0
  146.0545  133.5584  150.8733 H   0  0  0  0  0  0  0  0  0  0  0  0
  144.9978  133.6709  152.2681 H   0  0  0  0  0  0  0  0  0  0  0  0
  147.5318  130.8518  154.5130 H   0  0  0  0  0  0  0  0  0  0  0  0
  148.4601  130.5213  153.0468 H   0  0  0  0  0  0  0  0  0  0  0  0
  149.6218  131.7529  155.2214 H   0  0  0  0  0  0  0  0  0  0  0  0
  150.0917  132.1058  153.5620 H   0  0  0  0  0  0  0  0  0  0  0  0
  148.2142  133.6843  155.3366 H   0  0  0  0  0  0  0  0  0  0  0  0
  149.9972  134.8137  153.2496 H   0  0  0  0  0  0  0  0  0  0  0  0
  148.0544  139.5146  153.0027 H   0  0  0  0  0  0  0  0  0  0  0  0
  147.6369  139.6448  154.6875 H   0  0  0  0  0  0  0  0  0  0  0  0
  147.5792  141.8802  153.6056 H   0  0  0  0  0  0  0  0  0  0  0  0
  149.2644  141.7187  153.1191 H   0  0  0  0  0  0  0  0  0  0  0  0
  148.8488  141.8489  154.8273 H   0  0  0  0  0  0  0  0  0  0  0  0
  151.0690  140.9257  154.7511 H   0  0  0  0  0  0  0  0  0  0  0  0
  148.0797  134.0523  152.3455 H   0  0  0  0  0  0  0  0  0  0  0  0
  146.8225  134.2711  153.5668 H   0  0  0  0  0  0  0  0  0  0  0  0
  1  2  1  0  0  0  0
  1 21  1  0  0  0  0
  1 22  1  0  0  0  0
  1 23  1  0  0  0  0
  2  3  1  0  0  0  0
  2 24  1  0  0  0  0
  2 25  1  0  0  0  0
  3  4  2  0  0  0  0
  3  5  1  0  0  0  0
  5 20  1  0  0  0  0
  5  6  1  0  0  0  0
  6  7  1  0  0  0  0
  6 26  1  0  0  0  0
  6 27  1  0  0  0  0
  7  8  1  0  0  0  0
  7 28  1  0  0  0  0
  7 29  1  0  0  0  0
  8  9  1  0  0  0  0
  8 20  1  0  0  0  0
  8 30  1  0  0  0  0
  9 10  1  0  0  0  0
  9 31  1  0  0  0  0
 10 11  2  0  0  0  0
 10 12  1  0  0  0  0
 12 13  1  0  0  0  0
 13 19  1  0  0  0  0
 13 14  2  0  0  0  0
 14 15  1  0  0  0  0
 15 16  1  0  0  0  0
 15 18  2  0  0  0  0
 16 17  1  0  0  0  0
 16 32  1  0  0  0  0
 16 33  1  0  0  0  0
 17 34  1  0  0  0  0
 17 35  1  0  0  0  0
 17 36  1  0  0  0  0
 18 19  1  0  0  0  0
 18 37  1  0  0  0  0
 20 38  1  0  0  0  0
 20 39  1  0  0  0  0
M  CHG  1  12  -1
M  END
> <s_m_source_file>
AV-unprocessed.smi

> <i_m_source_file_index>
2906

> <i_lp_mmshare_version>
43012

> <i_f3d_flags>
0

> <s_epik_input>
W0NIM11bQ0gyXUMoPU8pTjFbQ0gyXVtDSDJdW0NASF0oW0NIMl0xKVtOSF1DKD1PKVtOSF1jMm5jKFtjSF1zMilbQ0gyXVtDSDNd

> <s_epik_cmdline>
J2VwaWtfcHl0aG9uJywgJy1waCcsICc3LjAnLCAnLXRuJywgJzgnLCAnLW1hJywgJzIwMCcsICctbWV0YWxfYmluZGluZycsICctaW1hZScsICc8aW5maWxlLm1hZT4nLCAnLW9tYWUnLCAnPG91dGZpbGUubWFlPic=

> <r_lp_tautomer_probability>
1

> <r_epik_Ionization_Penalty>
7.20119

> <r_epik_Ionization_Penalty_Charging>
5.87168

> <r_epik_Ionization_Penalty_Neutral>
1.32951

> <r_epik_State_Penalty>
5.87165

> <r_epik_Charging_Adjusted_Penalty>
11.7433

> <i_epik_Tot_Q>
-1

> <i_epik_Tot_abs_Q>
1

> <r_epik_Metal_State_Penalty>
1.83511

> <b_epik_Metal_Only>
1

> <s_lp_Force_Field>
OPLS_2005

> <r_lp_Energy>
20.3379

> <b_lp_Chiralities_Consistent>
1

> <s_lp_Variant>
AV-unprocessed.smi:2906-3

> <Gold.Version>
5.8.1

> <Gold.Id.Protein>
6NUR|6NUR_protein|mol2

> <Gold.PLP.Fitness>
40.8027

> <Gold.PLP.PLP>
-37.4934

> <Gold.PLP.part.hbond>
-2.1843

> <Gold.PLP.part.metal>
0.0000

> <Gold.PLP.part.buried>
-1.5413

> <Gold.PLP.part.nonpolar>
-34.5924

> <Gold.PLP.part.repulsive>
1.0029

> <Gold.PLP.ligand.clash>
0.0000

> <Gold.PLP.ligand.torsion>
1.3705

> <Gold.PLP.Chemscore.Hbond>
2.0000

> <Gold.PLP.Chemscore.CHOScore>
0.0000

> <Gold.PLP.Chemscore.Metal>
0.0000

> <Gold.Chemscore.Hbonds>
donor molecule, donor type, donor heavy atom, donor atom, acceptor molecule, acceptor atom, score
      P1  H 10752 10765       L1    12  2.00

> <Gold.PLP.Chemscore.Internal.Correction>
0.0504

> <Gold.Rescore>
     Score         DG    S(hbond)    S(metal)    S(lipo)     H(rot)  DE(clash)    DE(int)     intcor
     11.85     -13.18       0.96        0.00      68.80       1.39       0.02       1.31       ----

> <Gold.Chemscore.Fitness>
11.8491

> <Gold.Chemscore.DG>
-13.1829

> <Gold.Chemscore.ZeroCoef>
-5.4800

> <Gold.Chemscore.Hbond>
0.9581

> <Gold.Chemscore.Metal>
0.0000

> <Gold.Chemscore.Lipo>
68.8034

> <Gold.Chemscore.Internal_Hbond>
0.0000

> <Gold.Chemscore.DEClash>
0.0212

> <Gold.Chemscore.DEInternal>
1.3126

> <Gold.Chemscore.Rot>
1.3856

> <Gold.Chemscore.Internal.Correction>
   9.000000E+99

> <Gold.Chemscore.Hbonds>
donor molecule, donor type, donor heavy atom, donor atom, acceptor molecule, acceptor atom, score
      P1  H 10752 10765       L1    12  0.96

> <Gold.Chemscore.Hbond.Weighted>
-3.2000

> <Gold.Chemscore.Metal.Weighted>
-0.0000

> <Gold.Chemscore.Lipo.Weighted>
-8.0500

> <Gold.Chemscore.Internal_Hbond.Weighted>
0.0000

> <Gold.Chemscore.DEClash.Weighted>
0.0212

> <Gold.Chemscore.DEInternal.Weighted>
1.3126

> <Gold.Chemscore.Rot.Weighted>
3.5471

> <Gold.Chemscore.Internal.Correction.Weighted>
   9.000000E+99

> <Gold.Protein.RotatedTorsions>
[ 6907 6896 6895 6894 ] final  -99.18 input  -60.11 | X-H torsion
[ 7974 7965 7964 7962 ] final -129.82 input  175.53 | X-H torsion
[ 8008 7997 7996 7995 ] final   24.50 input   59.86 | X-H torsion
[ 10167 10162 10161 10158 ] final  130.97 input  -65.29 | X-H torsion
[ 10718 10713 10712 10709 ] final -100.62 input   66.30 | X-H torsion
[ 10763 10752 10751 10750 ] final  177.06 input  -60.55 | X-H torsion
[ 11005 11000 10999 10996 ] final   -6.81 input  -57.11 | X-H torsion

> <Gold.Protein.ActiveResidues>
 VAL166  LYS551  ARG553  GLY616  TRP617  ASP618  TYR619  PRO620  LYS621  CYS622 
 ASP623  PHE694  ASN695  SER759  ASP760  ASP761  ALA762  ILE779  LEU786  VAL792 
 PHE793  MET794  SER795  GLU796  ALA797  LYS798  CYS799  TRP800  GLU811  SER814 

> <Gold.Protein.RotatedAtoms>
  150.7071  134.1081  159.3989 H   0  0  0  0  0  0  0  0  0  0  0  0  # atno 6907 bound_to 6896
  151.9067  135.0353  160.0520 H   0  0  0  0  0  0  0  0  0  0  0  0  # atno 6908 bound_to 6896
  152.2369  133.5068  159.5284 H   0  0  0  0  0  0  0  0  0  0  0  0  # atno 6909 bound_to 6896
  144.9534  140.7369  143.4773 H   0  0  0  0  0  0  0  0  0  0  0  0  # atno 7974 bound_to 7965
  154.9972  140.3121  155.4882 H   0  0  0  0  0  0  0  0  0  0  0  0  # atno 8008 bound_to 7997
  156.2931  140.2238  156.5020 H   0  0  0  0  0  0  0  0  0  0  0  0  # atno 8009 bound_to 7997
  154.7651  140.0456  157.0993 H   0  0  0  0  0  0  0  0  0  0  0  0  # atno 8010 bound_to 7997
  139.5405  144.6726  151.4640 H   0  0  0  0  0  0  0  0  0  0  0  0  # atno 10167 bound_to 10162
  156.0169  130.5336  150.6844 H   0  0  0  0  0  0  0  0  0  0  0  0  # atno 10718 bound_to 10713
  154.4895  135.2778  155.1508 H   0  0  0  0  0  0  0  0  0  0  0  0  # atno 10763 bound_to 10752
  154.3185  135.6214  153.5501 H   0  0  0  0  0  0  0  0  0  0  0  0  # atno 10764 bound_to 10752
  152.9886  135.5737  154.5313 H   0  0  0  0  0  0  0  0  0  0  0  0  # atno 10765 bound_to 10752
  140.7060  133.8949  155.8717 H   0  0  0  0  0  0  0  0  0  0  0  0  # atno 11005 bound_to 11000
  145.2809  139.1919  143.4791 LP  0  0  0  0  0  0  0  0  0  0  0  0  # atno 17320 bound_to 7965
  146.3329  140.2770  142.8608 LP  0  0  0  0  0  0  0  0  0  0  0  0  # atno 17321 bound_to 7965
  140.6633  143.8452  150.6913 LP  0  0  0  0  0  0  0  0  0  0  0  0  # atno 17342 bound_to 10162
  140.1853  143.4081  152.1903 LP  0  0  0  0  0  0  0  0  0  0  0  0  # atno 17343 bound_to 10162
  157.4539  131.0875  151.0817 LP  0  0  0  0  0  0  0  0  0  0  0  0  # atno 17370 bound_to 10713
  157.1324  130.6108  149.5533 LP  0  0  0  0  0  0  0  0  0  0  0  0  # atno 17371 bound_to 10713
  141.0124  134.1002  157.4207 LP  0  0  0  0  0  0  0  0  0  0  0  0  # atno 17394 bound_to 11000
  139.8884  135.0097  156.6618 LP  0  0  0  0  0  0  0  0  0  0  0  0  # atno 17395 bound_to 11000

$$$$
