AV-unprocessed.smi:280|AV-procd|sdf|2099|dock3
  -GOLD-   2262021383D 1   1.00000     0.00000
 Structure written by MMmdl.
 59 62  0  0  0  0  0  0  0  0  2 V2000
  147.3669  136.9204  155.6486 C   0  0  0  0  0  0  0  0  0  0  0  0
  147.8163  135.6376  156.3829 C   0  0  2  0  0  0  0  0  0  0  0  0
  149.1418  135.8471  157.1460 C   0  0  0  0  0  0  0  0  0  0  0  0
  150.2767  135.9026  156.2240 N   0  0  0  0  0  0  0  0  0  0  0  0
  150.7767  137.1219  155.8825 C   0  0  0  0  0  0  0  0  0  0  0  0
  151.4840  137.2008  154.7247 N   0  0  0  0  0  0  0  0  0  0  0  0
  152.0039  138.3615  154.3188 C   0  0  0  0  0  0  0  0  0  0  0  0
  151.9390  139.5539  154.9098 N   0  0  0  0  0  0  0  0  0  0  0  0
  151.2330  139.4904  156.0741 C   0  0  0  0  0  0  0  0  0  0  0  0
  150.6237  138.3285  156.6327 C   0  0  0  0  0  0  0  0  0  0  0  0
  150.0148  138.6651  157.8377 N   0  0  0  0  0  0  0  0  0  0  0  0
  150.2343  139.9437  157.9722 C   0  0  0  0  0  0  0  0  0  0  0  0
  150.9493  140.5236  156.9509 N   0  0  0  0  0  0  0  0  0  0  0  0
  151.3353  141.9217  156.8382 C   0  0  0  0  0  0  0  0  0  0  0  0
  150.9983  142.7891  158.0708 C   0  0  0  0  0  0  0  0  0  0  0  0
  149.4741  142.8714  158.2770 C   0  0  0  0  0  0  0  0  0  0  0  0
  149.0831  144.0858  158.8870 O   0  0  0  0  0  0  0  0  0  0  0  0
  151.8425  142.5451  159.3318 C   0  0  0  0  0  0  0  0  0  0  0  0
  152.6734  143.6955  159.0722 O   0  0  0  0  0  0  0  0  0  0  0  0
  151.7273  144.1415  158.0783 C   0  0  0  0  0  0  0  0  0  0  0  0
  150.3924  134.7555  155.3299 C   0  0  0  0  0  0  0  0  0  0  0  0
  149.0818  134.5231  154.5549 C   0  0  0  0  0  0  0  0  0  0  0  0
  147.9225  134.4486  155.4854 N   0  3  2  0  0  0  0  0  0  0  0  0
  146.6435  134.0549  154.8329 C   0  0  0  0  0  0  0  0  0  0  0  0
  146.7611  132.7632  153.9871 C   0  0  0  0  0  0  0  0  0  0  0  0
  147.3520  133.0307  152.5905 C   0  0  0  0  0  0  0  0  0  0  0  0
  147.6138  131.7232  154.7332 C   0  0  0  0  0  0  0  0  0  0  0  0
  145.4830  132.1828  153.8247 O   0  0  0  0  0  0  0  0  0  0  0  0
  147.2962  137.7557  156.3456 H   0  0  0  0  0  0  0  0  0  0  0  0
  146.3861  136.8066  155.1879 H   0  0  0  0  0  0  0  0  0  0  0  0
  148.0649  137.2147  154.8653 H   0  0  0  0  0  0  0  0  0  0  0  0
  147.0542  135.4095  157.1293 H   0  0  0  0  0  0  0  0  0  0  0  0
  149.0704  136.7296  157.7817 H   0  0  0  0  0  0  0  0  0  0  0  0
  149.3069  135.0073  157.8219 H   0  0  0  0  0  0  0  0  0  0  0  0
  152.5483  138.3304  153.3863 H   0  0  0  0  0  0  0  0  0  0  0  0
  149.8792  140.4991  158.8276 H   0  0  0  0  0  0  0  0  0  0  0  0
  152.4077  141.9496  156.6395 H   0  0  0  0  0  0  0  0  0  0  0  0
  150.8646  142.3355  155.9455 H   0  0  0  0  0  0  0  0  0  0  0  0
  148.9500  142.8102  157.3230 H   0  0  0  0  0  0  0  0  0  0  0  0
  149.1112  142.0375  158.8784 H   0  0  0  0  0  0  0  0  0  0  0  0
  148.5371  144.5636  158.2813 H   0  0  0  0  0  0  0  0  0  0  0  0
  151.2868  142.6526  160.2648 H   0  0  0  0  0  0  0  0  0  0  0  0
  152.4084  141.6145  159.3247 H   0  0  0  0  0  0  0  0  0  0  0  0
  152.2049  144.3955  157.1311 H   0  0  0  0  0  0  0  0  0  0  0  0
  151.1262  144.9765  158.4418 H   0  0  0  0  0  0  0  0  0  0  0  0
  151.2436  134.8491  154.6568 H   0  0  0  0  0  0  0  0  0  0  0  0
  150.6038  133.8797  155.9445 H   0  0  0  0  0  0  0  0  0  0  0  0
  148.9163  135.3186  153.8291 H   0  0  0  0  0  0  0  0  0  0  0  0
  149.1715  133.6020  153.9816 H   0  0  0  0  0  0  0  0  0  0  0  0
  145.8912  133.8674  155.6000 H   0  0  0  0  0  0  0  0  0  0  0  0
  146.2567  134.8833  154.2367 H   0  0  0  0  0  0  0  0  0  0  0  0
  148.3389  133.4889  152.6624 H   0  0  0  0  0  0  0  0  0  0  0  0
  146.7206  133.6970  152.0022 H   0  0  0  0  0  0  0  0  0  0  0  0
  147.4615  132.1056  152.0231 H   0  0  0  0  0  0  0  0  0  0  0  0
  148.6292  132.0877  154.8941 H   0  0  0  0  0  0  0  0  0  0  0  0
  147.6865  130.7896  154.1734 H   0  0  0  0  0  0  0  0  0  0  0  0
  147.1908  131.4875  155.7106 H   0  0  0  0  0  0  0  0  0  0  0  0
  145.3428  132.0129  152.9052 H   0  0  0  0  0  0  0  0  0  0  0  0
  148.1357  133.6830  156.1088 H   0  0  0  0  0  0  0  0  0  0  0  0
  1  2  1  0  0  0  0
  1 29  1  0  0  0  0
  1 30  1  0  0  0  0
  1 31  1  0  0  0  0
  2 23  1  0  0  0  0
  2  3  1  0  0  0  0
  2 32  1  0  0  0  0
  3  4  1  0  0  0  0
  3 33  1  0  0  0  0
  3 34  1  0  0  0  0
  4  5  1  0  0  0  0
  4 21  1  0  0  0  0
  5 10  1  0  0  0  0
  5  6  2  0  0  0  0
  6  7  1  0  0  0  0
  7  8  2  0  0  0  0
  7 35  1  0  0  0  0
  8  9  1  0  0  0  0
  9 13  1  0  0  0  0
  9 10  2  0  0  0  0
 10 11  1  0  0  0  0
 11 12  2  0  0  0  0
 12 13  1  0  0  0  0
 12 36  1  0  0  0  0
 13 14  1  0  0  0  0
 14 15  1  0  0  0  0
 14 37  1  0  0  0  0
 14 38  1  0  0  0  0
 15 20  1  0  0  0  0
 15 16  1  0  0  0  0
 15 18  1  0  0  0  0
 16 17  1  0  0  0  0
 16 39  1  0  0  0  0
 16 40  1  0  0  0  0
 17 41  1  0  0  0  0
 18 19  1  0  0  0  0
 18 42  1  0  0  0  0
 18 43  1  0  0  0  0
 19 20  1  0  0  0  0
 20 44  1  0  0  0  0
 20 45  1  0  0  0  0
 21 22  1  0  0  0  0
 21 46  1  0  0  0  0
 21 47  1  0  0  0  0
 22 23  1  0  0  0  0
 22 48  1  0  0  0  0
 22 49  1  0  0  0  0
 23 24  1  0  0  0  0
 23 59  1  0  0  0  0
 24 25  1  0  0  0  0
 24 50  1  0  0  0  0
 24 51  1  0  0  0  0
 25 26  1  0  0  0  0
 25 27  1  0  0  0  0
 25 28  1  0  0  0  0
 26 52  1  0  0  0  0
 26 53  1  0  0  0  0
 26 54  1  0  0  0  0
 27 55  1  0  0  0  0
 27 56  1  0  0  0  0
 27 57  1  0  0  0  0
 28 58  1  0  0  0  0
M  CHG  1  23   1
M  END
> <s_m_source_file>
AV-unprocessed.smi

> <i_m_source_file_index>
280

> <i_lp_mmshare_version>
43012

> <i_f3d_flags>
0

> <s_epik_input>
W0NIM11DKFtDSDNdKShbT0hdKVtDSDJdTjFbQ0gyXVtDSDJdTihbQ0gyXVtDQEhdMVtDSDNdKWMobltjSF1uMiljKGMyMyluW2NIXW4zW0NIMl1DNChbQ0gyXVtPSF0pW0NIMl1PW0NIMl00

> <s_epik_cmdline>
J2VwaWtfcHl0aG9uJywgJy1waCcsICc3LjAnLCAnLXRuJywgJzgnLCAnLW1hJywgJzIwMCcsICctbWV0YWxfYmluZGluZycsICctaW1hZScsICc8aW5maWxlLm1hZT4nLCAnLW9tYWUnLCAnPG91dGZpbGUubWFlPic=

> <r_lp_tautomer_probability>
1

> <r_epik_Ionization_Penalty>
0.00179402

> <r_epik_Ionization_Penalty_Charging>
0.00173996

> <r_epik_Ionization_Penalty_Neutral>
5.40607e-05

> <r_epik_State_Penalty>
-0

> <r_epik_Charging_Adjusted_Penalty>
0.00173996

> <i_epik_Tot_Q>
1

> <i_epik_Tot_abs_Q>
1

> <r_epik_Metal_State_Penalty>
-0

> <b_epik_Metal_Only>
0

> <s_lp_Force_Field>
OPLS_2005

> <r_lp_Energy>
53.0384

> <b_lp_Chiralities_Consistent>
1

> <s_lp_Variant>
AV-unprocessed.smi:280-3

> <Gold.Version>
5.8.1

> <Gold.Id.Protein>
6NUR|6NUR_protein|mol2

> <Gold.PLP.Fitness>
44.2820

> <Gold.PLP.PLP>
-36.6788

> <Gold.PLP.part.hbond>
-3.3933

> <Gold.PLP.part.metal>
0.0000

> <Gold.PLP.part.buried>
-8.5587

> <Gold.PLP.part.nonpolar>
-25.3808

> <Gold.PLP.part.repulsive>
0.1667

> <Gold.PLP.ligand.clash>
0.0000

> <Gold.PLP.ligand.torsion>
1.0648

> <Gold.PLP.Chemscore.Hbond>
2.9190

> <Gold.PLP.Chemscore.CHOScore>
0.0000

> <Gold.PLP.Chemscore.Metal>
0.0000

> <Gold.Chemscore.Hbonds>
donor molecule, donor type, donor heavy atom, donor atom, acceptor molecule, acceptor atom, score
      L1  H    17    41       P1  8029  1.00
      P1  H  7989  7998       L1     8  0.96
      P1  H 10752 10763       L1     6  0.70

> <Gold.PLP.Chemscore.Internal.Correction>
0.9758

> <Gold.Rescore>
     Score         DG    S(hbond)    S(metal)    S(lipo)     H(rot)  DE(clash)    DE(int)     intcor
     10.60     -12.65       2.10        0.00      73.58       3.30       0.00       2.04       ----

> <Gold.Chemscore.Fitness>
10.6048

> <Gold.Chemscore.DG>
-12.6502

> <Gold.Chemscore.ZeroCoef>
-5.4800

> <Gold.Chemscore.Hbond>
2.0978

> <Gold.Chemscore.Metal>
0.0000

> <Gold.Chemscore.Lipo>
73.5833

> <Gold.Chemscore.Internal_Hbond>
0.0000

> <Gold.Chemscore.DEClash>
0.0021

> <Gold.Chemscore.DEInternal>
2.0432

> <Gold.Chemscore.Rot>
3.2991

> <Gold.Chemscore.Internal.Correction>
   9.000000E+99

> <Gold.Chemscore.Hbonds>
donor molecule, donor type, donor heavy atom, donor atom, acceptor molecule, acceptor atom, score
      L1  H    17    41       P1  8029  0.60
      P1  H  7989  7998       L1     8  0.55
      P1  H 10752 10763       L1     6  0.44

> <Gold.Chemscore.Hbond.Weighted>
-7.0065

> <Gold.Chemscore.Metal.Weighted>
-0.0000

> <Gold.Chemscore.Lipo.Weighted>
-8.6092

> <Gold.Chemscore.Internal_Hbond.Weighted>
0.0000

> <Gold.Chemscore.DEClash.Weighted>
0.0021

> <Gold.Chemscore.DEInternal.Weighted>
2.0432

> <Gold.Chemscore.Rot.Weighted>
8.4456

> <Gold.Chemscore.Internal.Correction.Weighted>
   9.000000E+99

> <Gold.Protein.RotatedTorsions>
[ 6907 6896 6895 6894 ] final  -22.36 input  -60.11 | X-H torsion
[ 7974 7965 7964 7962 ] final  -51.78 input  175.53 | X-H torsion
[ 8008 7997 7996 7995 ] final   35.00 input   59.86 | X-H torsion
[ 10167 10162 10161 10158 ] final  144.19 input  -65.29 | X-H torsion
[ 10718 10713 10712 10709 ] final    2.87 input   66.30 | X-H torsion
[ 10763 10752 10751 10750 ] final   47.86 input  -60.55 | X-H torsion
[ 11005 11000 10999 10996 ] final -131.03 input  -57.11 | X-H torsion

> <Gold.Protein.ActiveResidues>
 VAL166  LYS551  ARG553  GLY616  TRP617  ASP618  TYR619  PRO620  LYS621  CYS622 
 ASP623  PHE694  ASN695  SER759  ASP760  ASP761  ALA762  ILE779  LEU786  VAL792 
 PHE793  MET794  SER795  GLU796  ALA797  LYS798  CYS799  TRP800  GLU811  SER814 

> <Gold.Protein.RotatedAtoms>
  151.2197  135.0514  159.8944 H   0  0  0  0  0  0  0  0  0  0  0  0  # atno 6907 bound_to 6896
  152.5416  134.0654  159.8180 H   0  0  0  0  0  0  0  0  0  0  0  0  # atno 6908 bound_to 6896
  151.0818  133.5336  159.2652 H   0  0  0  0  0  0  0  0  0  0  0  0  # atno 6909 bound_to 6896
  145.9152  140.7881  142.9675 H   0  0  0  0  0  0  0  0  0  0  0  0  # atno 7974 bound_to 7965
  155.1640  140.3286  155.4405 H   0  0  0  0  0  0  0  0  0  0  0  0  # atno 8008 bound_to 7997
  156.2533  140.1955  156.6697 H   0  0  0  0  0  0  0  0  0  0  0  0  # atno 8009 bound_to 7997
  154.6384  140.0573  156.9803 H   0  0  0  0  0  0  0  0  0  0  0  0  # atno 8010 bound_to 7997
  139.4952  144.5989  151.6523 H   0  0  0  0  0  0  0  0  0  0  0  0  # atno 10167 bound_to 10162
  156.8694  130.5614  149.5658 H   0  0  0  0  0  0  0  0  0  0  0  0  # atno 10718 bound_to 10713
  152.9796  135.5963  154.3831 H   0  0  0  0  0  0  0  0  0  0  0  0  # atno 10763 bound_to 10752
  154.3494  135.2767  155.2382 H   0  0  0  0  0  0  0  0  0  0  0  0  # atno 10764 bound_to 10752
  154.4428  135.6009  153.6195 H   0  0  0  0  0  0  0  0  0  0  0  0  # atno 10765 bound_to 10752
  140.9294  134.1339  157.4247 H   0  0  0  0  0  0  0  0  0  0  0  0  # atno 11005 bound_to 11000
  144.6747  140.1889  143.7398 LP  0  0  0  0  0  0  0  0  0  0  0  0  # atno 17320 bound_to 7965
  145.8620  139.2228  143.1711 LP  0  0  0  0  0  0  0  0  0  0  0  0  # atno 17321 bound_to 7965
  140.5634  144.0231  150.6180 LP  0  0  0  0  0  0  0  0  0  0  0  0  # atno 17342 bound_to 10162
  140.3324  143.3069  152.0673 LP  0  0  0  0  0  0  0  0  0  0  0  0  # atno 17343 bound_to 10162
  156.0734  130.5762  150.9428 LP  0  0  0  0  0  0  0  0  0  0  0  0  # atno 17370 bound_to 10713
  157.6204  131.0930  150.8632 LP  0  0  0  0  0  0  0  0  0  0  0  0  # atno 17371 bound_to 10713
  139.8793  135.0000  156.5984 LP  0  0  0  0  0  0  0  0  0  0  0  0  # atno 17394 bound_to 11000
  140.7882  133.8603  155.8624 LP  0  0  0  0  0  0  0  0  0  0  0  0  # atno 17395 bound_to 11000

$$$$
