AV-unprocessed.smi:573|AV-procd|sdf|2971|dock6
  -GOLD-   2262023473D 1   1.00000     0.00000
 Structure written by MMmdl.
 44 46  0  0  0  0  0  0  0  0  1 V2000
  154.5551  137.3949  157.8946 C   0  0  0  0  0  0  0  0  0  0  0  0
  153.2123  136.6975  158.1633 C   0  0  2  0  0  0  0  0  0  0  0  0
  152.7106  136.1271  156.9723 O   0  0  0  0  0  0  0  0  0  0  0  0
  152.1319  137.5924  158.8011 C   0  0  0  0  0  0  0  0  0  0  0  0
  151.8560  138.7915  158.0283 N   0  0  0  0  0  0  0  0  0  0  0  0
  151.9315  140.1434  158.3417 C   0  0  0  0  0  0  0  0  0  0  0  0
  152.3135  140.6124  159.5282 N   0  0  0  0  0  0  0  0  0  0  0  0
  152.2224  141.9794  159.3454 C   0  0  0  0  0  0  0  0  0  0  0  0
  152.4920  143.0434  160.2358 C   0  0  0  0  0  0  0  0  0  0  0  0
  152.3232  144.3810  159.8218 C   0  0  0  0  0  0  0  0  0  0  0  0
  151.8815  144.6740  158.5152 C   0  0  0  0  0  0  0  0  0  0  0  0
  151.6076  143.6296  157.6112 C   0  0  0  0  0  0  0  0  0  0  0  0
  151.7803  142.2957  158.0274 C   0  0  0  0  0  0  0  0  0  0  0  0
  151.6072  141.0636  157.4036 N   0  0  0  0  0  0  0  0  0  0  0  0
  151.1679  140.8347  156.0342 C   0  0  0  0  0  0  0  0  0  0  0  0
  149.8193  141.5120  155.7408 C   0  0  2  0  0  0  0  0  0  0  0  0
  148.7852  141.2469  156.8512 C   0  0  0  0  0  0  0  0  0  0  0  0
  147.4372  141.8827  156.4928 C   0  0  0  0  0  0  0  0  0  0  0  0
  147.0004  141.4184  155.0991 C   0  0  0  0  0  0  0  0  0  0  0  0
  148.1211  141.6653  154.0765 C   0  0  0  0  0  0  0  0  0  0  0  0
  149.3164  141.0180  154.5006 O   0  0  0  0  0  0  0  0  0  0  0  0
  154.9512  137.8436  158.8059 H   0  0  0  0  0  0  0  0  0  0  0  0
  154.4593  138.1841  157.1482 H   0  0  0  0  0  0  0  0  0  0  0  0
  155.2967  136.6853  157.5268 H   0  0  0  0  0  0  0  0  0  0  0  0
  153.3962  135.8670  158.8454 H   0  0  0  0  0  0  0  0  0  0  0  0
  151.8331  135.8169  157.1356 H   0  0  0  0  0  0  0  0  0  0  0  0
  151.2049  137.0346  158.9369 H   0  0  0  0  0  0  0  0  0  0  0  0
  152.4560  137.8978  159.7966 H   0  0  0  0  0  0  0  0  0  0  0  0
  151.6221  138.6006  157.0649 H   0  0  0  0  0  0  0  0  0  0  0  0
  152.8285  142.8299  161.2394 H   0  0  0  0  0  0  0  0  0  0  0  0
  152.5324  145.1861  160.5107 H   0  0  0  0  0  0  0  0  0  0  0  0
  151.7523  145.7013  158.2076 H   0  0  0  0  0  0  0  0  0  0  0  0
  151.2667  143.8513  156.6109 H   0  0  0  0  0  0  0  0  0  0  0  0
  151.9339  141.2112  155.3557 H   0  0  0  0  0  0  0  0  0  0  0  0
  151.1050  139.7604  155.8572 H   0  0  0  0  0  0  0  0  0  0  0  0
  149.9817  142.5878  155.6508 H   0  0  0  0  0  0  0  0  0  0  0  0
  148.6566  140.1720  156.9859 H   0  0  0  0  0  0  0  0  0  0  0  0
  149.1418  141.6414  157.8031 H   0  0  0  0  0  0  0  0  0  0  0  0
  146.6830  141.6217  157.2354 H   0  0  0  0  0  0  0  0  0  0  0  0
  147.5290  142.9694  156.5059 H   0  0  0  0  0  0  0  0  0  0  0  0
  146.7608  140.3548  155.1256 H   0  0  0  0  0  0  0  0  0  0  0  0
  146.0906  141.9370  154.7959 H   0  0  0  0  0  0  0  0  0  0  0  0
  147.8339  141.2691  153.1025 H   0  0  0  0  0  0  0  0  0  0  0  0
  148.3008  142.7333  153.9446 H   0  0  0  0  0  0  0  0  0  0  0  0
  1  2  1  0  0  0  0
  1 22  1  0  0  0  0
  1 23  1  0  0  0  0
  1 24  1  0  0  0  0
  2  3  1  0  0  0  0
  2  4  1  0  0  0  0
  2 25  1  0  0  0  0
  3 26  1  0  0  0  0
  4  5  1  0  0  0  0
  4 27  1  0  0  0  0
  4 28  1  0  0  0  0
  5  6  1  0  0  0  0
  5 29  1  0  0  0  0
  6 14  1  0  0  0  0
  6  7  2  0  0  0  0
  7  8  1  0  0  0  0
  8 13  2  0  0  0  0
  8  9  1  0  0  0  0
  9 10  2  0  0  0  0
  9 30  1  0  0  0  0
 10 11  1  0  0  0  0
 10 31  1  0  0  0  0
 11 12  2  0  0  0  0
 11 32  1  0  0  0  0
 12 13  1  0  0  0  0
 12 33  1  0  0  0  0
 13 14  1  0  0  0  0
 14 15  1  0  0  0  0
 15 16  1  0  0  0  0
 15 34  1  0  0  0  0
 15 35  1  0  0  0  0
 16 21  1  0  0  0  0
 16 17  1  0  0  0  0
 16 36  1  0  0  0  0
 17 18  1  0  0  0  0
 17 37  1  0  0  0  0
 17 38  1  0  0  0  0
 18 19  1  0  0  0  0
 18 39  1  0  0  0  0
 18 40  1  0  0  0  0
 19 20  1  0  0  0  0
 19 41  1  0  0  0  0
 19 42  1  0  0  0  0
 20 21  1  0  0  0  0
 20 43  1  0  0  0  0
 20 44  1  0  0  0  0
M  END
> <s_m_source_file>
AV-unprocessed.smi

> <i_m_source_file_index>
573

> <i_lp_mmshare_version>
43012

> <i_f3d_flags>
0

> <s_epik_input>
W0NIM11bQ0BIXShbT0hdKVtDSDJdW05IXWMobjEpbihjKGMxMilbY0hdW2NIXVtjSF1bY0hdMilbQ0gyXVtDQEBIXTNbQ0gyXVtDSDJdW0NIMl1bQ0gyXU8z

> <s_epik_cmdline>
J2VwaWtfcHl0aG9uJywgJy1waCcsICc3LjAnLCAnLXRuJywgJzgnLCAnLW1hJywgJzIwMCcsICctbWV0YWxfYmluZGluZycsICctaW1hZScsICc8aW5maWxlLm1hZT4nLCAnLW9tYWUnLCAnPG91dGZpbGUubWFlPic=

> <r_epik_Ionization_Penalty>
1.30635

> <r_epik_Ionization_Penalty_Charging>
0

> <r_epik_Ionization_Penalty_Neutral>
1.30635

> <r_epik_State_Penalty>
1.38073

> <r_epik_Charging_Adjusted_Penalty>
1.38073

> <i_epik_Tot_Q>
0

> <i_epik_Tot_abs_Q>
0

> <r_epik_Metal_State_Penalty>
0.00547412

> <b_epik_Metal_Only>
0

> <s_lp_Force_Field>
OPLS_2005

> <r_lp_Energy>
12.415

> <b_lp_Chiralities_Consistent>
1

> <s_lp_Variant>
AV-unprocessed.smi:573-5

> <Gold.Version>
5.8.1

> <Gold.Id.Protein>
6NUR|6NUR_protein|mol2

> <Gold.PLP.Fitness>
44.1731

> <Gold.PLP.PLP>
-41.4037

> <Gold.PLP.part.hbond>
-1.2726

> <Gold.PLP.part.metal>
0.0000

> <Gold.PLP.part.buried>
-4.9018

> <Gold.PLP.part.nonpolar>
-34.3845

> <Gold.PLP.part.repulsive>
0.2037

> <Gold.PLP.ligand.clash>
0.0000

> <Gold.PLP.ligand.torsion>
0.1230

> <Gold.PLP.Chemscore.Hbond>
1.0000

> <Gold.PLP.Chemscore.CHOScore>
0.0000

> <Gold.PLP.Chemscore.Metal>
0.0000

> <Gold.Chemscore.Hbonds>
donor molecule, donor type, donor heavy atom, donor atom, acceptor molecule, acceptor atom, score
      P1  H 10752 10765       L1     3  1.00

> <Gold.PLP.Chemscore.Internal.Correction>
0.0154

> <Gold.Rescore>
     Score         DG    S(hbond)    S(metal)    S(lipo)     H(rot)  DE(clash)    DE(int)     intcor
     16.55     -16.81       0.99        0.00     112.70       2.02       0.02       0.24       ----

> <Gold.Chemscore.Fitness>
16.5501

> <Gold.Chemscore.DG>
-16.8112

> <Gold.Chemscore.ZeroCoef>
-5.4800

> <Gold.Chemscore.Hbond>
0.9948

> <Gold.Chemscore.Metal>
0.0000

> <Gold.Chemscore.Lipo>
112.7004

> <Gold.Chemscore.Internal_Hbond>
0.0000

> <Gold.Chemscore.DEClash>
0.0200

> <Gold.Chemscore.DEInternal>
0.2412

> <Gold.Chemscore.Rot>
2.0224

> <Gold.Chemscore.Internal.Correction>
   9.000000E+99

> <Gold.Chemscore.Hbonds>
donor molecule, donor type, donor heavy atom, donor atom, acceptor molecule, acceptor atom, score
      P1  H 10752 10765       L1     3  0.55

> <Gold.Chemscore.Hbond.Weighted>
-3.3226

> <Gold.Chemscore.Metal.Weighted>
-0.0000

> <Gold.Chemscore.Lipo.Weighted>
-13.1859

> <Gold.Chemscore.Internal_Hbond.Weighted>
0.0000

> <Gold.Chemscore.DEClash.Weighted>
0.0200

> <Gold.Chemscore.DEInternal.Weighted>
0.2412

> <Gold.Chemscore.Rot.Weighted>
5.1773

> <Gold.Chemscore.Internal.Correction.Weighted>
   9.000000E+99

> <Gold.Protein.RotatedTorsions>
[ 6907 6896 6895 6894 ] final  -15.46 input  -60.11 | X-H torsion
[ 7974 7965 7964 7962 ] final  113.11 input  175.53 | X-H torsion
[ 8008 7997 7996 7995 ] final  122.85 input   59.86 | X-H torsion
[ 10167 10162 10161 10158 ] final  105.06 input  -65.29 | X-H torsion
[ 10718 10713 10712 10709 ] final  101.78 input   66.30 | X-H torsion
[ 10763 10752 10751 10750 ] final -145.29 input  -60.55 | X-H torsion
[ 11005 11000 10999 10996 ] final  171.51 input  -57.11 | X-H torsion

> <Gold.Protein.ActiveResidues>
 VAL166  LYS551  ARG553  GLY616  TRP617  ASP618  TYR619  PRO620  LYS621  CYS622 
 ASP623  PHE694  ASN695  SER759  ASP760  ASP761  ALA762  ILE779  LEU786  VAL792 
 PHE793  MET794  SER795  GLU796  ALA797  LYS798  CYS799  TRP800  GLU811  SER814 

> <Gold.Protein.RotatedAtoms>
  151.3236  135.0824  159.9314 H   0  0  0  0  0  0  0  0  0  0  0  0  # atno 6907 bound_to 6896
  152.5251  133.9613  159.7729 H   0  0  0  0  0  0  0  0  0  0  0  0  # atno 6908 bound_to 6896
  150.9939  133.6070  159.2734 H   0  0  0  0  0  0  0  0  0  0  0  0  # atno 6909 bound_to 6896
  145.2211  139.2862  143.4218 H   0  0  0  0  0  0  0  0  0  0  0  0  # atno 7974 bound_to 7965
  156.2744  140.2776  156.1534 H   0  0  0  0  0  0  0  0  0  0  0  0  # atno 8008 bound_to 7997
  155.0829  140.0388  157.2662 H   0  0  0  0  0  0  0  0  0  0  0  0  # atno 8009 bound_to 7997
  154.6950  140.2637  155.6781 H   0  0  0  0  0  0  0  0  0  0  0  0  # atno 8010 bound_to 7997
  139.7125  144.7075  151.1004 H   0  0  0  0  0  0  0  0  0  0  0  0  # atno 10167 bound_to 10162
  157.6820  131.0735  150.5305 H   0  0  0  0  0  0  0  0  0  0  0  0  # atno 10718 bound_to 10713
  154.8390  135.3417  154.6481 H   0  0  0  0  0  0  0  0  0  0  0  0  # atno 10763 bound_to 10752
  153.7094  135.6965  153.5046 H   0  0  0  0  0  0  0  0  0  0  0  0  # atno 10764 bound_to 10752
  153.2463  135.4368  155.0705 H   0  0  0  0  0  0  0  0  0  0  0  0  # atno 10765 bound_to 10752
  140.3198  134.7447  157.4055 H   0  0  0  0  0  0  0  0  0  0  0  0  # atno 11005 bound_to 11000
  146.3376  140.2517  142.8599 LP  0  0  0  0  0  0  0  0  0  0  0  0  # atno 17320 bound_to 7965
  144.9765  140.8418  143.5423 LP  0  0  0  0  0  0  0  0  0  0  0  0  # atno 17321 bound_to 7965
  140.7736  143.5274  150.9463 LP  0  0  0  0  0  0  0  0  0  0  0  0  # atno 17342 bound_to 10162
  139.8959  143.6895  152.3138 LP  0  0  0  0  0  0  0  0  0  0  0  0  # atno 17343 bound_to 10162
  156.5615  130.4257  149.6061 LP  0  0  0  0  0  0  0  0  0  0  0  0  # atno 17370 bound_to 10713
  156.2817  130.7074  151.1900 LP  0  0  0  0  0  0  0  0  0  0  0  0  # atno 17371 bound_to 10713
  140.0952  134.5547  155.8405 LP  0  0  0  0  0  0  0  0  0  0  0  0  # atno 17394 bound_to 11000
  141.2089  133.6678  156.6403 LP  0  0  0  0  0  0  0  0  0  0  0  0  # atno 17395 bound_to 11000

$$$$
