AV-unprocessed.smi:570|AV-procd|sdf|2961|dock10
  -GOLD-   2262023463D 1   1.00000     0.00000
 Structure written by MMmdl.
 40 41  0  0  0  0  0  0  0  0  1 V2000
  150.8109  141.3690  156.3321 C   0  0  0  0  0  0  0  0  0  0  0  0
  150.7358  140.5652  155.1679 O   0  0  0  0  0  0  0  0  0  0  0  0
  149.5454  139.7976  155.1137 C   0  0  0  0  0  0  0  0  0  0  0  0
  149.7421  138.6497  154.1176 C   0  0  0  0  0  0  0  0  0  0  0  0
  150.6525  137.5404  154.6684 C   0  0  0  0  0  0  0  0  0  0  0  0
  150.1053  136.2180  154.3920 N   0  0  0  0  0  0  0  0  0  0  0  0
  150.5092  135.0784  154.9756 C   0  0  0  0  0  0  0  0  0  0  0  0
  151.4087  135.0240  155.8151 O   0  0  0  0  0  0  0  0  0  0  0  0
  149.8531  133.8245  154.4737 C   0  0  0  0  0  0  0  0  0  0  0  0
  148.8026  133.9925  153.6379 N   0  0  0  0  0  0  0  0  0  0  0  0
  148.1806  132.9072  153.1617 C   0  0  0  0  0  0  0  0  0  0  0  0
  147.0893  133.1085  152.3066 N   0  0  0  0  0  0  0  0  0  0  0  0
  146.2544  134.3100  152.3861 C   0  0  0  0  0  0  0  0  0  0  0  0
  145.6782  134.6706  151.0062 C   0  0  0  0  0  0  0  0  0  0  0  0
  144.9785  133.5556  150.4687 O   0  0  0  0  0  0  0  0  0  0  0  0
  145.8416  132.4417  150.2772 C   0  0  0  0  0  0  0  0  0  0  0  0
  146.4210  131.9937  151.6296 C   0  0  0  0  0  0  0  0  0  0  0  0
  148.5245  131.6450  153.4455 N   0  0  0  0  0  0  0  0  0  0  0  0
  149.5785  131.4499  154.2646 C   0  0  0  0  0  0  0  0  0  0  0  0
  150.3013  132.5232  154.8201 C   0  0  0  0  0  0  0  0  0  0  0  0
  151.6698  132.2067  155.8315 Cl  0  0  0  0  0  0  0  0  0  0  0  0
  151.7413  141.9366  156.3264 H   0  0  0  0  0  0  0  0  0  0  0  0
  150.7954  140.7572  157.2351 H   0  0  0  0  0  0  0  0  0  0  0  0
  149.9842  142.0792  156.3756 H   0  0  0  0  0  0  0  0  0  0  0  0
  149.3119  139.3994  156.1026 H   0  0  0  0  0  0  0  0  0  0  0  0
  148.7091  140.4261  154.8034 H   0  0  0  0  0  0  0  0  0  0  0  0
  148.7703  138.2282  153.8570 H   0  0  0  0  0  0  0  0  0  0  0  0
  150.1630  139.0490  153.1936 H   0  0  0  0  0  0  0  0  0  0  0  0
  151.6580  137.6263  154.2522 H   0  0  0  0  0  0  0  0  0  0  0  0
  150.7542  137.6451  155.7489 H   0  0  0  0  0  0  0  0  0  0  0  0
  149.3739  136.1600  153.6981 H   0  0  0  0  0  0  0  0  0  0  0  0
  145.4454  134.1264  153.0940 H   0  0  0  0  0  0  0  0  0  0  0  0
  146.8098  135.1710  152.7570 H   0  0  0  0  0  0  0  0  0  0  0  0
  144.9893  135.5105  151.0966 H   0  0  0  0  0  0  0  0  0  0  0  0
  146.4705  134.9818  150.3232 H   0  0  0  0  0  0  0  0  0  0  0  0
  145.2744  131.6281  149.8248 H   0  0  0  0  0  0  0  0  0  0  0  0
  146.6393  132.7000  149.5787 H   0  0  0  0  0  0  0  0  0  0  0  0
  147.0952  131.1569  151.4497 H   0  0  0  0  0  0  0  0  0  0  0  0
  145.6232  131.6232  152.2741 H   0  0  0  0  0  0  0  0  0  0  0  0
  149.8519  130.4258  154.4719 H   0  0  0  0  0  0  0  0  0  0  0  0
  1  2  1  0  0  0  0
  1 22  1  0  0  0  0
  1 23  1  0  0  0  0
  1 24  1  0  0  0  0
  2  3  1  0  0  0  0
  3  4  1  0  0  0  0
  3 25  1  0  0  0  0
  3 26  1  0  0  0  0
  4  5  1  0  0  0  0
  4 27  1  0  0  0  0
  4 28  1  0  0  0  0
  5  6  1  0  0  0  0
  5 29  1  0  0  0  0
  5 30  1  0  0  0  0
  6  7  1  0  0  0  0
  6 31  1  0  0  0  0
  7  8  2  0  0  0  0
  7  9  1  0  0  0  0
  9 20  1  0  0  0  0
  9 10  2  0  0  0  0
 10 11  1  0  0  0  0
 11 12  1  0  0  0  0
 11 18  2  0  0  0  0
 12 17  1  0  0  0  0
 12 13  1  0  0  0  0
 13 14  1  0  0  0  0
 13 32  1  0  0  0  0
 13 33  1  0  0  0  0
 14 15  1  0  0  0  0
 14 34  1  0  0  0  0
 14 35  1  0  0  0  0
 15 16  1  0  0  0  0
 16 17  1  0  0  0  0
 16 36  1  0  0  0  0
 16 37  1  0  0  0  0
 17 38  1  0  0  0  0
 17 39  1  0  0  0  0
 18 19  1  0  0  0  0
 19 20  2  0  0  0  0
 19 40  1  0  0  0  0
 20 21  1  0  0  0  0
M  END
> <s_m_source_file>
AV-unprocessed.smi

> <i_m_source_file_index>
570

> <i_lp_mmshare_version>
43012

> <i_f3d_flags>
0

> <s_epik_input>
W0NIM11PW0NIMl1bQ0gyXVtDSDJdW05IXUMoPU8pYzFuYyhuW2NIXWMxQ2wpTjJbQ0gyXVtDSDJdT1tDSDJdW0NIMl0y

> <s_epik_cmdline>
J2VwaWtfcHl0aG9uJywgJy1waCcsICc3LjAnLCAnLXRuJywgJzgnLCAnLW1hJywgJzIwMCcsICctbWV0YWxfYmluZGluZycsICctaW1hZScsICc8aW5maWxlLm1hZT4nLCAnLW9tYWUnLCAnPG91dGZpbGUubWFlPic=

> <r_lp_tautomer_probability>
1

> <r_epik_Ionization_Penalty>
2.32145e-05

> <r_epik_Ionization_Penalty_Charging>
0

> <r_epik_Ionization_Penalty_Neutral>
2.32145e-05

> <r_epik_State_Penalty>
-0

> <r_epik_Charging_Adjusted_Penalty>
0

> <i_epik_Tot_Q>
0

> <i_epik_Tot_abs_Q>
0

> <r_epik_Metal_State_Penalty>
0.0219249

> <b_epik_Metal_Only>
0

> <s_lp_Force_Field>
OPLS_2005

> <r_lp_Energy>
13.2289

> <b_lp_Chiralities_Consistent>
1

> <s_lp_Variant>
AV-unprocessed.smi:570-1

> <Gold.Version>
5.8.1

> <Gold.Id.Protein>
6NUR|6NUR_protein|mol2

> <Gold.PLP.Fitness>
44.9493

> <Gold.PLP.PLP>
-37.4985

> <Gold.PLP.part.hbond>
-3.5848

> <Gold.PLP.part.metal>
0.0000

> <Gold.PLP.part.buried>
-4.5058

> <Gold.PLP.part.nonpolar>
-30.3616

> <Gold.PLP.part.repulsive>
1.7168

> <Gold.PLP.ligand.clash>
0.0000

> <Gold.PLP.ligand.torsion>
0.7418

> <Gold.PLP.Chemscore.Hbond>
2.9195

> <Gold.PLP.Chemscore.CHOScore>
0.0000

> <Gold.PLP.Chemscore.Metal>
0.0000

> <Gold.Chemscore.Hbonds>
donor molecule, donor type, donor heavy atom, donor atom, acceptor molecule, acceptor atom, score
      L1  H     6    31       P1  7948  0.90
      P1  H  7989  7998       L1     2  0.98
      P1  H 10752 10765       L1     8  0.94

> <Gold.PLP.Chemscore.Internal.Correction>
0.1761

> <Gold.Rescore>
     Score         DG    S(hbond)    S(metal)    S(lipo)     H(rot)  DE(clash)    DE(int)     intcor
     15.49     -17.89       2.31        0.00      75.78       1.63       0.33       2.07       ----

> <Gold.Chemscore.Fitness>
15.4851

> <Gold.Chemscore.DG>
-17.8899

> <Gold.Chemscore.ZeroCoef>
-5.4800

> <Gold.Chemscore.Hbond>
2.3109

> <Gold.Chemscore.Metal>
0.0000

> <Gold.Chemscore.Lipo>
75.7815

> <Gold.Chemscore.Internal_Hbond>
0.0000

> <Gold.Chemscore.DEClash>
0.3340

> <Gold.Chemscore.DEInternal>
2.0707

> <Gold.Chemscore.Rot>
1.6308

> <Gold.Chemscore.Internal.Correction>
   9.000000E+99

> <Gold.Chemscore.Hbonds>
donor molecule, donor type, donor heavy atom, donor atom, acceptor molecule, acceptor atom, score
      L1  H     6    31       P1  7948  0.64
      P1  H  7989  7998       L1     2  0.87
      P1  H 10752 10765       L1     8  0.63

> <Gold.Chemscore.Hbond.Weighted>
-7.7184

> <Gold.Chemscore.Metal.Weighted>
-0.0000

> <Gold.Chemscore.Lipo.Weighted>
-8.8664

> <Gold.Chemscore.Internal_Hbond.Weighted>
0.0000

> <Gold.Chemscore.DEClash.Weighted>
0.3340

> <Gold.Chemscore.DEInternal.Weighted>
2.0707

> <Gold.Chemscore.Rot.Weighted>
4.1749

> <Gold.Chemscore.Internal.Correction.Weighted>
   9.000000E+99

> <Gold.Protein.RotatedTorsions>
[ 6907 6896 6895 6894 ] final  102.58 input  -60.11 | X-H torsion
[ 7974 7965 7964 7962 ] final  138.29 input  175.53 | X-H torsion
[ 8008 7997 7996 7995 ] final  -85.94 input   59.86 | X-H torsion
[ 10167 10162 10161 10158 ] final   28.90 input  -65.29 | X-H torsion
[ 10718 10713 10712 10709 ] final   68.22 input   66.30 | X-H torsion
[ 10763 10752 10751 10750 ] final -156.63 input  -60.55 | X-H torsion
[ 11005 11000 10999 10996 ] final  160.62 input  -57.11 | X-H torsion

> <Gold.Protein.ActiveResidues>
 VAL166  LYS551  ARG553  GLY616  TRP617  ASP618  TYR619  PRO620  LYS621  CYS622 
 ASP623  PHE694  ASN695  SER759  ASP760  ASP761  ALA762  ILE779  LEU786  VAL792 
 PHE793  MET794  SER795  GLU796  ALA797  LYS798  CYS799  TRP800  GLU811  SER814 

> <Gold.Protein.RotatedAtoms>
  152.5319  133.9953  159.7869 H   0  0  0  0  0  0  0  0  0  0  0  0  # atno 6907 bound_to 6896
  151.0182  133.5893  159.2681 H   0  0  0  0  0  0  0  0  0  0  0  0  # atno 6908 bound_to 6896
  151.2943  135.0757  159.9269 H   0  0  0  0  0  0  0  0  0  0  0  0  # atno 6909 bound_to 6896
  144.9386  139.4958  143.5583 H   0  0  0  0  0  0  0  0  0  0  0  0  # atno 7974 bound_to 7965
  154.6463  140.0585  156.9904 H   0  0  0  0  0  0  0  0  0  0  0  0  # atno 8008 bound_to 7997
  155.1439  140.3268  155.4427 H   0  0  0  0  0  0  0  0  0  0  0  0  # atno 8009 bound_to 7997
  156.2555  140.1959  156.6554 H   0  0  0  0  0  0  0  0  0  0  0  0  # atno 8010 bound_to 7997
  140.4812  144.0613  150.6266 H   0  0  0  0  0  0  0  0  0  0  0  0  # atno 10167 bound_to 10162
  157.6277  130.9362  150.0348 H   0  0  0  0  0  0  0  0  0  0  0  0  # atno 10718 bound_to 10713
  154.7698  135.3142  154.8212 H   0  0  0  0  0  0  0  0  0  0  0  0  # atno 10763 bound_to 10752
  153.8951  135.6821  153.4762 H   0  0  0  0  0  0  0  0  0  0  0  0  # atno 10764 bound_to 10752
  153.1310  135.4780  154.9283 H   0  0  0  0  0  0  0  0  0  0  0  0  # atno 10765 bound_to 10752
  140.2077  134.8290  157.3087 H   0  0  0  0  0  0  0  0  0  0  0  0  # atno 11005 bound_to 11000
  146.3277  139.8389  142.8894 LP  0  0  0  0  0  0  0  0  0  0  0  0  # atno 17320 bound_to 7965
  145.3027  141.0198  143.3600 LP  0  0  0  0  0  0  0  0  0  0  0  0  # atno 17321 bound_to 7965
  140.3855  143.2780  152.0121 LP  0  0  0  0  0  0  0  0  0  0  0  0  # atno 17342 bound_to 10162
  139.4834  144.6120  151.7416 LP  0  0  0  0  0  0  0  0  0  0  0  0  # atno 17343 bound_to 10162
  156.1459  130.3642  149.9511 LP  0  0  0  0  0  0  0  0  0  0  0  0  # atno 17370 bound_to 10713
  156.7542  130.9127  151.3639 LP  0  0  0  0  0  0  0  0  0  0  0  0  # atno 17371 bound_to 10713
  140.1984  134.4284  155.7676 LP  0  0  0  0  0  0  0  0  0  0  0  0  # atno 17394 bound_to 11000
  141.2227  133.7060  156.8144 LP  0  0  0  0  0  0  0  0  0  0  0  0  # atno 17395 bound_to 11000

$$$$
