AV-unprocessed.smi:3270|AV-procd|sdf|12515|dock4
  -GOLD-   2272018423D 1   1.00000     0.00000
 Structure written by MMmdl.
 39 40  0  0  0  0  0  0  0  0  2 V2000
  151.0979  138.0246  155.0265 C   0  0  0  0  0  0  0  0  0  0  0  0
  151.0009  139.5616  154.9430 C   0  0  1  0  0  0  0  0  0  0  0  0
  149.6739  140.0439  154.3337 C   0  0  0  0  0  0  0  0  0  0  0  0
  149.4810  141.2390  154.1061 O   0  0  0  0  0  0  0  0  0  0  0  0
  148.7580  139.0965  154.0754 N   0  0  0  0  0  0  0  0  0  0  0  0
  147.4494  139.3414  153.4811 C   0  0  0  0  0  0  0  0  0  0  0  0
  146.3601  139.5087  154.5583 C   0  0  0  0  0  0  0  0  0  0  0  0
  145.7342  140.8541  154.5279 N   0  3  0  0  0  0  0  0  0  0  0  0
  145.0202  141.1718  155.7879 C   0  0  0  0  0  0  0  0  0  0  0  0
  144.3497  142.5531  155.6962 C   0  0  0  0  0  0  0  0  0  0  0  0
  145.3292  143.5395  155.3976 O   0  0  0  0  0  0  0  0  0  0  0  0
  145.9605  143.2988  154.1464 C   0  0  0  0  0  0  0  0  0  0  0  0
  146.6844  141.9419  154.1844 C   0  0  0  0  0  0  0  0  0  0  0  0
  151.2287  140.1952  156.2368 N   0  0  0  0  0  0  0  0  0  0  0  0
  150.4073  141.0813  156.9043 C   0  0  0  0  0  0  0  0  0  0  0  0
  151.0092  141.3854  158.0915 C   0  0  0  0  0  0  0  0  0  0  0  0
  152.2078  140.6199  158.0683 C   0  0  0  0  0  0  0  0  0  0  0  0
  152.3334  139.9042  156.9629 N   0  0  0  0  0  0  0  0  0  0  0  0
  150.9825  137.5694  154.0421 H   0  0  0  0  0  0  0  0  0  0  0  0
  150.3336  137.5994  155.6785 H   0  0  0  0  0  0  0  0  0  0  0  0
  152.0694  137.7182  155.4151 H   0  0  0  0  0  0  0  0  0  0  0  0
  151.7986  139.8958  154.2774 H   0  0  0  0  0  0  0  0  0  0  0  0
  148.9934  138.1379  154.2885 H   0  0  0  0  0  0  0  0  0  0  0  0
  147.5116  140.2174  152.8345 H   0  0  0  0  0  0  0  0  0  0  0  0
  147.2071  138.4964  152.8362 H   0  0  0  0  0  0  0  0  0  0  0  0
  145.5923  138.7537  154.3819 H   0  0  0  0  0  0  0  0  0  0  0  0
  146.7579  139.3151  155.5559 H   0  0  0  0  0  0  0  0  0  0  0  0
  144.2635  140.4120  155.9875 H   0  0  0  0  0  0  0  0  0  0  0  0
  145.7232  141.1524  156.6224 H   0  0  0  0  0  0  0  0  0  0  0  0
  143.5666  142.5574  154.9361 H   0  0  0  0  0  0  0  0  0  0  0  0
  143.8740  142.8034  156.6447 H   0  0  0  0  0  0  0  0  0  0  0  0
  145.2239  143.3259  153.3416 H   0  0  0  0  0  0  0  0  0  0  0  0
  146.6742  144.0997  153.9514 H   0  0  0  0  0  0  0  0  0  0  0  0
  147.4895  141.9717  154.9206 H   0  0  0  0  0  0  0  0  0  0  0  0
  147.1462  141.7562  153.2153 H   0  0  0  0  0  0  0  0  0  0  0  0
  149.4719  141.4192  156.4830 H   0  0  0  0  0  0  0  0  0  0  0  0
  150.6472  142.0507  158.8613 H   0  0  0  0  0  0  0  0  0  0  0  0
  152.9829  140.5600  158.8181 H   0  0  0  0  0  0  0  0  0  0  0  0
  145.0318  140.8319  153.8023 H   0  0  0  0  0  0  0  0  0  0  0  0
  1  2  1  0  0  0  0
  1 19  1  0  0  0  0
  1 20  1  0  0  0  0
  1 21  1  0  0  0  0
  2  3  1  0  0  0  0
  2 14  1  0  0  0  0
  2 22  1  0  0  0  0
  3  4  2  0  0  0  0
  3  5  1  0  0  0  0
  5  6  1  0  0  0  0
  5 23  1  0  0  0  0
  6  7  1  0  0  0  0
  6 24  1  0  0  0  0
  6 25  1  0  0  0  0
  7  8  1  0  0  0  0
  7 26  1  0  0  0  0
  7 27  1  0  0  0  0
  8 13  1  0  0  0  0
  8  9  1  0  0  0  0
  8 39  1  0  0  0  0
  9 10  1  0  0  0  0
  9 28  1  0  0  0  0
  9 29  1  0  0  0  0
 10 11  1  0  0  0  0
 10 30  1  0  0  0  0
 10 31  1  0  0  0  0
 11 12  1  0  0  0  0
 12 13  1  0  0  0  0
 12 32  1  0  0  0  0
 12 33  1  0  0  0  0
 13 34  1  0  0  0  0
 13 35  1  0  0  0  0
 14 18  1  0  0  0  0
 14 15  1  0  0  0  0
 15 16  2  0  0  0  0
 15 36  1  0  0  0  0
 16 17  1  0  0  0  0
 16 37  1  0  0  0  0
 17 18  2  0  0  0  0
 17 38  1  0  0  0  0
M  CHG  1   8   1
M  END
> <s_m_source_file>
AV-unprocessed.smi

> <i_m_source_file_index>
3270

> <i_lp_mmshare_version>
43012

> <i_f3d_flags>
0

> <s_epik_input>
bjFbY0hdW2NIXVtjSF1uMVtDQEhdKFtDSDNdKUMoPU8pW05IXVtDSDJdW0NIMl1OMltDSDJdW0NIMl1PW0NIMl1bQ0gyXTI=

> <s_epik_cmdline>
J2VwaWtfcHl0aG9uJywgJy1waCcsICc3LjAnLCAnLXRuJywgJzgnLCAnLW1hJywgJzIwMCcsICctbWV0YWxfYmluZGluZycsICctaW1hZScsICc8aW5maWxlLm1hZT4nLCAnLW9tYWUnLCAnPG91dGZpbGUubWFlPic=

> <r_lp_tautomer_probability>
1

> <r_epik_Ionization_Penalty>
0.73255

> <r_epik_Ionization_Penalty_Charging>
0.732531

> <r_epik_Ionization_Penalty_Neutral>
1.96965e-05

> <r_epik_State_Penalty>
0.757939

> <r_epik_Charging_Adjusted_Penalty>
1.49047

> <i_epik_Tot_Q>
1

> <i_epik_Tot_abs_Q>
1

> <r_epik_Metal_State_Penalty>
0.757952

> <b_epik_Metal_Only>
0

> <s_lp_Force_Field>
OPLS_2005

> <r_lp_Energy>
19.4088

> <b_lp_Chiralities_Consistent>
1

> <s_lp_Variant>
AV-unprocessed.smi:3270-4

> <Gold.Version>
5.8.1

> <Gold.Id.Protein>
6NUR|6NUR_protein|mol2

> <Gold.PLP.Fitness>
39.8612

> <Gold.PLP.PLP>
-30.2055

> <Gold.PLP.part.hbond>
-4.6015

> <Gold.PLP.part.metal>
0.0000

> <Gold.PLP.part.buried>
-0.4811

> <Gold.PLP.part.nonpolar>
-25.7642

> <Gold.PLP.part.repulsive>
1.1587

> <Gold.PLP.ligand.clash>
0.2236

> <Gold.PLP.ligand.torsion>
0.8335

> <Gold.PLP.Chemscore.Hbond>
3.8112

> <Gold.PLP.Chemscore.CHOScore>
0.0000

> <Gold.PLP.Chemscore.Metal>
0.0000

> <Gold.Chemscore.Hbonds>
donor molecule, donor type, donor heavy atom, donor atom, acceptor molecule, acceptor atom, score
      L1  H     8    39       P1 10175  2.00
      P1  H  7997  8009       L1    18  0.91
      P1  H  8011  8017       L1     4  0.54

> <Gold.PLP.Chemscore.Internal.Correction>
0.1127

> <Gold.Rescore>
     Score         DG    S(hbond)    S(metal)    S(lipo)     H(rot)  DE(clash)    DE(int)     intcor
     12.41     -16.20       2.57        0.00      59.92       1.91       0.99       2.80       ----

> <Gold.Chemscore.Fitness>
12.4058

> <Gold.Chemscore.DG>
-16.1984

> <Gold.Chemscore.ZeroCoef>
-5.4800

> <Gold.Chemscore.Hbond>
2.5749

> <Gold.Chemscore.Metal>
0.0000

> <Gold.Chemscore.Lipo>
59.9155

> <Gold.Chemscore.Internal_Hbond>
0.0000

> <Gold.Chemscore.DEClash>
0.9928

> <Gold.Chemscore.DEInternal>
2.7998

> <Gold.Chemscore.Rot>
1.9109

> <Gold.Chemscore.Internal.Correction>
   9.000000E+99

> <Gold.Chemscore.Hbonds>
donor molecule, donor type, donor heavy atom, donor atom, acceptor molecule, acceptor atom, score
      L1  H     8    39       P1 10175  0.92
      P1  H  7997  8009       L1    18  0.30
      P1  H  8011  8017       L1     4  0.54

> <Gold.Chemscore.Hbond.Weighted>
-8.6001

> <Gold.Chemscore.Metal.Weighted>
-0.0000

> <Gold.Chemscore.Lipo.Weighted>
-7.0101

> <Gold.Chemscore.Internal_Hbond.Weighted>
0.0000

> <Gold.Chemscore.DEClash.Weighted>
0.9928

> <Gold.Chemscore.DEInternal.Weighted>
2.7998

> <Gold.Chemscore.Rot.Weighted>
4.8919

> <Gold.Chemscore.Internal.Correction.Weighted>
   9.000000E+99

> <Gold.Protein.RotatedTorsions>
[ 6907 6896 6895 6894 ] final  117.51 input  -60.11 | X-H torsion
[ 7974 7965 7964 7962 ] final   56.58 input  175.53 | X-H torsion
[ 8008 7997 7996 7995 ] final -173.57 input   59.86 | X-H torsion
[ 10167 10162 10161 10158 ] final  165.00 input  -65.29 | X-H torsion
[ 10718 10713 10712 10709 ] final  -35.52 input   66.30 | X-H torsion
[ 10763 10752 10751 10750 ] final  -91.82 input  -60.55 | X-H torsion
[ 11005 11000 10999 10996 ] final  -44.28 input  -57.11 | X-H torsion

> <Gold.Protein.ActiveResidues>
 VAL166  LYS551  ARG553  GLY616  TRP617  ASP618  TYR619  PRO620  LYS621  CYS622 
 ASP623  PHE694  ASN695  SER759  ASP760  ASP761  ALA762  ILE779  LEU786  VAL792 
 PHE793  MET794  SER795  GLU796  ALA797  LYS798  CYS799  TRP800  GLU811  SER814 

> <Gold.Protein.RotatedAtoms>
  152.4607  133.7815  159.6853 H   0  0  0  0  0  0  0  0  0  0  0  0  # atno 6907 bound_to 6896
  150.8549  133.7720  159.3018 H   0  0  0  0  0  0  0  0  0  0  0  0  # atno 6908 bound_to 6896
  151.5304  135.1071  159.9953 H   0  0  0  0  0  0  0  0  0  0  0  0  # atno 6909 bound_to 6896
  145.9383  139.3866  143.0379 H   0  0  0  0  0  0  0  0  0  0  0  0  # atno 7974 bound_to 7965
  155.9592  140.1141  157.0911 H   0  0  0  0  0  0  0  0  0  0  0  0  # atno 8008 bound_to 7997
  154.4128  140.1185  156.5222 H   0  0  0  0  0  0  0  0  0  0  0  0  # atno 8009 bound_to 7997
  155.6743  140.3473  155.4832 H   0  0  0  0  0  0  0  0  0  0  0  0  # atno 8010 bound_to 7997
  139.4898  144.4178  151.9223 H   0  0  0  0  0  0  0  0  0  0  0  0  # atno 10167 bound_to 10162
  156.3377  130.4289  149.7815 H   0  0  0  0  0  0  0  0  0  0  0  0  # atno 10718 bound_to 10713
  154.6799  135.5254  153.8249 H   0  0  0  0  0  0  0  0  0  0  0  0  # atno 10763 bound_to 10752
  153.0558  135.6550  154.0592 H   0  0  0  0  0  0  0  0  0  0  0  0  # atno 10764 bound_to 10752
  154.0480  135.2971  155.3324 H   0  0  0  0  0  0  0  0  0  0  0  0  # atno 10765 bound_to 10752
  141.0440  133.6768  156.2851 H   0  0  0  0  0  0  0  0  0  0  0  0  # atno 11005 bound_to 11000
  145.8334  140.9619  143.0837 LP  0  0  0  0  0  0  0  0  0  0  0  0  # atno 17320 bound_to 7965
  144.6775  140.0192  143.7484 LP  0  0  0  0  0  0  0  0  0  0  0  0  # atno 17321 bound_to 7965
  140.3621  144.2960  150.5932 LP  0  0  0  0  0  0  0  0  0  0  0  0  # atno 17342 bound_to 10162
  140.5394  143.2226  151.8110 LP  0  0  0  0  0  0  0  0  0  0  0  0  # atno 17343 bound_to 10162
  156.5064  130.8152  151.3152 LP  0  0  0  0  0  0  0  0  0  0  0  0  # atno 17370 bound_to 10713
  157.7441  130.9928  150.2649 LP  0  0  0  0  0  0  0  0  0  0  0  0  # atno 17371 bound_to 10713
  140.6181  134.5389  157.5543 LP  0  0  0  0  0  0  0  0  0  0  0  0  # atno 17394 bound_to 11000
  139.9297  134.7987  156.0965 LP  0  0  0  0  0  0  0  0  0  0  0  0  # atno 17395 bound_to 11000

$$$$
