#       Name:                AV-unprocessed.smi:1572
#       Creating user name   scv26
#       Creation time:       Fri Mar 27 06:53:59 2020


#       File generated by GOLD software.
#

@<TRIPOS>MOLECULE
AV-unprocessed.smi:1572
    48    49     1
SMALL
NO_CHARGES


@<TRIPOS>ATOM
      1 ****        -2.5018  -3.5119   2.3497 C.3            1 S1                 0.0000
      2 ****        -2.0848  -2.9048   1.0952 N.3            1 S1                 0.0000
      3 ****        -2.6861  -1.5878   0.9083 C.3            1 S1                 0.0000
      4 ****        -2.2551  -0.9561  -0.4283 C.3            1 S1                 0.0000
      5 ****        -0.7926  -0.8169  -0.5224 N.3            1 S1                 0.0000
      6 ****        -0.3095  -0.0966  -1.7343 C.3            1 S1                 0.0000
      7 ****        -0.6418  -0.8376  -3.0522 C.3            1 S1                 0.0000
      8 ****        -0.9436   1.3144  -1.8337 C.3            1 S1                 0.0000
      9 ****         1.2335   0.1110  -1.7013 C.3            1 S1                 0.0000
     10 ****         1.6920   0.7443  -0.4647 N.am           1 S1                 0.0000
     11 ****         2.1416   2.0021  -0.3489 C.2            1 S1                 0.0000
     12 ****         2.2471   2.7781  -1.2990 O.2            1 S1                 0.0000
     13 ****         2.4457   2.2918   0.9285 N.am           1 S1                 0.0000
     14 ****         2.9417   3.5115   1.4602 C.2            1 S1                 0.0000
     15 ****         3.2079   4.5956   0.7144 N.2            1 S1                 0.0000
     16 ****         3.6833   5.6508   1.4822 N.2            1 S1                 0.0000
     17 ****         3.7563   5.3218   2.7750 C.2            1 S1                 0.0000
     18 ****         3.2525   3.6902   3.1813 S.3            1 S1                 0.0000
     19 ****        -0.1946  -2.1467  -0.3163 C.3            1 S1                 0.0000
     20 ****        -0.6336  -2.7715   1.0201 C.3            1 S1                 0.0000
     21 ****        -3.5859  -3.6259   2.3819 H              1 S1                 0.0000
     22 ****        -2.1981  -2.9037   3.2028 H              1 S1                 0.0000
     23 ****        -2.0606  -4.5025   2.4642 H              1 S1                 0.0000
     24 ****        -3.7731  -1.6731   0.9318 H              1 S1                 0.0000
     25 ****        -2.4072  -0.9279   1.7316 H              1 S1                 0.0000
     26 ****        -2.6343  -1.5647  -1.2493 H              1 S1                 0.0000
     27 ****        -2.7420   0.0145  -0.5032 H              1 S1                 0.0000
     28 ****        -0.2833  -0.2768  -3.9162 H              1 S1                 0.0000
     29 ****        -1.7141  -0.9733  -3.1905 H              1 S1                 0.0000
     30 ****        -0.1742  -1.8207  -3.1016 H              1 S1                 0.0000
     31 ****        -0.4606   1.9164  -2.6045 H              1 S1                 0.0000
     32 ****        -0.8599   1.8623  -0.8944 H              1 S1                 0.0000
     33 ****        -2.0004   1.2748  -2.0975 H              1 S1                 0.0000
     34 ****         1.7593  -0.8378  -1.8039 H              1 S1                 0.0000
     35 ****         1.5532   0.6891  -2.5703 H              1 S1                 0.0000
     36 ****         1.6306   0.1845   0.3730 H              1 S1                 0.0000
     37 ****         2.2995   1.5543   1.6015 H              1 S1                 0.0000
     38 ****         4.1098   6.0453   3.4946 H              1 S1                 0.0000
     39 ****        -0.4693  -2.8182  -1.1300 H              1 S1                 0.0000
     40 ****         0.8919  -2.0877  -0.3084 H              1 S1                 0.0000
     41 ****        -0.2693  -2.1605   1.8475 H              1 S1                 0.0000
     42 ****        -0.1685  -3.7520   1.1281 H              1 S1                 0.0000
     43 ****        -2.3992  -3.5169   0.3697 LP             1 S1                 0.0000
     44 ****        -0.4792  -0.2044   0.2033 LP             1 S1                 0.0000
     45 ****         1.9906   2.4805  -2.2186 LP             1 S1                 0.0000
     46 ****         2.5893   3.7061  -1.1511 LP             1 S1                 0.0000
     47 ****         3.0791   4.6383  -0.2764 LP             1 S1                 0.0000
     48 ****         3.9388   6.5446   1.1136 LP             1 S1                 0.0000
@<TRIPOS>BOND
    1    1    2 1     
    2    1   21 1     
    3    1   22 1     
    4    1   23 1     
    5    2   20 1     
    6    2    3 1     
    7    3    4 1     
    8    3   24 1     
    9    3   25 1     
   10    4    5 1     
   11    4   26 1     
   12    4   27 1     
   13    5    6 1     
   14    5   19 1     
   15    6    7 1     
   16    6    8 1     
   17    6    9 1     
   18    7   28 1     
   19    7   29 1     
   20    7   30 1     
   21    8   31 1     
   22    8   32 1     
   23    8   33 1     
   24    9   10 1     
   25    9   34 1     
   26    9   35 1     
   27   10   11 am    
   28   10   36 1     
   29   11   12 2     
   30   11   13 am    
   31   13   14 1     
   32   13   37 1     
   33   14   18 1     
   34   14   15 2     
   35   15   16 1     
   36   16   17 2     
   37   17   18 1     
   38   17   38 1     
   39   19   20 1     
   40   19   39 1     
   41   19   40 1     
   42   20   41 1     
   43   20   42 1     
   44    2   43 1     
   45    5   44 1     
   46   12   45 1     
   47   12   46 1     
   48   15   47 1     
   49   16   48 1     
@<TRIPOS>SUBSTRUCTURE
      1 S1             1
@<TRIPOS>SET
LONE_PAIRS      STATIC     ATOMS    <user>   **** ""
6 43 44 45 46 47 48
DONOR_HYDROGENS      STATIC     ATOMS    <user>   **** ""
2 36 37
ATOM$BLUE        STATIC     ATOMS    COLORGROUP SYSTEM
6 43 44 45 46 47 48
ATOM$RED        STATIC     ATOMS    COLORGROUP SYSTEM
2 36 37
