AV-unprocessed.smi:470|AV-procd|sdf|2656|dock1
  -GOLD-   2262023 63D 1   1.00000     0.00000
 Structure written by MMmdl.
 32 33  0  0  0  0  0  0  0  0  2 V2000
  150.2478  135.9418  154.6337 N   0  0  0  0  0  0  0  0  0  0  0  0
  151.1838  136.7642  155.1173 C   0  0  0  0  0  0  0  0  0  0  0  0
  151.8103  136.5132  156.1451 O   0  0  0  0  0  0  0  0  0  0  0  0
  151.4476  138.0595  154.3447 C   0  0  0  0  0  0  0  0  0  0  0  0
  150.8067  139.2260  155.0387 C   0  0  0  0  0  0  0  0  0  0  0  0
  149.8872  140.0965  154.5132 C   0  0  0  0  0  0  0  0  0  0  0  0
  149.3986  141.2953  155.6763 S   0  0  0  0  0  0  0  0  0  0  0  0
  150.4640  140.5551  156.8723 C   0  0  0  0  0  0  0  0  0  0  0  0
  150.6281  140.9883  158.1341 N   0  5  0  0  0  0  0  0  0  0  0  0
  150.6319  142.2994  158.5091 C   0  0  0  0  0  0  0  0  0  0  0  0
  149.6310  142.9228  158.8570 O   0  0  0  0  0  0  0  0  0  0  0  0
  152.0044  143.0382  158.4946 C   0  0  2  0  0  0  0  0  0  0  0  0
  152.9839  142.4644  159.5490 C   0  0  0  0  0  0  0  0  0  0  0  0
  152.7929  143.0536  160.9351 C   0  0  0  0  0  0  0  0  0  0  0  0
  152.1353  144.2004  161.1719 C   0  0  0  0  0  0  0  0  0  0  0  0
  151.4952  145.0427  160.0845 C   0  0  0  0  0  0  0  0  0  0  0  0
  151.8755  144.5739  158.6621 C   0  0  0  0  0  0  0  0  0  0  0  0
  151.1385  139.5171  156.3648 N   0  0  0  0  0  0  0  0  0  0  0  0
  150.0570  135.0668  155.0994 H   0  0  0  0  0  0  0  0  0  0  0  0
  149.7499  136.1902  153.7903 H   0  0  0  0  0  0  0  0  0  0  0  0
  152.5245  138.2050  154.2499 H   0  0  0  0  0  0  0  0  0  0  0  0
  151.0603  137.9600  153.3299 H   0  0  0  0  0  0  0  0  0  0  0  0
  149.4666  140.1033  153.5190 H   0  0  0  0  0  0  0  0  0  0  0  0
  152.4677  142.9147  157.5168 H   0  0  0  0  0  0  0  0  0  0  0  0
  152.8774  141.3827  159.6260 H   0  0  0  0  0  0  0  0  0  0  0  0
  154.0137  142.6483  159.2418 H   0  0  0  0  0  0  0  0  0  0  0  0
  153.2384  142.5132  161.7573 H   0  0  0  0  0  0  0  0  0  0  0  0
  152.0343  144.5594  162.1854 H   0  0  0  0  0  0  0  0  0  0  0  0
  150.4150  145.0129  160.2254 H   0  0  0  0  0  0  0  0  0  0  0  0
  151.7916  146.0831  160.2195 H   0  0  0  0  0  0  0  0  0  0  0  0
  152.8375  145.0184  158.4037 H   0  0  0  0  0  0  0  0  0  0  0  0
  151.1652  144.9777  157.9395 H   0  0  0  0  0  0  0  0  0  0  0  0
  1  2  1  0  0  0  0
  1 19  1  0  0  0  0
  1 20  1  0  0  0  0
  2  3  2  0  0  0  0
  2  4  1  0  0  0  0
  4  5  1  0  0  0  0
  4 21  1  0  0  0  0
  4 22  1  0  0  0  0
  5 18  1  0  0  0  0
  5  6  2  0  0  0  0
  6  7  1  0  0  0  0
  6 23  1  0  0  0  0
  7  8  1  0  0  0  0
  8  9  1  0  0  0  0
  8 18  2  0  0  0  0
  9 10  1  0  0  0  0
 10 11  2  0  0  0  0
 10 12  1  0  0  0  0
 12 17  1  0  0  0  0
 12 13  1  0  0  0  0
 12 24  1  0  0  0  0
 13 14  1  0  0  0  0
 13 25  1  0  0  0  0
 13 26  1  0  0  0  0
 14 15  2  0  0  0  0
 14 27  1  0  0  0  0
 15 16  1  0  0  0  0
 15 28  1  0  0  0  0
 16 17  1  0  0  0  0
 16 29  1  0  0  0  0
 16 30  1  0  0  0  0
 17 31  1  0  0  0  0
 17 32  1  0  0  0  0
M  CHG  1   9  -1
M  END
> <s_m_source_file>
AV-unprocessed.smi

> <i_m_source_file_index>
470

> <i_lp_mmshare_version>
43012

> <i_f3d_flags>
0

> <s_epik_input>
W05IMl1DKD1PKVtDSDJdYzFbY0hdc2MobjEpW05IXUMoPU8pW0NAQEhdMltDSDJdW0NIXT1bQ0hdW0NIMl1bQ0gyXTI=

> <s_epik_cmdline>
J2VwaWtfcHl0aG9uJywgJy1waCcsICc3LjAnLCAnLXRuJywgJzgnLCAnLW1hJywgJzIwMCcsICctbWV0YWxfYmluZGluZycsICctaW1hZScsICc8aW5maWxlLm1hZT4nLCAnLW9tYWUnLCAnPG91dGZpbGUubWFlPic=

> <r_lp_tautomer_probability>
1

> <r_epik_Ionization_Penalty>
4.98985

> <r_epik_Ionization_Penalty_Charging>
4.63309

> <r_epik_Ionization_Penalty_Neutral>
0.356756

> <r_epik_State_Penalty>
4.63286

> <r_epik_Charging_Adjusted_Penalty>
9.26595

> <i_epik_Tot_Q>
-1

> <i_epik_Tot_abs_Q>
1

> <r_epik_Metal_State_Penalty>
0.88943

> <b_epik_Metal_Only>
1

> <s_lp_Force_Field>
OPLS_2005

> <r_lp_Energy>
8.68427

> <b_lp_Chiralities_Consistent>
1

> <s_lp_Variant>
AV-unprocessed.smi:470-3

> <Gold.Version>
5.8.1

> <Gold.Id.Protein>
6NUR|6NUR_protein|mol2

> <Gold.PLP.Fitness>
48.4279

> <Gold.PLP.PLP>
-42.1941

> <Gold.PLP.part.hbond>
-3.3697

> <Gold.PLP.part.metal>
0.0000

> <Gold.PLP.part.buried>
-3.4747

> <Gold.PLP.part.nonpolar>
-35.2435

> <Gold.PLP.part.repulsive>
0.2244

> <Gold.PLP.ligand.clash>
0.0000

> <Gold.PLP.ligand.torsion>
1.4114

> <Gold.PLP.Chemscore.Hbond>
2.0000

> <Gold.PLP.Chemscore.CHOScore>
1.0000

> <Gold.PLP.Chemscore.Metal>
0.0000

> <Gold.Chemscore.Hbonds>
donor molecule, donor type, donor heavy atom, donor atom, acceptor molecule, acceptor atom, score
      L1  H     1    20       P1  7948  0.94
      P1  H 10752 10765       L1     3  0.64
      L1  C     6    23       P1  7957  1.00

> <Gold.PLP.Chemscore.Internal.Correction>
0.0567

> <Gold.Rescore>
     Score         DG    S(hbond)    S(metal)    S(lipo)     H(rot)  DE(clash)    DE(int)     intcor
     15.73     -17.78       1.60        0.00     100.31       1.87       0.04       2.02       ----

> <Gold.Chemscore.Fitness>
15.7290

> <Gold.Chemscore.DG>
-17.7843

> <Gold.Chemscore.ZeroCoef>
-5.4800

> <Gold.Chemscore.Hbond>
1.6025

> <Gold.Chemscore.Metal>
0.0000

> <Gold.Chemscore.Lipo>
100.3103

> <Gold.Chemscore.Internal_Hbond>
0.0000

> <Gold.Chemscore.DEClash>
0.0396

> <Gold.Chemscore.DEInternal>
2.0157

> <Gold.Chemscore.Rot>
1.8689

> <Gold.Chemscore.Internal.Correction>
   9.000000E+99

> <Gold.Chemscore.Hbonds>
donor molecule, donor type, donor heavy atom, donor atom, acceptor molecule, acceptor atom, score
      L1  H     1    20       P1  7948  0.31
      P1  H 10752 10765       L1     3  0.05

> <Gold.Chemscore.Hbond.Weighted>
-5.3524

> <Gold.Chemscore.Metal.Weighted>
-0.0000

> <Gold.Chemscore.Lipo.Weighted>
-11.7363

> <Gold.Chemscore.Internal_Hbond.Weighted>
0.0000

> <Gold.Chemscore.DEClash.Weighted>
0.0396

> <Gold.Chemscore.DEInternal.Weighted>
2.0157

> <Gold.Chemscore.Rot.Weighted>
4.7844

> <Gold.Chemscore.Internal.Correction.Weighted>
   9.000000E+99

> <Gold.Protein.RotatedTorsions>
[ 6907 6896 6895 6894 ] final -105.55 input  -60.11 | X-H torsion
[ 7974 7965 7964 7962 ] final  150.61 input  175.53 | X-H torsion
[ 8008 7997 7996 7995 ] final   75.64 input   59.86 | X-H torsion
[ 10167 10162 10161 10158 ] final   -0.89 input  -65.29 | X-H torsion
[ 10718 10713 10712 10709 ] final -103.95 input   66.30 | X-H torsion
[ 10763 10752 10751 10750 ] final -142.22 input  -60.55 | X-H torsion
[ 11005 11000 10999 10996 ] final   71.93 input  -57.11 | X-H torsion

> <Gold.Protein.ActiveResidues>
 VAL166  LYS551  ARG553  GLY616  TRP617  ASP618  TYR619  PRO620  LYS621  CYS622 
 ASP623  PHE694  ASN695  SER759  ASP760  ASP761  ALA762  ILE779  LEU786  VAL792 
 PHE793  MET794  SER795  GLU796  ALA797  LYS798  CYS799  TRP800  GLU811  SER814 

> <Gold.Protein.RotatedAtoms>
  150.7342  134.0110  159.3669 H   0  0  0  0  0  0  0  0  0  0  0  0  # atno 6907 bound_to 6896
  151.8070  135.0690  160.0417 H   0  0  0  0  0  0  0  0  0  0  0  0  # atno 6908 bound_to 6896
  152.3100  133.5707  159.5711 H   0  0  0  0  0  0  0  0  0  0  0  0  # atno 6909 bound_to 6896
  144.8352  139.6430  143.6041 H   0  0  0  0  0  0  0  0  0  0  0  0  # atno 7974 bound_to 7965
  155.8158  140.3471  155.5484 H   0  0  0  0  0  0  0  0  0  0  0  0  # atno 8008 bound_to 7997
  155.8393  140.0939  157.1764 H   0  0  0  0  0  0  0  0  0  0  0  0  # atno 8009 bound_to 7997
  154.4005  140.1397  156.3697 H   0  0  0  0  0  0  0  0  0  0  0  0  # atno 8010 bound_to 7997
  140.6787  143.6840  150.8082 H   0  0  0  0  0  0  0  0  0  0  0  0  # atno 10167 bound_to 10162
  156.0285  130.5492  150.7326 H   0  0  0  0  0  0  0  0  0  0  0  0  # atno 10718 bound_to 10713
  154.8517  135.3502  154.5994 H   0  0  0  0  0  0  0  0  0  0  0  0  # atno 10763 bound_to 10752
  153.6603  135.6990  153.5184 H   0  0  0  0  0  0  0  0  0  0  0  0  # atno 10764 bound_to 10752
  153.2823  135.4260  155.1048 H   0  0  0  0  0  0  0  0  0  0  0  0  # atno 10765 bound_to 10752
  139.9517  134.7215  156.0846 H   0  0  0  0  0  0  0  0  0  0  0  0  # atno 11005 bound_to 11000
  146.2651  139.6501  142.9335 LP  0  0  0  0  0  0  0  0  0  0  0  0  # atno 17320 bound_to 7965
  145.4810  141.0438  143.2645 LP  0  0  0  0  0  0  0  0  0  0  0  0  # atno 17321 bound_to 7965
  140.0537  143.5224  152.2661 LP  0  0  0  0  0  0  0  0  0  0  0  0  # atno 17342 bound_to 10162
  139.6095  144.7605  151.2984 LP  0  0  0  0  0  0  0  0  0  0  0  0  # atno 17343 bound_to 10162
  157.4915  131.0911  151.0421 LP  0  0  0  0  0  0  0  0  0  0  0  0  # atno 17370 bound_to 10713
  157.0827  130.5909  149.5423 LP  0  0  0  0  0  0  0  0  0  0  0  0  # atno 17371 bound_to 10713
  141.1181  133.6621  156.3146 LP  0  0  0  0  0  0  0  0  0  0  0  0  # atno 17394 bound_to 11000
  140.5703  134.5847  157.5456 LP  0  0  0  0  0  0  0  0  0  0  0  0  # atno 17395 bound_to 11000

$$$$
