AV-unprocessed.smi:3238|AV-procd|sdf|12377|dock9
  -GOLD-   2272018243D 1   1.00000     0.00000
 Structure written by MMmdl.
 37 39  0  0  0  0  0  0  0  0  1 V2000
  146.5498  138.1566  152.6198 C   0  0  0  0  0  0  0  0  0  0  0  0
  147.3507  139.3323  152.9254 N   0  0  0  0  0  0  0  0  0  0  0  0
  147.4793  139.8604  154.1513 C   0  0  0  0  0  0  0  0  0  0  0  0
  146.9194  139.3921  155.1441 O   0  0  0  0  0  0  0  0  0  0  0  0
  148.3877  141.0922  154.2580 C   0  0  0  0  0  0  0  0  0  0  0  0
  149.5695  140.8563  155.1471 C   0  0  0  0  0  0  0  0  0  0  0  0
  150.6029  140.1265  154.7423 N   0  0  0  0  0  0  0  0  0  0  0  0
  151.4774  140.1677  155.8372 O   0  0  0  0  0  0  0  0  0  0  0  0
  150.8569  140.9183  156.7788 C   0  0  0  0  0  0  0  0  0  0  0  0
  151.5638  141.1981  158.0642 C   0  0  0  0  0  0  0  0  0  0  0  0
  151.2187  142.5813  158.6504 C   0  0  2  0  0  0  0  0  0  0  0  0
  151.3123  143.7398  157.6293 C   0  0  0  0  0  0  0  0  0  0  0  0
  152.2749  144.7288  158.3108 C   0  0  1  0  0  0  0  0  0  0  0  0
  151.5855  145.3598  159.5347 C   0  0  0  0  0  0  0  0  0  0  0  0
  151.5589  144.1970  160.5450 C   0  0  0  0  0  0  0  0  0  0  0  0
  152.2014  143.0431  159.7511 C   0  0  2  0  0  0  0  0  0  0  0  0
  153.2765  143.7834  158.9613 C   0  0  0  0  0  0  0  0  0  0  0  0
  149.6726  141.3895  156.3965 N   0  0  0  0  0  0  0  0  0  0  0  0
  146.6322  137.9162  151.5599 H   0  0  0  0  0  0  0  0  0  0  0  0
  145.4981  138.3322  152.8496 H   0  0  0  0  0  0  0  0  0  0  0  0
  146.8919  137.2934  153.1924 H   0  0  0  0  0  0  0  0  0  0  0  0
  147.8414  139.7693  152.1586 H   0  0  0  0  0  0  0  0  0  0  0  0
  148.7287  141.3680  153.2594 H   0  0  0  0  0  0  0  0  0  0  0  0
  147.8166  141.9384  154.6429 H   0  0  0  0  0  0  0  0  0  0  0  0
  151.2878  140.4192  158.7756 H   0  0  0  0  0  0  0  0  0  0  0  0
  152.6379  141.1003  157.9041 H   0  0  0  0  0  0  0  0  0  0  0  0
  150.2117  142.5277  159.0674 H   0  0  0  0  0  0  0  0  0  0  0  0
  151.7340  143.4042  156.6810 H   0  0  0  0  0  0  0  0  0  0  0  0
  150.3395  144.1850  157.4175 H   0  0  0  0  0  0  0  0  0  0  0  0
  152.7071  145.4592  157.6265 H   0  0  0  0  0  0  0  0  0  0  0  0
  152.1694  146.1944  159.9251 H   0  0  0  0  0  0  0  0  0  0  0  0
  150.5869  145.7301  159.2991 H   0  0  0  0  0  0  0  0  0  0  0  0
  152.1573  144.4408  161.4241 H   0  0  0  0  0  0  0  0  0  0  0  0
  150.5499  143.9615  160.8855 H   0  0  0  0  0  0  0  0  0  0  0  0
  152.5688  142.2364  160.3864 H   0  0  0  0  0  0  0  0  0  0  0  0
  153.8064  143.1537  158.2450 H   0  0  0  0  0  0  0  0  0  0  0  0
  154.0048  144.2934  159.5943 H   0  0  0  0  0  0  0  0  0  0  0  0
  1  2  1  0  0  0  0
  1 19  1  0  0  0  0
  1 20  1  0  0  0  0
  1 21  1  0  0  0  0
  2  3  1  0  0  0  0
  2 22  1  0  0  0  0
  3  4  2  0  0  0  0
  3  5  1  0  0  0  0
  5  6  1  0  0  0  0
  5 23  1  0  0  0  0
  5 24  1  0  0  0  0
  6 18  1  0  0  0  0
  6  7  2  0  0  0  0
  7  8  1  0  0  0  0
  8  9  1  0  0  0  0
  9 10  1  0  0  0  0
  9 18  2  0  0  0  0
 10 11  1  0  0  0  0
 10 25  1  0  0  0  0
 10 26  1  0  0  0  0
 11 16  1  0  0  0  0
 11 12  1  0  0  0  0
 11 27  1  0  0  0  0
 12 13  1  0  0  0  0
 12 28  1  0  0  0  0
 12 29  1  0  0  0  0
 13 17  1  0  0  0  0
 13 14  1  0  0  0  0
 13 30  1  0  0  0  0
 14 15  1  0  0  0  0
 14 31  1  0  0  0  0
 14 32  1  0  0  0  0
 15 16  1  0  0  0  0
 15 33  1  0  0  0  0
 15 34  1  0  0  0  0
 16 17  1  0  0  0  0
 16 35  1  0  0  0  0
 17 36  1  0  0  0  0
 17 37  1  0  0  0  0
M  END
> <s_m_source_file>
AV-unprocessed.smi

> <i_m_source_file_index>
3238

> <i_lp_mmshare_version>
43012

> <i_f3d_flags>
0

> <s_epik_input>
W0NIM11bTkhdQyg9TylbQ0gyXWMxbm9jKG4xKVtDSDJdW0NASF0oW0NIMl1bQ0BIXTIzKVtDQEhdKFtDSDJdMylbQ0gyXVtDSDJdMg==

> <s_epik_cmdline>
J2VwaWtfcHl0aG9uJywgJy1waCcsICc3LjAnLCAnLXRuJywgJzgnLCAnLW1hJywgJzIwMCcsICctbWV0YWxfYmluZGluZycsICctaW1hZScsICc8aW5maWxlLm1hZT4nLCAnLW9tYWUnLCAnPG91dGZpbGUubWFlPic=

> <r_lp_tautomer_probability>
1

> <r_epik_Ionization_Penalty>
1.02915e-07

> <r_epik_Ionization_Penalty_Charging>
0

> <r_epik_Ionization_Penalty_Neutral>
1.02915e-07

> <r_epik_State_Penalty>
-0

> <r_epik_Charging_Adjusted_Penalty>
0

> <i_epik_Tot_Q>
0

> <i_epik_Tot_abs_Q>
0

> <r_epik_Metal_State_Penalty>
-0

> <b_epik_Metal_Only>
0

> <s_lp_Force_Field>
OPLS_2005

> <r_lp_Energy>
47.6747

> <b_lp_Chiralities_Consistent>
1

> <s_lp_Variant>
AV-unprocessed.smi:3238-3

> <Gold.Version>
5.8.1

> <Gold.Id.Protein>
6NUR|6NUR_protein|mol2

> <Gold.PLP.Fitness>
49.6166

> <Gold.PLP.PLP>
-44.9107

> <Gold.PLP.part.hbond>
-1.7943

> <Gold.PLP.part.metal>
0.0000

> <Gold.PLP.part.buried>
-4.8528

> <Gold.PLP.part.nonpolar>
-38.5990

> <Gold.PLP.part.repulsive>
0.3291

> <Gold.PLP.ligand.clash>
0.0000

> <Gold.PLP.ligand.torsion>
0.6453

> <Gold.PLP.Chemscore.Hbond>
1.9920

> <Gold.PLP.Chemscore.CHOScore>
0.0000

> <Gold.PLP.Chemscore.Metal>
0.0000

> <Gold.Chemscore.Hbonds>
donor molecule, donor type, donor heavy atom, donor atom, acceptor molecule, acceptor atom, score
      L1  H     2    22       P1  7957  0.98
      P1  H  7989  7998       L1     7  1.00

> <Gold.PLP.Chemscore.Internal.Correction>
0.0205

> <Gold.Rescore>
     Score         DG    S(hbond)    S(metal)    S(lipo)     H(rot)  DE(clash)    DE(int)     intcor
     18.42     -19.13       1.66        0.00     109.67       1.85       0.04       0.67       ----

> <Gold.Chemscore.Fitness>
18.4198

> <Gold.Chemscore.DG>
-19.1252

> <Gold.Chemscore.ZeroCoef>
-5.4800

> <Gold.Chemscore.Hbond>
1.6610

> <Gold.Chemscore.Metal>
0.0000

> <Gold.Chemscore.Lipo>
109.6697

> <Gold.Chemscore.Internal_Hbond>
0.0000

> <Gold.Chemscore.DEClash>
0.0351

> <Gold.Chemscore.DEInternal>
0.6703

> <Gold.Chemscore.Rot>
1.8492

> <Gold.Chemscore.Internal.Correction>
   9.000000E+99

> <Gold.Chemscore.Hbonds>
donor molecule, donor type, donor heavy atom, donor atom, acceptor molecule, acceptor atom, score
      L1  H     2    22       P1  7957  0.87
      P1  H  7989  7998       L1     7  0.23

> <Gold.Chemscore.Hbond.Weighted>
-5.5478

> <Gold.Chemscore.Metal.Weighted>
-0.0000

> <Gold.Chemscore.Lipo.Weighted>
-12.8314

> <Gold.Chemscore.Internal_Hbond.Weighted>
0.0000

> <Gold.Chemscore.DEClash.Weighted>
0.0351

> <Gold.Chemscore.DEInternal.Weighted>
0.6703

> <Gold.Chemscore.Rot.Weighted>
4.7340

> <Gold.Chemscore.Internal.Correction.Weighted>
   9.000000E+99

> <Gold.Protein.RotatedTorsions>
[ 6907 6896 6895 6894 ] final  179.30 input  -60.11 | X-H torsion
[ 7974 7965 7964 7962 ] final   40.87 input  175.53 | X-H torsion
[ 8008 7997 7996 7995 ] final -109.55 input   59.86 | X-H torsion
[ 10167 10162 10161 10158 ] final  -87.41 input  -65.29 | X-H torsion
[ 10718 10713 10712 10709 ] final  -34.38 input   66.30 | X-H torsion
[ 10763 10752 10751 10750 ] final  -30.18 input  -60.55 | X-H torsion
[ 11005 11000 10999 10996 ] final  175.17 input  -57.11 | X-H torsion

> <Gold.Protein.ActiveResidues>
 VAL166  LYS551  ARG553  GLY616  TRP617  ASP618  TYR619  PRO620  LYS621  CYS622 
 ASP623  PHE694  ASN695  SER759  ASP760  ASP761  ALA762  ILE779  LEU786  VAL792 
 PHE793  MET794  SER795  GLU796  ALA797  LYS798  CYS799  TRP800  GLU811  SER814 

> <Gold.Protein.RotatedAtoms>
  151.6740  133.3313  159.3203 H   0  0  0  0  0  0  0  0  0  0  0  0  # atno 6907 bound_to 6896
  150.7854  134.6838  159.6468 H   0  0  0  0  0  0  0  0  0  0  0  0  # atno 6908 bound_to 6896
  152.3923  134.6425  160.0155 H   0  0  0  0  0  0  0  0  0  0  0  0  # atno 6909 bound_to 6896
  146.0870  139.5482  142.9500 H   0  0  0  0  0  0  0  0  0  0  0  0  # atno 7974 bound_to 7965
  154.9610  140.0399  157.2190 H   0  0  0  0  0  0  0  0  0  0  0  0  # atno 8008 bound_to 7997
  154.7889  140.2832  155.5984 H   0  0  0  0  0  0  0  0  0  0  0  0  # atno 8009 bound_to 7997
  156.2947  140.2577  156.2732 H   0  0  0  0  0  0  0  0  0  0  0  0  # atno 8010 bound_to 7997
  140.3847  143.2732  151.9340 H   0  0  0  0  0  0  0  0  0  0  0  0  # atno 10167 bound_to 10162
  156.3513  130.4309  149.7702 H   0  0  0  0  0  0  0  0  0  0  0  0  # atno 10718 bound_to 10713
  153.7767  135.6908  153.4896 H   0  0  0  0  0  0  0  0  0  0  0  0  # atno 10763 bound_to 10752
  153.1838  135.4496  155.0061 H   0  0  0  0  0  0  0  0  0  0  0  0  # atno 10764 bound_to 10752
  154.8097  135.3372  154.7273 H   0  0  0  0  0  0  0  0  0  0  0  0  # atno 10765 bound_to 10752
  140.3592  134.7127  157.4320 H   0  0  0  0  0  0  0  0  0  0  0  0  # atno 11005 bound_to 11000
  145.6111  141.0339  143.1966 LP  0  0  0  0  0  0  0  0  0  0  0  0  # atno 17320 bound_to 7965
  144.7333  139.7661  143.7339 LP  0  0  0  0  0  0  0  0  0  0  0  0  # atno 17321 bound_to 7965
  139.4793  144.5785  151.7971 LP  0  0  0  0  0  0  0  0  0  0  0  0  # atno 17342 bound_to 10162
  140.4902  144.1322  150.5949 LP  0  0  0  0  0  0  0  0  0  0  0  0  # atno 17343 bound_to 10162
  156.4901  130.8081  151.3091 LP  0  0  0  0  0  0  0  0  0  0  0  0  # atno 17370 bound_to 10713
  157.7461  130.9978  150.2829 LP  0  0  0  0  0  0  0  0  0  0  0  0  # atno 17371 bound_to 10713
  140.0640  134.5956  155.8716 LP  0  0  0  0  0  0  0  0  0  0  0  0  # atno 17394 bound_to 11000
  141.1989  133.6604  156.5816 LP  0  0  0  0  0  0  0  0  0  0  0  0  # atno 17395 bound_to 11000

$$$$
