AV-unprocessed.smi:2788|AV-procd|sdf|10760|dock8
  -GOLD-   2272015193D 1   1.00000     0.00000
 Structure written by MMmdl.
 47 48  0  0  0  0  0  0  0  0  1 V2000
  148.8985  136.1010  158.2714 C   0  0  0  0  0  0  0  0  0  0  0  0
  149.1560  135.0301  157.2500 C   0  0  0  0  0  0  0  0  0  0  0  0
  149.5868  133.8458  157.6495 N   0  0  0  0  0  0  0  0  0  0  0  0
  149.7156  133.0736  156.4913 O   0  0  0  0  0  0  0  0  0  0  0  0
  149.3502  133.8318  155.4268 C   0  0  0  0  0  0  0  0  0  0  0  0
  149.4076  133.1770  154.0883 C   0  0  0  0  0  0  0  0  0  0  0  0
  148.9834  135.0842  155.8360 C   0  0  0  0  0  0  0  0  0  0  0  0
  148.5020  136.2403  154.9960 C   0  0  0  0  0  0  0  0  0  0  0  0
  147.0107  136.0822  154.6999 C   0  0  0  0  0  0  0  0  0  0  0  0
  146.2153  135.9806  155.6322 O   0  0  0  0  0  0  0  0  0  0  0  0
  146.6738  136.0578  153.3969 N   0  0  0  0  0  0  0  0  0  0  0  0
  145.3646  135.9374  152.7339 C   0  0  1  0  0  0  0  0  0  0  0  0
  144.1927  136.2823  153.6932 C   0  0  0  0  0  0  0  0  0  0  0  0
  145.3811  137.0471  151.6453 C   0  0  0  0  0  0  0  0  0  0  0  0
  145.6002  138.3391  152.1762 O   0  0  0  0  0  0  0  0  0  0  0  0
  145.2010  134.5088  152.0962 C   0  0  0  0  0  0  0  0  0  0  0  0
  146.2169  134.1807  150.9700 C   0  0  0  0  0  0  0  0  0  0  0  0
  146.0671  132.7402  150.4561 C   0  0  0  0  0  0  0  0  0  0  0  0
  144.6434  132.4788  149.9499 C   0  0  0  0  0  0  0  0  0  0  0  0
  143.6147  132.7872  151.0448 C   0  0  0  0  0  0  0  0  0  0  0  0
  143.7676  134.2236  151.5712 C   0  0  0  0  0  0  0  0  0  0  0  0
  149.0184  137.0959  157.8433 H   0  0  0  0  0  0  0  0  0  0  0  0
  149.5862  136.0220  159.1141 H   0  0  0  0  0  0  0  0  0  0  0  0
  147.8833  136.0277  158.6620 H   0  0  0  0  0  0  0  0  0  0  0  0
  148.4288  132.7867  153.8096 H   0  0  0  0  0  0  0  0  0  0  0  0
  150.1163  132.3487  154.0877 H   0  0  0  0  0  0  0  0  0  0  0  0
  149.7195  133.8858  153.3213 H   0  0  0  0  0  0  0  0  0  0  0  0
  148.6635  137.1962  155.4946 H   0  0  0  0  0  0  0  0  0  0  0  0
  149.0485  136.2993  154.0543 H   0  0  0  0  0  0  0  0  0  0  0  0
  147.4501  136.1470  152.7577 H   0  0  0  0  0  0  0  0  0  0  0  0
  143.2371  136.2662  153.1685 H   0  0  0  0  0  0  0  0  0  0  0  0
  144.3105  137.2800  154.1177 H   0  0  0  0  0  0  0  0  0  0  0  0
  144.0923  135.5943  154.5296 H   0  0  0  0  0  0  0  0  0  0  0  0
  146.1638  136.8467  150.9120 H   0  0  0  0  0  0  0  0  0  0  0  0
  144.4504  137.0660  151.0783 H   0  0  0  0  0  0  0  0  0  0  0  0
  144.7637  138.7647  152.2871 H   0  0  0  0  0  0  0  0  0  0  0  0
  145.3957  133.7854  152.8891 H   0  0  0  0  0  0  0  0  0  0  0  0
  146.0841  134.8602  150.1292 H   0  0  0  0  0  0  0  0  0  0  0  0
  147.2407  134.3097  151.3168 H   0  0  0  0  0  0  0  0  0  0  0  0
  146.7842  132.5557  149.6556 H   0  0  0  0  0  0  0  0  0  0  0  0
  146.3083  132.0379  151.2551 H   0  0  0  0  0  0  0  0  0  0  0  0
  144.4453  133.0982  149.0740 H   0  0  0  0  0  0  0  0  0  0  0  0
  144.5458  131.4421  149.6267 H   0  0  0  0  0  0  0  0  0  0  0  0
  142.6061  132.6393  150.6577 H   0  0  0  0  0  0  0  0  0  0  0  0
  143.7351  132.0824  151.8684 H   0  0  0  0  0  0  0  0  0  0  0  0
  143.0285  134.3665  152.3578 H   0  0  0  0  0  0  0  0  0  0  0  0
  143.5124  134.9257  150.7767 H   0  0  0  0  0  0  0  0  0  0  0  0
  1  2  1  0  0  0  0
  1 22  1  0  0  0  0
  1 23  1  0  0  0  0
  1 24  1  0  0  0  0
  2  7  1  0  0  0  0
  2  3  2  0  0  0  0
  3  4  1  0  0  0  0
  4  5  1  0  0  0  0
  5  6  1  0  0  0  0
  5  7  2  0  0  0  0
  6 25  1  0  0  0  0
  6 26  1  0  0  0  0
  6 27  1  0  0  0  0
  7  8  1  0  0  0  0
  8  9  1  0  0  0  0
  8 28  1  0  0  0  0
  8 29  1  0  0  0  0
  9 10  2  0  0  0  0
  9 11  1  0  0  0  0
 11 12  1  0  0  0  0
 11 30  1  0  0  0  0
 12 13  1  0  0  0  0
 12 14  1  0  0  0  0
 12 16  1  0  0  0  0
 13 31  1  0  0  0  0
 13 32  1  0  0  0  0
 13 33  1  0  0  0  0
 14 15  1  0  0  0  0
 14 34  1  0  0  0  0
 14 35  1  0  0  0  0
 15 36  1  0  0  0  0
 16 21  1  0  0  0  0
 16 17  1  0  0  0  0
 16 37  1  0  0  0  0
 17 18  1  0  0  0  0
 17 38  1  0  0  0  0
 17 39  1  0  0  0  0
 18 19  1  0  0  0  0
 18 40  1  0  0  0  0
 18 41  1  0  0  0  0
 19 20  1  0  0  0  0
 19 42  1  0  0  0  0
 19 43  1  0  0  0  0
 20 21  1  0  0  0  0
 20 44  1  0  0  0  0
 20 45  1  0  0  0  0
 21 46  1  0  0  0  0
 21 47  1  0  0  0  0
M  END
> <s_m_source_file>
AV-unprocessed.smi

> <i_m_source_file_index>
2788

> <i_lp_mmshare_version>
43012

> <i_f3d_flags>
0

> <s_epik_input>
W0NIM11jMW5vYyhbQ0gzXSljMVtDSDJdQyg9TylbTkhdW0NAQF0oW0NIM10pKFtDSDJdW09IXSlbQ0hdMltDSDJdW0NIMl1bQ0gyXVtDSDJdW0NIMl0y

> <s_epik_cmdline>
J2VwaWtfcHl0aG9uJywgJy1waCcsICc3LjAnLCAnLXRuJywgJzgnLCAnLW1hJywgJzIwMCcsICctbWV0YWxfYmluZGluZycsICctaW1hZScsICc8aW5maWxlLm1hZT4nLCAnLW9tYWUnLCAnPG91dGZpbGUubWFlPic=

> <r_lp_tautomer_probability>
1

> <r_epik_Ionization_Penalty>
1.3408e-07

> <r_epik_Ionization_Penalty_Charging>
0

> <r_epik_Ionization_Penalty_Neutral>
1.3408e-07

> <r_epik_State_Penalty>
-0

> <r_epik_Charging_Adjusted_Penalty>
0

> <i_epik_Tot_Q>
0

> <i_epik_Tot_abs_Q>
0

> <r_epik_Metal_State_Penalty>
-0

> <b_epik_Metal_Only>
0

> <s_lp_Force_Field>
OPLS_2005

> <r_lp_Energy>
15.0378

> <b_lp_Chiralities_Consistent>
1

> <s_lp_Variant>
AV-unprocessed.smi:2788-1

> <Gold.Version>
5.8.1

> <Gold.Id.Protein>
6NUR|6NUR_protein|mol2

> <Gold.PLP.Fitness>
36.8815

> <Gold.PLP.PLP>
-29.3810

> <Gold.PLP.part.hbond>
-4.0000

> <Gold.PLP.part.metal>
0.0000

> <Gold.PLP.part.buried>
-2.7624

> <Gold.PLP.part.nonpolar>
-22.5477

> <Gold.PLP.part.repulsive>
0.0149

> <Gold.PLP.ligand.clash>
0.0000

> <Gold.PLP.ligand.torsion>
0.7671

> <Gold.PLP.Chemscore.Hbond>
2.9833

> <Gold.PLP.Chemscore.CHOScore>
0.0000

> <Gold.PLP.Chemscore.Metal>
0.0000

> <Gold.Chemscore.Hbonds>
donor molecule, donor type, donor heavy atom, donor atom, acceptor molecule, acceptor atom, score
      L1  H    11    30       P1  7948  1.00
      L1  H    15    36       P1 10175  1.00
      P1  H  6896  6907       L1     3  1.00

> <Gold.PLP.Chemscore.Internal.Correction>
0.0848

> <Gold.Rescore>
     Score         DG    S(hbond)    S(metal)    S(lipo)     H(rot)  DE(clash)    DE(int)     intcor
     15.65     -17.95       2.86        0.00      73.89       2.24       0.26       2.04       ----

> <Gold.Chemscore.Fitness>
15.6539

> <Gold.Chemscore.DG>
-17.9531

> <Gold.Chemscore.ZeroCoef>
-5.4800

> <Gold.Chemscore.Hbond>
2.8597

> <Gold.Chemscore.Metal>
0.0000

> <Gold.Chemscore.Lipo>
73.8917

> <Gold.Chemscore.Internal_Hbond>
0.0000

> <Gold.Chemscore.DEClash>
0.2566

> <Gold.Chemscore.DEInternal>
2.0426

> <Gold.Chemscore.Rot>
2.2357

> <Gold.Chemscore.Internal.Correction>
   9.000000E+99

> <Gold.Chemscore.Hbonds>
donor molecule, donor type, donor heavy atom, donor atom, acceptor molecule, acceptor atom, score
      L1  H    11    30       P1  7948  1.00
      L1  H    15    36       P1 10175  0.90
      P1  H  6896  6907       L1     3  0.89

> <Gold.Chemscore.Hbond.Weighted>
-9.5513

> <Gold.Chemscore.Metal.Weighted>
-0.0000

> <Gold.Chemscore.Lipo.Weighted>
-8.6453

> <Gold.Chemscore.Internal_Hbond.Weighted>
0.0000

> <Gold.Chemscore.DEClash.Weighted>
0.2566

> <Gold.Chemscore.DEInternal.Weighted>
2.0426

> <Gold.Chemscore.Rot.Weighted>
5.7235

> <Gold.Chemscore.Internal.Correction.Weighted>
   9.000000E+99

> <Gold.Protein.RotatedTorsions>
[ 6907 6896 6895 6894 ] final -124.32 input  -60.11 | X-H torsion
[ 7974 7965 7964 7962 ] final   28.31 input  175.53 | X-H torsion
[ 8008 7997 7996 7995 ] final  -81.36 input   59.86 | X-H torsion
[ 10167 10162 10161 10158 ] final  -49.05 input  -65.29 | X-H torsion
[ 10718 10713 10712 10709 ] final   67.44 input   66.30 | X-H torsion
[ 10763 10752 10751 10750 ] final   32.26 input  -60.55 | X-H torsion
[ 11005 11000 10999 10996 ] final -138.26 input  -57.11 | X-H torsion

> <Gold.Protein.ActiveResidues>
 VAL166  LYS551  ARG553  GLY616  TRP617  ASP618  TYR619  PRO620  LYS621  CYS622 
 ASP623  PHE694  ASN695  SER759  ASP760  ASP761  ALA762  ILE779  LEU786  VAL792 
 PHE793  MET794  SER795  GLU796  ALA797  LYS798  CYS799  TRP800  GLU811  SER814 

> <Gold.Protein.RotatedAtoms>
  150.8757  133.7443  159.2947 H   0  0  0  0  0  0  0  0  0  0  0  0  # atno 6907 bound_to 6896
  151.5040  135.1061  159.9846 H   0  0  0  0  0  0  0  0  0  0  0  0  # atno 6908 bound_to 6896
  152.4726  133.8018  159.7012 H   0  0  0  0  0  0  0  0  0  0  0  0  # atno 6909 bound_to 6896
  146.1736  139.7073  142.8950 H   0  0  0  0  0  0  0  0  0  0  0  0  # atno 7974 bound_to 7965
  154.5975  140.0649  156.9324 H   0  0  0  0  0  0  0  0  0  0  0  0  # atno 8008 bound_to 7997
  155.2188  140.3328  155.4300 H   0  0  0  0  0  0  0  0  0  0  0  0  # atno 8009 bound_to 7997
  156.2297  140.1835  156.7258 H   0  0  0  0  0  0  0  0  0  0  0  0  # atno 8010 bound_to 7997
  140.6703  143.2714  151.4160 H   0  0  0  0  0  0  0  0  0  0  0  0  # atno 10167 bound_to 10162
  157.6230  130.9321  150.0243 H   0  0  0  0  0  0  0  0  0  0  0  0  # atno 10718 bound_to 10713
  153.0272  135.6418  154.1327 H   0  0  0  0  0  0  0  0  0  0  0  0  # atno 10763 bound_to 10752
  154.1054  135.2856  155.3244 H   0  0  0  0  0  0  0  0  0  0  0  0  # atno 10764 bound_to 10752
  154.6369  135.5473  153.7807 H   0  0  0  0  0  0  0  0  0  0  0  0  # atno 10765 bound_to 10752
  140.8632  134.2142  157.4695 H   0  0  0  0  0  0  0  0  0  0  0  0  # atno 11005 bound_to 11000
  145.4274  141.0412  143.2930 LP  0  0  0  0  0  0  0  0  0  0  0  0  # atno 17320 bound_to 7965
  144.8201  139.5807  143.6991 LP  0  0  0  0  0  0  0  0  0  0  0  0  # atno 17321 bound_to 7965
  139.5968  144.1380  152.2153 LP  0  0  0  0  0  0  0  0  0  0  0  0  # atno 17342 bound_to 10162
  140.0752  144.5746  150.7162 LP  0  0  0  0  0  0  0  0  0  0  0  0  # atno 17343 bound_to 10162
  156.1386  130.3642  149.9617 LP  0  0  0  0  0  0  0  0  0  0  0  0  # atno 17370 bound_to 10713
  156.7663  130.9169  151.3643 LP  0  0  0  0  0  0  0  0  0  0  0  0  # atno 17371 bound_to 10713
  139.8708  134.9739  156.4828 LP  0  0  0  0  0  0  0  0  0  0  0  0  # atno 17394 bound_to 11000
  140.8658  133.8025  155.9313 LP  0  0  0  0  0  0  0  0  0  0  0  0  # atno 17395 bound_to 11000

$$$$
