AV-unprocessed.smi:1300|AV-procd|sdf|5420|dock1
  -GOLD-   22720 4573D 1   1.00000     0.00000
 Structure written by MMmdl.
 35 36  0  0  0  0  0  0  0  0  1 V2000
  147.9275  141.6859  154.2838 C   0  0  0  0  0  0  0  0  0  0  0  0
  149.1827  141.0241  154.7909 C   0  0  0  0  0  0  0  0  0  0  0  0
  149.8898  141.7348  155.6063 N   0  0  0  0  0  0  0  0  0  0  0  0
  151.0666  141.2584  156.1467 N   0  0  0  0  0  0  0  0  0  0  0  0
  151.7283  142.2022  157.0564 C   0  0  0  0  0  0  0  0  0  0  0  0
  151.7309  141.7103  158.5202 C   0  0  1  0  0  0  0  0  0  0  0  0
  152.8412  140.8536  158.7107 O   0  0  0  0  0  0  0  0  0  0  0  0
  151.7547  142.8905  159.4837 C   0  0  0  0  0  0  0  0  0  0  0  0
  151.1206  144.1079  159.1458 C   0  0  0  0  0  0  0  0  0  0  0  0
  151.1329  145.1915  160.0449 C   0  0  0  0  0  0  0  0  0  0  0  0
  151.7744  145.0652  161.2911 C   0  0  0  0  0  0  0  0  0  0  0  0
  152.4011  143.8536  161.6384 C   0  0  0  0  0  0  0  0  0  0  0  0
  152.3903  142.7681  160.7405 C   0  0  0  0  0  0  0  0  0  0  0  0
  152.9894  141.6063  161.0963 F   0  0  0  0  0  0  0  0  0  0  0  0
  151.5966  140.0291  155.8901 C   0  0  0  0  0  0  0  0  0  0  0  0
  152.6527  139.6445  156.3947 O   0  0  0  0  0  0  0  0  0  0  0  0
  150.7930  139.2251  154.9669 C   0  0  0  0  0  0  0  0  0  0  0  0
  151.3161  137.9302  154.6707 C   0  0  0  0  0  0  0  0  0  0  0  0
  151.7515  136.8810  154.4476 N   0  0  0  0  0  0  0  0  0  0  0  0
  149.6319  139.6794  154.4310 C   0  0  0  0  0  0  0  0  0  0  0  0
  148.7684  138.8714  153.4716 C   0  0  0  0  0  0  0  0  0  0  0  0
  147.3843  141.0751  153.5650 H   0  0  0  0  0  0  0  0  0  0  0  0
  148.1634  142.6302  153.7916 H   0  0  0  0  0  0  0  0  0  0  0  0
  147.2475  141.9017  155.1083 H   0  0  0  0  0  0  0  0  0  0  0  0
  152.7465  142.4202  156.7269 H   0  0  0  0  0  0  0  0  0  0  0  0
  151.2034  143.1576  156.9944 H   0  0  0  0  0  0  0  0  0  0  0  0
  150.8369  141.1198  158.7218 H   0  0  0  0  0  0  0  0  0  0  0  0
  152.9949  140.3806  157.9071 H   0  0  0  0  0  0  0  0  0  0  0  0
  150.6174  144.2161  158.1959 H   0  0  0  0  0  0  0  0  0  0  0  0
  150.6476  146.1191  159.7791 H   0  0  0  0  0  0  0  0  0  0  0  0
  151.7827  145.8954  161.9817 H   0  0  0  0  0  0  0  0  0  0  0  0
  152.8892  143.7550  162.5969 H   0  0  0  0  0  0  0  0  0  0  0  0
  149.1693  137.8744  153.2925 H   0  0  0  0  0  0  0  0  0  0  0  0
  148.6976  139.3736  152.5063 H   0  0  0  0  0  0  0  0  0  0  0  0
  147.7624  138.7477  153.8743 H   0  0  0  0  0  0  0  0  0  0  0  0
  1  2  1  0  0  0  0
  1 22  1  0  0  0  0
  1 23  1  0  0  0  0
  1 24  1  0  0  0  0
  2 20  1  0  0  0  0
  2  3  2  0  0  0  0
  3  4  1  0  0  0  0
  4  5  1  0  0  0  0
  4 15  1  0  0  0  0
  5  6  1  0  0  0  0
  5 25  1  0  0  0  0
  5 26  1  0  0  0  0
  6  7  1  0  0  0  0
  6  8  1  0  0  0  0
  6 27  1  0  0  0  0
  7 28  1  0  0  0  0
  8 13  1  0  0  0  0
  8  9  2  0  0  0  0
  9 10  1  0  0  0  0
  9 29  1  0  0  0  0
 10 11  2  0  0  0  0
 10 30  1  0  0  0  0
 11 12  1  0  0  0  0
 11 31  1  0  0  0  0
 12 13  2  0  0  0  0
 12 32  1  0  0  0  0
 13 14  1  0  0  0  0
 15 16  2  0  0  0  0
 15 17  1  0  0  0  0
 17 18  1  0  0  0  0
 17 20  2  0  0  0  0
 18 19  3  0  0  0  0
 20 21  1  0  0  0  0
 21 33  1  0  0  0  0
 21 34  1  0  0  0  0
 21 35  1  0  0  0  0
M  END
> <s_m_source_file>
AV-unprocessed.smi

> <i_m_source_file_index>
1300

> <i_lp_mmshare_version>
43012

> <i_f3d_flags>
0

> <s_epik_input>
TiNDYyhjMVtDSDNdKWMoPU8pbihuYzFbQ0gzXSlbQ0gyXVtDQEhdKFtPSF0pYzJbY0hdW2NIXVtjSF1bY0hdYzJG

> <s_epik_cmdline>
J2VwaWtfcHl0aG9uJywgJy1waCcsICc3LjAnLCAnLXRuJywgJzgnLCAnLW1hJywgJzIwMCcsICctbWV0YWxfYmluZGluZycsICctaW1hZScsICc8aW5maWxlLm1hZT4nLCAnLW9tYWUnLCAnPG91dGZpbGUubWFlPic=

> <r_lp_tautomer_probability>
1

> <r_epik_Ionization_Penalty>
7.1854e-08

> <r_epik_Ionization_Penalty_Charging>
1.40848e-10

> <r_epik_Ionization_Penalty_Neutral>
7.17131e-08

> <r_epik_State_Penalty>
-0

> <r_epik_Charging_Adjusted_Penalty>
1.40848e-10

> <i_epik_Tot_Q>
0

> <i_epik_Tot_abs_Q>
0

> <r_epik_Metal_State_Penalty>
-0

> <b_epik_Metal_Only>
0

> <s_lp_Force_Field>
OPLS_2005

> <r_lp_Energy>
29.2167

> <b_lp_Chiralities_Consistent>
1

> <s_lp_Variant>
AV-unprocessed.smi:1300-2

> <Gold.Version>
5.8.1

> <Gold.Id.Protein>
6NUR|6NUR_protein|mol2

> <Gold.PLP.Fitness>
48.9742

> <Gold.PLP.PLP>
-45.1339

> <Gold.PLP.part.hbond>
-2.2848

> <Gold.PLP.part.metal>
0.0000

> <Gold.PLP.part.buried>
-0.2725

> <Gold.PLP.part.nonpolar>
-43.1461

> <Gold.PLP.part.repulsive>
0.5108

> <Gold.PLP.ligand.clash>
0.0000

> <Gold.PLP.ligand.torsion>
1.0969

> <Gold.PLP.Chemscore.Hbond>
2.0000

> <Gold.PLP.Chemscore.CHOScore>
0.0000

> <Gold.PLP.Chemscore.Metal>
0.0000

> <Gold.Chemscore.Hbonds>
donor molecule, donor type, donor heavy atom, donor atom, acceptor molecule, acceptor atom, score
      P1  H  7997  8010       L1    16  1.00
      P1  H 10752 10763       L1    19  1.00

> <Gold.PLP.Chemscore.Internal.Correction>
0.0341

> <Gold.Rescore>
     Score         DG    S(hbond)    S(metal)    S(lipo)     H(rot)  DE(clash)    DE(int)     intcor
     14.10     -20.97       1.94        0.00     120.52       2.00       2.43       4.44       ----

> <Gold.Chemscore.Fitness>
14.1029

> <Gold.Chemscore.DG>
-20.9653

> <Gold.Chemscore.ZeroCoef>
-5.4800

> <Gold.Chemscore.Hbond>
1.9443

> <Gold.Chemscore.Metal>
0.0000

> <Gold.Chemscore.Lipo>
120.5221

> <Gold.Chemscore.Internal_Hbond>
0.0000

> <Gold.Chemscore.DEClash>
2.4264

> <Gold.Chemscore.DEInternal>
4.4360

> <Gold.Chemscore.Rot>
1.9960

> <Gold.Chemscore.Internal.Correction>
   9.000000E+99

> <Gold.Chemscore.Hbonds>
donor molecule, donor type, donor heavy atom, donor atom, acceptor molecule, acceptor atom, score
      P1  H  7997  8010       L1    16  1.00
      P1  H 10752 10763       L1    19  0.98

> <Gold.Chemscore.Hbond.Weighted>
-6.4940

> <Gold.Chemscore.Metal.Weighted>
-0.0000

> <Gold.Chemscore.Lipo.Weighted>
-14.1011

> <Gold.Chemscore.Internal_Hbond.Weighted>
0.0000

> <Gold.Chemscore.DEClash.Weighted>
2.4264

> <Gold.Chemscore.DEInternal.Weighted>
4.4360

> <Gold.Chemscore.Rot.Weighted>
5.1097

> <Gold.Chemscore.Internal.Correction.Weighted>
   9.000000E+99

> <Gold.Protein.RotatedTorsions>
[ 6907 6896 6895 6894 ] final  -12.07 input  -60.11 | X-H torsion
[ 7974 7965 7964 7962 ] final  -56.76 input  175.53 | X-H torsion
[ 8008 7997 7996 7995 ] final   70.48 input   59.86 | X-H torsion
[ 10167 10162 10161 10158 ] final  159.58 input  -65.29 | X-H torsion
[ 10718 10713 10712 10709 ] final   28.26 input   66.30 | X-H torsion
[ 10763 10752 10751 10750 ] final   32.86 input  -60.55 | X-H torsion
[ 11005 11000 10999 10996 ] final  144.20 input  -57.11 | X-H torsion

> <Gold.Protein.ActiveResidues>
 VAL166  LYS551  ARG553  GLY616  TRP617  ASP618  TYR619  PRO620  LYS621  CYS622 
 ASP623  PHE694  ASN695  SER759  ASP760  ASP761  ALA762  ILE779  LEU786  VAL792 
 PHE793  MET794  SER795  GLU796  ALA797  LYS798  CYS799  TRP800  GLU811  SER814 

> <Gold.Protein.RotatedAtoms>
  151.3763  135.0931  159.9481 H   0  0  0  0  0  0  0  0  0  0  0  0  # atno 6907 bound_to 6896
  152.5121  133.9116  159.7501 H   0  0  0  0  0  0  0  0  0  0  0  0  # atno 6908 bound_to 6896
  150.9540  133.6463  159.2795 H   0  0  0  0  0  0  0  0  0  0  0  0  # atno 6909 bound_to 6896
  145.8589  140.8299  142.9947 H   0  0  0  0  0  0  0  0  0  0  0  0  # atno 7974 bound_to 7965
  155.7394  140.3490  155.5097 H   0  0  0  0  0  0  0  0  0  0  0  0  # atno 8008 bound_to 7997
  155.9108  140.1050  157.1302 H   0  0  0  0  0  0  0  0  0  0  0  0  # atno 8009 bound_to 7997
  154.4056  140.1268  156.4542 H   0  0  0  0  0  0  0  0  0  0  0  0  # atno 8010 bound_to 7997
  139.4833  144.4717  151.8567 H   0  0  0  0  0  0  0  0  0  0  0  0  # atno 10167 bound_to 10162
  157.2311  130.7024  149.6314 H   0  0  0  0  0  0  0  0  0  0  0  0  # atno 10718 bound_to 10713
  153.0240  135.6402  154.1422 H   0  0  0  0  0  0  0  0  0  0  0  0  # atno 10763 bound_to 10752
  154.1153  135.2850  155.3223 H   0  0  0  0  0  0  0  0  0  0  0  0  # atno 10764 bound_to 10752
  154.6302  135.5495  153.7735 H   0  0  0  0  0  0  0  0  0  0  0  0  # atno 10765 bound_to 10752
  140.0613  134.9203  157.1189 H   0  0  0  0  0  0  0  0  0  0  0  0  # atno 11005 bound_to 11000
  144.6727  140.1065  143.7458 LP  0  0  0  0  0  0  0  0  0  0  0  0  # atno 17320 bound_to 7965
  145.9271  139.2582  143.1347 LP  0  0  0  0  0  0  0  0  0  0  0  0  # atno 17321 bound_to 7965
  140.4186  144.2274  150.5887 LP  0  0  0  0  0  0  0  0  0  0  0  0  # atno 17342 bound_to 10162
  140.4896  143.2352  151.8838 LP  0  0  0  0  0  0  0  0  0  0  0  0  # atno 17343 bound_to 10162
  155.9675  130.4488  150.5636 LP  0  0  0  0  0  0  0  0  0  0  0  0  # atno 17370 bound_to 10713
  157.3477  131.0728  151.1738 LP  0  0  0  0  0  0  0  0  0  0  0  0  # atno 17371 bound_to 10713
  140.3765  134.2333  155.7174 LP  0  0  0  0  0  0  0  0  0  0  0  0  # atno 17394 bound_to 11000
  141.1974  133.8059  157.0628 LP  0  0  0  0  0  0  0  0  0  0  0  0  # atno 17395 bound_to 11000

$$$$
