AV-unprocessed.smi:2975|AV-procd|sdf|11358|dock4
  -GOLD-   2272016273D 1   1.00000     0.00000
 Structure written by MMmdl.
 40 42  0  0  0  0  0  0  0  0  2 V2000
  151.8663  137.5775  156.2797 C   0  0  0  0  0  0  0  0  0  0  0  0
  151.7284  137.8063  154.7688 C   0  0  1  0  0  0  0  0  0  0  0  0
  151.5730  136.5529  154.1368 O   0  0  0  0  0  0  0  0  0  0  0  0
  150.5852  138.7280  154.4736 C   0  0  0  0  0  0  0  0  0  0  0  0
  149.5306  138.4422  153.6575 N   0  3  0  0  0  0  0  0  0  0  0  0
  148.6371  139.5126  153.6423 C   0  0  0  0  0  0  0  0  0  0  0  0
  147.4317  139.6830  152.9686 C   0  0  0  0  0  0  0  0  0  0  0  0
  146.7557  140.9025  153.1801 C   0  0  0  0  0  0  0  0  0  0  0  0
  147.2807  141.8939  154.0343 C   0  0  0  0  0  0  0  0  0  0  0  0
  148.5048  141.7095  154.7111 C   0  0  0  0  0  0  0  0  0  0  0  0
  149.1690  140.5022  154.4937 C   0  0  0  0  0  0  0  0  0  0  0  0
  150.3741  139.9795  154.9790 N   0  0  0  0  0  0  0  0  0  0  0  0
  151.1771  140.7852  155.9104 C   0  0  0  0  0  0  0  0  0  0  0  0
  150.3731  141.1967  157.1492 C   0  0  0  0  0  0  0  0  0  0  0  0
  151.0535  142.2627  157.7954 O   0  0  0  0  0  0  0  0  0  0  0  0
  151.9591  141.9531  158.7883 C   0  0  0  0  0  0  0  0  0  0  0  0
  152.4004  140.6369  159.0797 C   0  0  0  0  0  0  0  0  0  0  0  0
  153.3334  140.4085  160.1101 C   0  0  0  0  0  0  0  0  0  0  0  0
  153.8341  141.4868  160.8622 C   0  0  0  0  0  0  0  0  0  0  0  0
  153.3999  142.7956  160.5831 C   0  0  0  0  0  0  0  0  0  0  0  0
  152.4681  143.0255  159.5522 C   0  0  0  0  0  0  0  0  0  0  0  0
  152.0592  144.2906  159.2934 F   0  0  0  0  0  0  0  0  0  0  0  0
  152.0317  138.5176  156.8061 H   0  0  0  0  0  0  0  0  0  0  0  0
  152.7097  136.9236  156.5035 H   0  0  0  0  0  0  0  0  0  0  0  0
  150.9695  137.1180  156.6967 H   0  0  0  0  0  0  0  0  0  0  0  0
  152.6519  138.2440  154.3916 H   0  0  0  0  0  0  0  0  0  0  0  0
  151.4672  136.6952  153.2084 H   0  0  0  0  0  0  0  0  0  0  0  0
  147.0264  138.9231  152.3164 H   0  0  0  0  0  0  0  0  0  0  0  0
  145.8152  141.0802  152.6787 H   0  0  0  0  0  0  0  0  0  0  0  0
  146.7333  142.8147  154.1741 H   0  0  0  0  0  0  0  0  0  0  0  0
  148.8947  142.4754  155.3649 H   0  0  0  0  0  0  0  0  0  0  0  0
  152.0484  140.1996  156.2024 H   0  0  0  0  0  0  0  0  0  0  0  0
  151.5638  141.6595  155.3864 H   0  0  0  0  0  0  0  0  0  0  0  0
  149.3712  141.5130  156.8546 H   0  0  0  0  0  0  0  0  0  0  0  0
  150.2792  140.3454  157.8246 H   0  0  0  0  0  0  0  0  0  0  0  0
  152.0387  139.7834  158.5270 H   0  0  0  0  0  0  0  0  0  0  0  0
  153.6656  139.4031  160.3234 H   0  0  0  0  0  0  0  0  0  0  0  0
  154.5494  141.3106  161.6522 H   0  0  0  0  0  0  0  0  0  0  0  0
  153.7821  143.6250  161.1595 H   0  0  0  0  0  0  0  0  0  0  0  0
  149.4336  137.5709  153.1520 H   0  0  0  0  0  0  0  0  0  0  0  0
  1  2  1  0  0  0  0
  1 23  1  0  0  0  0
  1 24  1  0  0  0  0
  1 25  1  0  0  0  0
  2  3  1  0  0  0  0
  2  4  1  0  0  0  0
  2 26  1  0  0  0  0
  3 27  1  0  0  0  0
  4 12  1  0  0  0  0
  4  5  2  0  0  0  0
  5  6  1  0  0  0  0
  5 40  1  0  0  0  0
  6 11  2  0  0  0  0
  6  7  1  0  0  0  0
  7  8  2  0  0  0  0
  7 28  1  0  0  0  0
  8  9  1  0  0  0  0
  8 29  1  0  0  0  0
  9 10  2  0  0  0  0
  9 30  1  0  0  0  0
 10 11  1  0  0  0  0
 10 31  1  0  0  0  0
 11 12  1  0  0  0  0
 12 13  1  0  0  0  0
 13 14  1  0  0  0  0
 13 32  1  0  0  0  0
 13 33  1  0  0  0  0
 14 15  1  0  0  0  0
 14 34  1  0  0  0  0
 14 35  1  0  0  0  0
 15 16  1  0  0  0  0
 16 21  1  0  0  0  0
 16 17  2  0  0  0  0
 17 18  1  0  0  0  0
 17 36  1  0  0  0  0
 18 19  2  0  0  0  0
 18 37  1  0  0  0  0
 19 20  1  0  0  0  0
 19 38  1  0  0  0  0
 20 21  2  0  0  0  0
 20 39  1  0  0  0  0
 21 22  1  0  0  0  0
M  CHG  1   5   1
M  END
> <s_m_source_file>
AV-unprocessed.smi

> <i_m_source_file_index>
2975

> <i_lp_mmshare_version>
43012

> <i_f3d_flags>
0

> <s_epik_input>
W2NIXTFbY0hdW2NIXVtjSF1jKGMxMiluKGMobjIpW0NASF0oW0NIM10pW09IXSlbQ0gyXVtDSDJdT2MzW2NIXVtjSF1bY0hdW2NIXWMzRg==

> <s_epik_cmdline>
J2VwaWtfcHl0aG9uJywgJy1waCcsICc3LjAnLCAnLXRuJywgJzgnLCAnLW1hJywgJzIwMCcsICctbWV0YWxfYmluZGluZycsICctaW1hZScsICc8aW5maWxlLm1hZT4nLCAnLW9tYWUnLCAnPG91dGZpbGUubWFlPic=

> <r_lp_tautomer_probability>
1

> <r_epik_Ionization_Penalty>
1.61121

> <r_epik_Ionization_Penalty_Charging>
1.61119

> <r_epik_Ionization_Penalty_Neutral>
2.92192e-05

> <r_epik_State_Penalty>
1.71016

> <r_epik_Charging_Adjusted_Penalty>
3.32134

> <i_epik_Tot_Q>
1

> <i_epik_Tot_abs_Q>
1

> <r_epik_Metal_State_Penalty>
5.76893

> <b_epik_Metal_Only>
0

> <s_lp_Force_Field>
OPLS_2005

> <r_lp_Energy>
20.882

> <b_lp_Chiralities_Consistent>
1

> <s_lp_Variant>
AV-unprocessed.smi:2975-4

> <Gold.Version>
5.8.1

> <Gold.Id.Protein>
6NUR|6NUR_protein|mol2

> <Gold.PLP.Fitness>
62.8077

> <Gold.PLP.PLP>
-51.6518

> <Gold.PLP.part.hbond>
-4.0000

> <Gold.PLP.part.metal>
0.0000

> <Gold.PLP.part.buried>
1.2279

> <Gold.PLP.part.nonpolar>
-48.7018

> <Gold.PLP.part.repulsive>
0.1279

> <Gold.PLP.ligand.clash>
0.0000

> <Gold.PLP.ligand.torsion>
0.3993

> <Gold.PLP.Chemscore.Hbond>
3.9760

> <Gold.PLP.Chemscore.CHOScore>
0.0000

> <Gold.PLP.Chemscore.Metal>
0.0000

> <Gold.Chemscore.Hbonds>
donor molecule, donor type, donor heavy atom, donor atom, acceptor molecule, acceptor atom, score
      L1  H     3    27       P1  7949  0.98
      L1  H     5    40       P1  7948  2.00
      P1  H 10752 10763       L1     3  1.00

> <Gold.PLP.Chemscore.Internal.Correction>
0.0266

> <Gold.Rescore>
     Score         DG    S(hbond)    S(metal)    S(lipo)     H(rot)  DE(clash)    DE(int)     intcor
     20.22     -22.50       2.39        0.00     127.03       2.28       1.87       0.41       ----

> <Gold.Chemscore.Fitness>
20.2190

> <Gold.Chemscore.DG>
-22.5040

> <Gold.Chemscore.ZeroCoef>
-5.4800

> <Gold.Chemscore.Hbond>
2.3926

> <Gold.Chemscore.Metal>
0.0000

> <Gold.Chemscore.Lipo>
127.0324

> <Gold.Chemscore.Internal_Hbond>
0.0000

> <Gold.Chemscore.DEClash>
1.8725

> <Gold.Chemscore.DEInternal>
0.4125

> <Gold.Chemscore.Rot>
2.2774

> <Gold.Chemscore.Internal.Correction>
   9.000000E+99

> <Gold.Chemscore.Hbonds>
donor molecule, donor type, donor heavy atom, donor atom, acceptor molecule, acceptor atom, score
      L1  H     3    27       P1  7949  0.82
      L1  H     5    40       P1  7948  0.92
      P1  H 10752 10763       L1     3  0.32

> <Gold.Chemscore.Hbond.Weighted>
-7.9914

> <Gold.Chemscore.Metal.Weighted>
-0.0000

> <Gold.Chemscore.Lipo.Weighted>
-14.8628

> <Gold.Chemscore.Internal_Hbond.Weighted>
0.0000

> <Gold.Chemscore.DEClash.Weighted>
1.8725

> <Gold.Chemscore.DEInternal.Weighted>
0.4125

> <Gold.Chemscore.Rot.Weighted>
5.8302

> <Gold.Chemscore.Internal.Correction.Weighted>
   9.000000E+99

> <Gold.Protein.RotatedTorsions>
[ 6907 6896 6895 6894 ] final   50.31 input  -60.11 | X-H torsion
[ 7974 7965 7964 7962 ] final  -14.66 input  175.53 | X-H torsion
[ 8008 7997 7996 7995 ] final -146.05 input   59.86 | X-H torsion
[ 10167 10162 10161 10158 ] final  122.31 input  -65.29 | X-H torsion
[ 10718 10713 10712 10709 ] final  -26.16 input   66.30 | X-H torsion
[ 10763 10752 10751 10750 ] final   38.16 input  -60.55 | X-H torsion
[ 11005 11000 10999 10996 ] final  145.56 input  -57.11 | X-H torsion

> <Gold.Protein.ActiveResidues>
 VAL166  LYS551  ARG553  GLY616  TRP617  ASP618  TYR619  PRO620  LYS621  CYS622 
 ASP623  PHE694  ASN695  SER759  ASP760  ASP761  ALA762  ILE779  LEU786  VAL792 
 PHE793  MET794  SER795  GLU796  ALA797  LYS798  CYS799  TRP800  GLU811  SER814 

> <Gold.Protein.RotatedAtoms>
  152.3004  134.7618  160.0358 H   0  0  0  0  0  0  0  0  0  0  0  0  # atno 6907 bound_to 6896
  151.8133  133.3379  159.3570 H   0  0  0  0  0  0  0  0  0  0  0  0  # atno 6908 bound_to 6896
  150.7271  134.5573  159.5869 H   0  0  0  0  0  0  0  0  0  0  0  0  # atno 6909 bound_to 6896
  146.2065  140.3380  142.8405 H   0  0  0  0  0  0  0  0  0  0  0  0  # atno 7974 bound_to 7965
  155.5532  140.0618  157.2845 H   0  0  0  0  0  0  0  0  0  0  0  0  # atno 8008 bound_to 7997
  154.4414  140.1899  156.0752 H   0  0  0  0  0  0  0  0  0  0  0  0  # atno 8009 bound_to 7997
  156.0501  140.3285  155.7345 H   0  0  0  0  0  0  0  0  0  0  0  0  # atno 8010 bound_to 7997
  139.5866  144.7009  151.3393 H   0  0  0  0  0  0  0  0  0  0  0  0  # atno 10167 bound_to 10162
  156.4549  130.4491  149.6966 H   0  0  0  0  0  0  0  0  0  0  0  0  # atno 10718 bound_to 10713
  153.0011  135.6257  154.2260 H   0  0  0  0  0  0  0  0  0  0  0  0  # atno 10763 bound_to 10752
  154.2003  135.2804  155.2994 H   0  0  0  0  0  0  0  0  0  0  0  0  # atno 10764 bound_to 10752
  154.5689  135.5682  153.7135 H   0  0  0  0  0  0  0  0  0  0  0  0  # atno 10765 bound_to 10752
  140.0722  134.9145  157.1363 H   0  0  0  0  0  0  0  0  0  0  0  0  # atno 11005 bound_to 11000
  144.8805  140.7394  143.5989 LP  0  0  0  0  0  0  0  0  0  0  0  0  # atno 17320 bound_to 7965
  145.3300  139.1762  143.4542 LP  0  0  0  0  0  0  0  0  0  0  0  0  # atno 17321 bound_to 7965
  140.7137  143.7323  150.7614 LP  0  0  0  0  0  0  0  0  0  0  0  0  # atno 17342 bound_to 10162
  140.0869  143.4915  152.2500 LP  0  0  0  0  0  0  0  0  0  0  0  0  # atno 17343 bound_to 10162
  156.3777  130.7563  151.2553 LP  0  0  0  0  0  0  0  0  0  0  0  0  # atno 17370 bound_to 10713
  157.7501  131.0304  150.4138 LP  0  0  0  0  0  0  0  0  0  0  0  0  # atno 17371 bound_to 10713
  140.3611  134.2493  155.7187 LP  0  0  0  0  0  0  0  0  0  0  0  0  # atno 17394 bound_to 11000
  141.2016  133.7959  157.0433 LP  0  0  0  0  0  0  0  0  0  0  0  0  # atno 17395 bound_to 11000

$$$$
