AV-unprocessed.smi:135|AV-procd|sdf|1170|dock9
  -GOLD-   2262018313D 1   1.00000     0.00000
 Structure written by MMmdl.
 51 54  0  0  0  0  0  0  0  0  1 V2000
  154.0453  139.9735  160.4906 O   0  0  0  0  0  0  0  0  0  0  0  0
  153.3148  139.8134  159.5129 C   0  0  0  0  0  0  0  0  0  0  0  0
  153.3210  138.4792  158.7502 C   0  0  0  0  0  0  0  0  0  0  0  0
  152.0976  138.2502  157.9509 N   0  0  0  0  0  0  0  0  0  0  0  0
  152.0104  138.8399  156.6656 C   0  0  0  0  0  0  0  0  0  0  0  0
  152.9306  139.5227  156.2130 O   0  0  0  0  0  0  0  0  0  0  0  0
  150.7721  138.5850  155.9381 C   0  0  0  0  0  0  0  0  0  0  0  0
  150.6078  139.0945  154.7055 F   0  0  0  0  0  0  0  0  0  0  0  0
  149.7865  137.8416  156.4819 C   0  0  0  0  0  0  0  0  0  0  0  0
  149.8791  137.2842  157.7450 N   0  0  0  0  0  0  0  0  0  0  0  0
  148.7640  136.4509  158.3413 C   0  0  1  0  0  0  0  0  0  0  0  0
  148.3739  136.9808  159.7344 C   0  0  0  0  0  0  0  0  0  0  0  0
  146.8691  137.1288  159.6267 C   0  0  0  0  0  0  0  0  0  0  0  0
  146.6875  137.4189  158.1446 C   0  0  0  0  0  0  0  0  0  0  0  0
  147.6222  136.5374  157.5365 O   0  0  0  0  0  0  0  0  0  0  0  0
  151.0509  137.4781  158.5084 C   0  0  0  0  0  0  0  0  0  0  0  0
  151.1522  136.9896  159.6360 O   0  0  0  0  0  0  0  0  0  0  0  0
  152.4866  140.7438  159.0052 N   0  0  0  0  0  0  0  0  0  0  0  0
  152.1945  142.0677  159.4442 C   0  0  0  0  0  0  0  0  0  0  0  0
  152.6604  142.6183  160.6649 C   0  0  0  0  0  0  0  0  0  0  0  0
  152.3318  143.9397  161.0231 C   0  0  0  0  0  0  0  0  0  0  0  0
  151.5374  144.7271  160.1710 C   0  0  0  0  0  0  0  0  0  0  0  0
  151.0640  144.1883  158.9617 C   0  0  0  0  0  0  0  0  0  0  0  0
  151.3784  142.8623  158.6006 C   0  0  0  0  0  0  0  0  0  0  0  0
  150.8962  142.3744  157.4107 O   0  0  0  0  0  0  0  0  0  0  0  0
  149.5736  142.0082  157.3554 C   0  0  0  0  0  0  0  0  0  0  0  0
  149.1121  141.0321  156.4435 C   0  0  0  0  0  0  0  0  0  0  0  0
  147.7488  140.6798  156.4130 C   0  0  0  0  0  0  0  0  0  0  0  0
  146.8413  141.2961  157.2958 C   0  0  0  0  0  0  0  0  0  0  0  0
  147.2982  142.2633  158.2118 C   0  0  0  0  0  0  0  0  0  0  0  0
  148.6615  142.6153  158.2428 C   0  0  0  0  0  0  0  0  0  0  0  0
  154.2062  138.4394  158.1123 H   0  0  0  0  0  0  0  0  0  0  0  0
  153.4817  137.6764  159.4711 H   0  0  0  0  0  0  0  0  0  0  0  0
  148.8980  137.6879  155.8891 H   0  0  0  0  0  0  0  0  0  0  0  0
  149.1309  135.4229  158.3400 H   0  0  0  0  0  0  0  0  0  0  0  0
  148.6833  136.2881  160.5175 H   0  0  0  0  0  0  0  0  0  0  0  0
  148.8394  137.9510  159.9146 H   0  0  0  0  0  0  0  0  0  0  0  0
  146.3795  136.1892  159.8861 H   0  0  0  0  0  0  0  0  0  0  0  0
  146.4687  137.9138  160.2685 H   0  0  0  0  0  0  0  0  0  0  0  0
  145.6716  137.2290  157.7975 H   0  0  0  0  0  0  0  0  0  0  0  0
  146.9426  138.4551  157.9179 H   0  0  0  0  0  0  0  0  0  0  0  0
  151.9844  140.4602  158.1764 H   0  0  0  0  0  0  0  0  0  0  0  0
  153.2685  142.0555  161.3536 H   0  0  0  0  0  0  0  0  0  0  0  0
  152.6927  144.3500  161.9546 H   0  0  0  0  0  0  0  0  0  0  0  0
  151.2894  145.7416  160.4457 H   0  0  0  0  0  0  0  0  0  0  0  0
  150.4509  144.7921  158.3089 H   0  0  0  0  0  0  0  0  0  0  0  0
  149.7997  140.5507  155.7637 H   0  0  0  0  0  0  0  0  0  0  0  0
  147.3994  139.9358  155.7124 H   0  0  0  0  0  0  0  0  0  0  0  0
  145.7961  141.0249  157.2722 H   0  0  0  0  0  0  0  0  0  0  0  0
  146.6033  142.7343  158.8914 H   0  0  0  0  0  0  0  0  0  0  0  0
  149.0077  143.3577  158.9470 H   0  0  0  0  0  0  0  0  0  0  0  0
  1  2  2  0  0  0  0
  2  3  1  0  0  0  0
  2 18  1  0  0  0  0
  3  4  1  0  0  0  0
  3 32  1  0  0  0  0
  3 33  1  0  0  0  0
  4 16  1  0  0  0  0
  4  5  1  0  0  0  0
  5  6  2  0  0  0  0
  5  7  1  0  0  0  0
  7  8  1  0  0  0  0
  7  9  2  0  0  0  0
  9 10  1  0  0  0  0
  9 34  1  0  0  0  0
 10 11  1  0  0  0  0
 10 16  1  0  0  0  0
 11 15  1  0  0  0  0
 11 12  1  0  0  0  0
 11 35  1  0  0  0  0
 12 13  1  0  0  0  0
 12 36  1  0  0  0  0
 12 37  1  0  0  0  0
 13 14  1  0  0  0  0
 13 38  1  0  0  0  0
 13 39  1  0  0  0  0
 14 15  1  0  0  0  0
 14 40  1  0  0  0  0
 14 41  1  0  0  0  0
 16 17  2  0  0  0  0
 18 19  1  0  0  0  0
 18 42  1  0  0  0  0
 19 24  1  0  0  0  0
 19 20  2  0  0  0  0
 20 21  1  0  0  0  0
 20 43  1  0  0  0  0
 21 22  2  0  0  0  0
 21 44  1  0  0  0  0
 22 23  1  0  0  0  0
 22 45  1  0  0  0  0
 23 24  2  0  0  0  0
 23 46  1  0  0  0  0
 24 25  1  0  0  0  0
 25 26  1  0  0  0  0
 26 31  1  0  0  0  0
 26 27  2  0  0  0  0
 27 28  1  0  0  0  0
 27 47  1  0  0  0  0
 28 29  2  0  0  0  0
 28 48  1  0  0  0  0
 29 30  1  0  0  0  0
 29 49  1  0  0  0  0
 30 31  2  0  0  0  0
 30 50  1  0  0  0  0
 31 51  1  0  0  0  0
M  END
> <s_m_source_file>
AV-unprocessed.smi

> <i_m_source_file_index>
135

> <i_lp_mmshare_version>
43012

> <i_f3d_flags>
0

> <s_epik_input>
TzFbQ0gyXVtDSDJdW0NIMl1bQ0BIXTFuKGMyPU8pW2NIXWMoRiljKD1PKW4yW0NIMl1DKD1PKVtOSF1jM1tjSF1bY0hdW2NIXVtjSF1jM09jNFtjSF1bY0hdW2NIXVtjSF1bY0hdNA==

> <s_epik_cmdline>
J2VwaWtfcHl0aG9uJywgJy1waCcsICc3LjAnLCAnLXRuJywgJzgnLCAnLW1hJywgJzIwMCcsICctbWV0YWxfYmluZGluZycsICctaW1hZScsICc8aW5maWxlLm1hZT4nLCAnLW9tYWUnLCAnPG91dGZpbGUubWFlPic=

> <r_lp_tautomer_probability>
1

> <r_epik_Ionization_Penalty>
1.89877e-06

> <r_epik_Ionization_Penalty_Charging>
3.88729e-08

> <r_epik_Ionization_Penalty_Neutral>
1.8599e-06

> <r_epik_State_Penalty>
-0

> <r_epik_Charging_Adjusted_Penalty>
3.88729e-08

> <i_epik_Tot_Q>
0

> <i_epik_Tot_abs_Q>
0

> <r_epik_Metal_State_Penalty>
-0

> <b_epik_Metal_Only>
0

> <s_epik_Chemistry_Notes>
This compound contains an acetal/aminal-like group ( X-CH(R)-Y where X, Y are N, S, or O) that may be acid/base labile, releasing an aldehyde.

> <s_lp_Force_Field>
OPLS_2005

> <r_lp_Energy>
40.6736

> <b_lp_Chiralities_Consistent>
1

> <s_lp_Variant>
AV-unprocessed.smi:135-2

> <Gold.Version>
5.8.1

> <Gold.Id.Protein>
6NUR|6NUR_protein|mol2

> <Gold.PLP.Fitness>
44.4360

> <Gold.PLP.PLP>
-42.3647

> <Gold.PLP.part.hbond>
-2.0000

> <Gold.PLP.part.metal>
0.0000

> <Gold.PLP.part.buried>
-8.2083

> <Gold.PLP.part.nonpolar>
-33.0003

> <Gold.PLP.part.repulsive>
0.2048

> <Gold.PLP.ligand.clash>
1.3182

> <Gold.PLP.ligand.torsion>
1.3528

> <Gold.PLP.Chemscore.Hbond>
2.0000

> <Gold.PLP.Chemscore.CHOScore>
0.0000

> <Gold.PLP.Chemscore.Metal>
0.0000

> <Gold.Chemscore.Hbonds>
donor molecule, donor type, donor heavy atom, donor atom, acceptor molecule, acceptor atom, score
      P1  H  6896  6909       L1    17  1.00
      P1  H  7997  8010       L1     6  1.00

> <Gold.PLP.Chemscore.Internal.Correction>
0.0952

> <Gold.Rescore>
     Score         DG    S(hbond)    S(metal)    S(lipo)     H(rot)  DE(clash)    DE(int)     intcor
     14.46     -19.14       1.99        0.00     104.56       2.04       0.06       4.63       ----

> <Gold.Chemscore.Fitness>
14.4627

> <Gold.Chemscore.DG>
-19.1438

> <Gold.Chemscore.ZeroCoef>
-5.4800

> <Gold.Chemscore.Hbond>
1.9901

> <Gold.Chemscore.Metal>
0.0000

> <Gold.Chemscore.Lipo>
104.5577

> <Gold.Chemscore.Internal_Hbond>
0.0000

> <Gold.Chemscore.DEClash>
0.0561

> <Gold.Chemscore.DEInternal>
4.6250

> <Gold.Chemscore.Rot>
2.0377

> <Gold.Chemscore.Internal.Correction>
   9.000000E+99

> <Gold.Chemscore.Hbonds>
donor molecule, donor type, donor heavy atom, donor atom, acceptor molecule, acceptor atom, score
      P1  H  6896  6909       L1    17  0.99
      P1  H  7997  8010       L1     6  0.93

> <Gold.Chemscore.Hbond.Weighted>
-6.6471

> <Gold.Chemscore.Metal.Weighted>
-0.0000

> <Gold.Chemscore.Lipo.Weighted>
-12.2332

> <Gold.Chemscore.Internal_Hbond.Weighted>
0.0000

> <Gold.Chemscore.DEClash.Weighted>
0.0561

> <Gold.Chemscore.DEInternal.Weighted>
4.6250

> <Gold.Chemscore.Rot.Weighted>
5.2165

> <Gold.Chemscore.Internal.Correction.Weighted>
   9.000000E+99

> <Gold.Protein.RotatedTorsions>
[ 6907 6896 6895 6894 ] final  104.15 input  -60.11 | X-H torsion
[ 7974 7965 7964 7962 ] final   26.09 input  175.53 | X-H torsion
[ 8008 7997 7996 7995 ] final   80.18 input   59.86 | X-H torsion
[ 10167 10162 10161 10158 ] final  -37.06 input  -65.29 | X-H torsion
[ 10718 10713 10712 10709 ] final -109.10 input   66.30 | X-H torsion
[ 10763 10752 10751 10750 ] final -118.35 input  -60.55 | X-H torsion
[ 11005 11000 10999 10996 ] final  122.85 input  -57.11 | X-H torsion

> <Gold.Protein.ActiveResidues>
 VAL166  LYS551  ARG553  GLY616  TRP617  ASP618  TYR619  PRO620  LYS621  CYS622 
 ASP623  PHE694  ASN695  SER759  ASP760  ASP761  ALA762  ILE779  LEU786  VAL792 
 PHE793  MET794  SER795  GLU796  ALA797  LYS798  CYS799  TRP800  GLU811  SER814 

> <Gold.Protein.RotatedAtoms>
  152.5273  133.9719  159.7765 H   0  0  0  0  0  0  0  0  0  0  0  0  # atno 6907 bound_to 6896
  150.9989  133.6067  159.2705 H   0  0  0  0  0  0  0  0  0  0  0  0  # atno 6908 bound_to 6896
  151.3184  135.0818  159.9350 H   0  0  0  0  0  0  0  0  0  0  0  0  # atno 6909 bound_to 6896
  146.1855  139.7376  142.8869 H   0  0  0  0  0  0  0  0  0  0  0  0  # atno 7974 bound_to 7965
  155.8799  140.3444  155.5880 H   0  0  0  0  0  0  0  0  0  0  0  0  # atno 8008 bound_to 7997
  155.7731  140.0848  157.2117 H   0  0  0  0  0  0  0  0  0  0  0  0  # atno 8009 bound_to 7997
  154.4024  140.1514  156.2953 H   0  0  0  0  0  0  0  0  0  0  0  0  # atno 8010 bound_to 7997
  140.7127  143.3367  151.2448 H   0  0  0  0  0  0  0  0  0  0  0  0  # atno 10167 bound_to 10162
  156.0519  130.5746  150.8052 H   0  0  0  0  0  0  0  0  0  0  0  0  # atno 10718 bound_to 10713
  154.8584  135.4277  154.2125 H   0  0  0  0  0  0  0  0  0  0  0  0  # atno 10763 bound_to 10752
  153.3147  135.6978  153.7089 H   0  0  0  0  0  0  0  0  0  0  0  0  # atno 10764 bound_to 10752
  153.6168  135.3509  155.2971 H   0  0  0  0  0  0  0  0  0  0  0  0  # atno 10765 bound_to 10752
  139.9286  134.9641  156.8171 H   0  0  0  0  0  0  0  0  0  0  0  0  # atno 11005 bound_to 11000
  145.3950  141.0377  143.3102 LP  0  0  0  0  0  0  0  0  0  0  0  0  # atno 17320 bound_to 7965
  144.8390  139.5503  143.6909 LP  0  0  0  0  0  0  0  0  0  0  0  0  # atno 17321 bound_to 7965
  139.6863  143.9767  152.2836 LP  0  0  0  0  0  0  0  0  0  0  0  0  # atno 17342 bound_to 10162
  139.9414  144.6679  150.8262 LP  0  0  0  0  0  0  0  0  0  0  0  0  # atno 17343 bound_to 10162
  157.5454  131.0942  150.9770 LP  0  0  0  0  0  0  0  0  0  0  0  0  # atno 17370 bound_to 10713
  157.0043  130.5612  149.5314 LP  0  0  0  0  0  0  0  0  0  0  0  0  # atno 17371 bound_to 10713
  140.6265  133.9945  155.7642 LP  0  0  0  0  0  0  0  0  0  0  0  0  # atno 17394 bound_to 11000
  141.0861  133.9989  157.3312 LP  0  0  0  0  0  0  0  0  0  0  0  0  # atno 17395 bound_to 11000

$$$$
