AV-unprocessed.smi:976|AV-procd|sdf|4303|dock7
  -GOLD-   22720 2213D 1   1.00000     0.00000
 Structure written by MMmdl.
 41 42  0  0  0  0  0  0  0  0  1 V2000
  149.8564  137.4548  158.4530 C   0  0  0  0  0  0  0  0  0  0  0  0
  148.3221  137.5109  158.5001 C   0  0  1  0  0  0  0  0  0  0  0  0
  147.9355  137.5466  159.8716 O   0  0  0  0  0  0  0  0  0  0  0  0
  148.4121  136.4699  160.6730 C   0  0  0  0  0  0  0  0  0  0  0  0
  147.3711  136.1390  161.7490 C   0  0  0  0  0  0  0  0  0  0  0  0
  147.3197  137.1355  162.6320 F   0  0  0  0  0  0  0  0  0  0  0  0
  146.1670  135.9947  161.1965 F   0  0  0  0  0  0  0  0  0  0  0  0
  147.7087  135.0190  162.3876 F   0  0  0  0  0  0  0  0  0  0  0  0
  147.7847  138.7463  157.7596 C   0  0  0  0  0  0  0  0  0  0  0  0
  146.8673  139.4036  158.2512 O   0  0  0  0  0  0  0  0  0  0  0  0
  148.3814  139.0295  156.5879 N   0  0  0  0  0  0  0  0  0  0  0  0
  148.1014  140.0989  155.6905 C   0  0  0  0  0  0  0  0  0  0  0  0
  146.8268  140.7116  155.6179 C   0  0  0  0  0  0  0  0  0  0  0  0
  146.6067  141.7290  154.6723 C   0  0  0  0  0  0  0  0  0  0  0  0
  147.6665  142.0907  153.8225 C   0  0  0  0  0  0  0  0  0  0  0  0
  148.8814  141.5071  153.8688 N   0  0  0  0  0  0  0  0  0  0  0  0
  149.1042  140.5282  154.7797 C   0  0  0  0  0  0  0  0  0  0  0  0
  150.3911  139.9542  154.8130 N   0  0  0  0  0  0  0  0  0  0  0  0
  151.1687  140.1271  156.0362 C   0  0  0  0  0  0  0  0  0  0  0  0
  152.6104  139.6393  155.8131 C   0  0  0  0  0  0  0  0  0  0  0  0
  152.5942  138.2867  155.3648 O   0  0  0  0  0  0  0  0  0  0  0  0
  151.8952  138.1377  154.1321 C   0  0  0  0  0  0  0  0  0  0  0  0
  150.4345  138.5867  154.3076 C   0  0  0  0  0  0  0  0  0  0  0  0
  150.2215  137.4367  157.4255 H   0  0  0  0  0  0  0  0  0  0  0  0
  150.2251  136.5565  158.9487 H   0  0  0  0  0  0  0  0  0  0  0  0
  150.3060  138.3131  158.9540 H   0  0  0  0  0  0  0  0  0  0  0  0
  147.9327  136.6015  158.0381 H   0  0  0  0  0  0  0  0  0  0  0  0
  148.5994  135.5833  160.0662 H   0  0  0  0  0  0  0  0  0  0  0  0
  149.3559  136.7471  161.1452 H   0  0  0  0  0  0  0  0  0  0  0  0
  149.1875  138.4682  156.3533 H   0  0  0  0  0  0  0  0  0  0  0  0
  146.0116  140.4059  156.2556 H   0  0  0  0  0  0  0  0  0  0  0  0
  145.6452  142.2144  154.5949 H   0  0  0  0  0  0  0  0  0  0  0  0
  147.5346  142.8649  153.0812 H   0  0  0  0  0  0  0  0  0  0  0  0
  151.1702  141.1773  156.3305 H   0  0  0  0  0  0  0  0  0  0  0  0
  150.7106  139.5611  156.8487 H   0  0  0  0  0  0  0  0  0  0  0  0
  153.1256  140.2682  155.0853 H   0  0  0  0  0  0  0  0  0  0  0  0
  153.1753  139.6989  156.7435 H   0  0  0  0  0  0  0  0  0  0  0  0
  152.3882  138.7167  153.3493 H   0  0  0  0  0  0  0  0  0  0  0  0
  151.9327  137.0921  153.8264 H   0  0  0  0  0  0  0  0  0  0  0  0
  149.9241  137.9303  155.0139 H   0  0  0  0  0  0  0  0  0  0  0  0
  149.9055  138.5043  153.3581 H   0  0  0  0  0  0  0  0  0  0  0  0
  1  2  1  0  0  0  0
  1 24  1  0  0  0  0
  1 25  1  0  0  0  0
  1 26  1  0  0  0  0
  2  3  1  0  0  0  0
  2  9  1  0  0  0  0
  2 27  1  0  0  0  0
  3  4  1  0  0  0  0
  4  5  1  0  0  0  0
  4 28  1  0  0  0  0
  4 29  1  0  0  0  0
  5  6  1  0  0  0  0
  5  7  1  0  0  0  0
  5  8  1  0  0  0  0
  9 10  2  0  0  0  0
  9 11  1  0  0  0  0
 11 12  1  0  0  0  0
 11 30  1  0  0  0  0
 12 17  1  0  0  0  0
 12 13  2  0  0  0  0
 13 14  1  0  0  0  0
 13 31  1  0  0  0  0
 14 15  2  0  0  0  0
 14 32  1  0  0  0  0
 15 16  1  0  0  0  0
 15 33  1  0  0  0  0
 16 17  2  0  0  0  0
 17 18  1  0  0  0  0
 18 23  1  0  0  0  0
 18 19  1  0  0  0  0
 19 20  1  0  0  0  0
 19 34  1  0  0  0  0
 19 35  1  0  0  0  0
 20 21  1  0  0  0  0
 20 36  1  0  0  0  0
 20 37  1  0  0  0  0
 21 22  1  0  0  0  0
 22 23  1  0  0  0  0
 22 38  1  0  0  0  0
 22 39  1  0  0  0  0
 23 40  1  0  0  0  0
 23 41  1  0  0  0  0
M  END
> <s_m_source_file>
AV-unprocessed.smi

> <i_m_source_file_index>
976

> <i_lp_mmshare_version>
43012

> <i_f3d_flags>
0

> <s_epik_input>
RkMoRikoRilbQ0gyXU9bQ0BASF0oW0NIM10pQyg9TylbTkhdYzFbY0hdW2NIXVtjSF1uYzFOMltDSDJdW0NIMl1PW0NIMl1bQ0gyXTI=

> <s_epik_cmdline>
J2VwaWtfcHl0aG9uJywgJy1waCcsICc3LjAnLCAnLXRuJywgJzgnLCAnLW1hJywgJzIwMCcsICctbWV0YWxfYmluZGluZycsICctaW1hZScsICc8aW5maWxlLm1hZT4nLCAnLW9tYWUnLCAnPG91dGZpbGUubWFlPic=

> <r_lp_tautomer_probability>
1

> <r_epik_Ionization_Penalty>
0.000443367

> <r_epik_Ionization_Penalty_Charging>
0

> <r_epik_Ionization_Penalty_Neutral>
0.000443367

> <r_epik_State_Penalty>
0.00027288

> <r_epik_Charging_Adjusted_Penalty>
0.00027288

> <i_epik_Tot_Q>
0

> <i_epik_Tot_abs_Q>
0

> <r_epik_Metal_State_Penalty>
-0

> <b_epik_Metal_Only>
0

> <s_lp_Force_Field>
OPLS_2005

> <r_lp_Energy>
26.1197

> <b_lp_Chiralities_Consistent>
1

> <s_lp_Variant>
AV-unprocessed.smi:976-2

> <Gold.Version>
5.8.1

> <Gold.Id.Protein>
6NUR|6NUR_protein|mol2

> <Gold.PLP.Fitness>
43.8261

> <Gold.PLP.PLP>
-38.6242

> <Gold.PLP.part.hbond>
-4.4204

> <Gold.PLP.part.metal>
0.0000

> <Gold.PLP.part.buried>
-3.9168

> <Gold.PLP.part.nonpolar>
-29.8276

> <Gold.PLP.part.repulsive>
0.2825

> <Gold.PLP.ligand.clash>
0.0000

> <Gold.PLP.ligand.torsion>
1.0295

> <Gold.PLP.Chemscore.Hbond>
2.3413

> <Gold.PLP.Chemscore.CHOScore>
0.0000

> <Gold.PLP.Chemscore.Metal>
0.0000

> <Gold.Chemscore.Hbonds>
donor molecule, donor type, donor heavy atom, donor atom, acceptor molecule, acceptor atom, score
      P1  H  6934  6947       L1     3  0.64
      P1  H  7989  7998       L1    18  1.00
      P1  H  8011  8017       L1    16  0.70

> <Gold.PLP.Chemscore.Internal.Correction>
0.2371

> <Gold.Rescore>
     Score         DG    S(hbond)    S(metal)    S(lipo)     H(rot)  DE(clash)    DE(int)     intcor
      7.63     -10.80       0.85        0.00      63.89       1.95       0.01       3.16       ----

> <Gold.Chemscore.Fitness>
7.6311

> <Gold.Chemscore.DG>
-10.7982

> <Gold.Chemscore.ZeroCoef>
-5.4800

> <Gold.Chemscore.Hbond>
0.8481

> <Gold.Chemscore.Metal>
0.0000

> <Gold.Chemscore.Lipo>
63.8906

> <Gold.Chemscore.Internal_Hbond>
0.0000

> <Gold.Chemscore.DEClash>
0.0112

> <Gold.Chemscore.DEInternal>
3.1559

> <Gold.Chemscore.Rot>
1.9491

> <Gold.Chemscore.Internal.Correction>
   9.000000E+99

> <Gold.Chemscore.Hbonds>
donor molecule, donor type, donor heavy atom, donor atom, acceptor molecule, acceptor atom, score
      P1  H  6934  6947       L1     3  0.56
      P1  H  7989  7998       L1    18  0.05
      P1  H  8011  8017       L1    16  0.17

> <Gold.Chemscore.Hbond.Weighted>
-2.8327

> <Gold.Chemscore.Metal.Weighted>
-0.0000

> <Gold.Chemscore.Lipo.Weighted>
-7.4752

> <Gold.Chemscore.Internal_Hbond.Weighted>
0.0000

> <Gold.Chemscore.DEClash.Weighted>
0.0112

> <Gold.Chemscore.DEInternal.Weighted>
3.1559

> <Gold.Chemscore.Rot.Weighted>
4.9897

> <Gold.Chemscore.Internal.Correction.Weighted>
   9.000000E+99

> <Gold.Protein.RotatedTorsions>
[ 6907 6896 6895 6894 ] final  -90.42 input  -60.11 | X-H torsion
[ 7974 7965 7964 7962 ] final  -84.72 input  175.53 | X-H torsion
[ 8008 7997 7996 7995 ] final  166.21 input   59.86 | X-H torsion
[ 10167 10162 10161 10158 ] final  177.81 input  -65.29 | X-H torsion
[ 10718 10713 10712 10709 ] final -145.35 input   66.30 | X-H torsion
[ 10763 10752 10751 10750 ] final  108.17 input  -60.55 | X-H torsion
[ 11005 11000 10999 10996 ] final  -66.19 input  -57.11 | X-H torsion

> <Gold.Protein.ActiveResidues>
 VAL166  LYS551  ARG553  GLY616  TRP617  ASP618  TYR619  PRO620  LYS621  CYS622 
 ASP623  PHE694  ASN695  SER759  ASP760  ASP761  ALA762  ILE779  LEU786  VAL792 
 PHE793  MET794  SER795  GLU796  ALA797  LYS798  CYS799  TRP800  GLU811  SER814 

> <Gold.Protein.RotatedAtoms>
  150.6881  134.2435  159.4481 H   0  0  0  0  0  0  0  0  0  0  0  0  # atno 6907 bound_to 6896
  152.0378  134.9727  160.0583 H   0  0  0  0  0  0  0  0  0  0  0  0  # atno 6908 bound_to 6896
  152.1241  133.4335  159.4726 H   0  0  0  0  0  0  0  0  0  0  0  0  # atno 6909 bound_to 6896
  145.5028  140.9546  143.1750 H   0  0  0  0  0  0  0  0  0  0  0  0  # atno 7974 bound_to 7965
  156.1737  140.1649  156.8401 H   0  0  0  0  0  0  0  0  0  0  0  0  # atno 8008 bound_to 7997
  154.5284  140.0762  156.8334 H   0  0  0  0  0  0  0  0  0  0  0  0  # atno 8009 bound_to 7997
  155.3459  140.3387  155.4241 H   0  0  0  0  0  0  0  0  0  0  0  0  # atno 8010 bound_to 7997
  139.5268  144.2754  152.0593 H   0  0  0  0  0  0  0  0  0  0  0  0  # atno 10167 bound_to 10162
  156.3813  130.7838  151.2031 H   0  0  0  0  0  0  0  0  0  0  0  0  # atno 10718 bound_to 10713
  153.4170  135.3820  155.2087 H   0  0  0  0  0  0  0  0  0  0  0  0  # atno 10763 bound_to 10752
  154.8742  135.3808  154.4431 H   0  0  0  0  0  0  0  0  0  0  0  0  # atno 10764 bound_to 10752
  153.4946  135.7088  153.5927 H   0  0  0  0  0  0  0  0  0  0  0  0  # atno 10765 bound_to 10752
  141.1475  133.6695  156.6101 H   0  0  0  0  0  0  0  0  0  0  0  0  # atno 11005 bound_to 11000
  144.7770  139.6607  143.7170 LP  0  0  0  0  0  0  0  0  0  0  0  0  # atno 17320 bound_to 7965
  146.2215  139.5645  142.9615 LP  0  0  0  0  0  0  0  0  0  0  0  0  # atno 17321 bound_to 7965
  140.2211  144.4465  150.6341 LP  0  0  0  0  0  0  0  0  0  0  0  0  # atno 17342 bound_to 10162
  140.6418  143.2205  151.6274 LP  0  0  0  0  0  0  0  0  0  0  0  0  # atno 17343 bound_to 10162
  157.7492  131.0343  150.4311 LP  0  0  0  0  0  0  0  0  0  0  0  0  # atno 17370 bound_to 10713
  156.4556  130.4021  149.6608 LP  0  0  0  0  0  0  0  0  0  0  0  0  # atno 17371 bound_to 10713
  140.3621  134.7679  157.4541 LP  0  0  0  0  0  0  0  0  0  0  0  0  # atno 17394 bound_to 11000
  140.0777  134.5774  155.8574 LP  0  0  0  0  0  0  0  0  0  0  0  0  # atno 17395 bound_to 11000

$$$$
