#       Name:                AV-unprocessed.smi:1568
#       Creating user name   scv26
#       Creation time:       Fri Mar 27 06:51:11 2020


#       File generated by GOLD software.
#

@<TRIPOS>MOLECULE
AV-unprocessed.smi:1568
    52    53     1
SMALL
NO_CHARGES


@<TRIPOS>ATOM
      1 ****        -4.3034   2.3417  -0.9163 C.3            1 S1                 0.0000
      2 ****        -3.9251   0.9834  -1.0566 O.3            1 S1                 0.0000
      3 ****        -2.5179   0.8167  -1.0733 C.3            1 S1                 0.0000
      4 ****        -2.1849  -0.6714  -1.2072 C.3            1 S1                 0.0000
      5 ****        -0.7686  -0.8097  -1.2318 O.3            1 S1                 0.0000
      6 ****        -0.2216  -2.0726  -1.3481 C.ar           1 S1                 0.0000
      7 ****        -1.0628  -3.1326  -1.4502 N.ar           1 S1                 0.0000
      8 ****        -0.5317  -4.3639  -1.6017 C.ar           1 S1                 0.0000
      9 ****         0.8538  -4.6043  -1.6661 C.ar           1 S1                 0.0000
     10 ****         1.7281  -3.5069  -1.5575 C.ar           1 S1                 0.0000
     11 ****         1.1874  -2.2167  -1.3782 C.ar           1 S1                 0.0000
     12 ****         2.0999  -1.0303  -1.2684 C.2            1 S1                 0.0000
     13 ****         2.7512  -0.6987  -2.2592 O.2            1 S1                 0.0000
     14 ****         2.1473  -0.3658  -0.0863 N.am           1 S1                 0.0000
     15 ****         2.8659   0.9057   0.0675 C.3            1 S1                 0.0000
     16 ****         1.8811   1.9907   0.5373 C.3            1 S1                 0.0000
     17 ****         1.2013   1.5840   1.8628 C.3            1 S1                 0.0000
     18 ****         0.1558   2.6221   2.2918 C.2            1 S1                 0.0000
     19 ****         0.3418   3.2209   3.4706 N.am           1 S1                 0.0000
     20 ****        -0.8055   2.8840   1.5712 O.2            1 S1                 0.0000
     21 ****         0.5730   0.1793   1.7357 C.3            1 S1                 0.0000
     22 ****         1.5886  -0.8414   1.1900 C.3            1 S1                 0.0000
     23 ****        -5.3904   2.4209  -0.9075 H              1 S1                 0.0000
     24 ****        -3.9290   2.9427  -1.7459 H              1 S1                 0.0000
     25 ****        -3.9271   2.7620   0.0176 H              1 S1                 0.0000
     26 ****        -2.0842   1.3723  -1.9062 H              1 S1                 0.0000
     27 ****        -2.0862   1.2121  -0.1538 H              1 S1                 0.0000
     28 ****        -2.6060  -1.2222  -0.3645 H              1 S1                 0.0000
     29 ****        -2.6227  -1.0657  -2.1257 H              1 S1                 0.0000
     30 ****        -1.2326  -5.1818  -1.6799 H              1 S1                 0.0000
     31 ****         1.2360  -5.6059  -1.7954 H              1 S1                 0.0000
     32 ****         2.7970  -3.6580  -1.6023 H              1 S1                 0.0000
     33 ****         3.6680   0.7811   0.7964 H              1 S1                 0.0000
     34 ****         3.3461   1.2356  -0.8546 H              1 S1                 0.0000
     35 ****         2.4095   2.9367   0.6618 H              1 S1                 0.0000
     36 ****         1.1319   2.1539  -0.2397 H              1 S1                 0.0000
     37 ****         1.9752   1.5357   2.6311 H              1 S1                 0.0000
     38 ****        -0.3187   3.9116   3.7961 H              1 S1                 0.0000
     39 ****         1.1452   2.9800   4.0330 H              1 S1                 0.0000
     40 ****         0.2066  -0.1549   2.7072 H              1 S1                 0.0000
     41 ****        -0.2950   0.2115   1.0788 H              1 S1                 0.0000
     42 ****         1.1203  -1.8225   1.1241 H              1 S1                 0.0000
     43 ****         2.4063  -0.9604   1.9022 H              1 S1                 0.0000
     44 ****        -4.3009   0.6317  -1.9139 LP             1 S1                 0.0000
     45 ****        -4.3015   0.4637  -0.2896 LP             1 S1                 0.0000
     46 ****        -0.4208  -0.4169  -0.3804 LP             1 S1                 0.0000
     47 ****        -0.4351  -0.2733  -2.0070 LP             1 S1                 0.0000
     48 ****        -2.0538  -3.0042  -1.4140 LP             1 S1                 0.0000
     49 ****         2.6649  -1.2162  -3.1105 LP             1 S1                 0.0000
     50 ****         3.3666   0.0881  -2.2126 LP             1 S1                 0.0000
     51 ****        -0.9135   2.4182   0.6930 LP             1 S1                 0.0000
     52 ****        -1.4792   3.5627   1.8635 LP             1 S1                 0.0000
@<TRIPOS>BOND
    1    1    2 1     
    2    1   23 1     
    3    1   24 1     
    4    1   25 1     
    5    2    3 1     
    6    3    4 1     
    7    3   26 1     
    8    3   27 1     
    9    4    5 1     
   10    4   28 1     
   11    4   29 1     
   12    5    6 1     
   13    6   11 ar    
   14    6    7 ar    
   15    7    8 ar    
   16    8    9 ar    
   17    8   30 1     
   18    9   10 ar    
   19    9   31 1     
   20   10   11 ar    
   21   10   32 1     
   22   11   12 1     
   23   12   13 2     
   24   12   14 am    
   25   14   22 1     
   26   14   15 1     
   27   15   16 1     
   28   15   33 1     
   29   15   34 1     
   30   16   17 1     
   31   16   35 1     
   32   16   36 1     
   33   17   18 1     
   34   17   21 1     
   35   17   37 1     
   36   18   19 am    
   37   18   20 2     
   38   19   38 1     
   39   19   39 1     
   40   21   22 1     
   41   21   40 1     
   42   21   41 1     
   43   22   42 1     
   44   22   43 1     
   45    2   44 1     
   46    2   45 1     
   47    5   46 1     
   48    5   47 1     
   49    7   48 1     
   50   13   49 1     
   51   13   50 1     
   52   20   51 1     
   53   20   52 1     
@<TRIPOS>SUBSTRUCTURE
      1 S1             1
@<TRIPOS>SET
LONE_PAIRS      STATIC     ATOMS    <user>   **** ""
9 44 45 46 47 48 49 50 51 52
DONOR_HYDROGENS      STATIC     ATOMS    <user>   **** ""
2 38 39
ATOM$BLUE        STATIC     ATOMS    COLORGROUP SYSTEM
9 44 45 46 47 48 49 50 51 52
ATOM$RED        STATIC     ATOMS    COLORGROUP SYSTEM
2 38 39
