#       Name:                AV-unprocessed.smi:1979
#       Creating user name   scv26
#       Creation time:       Fri Mar 27 10:20:52 2020


#       File generated by GOLD software.
#

@<TRIPOS>MOLECULE
AV-unprocessed.smi:1979
    34    34     1
SMALL
NO_CHARGES


@<TRIPOS>ATOM
      1 ****        -6.8571   1.7518   0.5201 N.1            1 S1                 0.0000
      2 ****        -5.7431   1.4467   0.5864 C.1            1 S1                 0.0000
      3 ****        -4.3443   1.0631   0.6695 C.ar           1 S1                 0.0000
      4 ****        -3.9680  -0.2937   0.7050 C.ar           1 S1                 0.0000
      5 ****        -2.5995  -0.6173   0.7849 C.ar           1 S1                 0.0000
      6 ****        -1.6521   0.4343   0.8263 C.ar           1 S1                 0.0000
      7 ****        -0.2724   0.2053   0.9023 N.pl3          1 S1                 0.0000
      8 ****         0.2716  -1.1249   0.6751 C.3            1 S1                 0.0000
      9 ****         1.8035  -1.1116   0.6567 C.3            1 S1                 0.0000
     10 ****         2.2466  -0.4632  -0.5239 O.3            1 S1                 0.0000
     11 ****         3.6598  -0.4352  -0.6391 C.3            1 S1                 0.0000
     12 ****         4.0425   0.2957  -1.9316 C.3            1 S1                 0.0000
     13 ****         3.9684  -0.5884  -3.0294 O.3            1 S1                 0.0000
     14 ****        -2.0146   1.7355   0.7944 N.ar           1 S1                 0.0000
     15 ****        -3.3285   2.0388   0.7169 C.ar           1 S1                 0.0000
     16 ****        -4.7106  -1.0781   0.6721 H              1 S1                 0.0000
     17 ****        -2.3024  -1.6549   0.8147 H              1 S1                 0.0000
     18 ****         0.3570   0.9940   0.8598 H              1 S1                 0.0000
     19 ****        -0.0704  -1.7797   1.4771 H              1 S1                 0.0000
     20 ****        -0.1110  -1.5313  -0.2620 H              1 S1                 0.0000
     21 ****         2.1968  -0.6160   1.5459 H              1 S1                 0.0000
     22 ****         2.1725  -2.1382   0.6647 H              1 S1                 0.0000
     23 ****         4.0675   0.1098   0.2137 H              1 S1                 0.0000
     24 ****         4.0839  -1.4407  -0.6142 H              1 S1                 0.0000
     25 ****         3.4083   1.1670  -2.0980 H              1 S1                 0.0000
     26 ****         5.0707   0.6519  -1.8647 H              1 S1                 0.0000
     27 ****         4.1960  -0.1133  -3.8138 H              1 S1                 0.0000
     28 ****        -3.5701   3.0917   0.6920 H              1 S1                 0.0000
     29 ****        -7.8200   2.0155   0.4628 LP             1 S1                 0.0000
     30 ****         1.9079   0.4777  -0.5178 LP             1 S1                 0.0000
     31 ****         1.8712  -0.9474  -1.3143 LP             1 S1                 0.0000
     32 ****         3.0387  -0.9477  -3.1107 LP             1 S1                 0.0000
     33 ****         4.6079  -1.3455  -2.8963 LP             1 S1                 0.0000
     34 ****        -1.3248   2.4587   0.8274 LP             1 S1                 0.0000
@<TRIPOS>BOND
    1    1    2 3     
    2    2    3 1     
    3    3   15 ar    
    4    3    4 ar    
    5    4    5 ar    
    6    4   16 1     
    7    5    6 ar    
    8    5   17 1     
    9    6    7 1     
   10    6   14 ar    
   11    7    8 1     
   12    7   18 1     
   13    8    9 1     
   14    8   19 1     
   15    8   20 1     
   16    9   10 1     
   17    9   21 1     
   18    9   22 1     
   19   10   11 1     
   20   11   12 1     
   21   11   23 1     
   22   11   24 1     
   23   12   13 1     
   24   12   25 1     
   25   12   26 1     
   26   13   27 1     
   27   14   15 ar    
   28   15   28 1     
   29    1   29 1     
   30   10   30 1     
   31   10   31 1     
   32   13   32 1     
   33   13   33 1     
   34   14   34 1     
@<TRIPOS>SUBSTRUCTURE
      1 S1             1
@<TRIPOS>SET
LONE_PAIRS      STATIC     ATOMS    <user>   **** ""
6 29 30 31 32 33 34
DONOR_HYDROGENS      STATIC     ATOMS    <user>   **** ""
2 18 27
ATOM$BLUE        STATIC     ATOMS    COLORGROUP SYSTEM
6 29 30 31 32 33 34
ATOM$RED        STATIC     ATOMS    COLORGROUP SYSTEM
2 18 27
