AV-unprocessed.smi:3348|AV-procd|sdf|12924|dock5
  -GOLD-   2272019343D 1   1.00000     0.00000
 Structure written by MMmdl.
 46 47  0  0  0  0  0  0  0  0  1 V2000
  152.5243  138.7732  154.9370 C   0  0  0  0  0  0  0  0  0  0  0  0
  151.2676  139.6524  155.0590 C   0  0  1  0  0  0  0  0  0  0  0  0
  150.2187  139.3371  153.9635 C   0  0  0  0  0  0  0  0  0  0  0  0
  149.0173  140.1464  154.0670 N   0  0  0  0  0  0  0  0  0  0  0  0
  147.7153  139.7296  154.2496 C   0  0  0  0  0  0  0  0  0  0  0  0
  146.9340  140.8481  154.2998 C   0  0  0  0  0  0  0  0  0  0  0  0
  147.8613  141.9155  154.1416 C   0  0  0  0  0  0  0  0  0  0  0  0
  149.1080  141.4927  154.0070 N   0  0  0  0  0  0  0  0  0  0  0  0
  150.7092  139.4994  156.4063 N   0  0  0  0  0  0  0  0  0  0  0  0
  149.9374  140.6374  156.9039 C   0  0  0  0  0  0  0  0  0  0  0  0
  150.7129  141.9523  156.7194 C   0  0  0  0  0  0  0  0  0  0  0  0
  151.7696  142.0918  157.6620 O   0  0  0  0  0  0  0  0  0  0  0  0
  151.4274  142.7644  158.8692 C   0  0  2  0  0  0  0  0  0  0  0  0
  150.7458  144.0900  158.4812 C   0  0  0  0  0  0  0  0  0  0  0  0
  150.4386  144.9466  159.7178 C   0  0  0  0  0  0  0  0  0  0  0  0
  151.7131  145.2074  160.5335 C   0  0  0  0  0  0  0  0  0  0  0  0
  152.4013  143.8898  160.9235 C   0  0  0  0  0  0  0  0  0  0  0  0
  152.7122  143.0162  159.6908 C   0  0  1  0  0  0  0  0  0  0  0  0
  153.3881  141.7027  160.1158 C   0  0  0  0  0  0  0  0  0  0  0  0
  153.0440  138.9403  153.9933 H   0  0  0  0  0  0  0  0  0  0  0  0
  152.2747  137.7135  154.9978 H   0  0  0  0  0  0  0  0  0  0  0  0
  153.2343  138.9943  155.7345 H   0  0  0  0  0  0  0  0  0  0  0  0
  151.5864  140.6878  154.9324 H   0  0  0  0  0  0  0  0  0  0  0  0
  150.6514  139.4963  152.9746 H   0  0  0  0  0  0  0  0  0  0  0  0
  149.9110  138.2920  154.0051 H   0  0  0  0  0  0  0  0  0  0  0  0
  147.4561  138.6840  154.3265 H   0  0  0  0  0  0  0  0  0  0  0  0
  145.8632  140.8968  154.4311 H   0  0  0  0  0  0  0  0  0  0  0  0
  147.6671  142.9777  154.1231 H   0  0  0  0  0  0  0  0  0  0  0  0
  150.1432  138.6581  156.4522 H   0  0  0  0  0  0  0  0  0  0  0  0
  148.9642  140.6845  156.4156 H   0  0  0  0  0  0  0  0  0  0  0  0
  149.7423  140.5155  157.9685 H   0  0  0  0  0  0  0  0  0  0  0  0
  151.1147  142.0175  155.7073 H   0  0  0  0  0  0  0  0  0  0  0  0
  150.0360  142.7999  156.8318 H   0  0  0  0  0  0  0  0  0  0  0  0
  150.7350  142.1770  159.4758 H   0  0  0  0  0  0  0  0  0  0  0  0
  151.3932  144.6499  157.8050 H   0  0  0  0  0  0  0  0  0  0  0  0
  149.8254  143.8921  157.9313 H   0  0  0  0  0  0  0  0  0  0  0  0
  149.9914  145.8932  159.4131 H   0  0  0  0  0  0  0  0  0  0  0  0
  149.7003  144.4401  160.3405 H   0  0  0  0  0  0  0  0  0  0  0  0
  152.4014  145.8211  159.9514 H   0  0  0  0  0  0  0  0  0  0  0  0
  151.4702  145.7796  161.4292 H   0  0  0  0  0  0  0  0  0  0  0  0
  153.3210  144.1082  161.4673 H   0  0  0  0  0  0  0  0  0  0  0  0
  151.7605  143.3383  161.6130 H   0  0  0  0  0  0  0  0  0  0  0  0
  153.4160  143.5631  159.0616 H   0  0  0  0  0  0  0  0  0  0  0  0
  152.7239  141.0972  160.7333 H   0  0  0  0  0  0  0  0  0  0  0  0
  154.2939  141.8960  160.6908 H   0  0  0  0  0  0  0  0  0  0  0  0
  153.6741  141.1053  159.2500 H   0  0  0  0  0  0  0  0  0  0  0  0
  1  2  1  0  0  0  0
  1 20  1  0  0  0  0
  1 21  1  0  0  0  0
  1 22  1  0  0  0  0
  2  3  1  0  0  0  0
  2  9  1  0  0  0  0
  2 23  1  0  0  0  0
  3  4  1  0  0  0  0
  3 24  1  0  0  0  0
  3 25  1  0  0  0  0
  4  8  1  0  0  0  0
  4  5  1  0  0  0  0
  5  6  2  0  0  0  0
  5 26  1  0  0  0  0
  6  7  1  0  0  0  0
  6 27  1  0  0  0  0
  7  8  2  0  0  0  0
  7 28  1  0  0  0  0
  9 10  1  0  0  0  0
  9 29  1  0  0  0  0
 10 11  1  0  0  0  0
 10 30  1  0  0  0  0
 10 31  1  0  0  0  0
 11 12  1  0  0  0  0
 11 32  1  0  0  0  0
 11 33  1  0  0  0  0
 12 13  1  0  0  0  0
 13 18  1  0  0  0  0
 13 14  1  0  0  0  0
 13 34  1  0  0  0  0
 14 15  1  0  0  0  0
 14 35  1  0  0  0  0
 14 36  1  0  0  0  0
 15 16  1  0  0  0  0
 15 37  1  0  0  0  0
 15 38  1  0  0  0  0
 16 17  1  0  0  0  0
 16 39  1  0  0  0  0
 16 40  1  0  0  0  0
 17 18  1  0  0  0  0
 17 41  1  0  0  0  0
 17 42  1  0  0  0  0
 18 19  1  0  0  0  0
 18 43  1  0  0  0  0
 19 44  1  0  0  0  0
 19 45  1  0  0  0  0
 19 46  1  0  0  0  0
M  END
> <s_m_source_file>
AV-unprocessed.smi

> <i_m_source_file_index>
3348

> <i_lp_mmshare_version>
43012

> <i_f3d_flags>
0

> <s_epik_input>
bjFbY0hdW2NIXVtjSF1uMVtDSDJdW0NAQEhdKFtDSDNdKVtOSF1bQ0gyXVtDSDJdT1tDQEBIXTJbQ0gyXVtDSDJdW0NIMl1bQ0gyXVtDQEhdMltDSDNd

> <s_epik_cmdline>
J2VwaWtfcHl0aG9uJywgJy1waCcsICc3LjAnLCAnLXRuJywgJzgnLCAnLW1hJywgJzIwMCcsICctbWV0YWxfYmluZGluZycsICctaW1hZScsICc8aW5maWxlLm1hZT4nLCAnLW9tYWUnLCAnPG91dGZpbGUubWFlPic=

> <r_lp_tautomer_probability>
1

> <r_epik_Ionization_Penalty>
2.46945

> <r_epik_Ionization_Penalty_Charging>
0

> <r_epik_Ionization_Penalty_Neutral>
2.46945

> <r_epik_State_Penalty>
2.6322

> <r_epik_Charging_Adjusted_Penalty>
2.6322

> <i_epik_Tot_Q>
0

> <i_epik_Tot_abs_Q>
0

> <r_epik_Metal_State_Penalty>
2.63217

> <b_epik_Metal_Only>
0

> <s_lp_Force_Field>
OPLS_2005

> <r_lp_Energy>
18.9542

> <b_lp_Chiralities_Consistent>
1

> <s_lp_Variant>
AV-unprocessed.smi:3348-10

> <Gold.Version>
5.8.1

> <Gold.Id.Protein>
6NUR|6NUR_protein|mol2

> <Gold.PLP.Fitness>
48.3318

> <Gold.PLP.PLP>
-44.6761

> <Gold.PLP.part.hbond>
-1.7625

> <Gold.PLP.part.metal>
0.0000

> <Gold.PLP.part.buried>
-1.0187

> <Gold.PLP.part.nonpolar>
-39.7128

> <Gold.PLP.part.repulsive>
0.2147

> <Gold.PLP.ligand.clash>
0.0000

> <Gold.PLP.ligand.torsion>
0.5858

> <Gold.PLP.Chemscore.Hbond>
0.6880

> <Gold.PLP.Chemscore.CHOScore>
0.8975

> <Gold.PLP.Chemscore.Metal>
0.0000

> <Gold.Chemscore.Hbonds>
donor molecule, donor type, donor heavy atom, donor atom, acceptor molecule, acceptor atom, score
      P1  H  8011  8017       L1     8  0.69
      L1  C     7    28       P1  8028  0.80

> <Gold.PLP.Chemscore.Internal.Correction>
0.0708

> <Gold.Rescore>
     Score         DG    S(hbond)    S(metal)    S(lipo)     H(rot)  DE(clash)    DE(int)     intcor
     16.04     -16.81       0.31        0.00     125.57       1.72       0.09       0.68       ----

> <Gold.Chemscore.Fitness>
16.0432

> <Gold.Chemscore.DG>
-16.8083

> <Gold.Chemscore.ZeroCoef>
-5.4800

> <Gold.Chemscore.Hbond>
0.3141

> <Gold.Chemscore.Metal>
0.0000

> <Gold.Chemscore.Lipo>
125.5696

> <Gold.Chemscore.Internal_Hbond>
0.0000

> <Gold.Chemscore.DEClash>
0.0877

> <Gold.Chemscore.DEInternal>
0.6775

> <Gold.Chemscore.Rot>
1.7237

> <Gold.Chemscore.Internal.Correction>
   9.000000E+99

> <Gold.Chemscore.Hbonds>
donor molecule, donor type, donor heavy atom, donor atom, acceptor molecule, acceptor atom, score
      P1  H  8011  8017       L1     8  0.31

> <Gold.Chemscore.Hbond.Weighted>
-1.0493

> <Gold.Chemscore.Metal.Weighted>
-0.0000

> <Gold.Chemscore.Lipo.Weighted>
-14.6916

> <Gold.Chemscore.Internal_Hbond.Weighted>
0.0000

> <Gold.Chemscore.DEClash.Weighted>
0.0877

> <Gold.Chemscore.DEInternal.Weighted>
0.6775

> <Gold.Chemscore.Rot.Weighted>
4.4126

> <Gold.Chemscore.Internal.Correction.Weighted>
   9.000000E+99

> <Gold.Protein.RotatedTorsions>
[ 6907 6896 6895 6894 ] final   92.84 input  -60.11 | X-H torsion
[ 7974 7965 7964 7962 ] final  162.88 input  175.53 | X-H torsion
[ 8008 7997 7996 7995 ] final  156.92 input   59.86 | X-H torsion
[ 10167 10162 10161 10158 ] final -117.85 input  -65.29 | X-H torsion
[ 10718 10713 10712 10709 ] final  118.14 input   66.30 | X-H torsion
[ 10763 10752 10751 10750 ] final  179.21 input  -60.55 | X-H torsion
[ 11005 11000 10999 10996 ] final  -98.39 input  -57.11 | X-H torsion

> <Gold.Protein.ActiveResidues>
 VAL166  LYS551  ARG553  GLY616  TRP617  ASP618  TYR619  PRO620  LYS621  CYS622 
 ASP623  PHE694  ASN695  SER759  ASP760  ASP761  ALA762  ILE779  LEU786  VAL792 
 PHE793  MET794  SER795  GLU796  ALA797  LYS798  CYS799  TRP800  GLU811  SER814 

> <Gold.Protein.RotatedAtoms>
  152.5453  134.1441  159.8490 H   0  0  0  0  0  0  0  0  0  0  0  0  # atno 6907 bound_to 6896
  151.1474  133.4923  159.2603 H   0  0  0  0  0  0  0  0  0  0  0  0  # atno 6908 bound_to 6896
  151.1508  135.0237  159.8722 H   0  0  0  0  0  0  0  0  0  0  0  0  # atno 6909 bound_to 6896
  144.7616  139.8103  143.6330 H   0  0  0  0  0  0  0  0  0  0  0  0  # atno 7974 bound_to 7965
  156.2394  140.1899  156.7030 H   0  0  0  0  0  0  0  0  0  0  0  0  # atno 8008 bound_to 7997
  154.6168  140.0614  156.9591 H   0  0  0  0  0  0  0  0  0  0  0  0  # atno 8009 bound_to 7997
  155.1926  140.3285  155.4358 H   0  0  0  0  0  0  0  0  0  0  0  0  # atno 8010 bound_to 7997
  140.0639  143.4942  152.2017 H   0  0  0  0  0  0  0  0  0  0  0  0  # atno 10167 bound_to 10162
  157.6050  131.1045  150.7714 H   0  0  0  0  0  0  0  0  0  0  0  0  # atno 10718 bound_to 10713
  154.5177  135.2792  155.1289 H   0  0  0  0  0  0  0  0  0  0  0  0  # atno 10763 bound_to 10752
  154.2859  135.6276  153.5369 H   0  0  0  0  0  0  0  0  0  0  0  0  # atno 10764 bound_to 10752
  152.9930  135.5662  154.5658 H   0  0  0  0  0  0  0  0  0  0  0  0  # atno 10765 bound_to 10752
  141.1346  133.8242  157.0833 H   0  0  0  0  0  0  0  0  0  0  0  0  # atno 11005 bound_to 11000
  146.1684  139.4824  142.9944 LP  0  0  0  0  0  0  0  0  0  0  0  0  # atno 17320 bound_to 7965
  145.6603  141.0242  143.1713 LP  0  0  0  0  0  0  0  0  0  0  0  0  # atno 17321 bound_to 7965
  139.5877  144.7538  151.3479 LP  0  0  0  0  0  0  0  0  0  0  0  0  # atno 17342 bound_to 10162
  140.7159  143.7268  150.7653 LP  0  0  0  0  0  0  0  0  0  0  0  0  # atno 17343 bound_to 10162
  156.8104  130.4950  149.5356 LP  0  0  0  0  0  0  0  0  0  0  0  0  # atno 17370 bound_to 10713
  156.1134  130.6057  151.0082 LP  0  0  0  0  0  0  0  0  0  0  0  0  # atno 17371 bound_to 10713
  140.0438  134.9841  157.1010 LP  0  0  0  0  0  0  0  0  0  0  0  0  # atno 17394 bound_to 11000
  140.4095  134.1996  155.7163 LP  0  0  0  0  0  0  0  0  0  0  0  0  # atno 17395 bound_to 11000

$$$$
