AV-unprocessed.smi:2931|AV-procd|sdf|11245|dock3
  -GOLD-   2272016143D 1   1.00000     0.00000
 Structure written by MMmdl.
 42 43  0  0  0  0  0  0  0  0  2 V2000
  145.6418  129.7794  151.7418 C   0  0  0  0  0  0  0  0  0  0  0  0
  145.3418  131.2224  151.8617 N   0  3  2  0  0  0  0  0  0  0  0  0
  144.7353  131.7789  150.6266 C   0  0  0  0  0  0  0  0  0  0  0  0
  144.3165  133.2443  150.8313 C   0  0  0  0  0  0  0  0  0  0  0  0
  145.5044  134.0979  151.2968 C   0  0  0  0  0  0  0  0  0  0  0  0
  146.1384  133.4809  152.5564 C   0  0  2  0  0  0  0  0  0  0  0  0
  147.3202  134.2351  152.9630 N   0  0  0  0  0  0  0  0  0  0  0  0
  148.0673  133.9676  154.0429 C   0  0  0  0  0  0  0  0  0  0  0  0
  147.8261  133.0587  154.8373 O   0  0  0  0  0  0  0  0  0  0  0  0
  149.1172  134.7963  154.1400 N   0  0  0  0  0  0  0  0  0  0  0  0
  150.1628  134.7198  155.1581 C   0  0  0  0  0  0  0  0  0  0  0  0
  150.0587  135.8632  156.1862 C   0  0  0  0  0  0  0  0  0  0  0  0
  150.4962  137.2135  155.6443 C   0  0  0  0  0  0  0  0  0  0  0  0
  149.7198  137.8844  154.6773 C   0  0  0  0  0  0  0  0  0  0  0  0
  150.1527  139.1469  154.2253 C   0  0  0  0  0  0  0  0  0  0  0  0
  151.2787  139.7472  154.6681 N   0  0  0  0  0  0  0  0  0  0  0  0
  152.0209  139.0955  155.5889 C   0  0  0  0  0  0  0  0  0  0  0  0
  151.6756  137.8323  156.1092 C   0  0  0  0  0  0  0  0  0  0  0  0
  146.5192  132.0095  152.3061 C   0  0  0  0  0  0  0  0  0  0  0  0
  146.3929  129.5980  150.9718 H   0  0  0  0  0  0  0  0  0  0  0  0
  144.7429  129.2194  151.4826 H   0  0  0  0  0  0  0  0  0  0  0  0
  146.0176  129.3849  152.6865 H   0  0  0  0  0  0  0  0  0  0  0  0
  145.4470  131.7029  149.8029 H   0  0  0  0  0  0  0  0  0  0  0  0
  143.8627  131.1867  150.3481 H   0  0  0  0  0  0  0  0  0  0  0  0
  143.9073  133.6490  149.9053 H   0  0  0  0  0  0  0  0  0  0  0  0
  143.5164  133.2963  151.5712 H   0  0  0  0  0  0  0  0  0  0  0  0
  146.2447  134.1602  150.4980 H   0  0  0  0  0  0  0  0  0  0  0  0
  145.1730  135.1177  151.4961 H   0  0  0  0  0  0  0  0  0  0  0  0
  145.4053  133.5024  153.3657 H   0  0  0  0  0  0  0  0  0  0  0  0
  147.5995  135.0041  152.3713 H   0  0  0  0  0  0  0  0  0  0  0  0
  149.2226  135.5139  153.4378 H   0  0  0  0  0  0  0  0  0  0  0  0
  150.0709  133.7612  155.6689 H   0  0  0  0  0  0  0  0  0  0  0  0
  151.1519  134.7217  154.6969 H   0  0  0  0  0  0  0  0  0  0  0  0
  149.0318  135.9385  156.5462 H   0  0  0  0  0  0  0  0  0  0  0  0
  150.6671  135.6259  157.0595 H   0  0  0  0  0  0  0  0  0  0  0  0
  148.8072  137.4487  154.2982 H   0  0  0  0  0  0  0  0  0  0  0  0
  149.5779  139.6902  153.4899 H   0  0  0  0  0  0  0  0  0  0  0  0
  152.9159  139.5980  155.9250 H   0  0  0  0  0  0  0  0  0  0  0  0
  152.2999  137.3564  156.8510 H   0  0  0  0  0  0  0  0  0  0  0  0
  146.9177  131.5744  153.2239 H   0  0  0  0  0  0  0  0  0  0  0  0
  147.3072  131.9413  151.5538 H   0  0  0  0  0  0  0  0  0  0  0  0
  144.6460  131.3108  152.5887 H   0  0  0  0  0  0  0  0  0  0  0  0
  1  2  1  0  0  0  0
  1 20  1  0  0  0  0
  1 21  1  0  0  0  0
  1 22  1  0  0  0  0
  2 19  1  0  0  0  0
  2  3  1  0  0  0  0
  2 42  1  0  0  0  0
  3  4  1  0  0  0  0
  3 23  1  0  0  0  0
  3 24  1  0  0  0  0
  4  5  1  0  0  0  0
  4 25  1  0  0  0  0
  4 26  1  0  0  0  0
  5  6  1  0  0  0  0
  5 27  1  0  0  0  0
  5 28  1  0  0  0  0
  6  7  1  0  0  0  0
  6 19  1  0  0  0  0
  6 29  1  0  0  0  0
  7  8  1  0  0  0  0
  7 30  1  0  0  0  0
  8  9  2  0  0  0  0
  8 10  1  0  0  0  0
 10 11  1  0  0  0  0
 10 31  1  0  0  0  0
 11 12  1  0  0  0  0
 11 32  1  0  0  0  0
 11 33  1  0  0  0  0
 12 13  1  0  0  0  0
 12 34  1  0  0  0  0
 12 35  1  0  0  0  0
 13 18  1  0  0  0  0
 13 14  2  0  0  0  0
 14 15  1  0  0  0  0
 14 36  1  0  0  0  0
 15 16  2  0  0  0  0
 15 37  1  0  0  0  0
 16 17  1  0  0  0  0
 17 18  2  0  0  0  0
 17 38  1  0  0  0  0
 18 39  1  0  0  0  0
 19 40  1  0  0  0  0
 19 41  1  0  0  0  0
M  CHG  1   2   1
M  END
> <s_m_source_file>
AV-unprocessed.smi

> <i_m_source_file_index>
2931

> <i_lp_mmshare_version>
43012

> <i_f3d_flags>
0

> <s_epik_input>
W0NIM11OMVtDSDJdW0NIMl1bQ0gyXVtDQEhdKFtDSDJdMSlbTkhdQyg9TylbTkhdW0NIMl1bQ0gyXWMyW2NIXVtjSF1uW2NIXVtjSF0y

> <s_epik_cmdline>
J2VwaWtfcHl0aG9uJywgJy1waCcsICc3LjAnLCAnLXRuJywgJzgnLCAnLW1hJywgJzIwMCcsICctbWV0YWxfYmluZGluZycsICctaW1hZScsICc8aW5maWxlLm1hZT4nLCAnLW9tYWUnLCAnPG91dGZpbGUubWFlPic=

> <r_epik_Ionization_Penalty>
0.0573876

> <r_epik_Ionization_Penalty_Charging>
0.00229982

> <r_epik_Ionization_Penalty_Neutral>
0.0550878

> <r_epik_State_Penalty>
0.0473925

> <r_epik_Charging_Adjusted_Penalty>
0.0496923

> <i_epik_Tot_Q>
1

> <i_epik_Tot_abs_Q>
1

> <r_epik_Metal_State_Penalty>
0.0433388

> <b_epik_Metal_Only>
0

> <s_lp_Force_Field>
OPLS_2005

> <r_lp_Energy>
13.2125

> <b_lp_Chiralities_Consistent>
1

> <s_lp_Variant>
AV-unprocessed.smi:2931-4

> <Gold.Version>
5.8.1

> <Gold.Id.Protein>
6NUR|6NUR_protein|mol2

> <Gold.PLP.Fitness>
44.3868

> <Gold.PLP.PLP>
-32.7479

> <Gold.PLP.part.hbond>
-3.0000

> <Gold.PLP.part.metal>
0.0000

> <Gold.PLP.part.buried>
-6.0880

> <Gold.PLP.part.nonpolar>
-24.2737

> <Gold.PLP.part.repulsive>
0.1395

> <Gold.PLP.ligand.clash>
0.0000

> <Gold.PLP.ligand.torsion>
0.1927

> <Gold.PLP.Chemscore.Hbond>
3.0000

> <Gold.PLP.Chemscore.CHOScore>
1.0000

> <Gold.PLP.Chemscore.Metal>
0.0000

> <Gold.Chemscore.Hbonds>
donor molecule, donor type, donor heavy atom, donor atom, acceptor molecule, acceptor atom, score
      L1  H     7    30       P1  7948  0.96
      L1  H    10    31       P1  7948  1.00
      P1  H  7989  7998       L1    16  1.00
      L1  C    15    37       P1  7957  1.00

> <Gold.PLP.Chemscore.Internal.Correction>
0.0242

> <Gold.Rescore>
     Score         DG    S(hbond)    S(metal)    S(lipo)     H(rot)  DE(clash)    DE(int)     intcor
     17.97     -18.17       2.13        0.00      81.64       1.56       0.01       0.18       ----

> <Gold.Chemscore.Fitness>
17.9702

> <Gold.Chemscore.DG>
-18.1661

> <Gold.Chemscore.ZeroCoef>
-5.4800

> <Gold.Chemscore.Hbond>
2.1335

> <Gold.Chemscore.Metal>
0.0000

> <Gold.Chemscore.Lipo>
81.6388

> <Gold.Chemscore.Internal_Hbond>
0.0000

> <Gold.Chemscore.DEClash>
0.0140

> <Gold.Chemscore.DEInternal>
0.1819

> <Gold.Chemscore.Rot>
1.5592

> <Gold.Chemscore.Internal.Correction>
   9.000000E+99

> <Gold.Chemscore.Hbonds>
donor molecule, donor type, donor heavy atom, donor atom, acceptor molecule, acceptor atom, score
      L1  H     7    30       P1  7948  0.89
      L1  H    10    31       P1  7948  0.39
      P1  H  7989  7998       L1    16  0.50

> <Gold.Chemscore.Hbond.Weighted>
-7.1259

> <Gold.Chemscore.Metal.Weighted>
-0.0000

> <Gold.Chemscore.Lipo.Weighted>
-9.5517

> <Gold.Chemscore.Internal_Hbond.Weighted>
0.0000

> <Gold.Chemscore.DEClash.Weighted>
0.0140

> <Gold.Chemscore.DEInternal.Weighted>
0.1819

> <Gold.Chemscore.Rot.Weighted>
3.9915

> <Gold.Chemscore.Internal.Correction.Weighted>
   9.000000E+99

> <Gold.Protein.RotatedTorsions>
[ 6907 6896 6895 6894 ] final  117.44 input  -60.11 | X-H torsion
[ 7974 7965 7964 7962 ] final  -62.55 input  175.53 | X-H torsion
[ 8008 7997 7996 7995 ] final  -64.33 input   59.86 | X-H torsion
[ 10167 10162 10161 10158 ] final -124.56 input  -65.29 | X-H torsion
[ 10718 10713 10712 10709 ] final   44.33 input   66.30 | X-H torsion
[ 10763 10752 10751 10750 ] final  -46.46 input  -60.55 | X-H torsion
[ 11005 11000 10999 10996 ] final  177.24 input  -57.11 | X-H torsion

> <Gold.Protein.ActiveResidues>
 VAL166  LYS551  ARG553  GLY616  TRP617  ASP618  TYR619  PRO620  LYS621  CYS622 
 ASP623  PHE694  ASN695  SER759  ASP760  ASP761  ALA762  ILE779  LEU786  VAL792 
 PHE793  MET794  SER795  GLU796  ALA797  LYS798  CYS799  TRP800  GLU811  SER814 

> <Gold.Protein.RotatedAtoms>
  152.4611  133.7825  159.6858 H   0  0  0  0  0  0  0  0  0  0  0  0  # atno 6907 bound_to 6896
  150.8556  133.7710  159.3016 H   0  0  0  0  0  0  0  0  0  0  0  0  # atno 6908 bound_to 6896
  151.5292  135.1071  159.9950 H   0  0  0  0  0  0  0  0  0  0  0  0  # atno 6909 bound_to 6896
  145.7899  140.8715  143.0286 H   0  0  0  0  0  0  0  0  0  0  0  0  # atno 7974 bound_to 7965
  154.4605  140.0956  156.6880 H   0  0  0  0  0  0  0  0  0  0  0  0  # atno 8008 bound_to 7997
  155.5008  140.3473  155.4352 H   0  0  0  0  0  0  0  0  0  0  0  0  # atno 8009 bound_to 7997
  156.0861  140.1385  156.9640 H   0  0  0  0  0  0  0  0  0  0  0  0  # atno 8010 bound_to 7997
  139.9915  143.5636  152.2340 H   0  0  0  0  0  0  0  0  0  0  0  0  # atno 10167 bound_to 10162
  157.4257  130.7995  149.7556 H   0  0  0  0  0  0  0  0  0  0  0  0  # atno 10718 bound_to 10713
  154.0454  135.6638  153.4794 H   0  0  0  0  0  0  0  0  0  0  0  0  # atno 10763 bound_to 10752
  153.0485  135.5099  154.7802 H   0  0  0  0  0  0  0  0  0  0  0  0  # atno 10764 bound_to 10752
  154.6791  135.3042  154.9603 H   0  0  0  0  0  0  0  0  0  0  0  0  # atno 10765 bound_to 10752
  140.3819  134.6938  157.4456 H   0  0  0  0  0  0  0  0  0  0  0  0  # atno 11005 bound_to 11000
  144.6783  140.0109  143.7484 LP  0  0  0  0  0  0  0  0  0  0  0  0  # atno 17320 bound_to 7965
  145.9987  139.3073  143.0941 LP  0  0  0  0  0  0  0  0  0  0  0  0  # atno 17321 bound_to 7965
  139.6337  144.7647  151.2483 LP  0  0  0  0  0  0  0  0  0  0  0  0  # atno 17342 bound_to 10162
  140.7453  143.6435  150.8313 LP  0  0  0  0  0  0  0  0  0  0  0  0  # atno 17343 bound_to 10162
  155.9895  130.3951  150.3068 LP  0  0  0  0  0  0  0  0  0  0  0  0  # atno 17370 bound_to 10713
  157.1220  131.0249  151.3005 LP  0  0  0  0  0  0  0  0  0  0  0  0  # atno 17371 bound_to 10713
  140.0472  134.6183  155.8907 LP  0  0  0  0  0  0  0  0  0  0  0  0  # atno 17394 bound_to 11000
  141.1920  133.6574  156.5483 LP  0  0  0  0  0  0  0  0  0  0  0  0  # atno 17395 bound_to 11000

$$$$
