#       Name:                AV-unprocessed.smi:2041
#       Creating user name   scv26
#       Creation time:       Fri Mar 27 10:55:54 2020


#       File generated by GOLD software.
#

@<TRIPOS>MOLECULE
AV-unprocessed.smi:2041
    36    37     1
SMALL
NO_CHARGES


@<TRIPOS>ATOM
      1 ****         1.9491   0.2542  -0.2208 O.2            1 S1                 0.0000
      2 ****         1.4503  -0.8131   0.1445 C.2            1 S1                 0.0000
      3 ****         2.1144  -1.9649   0.3941 N.pl3          1 S1                -1.0000
      4 ****         3.4475  -2.0191   0.2412 C.2            1 S1                 0.0000
      5 ****         4.3030  -1.9399   1.2670 N.2            1 S1                 0.0000
      6 ****         5.6419  -2.0278   0.8814 C.2            1 S1                 0.0000
      7 ****         5.8097  -2.1848  -0.4688 C.2            1 S1                 0.0000
      8 ****         4.2817  -2.2275  -1.3013 S.3            1 S1                 0.0000
      9 ****         0.1245  -0.9036   0.3312 N.am           1 S1                 0.0000
     10 ****        -0.8550   0.1675   0.1347 C.3            1 S1                 0.0000
     11 ****        -2.1339  -0.2020   0.9278 C.3            1 S1                 0.0000
     12 ****        -3.4217   0.5671   0.5555 C.3            1 S1                 0.0000
     13 ****        -3.2473   2.0879   0.3673 C.3            1 S1                 0.0000
     14 ****        -2.2741   2.5447  -0.7507 C.3            1 S1                 0.0000
     15 ****        -1.8731   1.4924  -1.6847 N.am           1 S1                 0.0000
     16 ****        -1.2023   0.3747  -1.3568 C.2            1 S1                 0.0000
     17 ****        -0.9038  -0.4643  -2.2059 O.2            1 S1                 0.0000
     18 ****         6.4118  -1.9699   1.6364 H              1 S1                 0.0000
     19 ****         6.7318  -2.2790  -1.0218 H              1 S1                 0.0000
     20 ****        -0.2370  -1.7992   0.6241 H              1 S1                 0.0000
     21 ****        -0.4348   1.0888   0.5405 H              1 S1                 0.0000
     22 ****        -2.3407  -1.2682   0.8217 H              1 S1                 0.0000
     23 ****        -1.9292  -0.0486   1.9879 H              1 S1                 0.0000
     24 ****        -3.8520   0.1414  -0.3520 H              1 S1                 0.0000
     25 ****        -4.1679   0.3888   1.3301 H              1 S1                 0.0000
     26 ****        -4.2307   2.5089   0.1546 H              1 S1                 0.0000
     27 ****        -2.9400   2.5368   1.3124 H              1 S1                 0.0000
     28 ****        -2.7320   3.3506  -1.3246 H              1 S1                 0.0000
     29 ****        -1.3769   2.9801  -0.3090 H              1 S1                 0.0000
     30 ****        -2.1129   1.6275  -2.6561 H              1 S1                 0.0000
     31 ****         2.9371   0.3228  -0.3593 LP             1 S1                 0.0000
     32 ****         1.3655   1.0508  -0.3785 LP             1 S1                 0.0000
     33 ****         1.6123  -2.7765   0.6927 LP             1 S1                 0.0000
     34 ****         4.0117  -1.8286   2.2171 LP             1 S1                 0.0000
     35 ****        -0.4267  -1.3007  -1.9362 LP             1 S1                 0.0000
     36 ****        -1.1383  -0.3097  -3.1656 LP             1 S1                 0.0000
@<TRIPOS>BOND
    1    1    2 2     
    2    2    3 1     
    3    2    9 am    
    4    3    4 1     
    5    4    8 1     
    6    4    5 2     
    7    5    6 1     
    8    6    7 2     
    9    6   18 1     
   10    7    8 1     
   11    7   19 1     
   12    9   10 1     
   13    9   20 1     
   14   10   16 1     
   15   10   11 1     
   16   10   21 1     
   17   11   12 1     
   18   11   22 1     
   19   11   23 1     
   20   12   13 1     
   21   12   24 1     
   22   12   25 1     
   23   13   14 1     
   24   13   26 1     
   25   13   27 1     
   26   14   15 1     
   27   14   28 1     
   28   14   29 1     
   29   15   16 am    
   30   15   30 1     
   31   16   17 2     
   32    1   31 1     
   33    1   32 1     
   34    3   33 1     
   35    5   34 1     
   36   17   35 1     
   37   17   36 1     
@<TRIPOS>SUBSTRUCTURE
      1 S1             1
@<TRIPOS>SET
LONE_PAIRS      STATIC     ATOMS    <user>   **** ""
6 31 32 33 34 35 36
DONOR_HYDROGENS      STATIC     ATOMS    <user>   **** ""
2 20 30
ATOM$BLUE        STATIC     ATOMS    COLORGROUP SYSTEM
6 31 32 33 34 35 36
ATOM$RED        STATIC     ATOMS    COLORGROUP SYSTEM
2 20 30
