AV-unprocessed.smi:901|AV-procd|sdf|4091|dock7
  -GOLD-   22720 1583D 1   1.00000     0.00000
 Structure written by MMmdl.
 43 44  0  0  0  0  0  0  0  0  1 V2000
  152.0517  138.4730  159.7080 C   0  0  0  0  0  0  0  0  0  0  0  0
  152.3323  139.9138  159.3307 C   0  0  0  0  0  0  0  0  0  0  0  0
  153.4485  140.5717  160.1228 C   0  0  0  0  0  0  0  0  0  0  0  0
  151.6349  140.5401  158.3634 C   0  0  0  0  0  0  0  0  0  0  0  0
  151.8143  141.9503  157.9088 C   0  0  1  0  0  0  0  0  0  0  0  0
  151.2889  142.5012  156.5863 C   0  0  1  0  0  0  0  0  0  0  0  0
  150.5244  141.6090  155.6597 C   0  0  0  0  0  0  0  0  0  0  0  0
  150.9596  140.5166  155.2981 O   0  0  0  0  0  0  0  0  0  0  0  0
  149.3846  142.1624  155.2076 N   0  0  0  0  0  0  0  0  0  0  0  0
  148.4063  141.6004  154.3474 C   0  0  0  0  0  0  0  0  0  0  0  0
  147.1854  142.2189  153.9423 C   0  0  0  0  0  0  0  0  0  0  0  0
  146.6155  141.2817  153.1289 C   0  0  0  0  0  0  0  0  0  0  0  0
  147.4727  140.2006  153.0738 N   0  0  0  0  0  0  0  0  0  0  0  0
  147.3094  138.9550  152.3411 C   0  0  0  0  0  0  0  0  0  0  0  0
  146.2720  138.0248  152.9822 C   0  0  0  0  0  0  0  0  0  0  0  0
  145.0203  138.4843  153.0516 N   0  0  0  0  0  0  0  0  0  0  0  0
  146.5839  136.9158  153.4135 O   0  0  0  0  0  0  0  0  0  0  0  0
  148.5761  140.3962  153.8291 N   0  0  0  0  0  0  0  0  0  0  0  0
  150.6688  142.9479  157.9060 C   0  0  0  0  0  0  0  0  0  0  0  0
  149.2635  142.5294  158.3331 C   0  0  0  0  0  0  0  0  0  0  0  0
  150.9321  144.3686  158.3724 C   0  0  0  0  0  0  0  0  0  0  0  0
  151.7678  138.4054  160.7585 H   0  0  0  0  0  0  0  0  0  0  0  0
  152.9416  137.8626  159.5527 H   0  0  0  0  0  0  0  0  0  0  0  0
  151.2436  138.0509  159.1098 H   0  0  0  0  0  0  0  0  0  0  0  0
  154.3757  140.0124  159.9961 H   0  0  0  0  0  0  0  0  0  0  0  0
  153.1993  140.5827  161.1839 H   0  0  0  0  0  0  0  0  0  0  0  0
  153.6345  141.5988  159.8100 H   0  0  0  0  0  0  0  0  0  0  0  0
  150.8580  139.9830  157.8612 H   0  0  0  0  0  0  0  0  0  0  0  0
  152.7846  142.3317  158.2216 H   0  0  0  0  0  0  0  0  0  0  0  0
  151.9635  143.1912  156.0830 H   0  0  0  0  0  0  0  0  0  0  0  0
  149.1774  143.0906  155.5464 H   0  0  0  0  0  0  0  0  0  0  0  0
  146.7790  143.1866  154.1946 H   0  0  0  0  0  0  0  0  0  0  0  0
  145.6821  141.2947  152.5857 H   0  0  0  0  0  0  0  0  0  0  0  0
  147.0104  139.1725  151.3146 H   0  0  0  0  0  0  0  0  0  0  0  0
  148.2788  138.4567  152.2957 H   0  0  0  0  0  0  0  0  0  0  0  0
  144.2943  137.9141  153.4604 H   0  0  0  0  0  0  0  0  0  0  0  0
  144.8033  139.4021  152.6905 H   0  0  0  0  0  0  0  0  0  0  0  0
  148.5219  143.2017  157.9010 H   0  0  0  0  0  0  0  0  0  0  0  0
  149.1720  142.5683  159.4190 H   0  0  0  0  0  0  0  0  0  0  0  0
  149.0233  141.5160  158.0124 H   0  0  0  0  0  0  0  0  0  0  0  0
  150.2150  145.0553  157.9221 H   0  0  0  0  0  0  0  0  0  0  0  0
  151.9355  144.6892  158.0903 H   0  0  0  0  0  0  0  0  0  0  0  0
  150.8461  144.4347  159.4575 H   0  0  0  0  0  0  0  0  0  0  0  0
  1  2  1  0  0  0  0
  1 22  1  0  0  0  0
  1 23  1  0  0  0  0
  1 24  1  0  0  0  0
  2  3  1  0  0  0  0
  2  4  2  0  0  0  0
  3 25  1  0  0  0  0
  3 26  1  0  0  0  0
  3 27  1  0  0  0  0
  4  5  1  0  0  0  0
  4 28  1  0  0  0  0
  5 19  1  0  0  0  0
  5  6  1  0  0  0  0
  5 29  1  0  0  0  0
  6  7  1  0  0  0  0
  6 19  1  0  0  0  0
  6 30  1  0  0  0  0
  7  8  2  0  0  0  0
  7  9  1  0  0  0  0
  9 10  1  0  0  0  0
  9 31  1  0  0  0  0
 10 18  2  0  0  0  0
 10 11  1  0  0  0  0
 11 12  2  0  0  0  0
 11 32  1  0  0  0  0
 12 13  1  0  0  0  0
 12 33  1  0  0  0  0
 13 14  1  0  0  0  0
 13 18  1  0  0  0  0
 14 15  1  0  0  0  0
 14 34  1  0  0  0  0
 14 35  1  0  0  0  0
 15 16  1  0  0  0  0
 15 17  2  0  0  0  0
 16 36  1  0  0  0  0
 16 37  1  0  0  0  0
 19 20  1  0  0  0  0
 19 21  1  0  0  0  0
 20 38  1  0  0  0  0
 20 39  1  0  0  0  0
 20 40  1  0  0  0  0
 21 41  1  0  0  0  0
 21 42  1  0  0  0  0
 21 43  1  0  0  0  0
M  END
> <s_m_source_file>
AV-unprocessed.smi

> <i_m_source_file_index>
901

> <i_lp_mmshare_version>
43012

> <i_f3d_flags>
0

> <s_epik_input>
W0NIM11DKFtDSDNdKT1bQ0hdW0NAQEhdKEMxKFtDSDNdKVtDSDNdKVtDQEhdMUMoPU8pW05IXWMyW2NIXVtjSF1uKG4yKVtDSDJdQyg9TylbTkgyXQ==

> <s_epik_cmdline>
J2VwaWtfcHl0aG9uJywgJy1waCcsICc3LjAnLCAnLXRuJywgJzgnLCAnLW1hJywgJzIwMCcsICctbWV0YWxfYmluZGluZycsICctaW1hZScsICc8aW5maWxlLm1hZT4nLCAnLW9tYWUnLCAnPG91dGZpbGUubWFlPic=

> <r_lp_tautomer_probability>
1

> <r_epik_Ionization_Penalty>
1.01454e-05

> <r_epik_Ionization_Penalty_Charging>
0

> <r_epik_Ionization_Penalty_Neutral>
1.01454e-05

> <r_epik_State_Penalty>
-0

> <r_epik_Charging_Adjusted_Penalty>
0

> <i_epik_Tot_Q>
0

> <i_epik_Tot_abs_Q>
0

> <r_epik_Metal_State_Penalty>
-0

> <b_epik_Metal_Only>
0

> <s_lp_Force_Field>
OPLS_2005

> <r_lp_Energy>
23.331

> <b_lp_Chiralities_Consistent>
1

> <s_lp_Variant>
AV-unprocessed.smi:901-2

> <Gold.Version>
5.8.1

> <Gold.Id.Protein>
6NUR|6NUR_protein|mol2

> <Gold.PLP.Fitness>
45.4143

> <Gold.PLP.PLP>
-35.1584

> <Gold.PLP.part.hbond>
-2.9088

> <Gold.PLP.part.metal>
0.0000

> <Gold.PLP.part.buried>
-4.4019

> <Gold.PLP.part.nonpolar>
-29.2369

> <Gold.PLP.part.repulsive>
0.4622

> <Gold.PLP.ligand.clash>
0.0000

> <Gold.PLP.ligand.torsion>
0.4050

> <Gold.PLP.Chemscore.Hbond>
2.9280

> <Gold.PLP.Chemscore.CHOScore>
0.6878

> <Gold.PLP.Chemscore.Metal>
0.0000

> <Gold.Chemscore.Hbonds>
donor molecule, donor type, donor heavy atom, donor atom, acceptor molecule, acceptor atom, score
      L1  H     9    31       P1  8028  1.00
      L1  H    16    37       P1 10175  0.91
      P1  H  7989  7998       L1     8  0.96
      L1  C    12    33       P1 10175  0.45

> <Gold.PLP.Chemscore.Internal.Correction>
0.2185

> <Gold.Rescore>
     Score         DG    S(hbond)    S(metal)    S(lipo)     H(rot)  DE(clash)    DE(int)     intcor
     15.50     -18.07       2.26        0.00      89.73       2.13       0.73       1.84       ----

> <Gold.Chemscore.Fitness>
15.4957

> <Gold.Chemscore.DG>
-18.0687

> <Gold.Chemscore.ZeroCoef>
-5.4800

> <Gold.Chemscore.Hbond>
2.2591

> <Gold.Chemscore.Metal>
0.0000

> <Gold.Chemscore.Lipo>
89.7314

> <Gold.Chemscore.Internal_Hbond>
0.0000

> <Gold.Chemscore.DEClash>
0.7316

> <Gold.Chemscore.DEInternal>
1.8415

> <Gold.Chemscore.Rot>
2.1309

> <Gold.Chemscore.Internal.Correction>
   9.000000E+99

> <Gold.Chemscore.Hbonds>
donor molecule, donor type, donor heavy atom, donor atom, acceptor molecule, acceptor atom, score
      L1  H     9    31       P1  8028  1.00
      L1  H    16    37       P1 10175  0.85
      P1  H  7989  7998       L1     8  0.36

> <Gold.Chemscore.Hbond.Weighted>
-7.5453

> <Gold.Chemscore.Metal.Weighted>
-0.0000

> <Gold.Chemscore.Lipo.Weighted>
-10.4986

> <Gold.Chemscore.Internal_Hbond.Weighted>
0.0000

> <Gold.Chemscore.DEClash.Weighted>
0.7316

> <Gold.Chemscore.DEInternal.Weighted>
1.8415

> <Gold.Chemscore.Rot.Weighted>
5.4552

> <Gold.Chemscore.Internal.Correction.Weighted>
   9.000000E+99

> <Gold.Protein.RotatedTorsions>
[ 6907 6896 6895 6894 ] final  -94.48 input  -60.11 | X-H torsion
[ 7974 7965 7964 7962 ] final  112.46 input  175.53 | X-H torsion
[ 8008 7997 7996 7995 ] final  105.12 input   59.86 | X-H torsion
[ 10167 10162 10161 10158 ] final   67.08 input  -65.29 | X-H torsion
[ 10718 10713 10712 10709 ] final    4.35 input   66.30 | X-H torsion
[ 10763 10752 10751 10750 ] final  130.05 input  -60.55 | X-H torsion
[ 11005 11000 10999 10996 ] final  -40.24 input  -57.11 | X-H torsion

> <Gold.Protein.ActiveResidues>
 VAL166  LYS551  ARG553  GLY616  TRP617  ASP618  TYR619  PRO620  LYS621  CYS622 
 ASP623  PHE694  ASN695  SER759  ASP760  ASP761  ALA762  ILE779  LEU786  VAL792 
 PHE793  MET794  SER795  GLU796  ALA797  LYS798  CYS799  TRP800  GLU811  SER814 

> <Gold.Protein.RotatedAtoms>
  150.6943  134.1805  159.4246 H   0  0  0  0  0  0  0  0  0  0  0  0  # atno 6907 bound_to 6896
  151.9780  135.0041  160.0565 H   0  0  0  0  0  0  0  0  0  0  0  0  # atno 6908 bound_to 6896
  152.1781  133.4654  159.4981 H   0  0  0  0  0  0  0  0  0  0  0  0  # atno 6909 bound_to 6896
  145.2293  139.2827  143.4177 H   0  0  0  0  0  0  0  0  0  0  0  0  # atno 7974 bound_to 7965
  156.1632  140.3136  155.8843 H   0  0  0  0  0  0  0  0  0  0  0  0  # atno 8008 bound_to 7997
  155.3740  140.0483  157.3062 H   0  0  0  0  0  0  0  0  0  0  0  0  # atno 8009 bound_to 7997
  154.5167  140.2184  155.9064 H   0  0  0  0  0  0  0  0  0  0  0  0  # atno 8010 bound_to 7997
  140.0934  144.4968  150.7084 H   0  0  0  0  0  0  0  0  0  0  0  0  # atno 10167 bound_to 10162
  156.8914  130.5689  149.5650 H   0  0  0  0  0  0  0  0  0  0  0  0  # atno 10718 bound_to 10713
  153.7518  135.3209  155.3322 H   0  0  0  0  0  0  0  0  0  0  0  0  # atno 10763 bound_to 10752
  154.8260  135.4569  154.0925 H   0  0  0  0  0  0  0  0  0  0  0  0  # atno 10764 bound_to 10752
  153.2129  135.6938  153.8174 H   0  0  0  0  0  0  0  0  0  0  0  0  # atno 10765 bound_to 10752
  141.0160  133.6885  156.2294 H   0  0  0  0  0  0  0  0  0  0  0  0  # atno 11005 bound_to 11000
  146.3357  140.2623  142.8602 LP  0  0  0  0  0  0  0  0  0  0  0  0  # atno 17320 bound_to 7965
  144.9692  140.8352  143.5466 LP  0  0  0  0  0  0  0  0  0  0  0  0  # atno 17321 bound_to 7965
  140.7016  143.2439  151.4846 LP  0  0  0  0  0  0  0  0  0  0  0  0  # atno 17342 bound_to 10162
  139.5712  144.1925  152.1838 LP  0  0  0  0  0  0  0  0  0  0  0  0  # atno 17343 bound_to 10162
  156.0627  130.5677  150.9226 LP  0  0  0  0  0  0  0  0  0  0  0  0  # atno 17370 bound_to 10713
  157.6081  131.0938  150.8843 LP  0  0  0  0  0  0  0  0  0  0  0  0  # atno 17371 bound_to 10713
  140.6654  134.4924  157.5585 LP  0  0  0  0  0  0  0  0  0  0  0  0  # atno 17394 bound_to 11000
  139.9117  134.8330  156.1505 LP  0  0  0  0  0  0  0  0  0  0  0  0  # atno 17395 bound_to 11000

$$$$
