#       Name:                AV-unprocessed.smi:781
#       Creating user name   scv26
#       Creation time:       Fri Mar 27 01:13:48 2020


#       File generated by GOLD software.
#

@<TRIPOS>MOLECULE
AV-unprocessed.smi:781
    45    47     1
SMALL
NO_CHARGES


@<TRIPOS>ATOM
      1 ****        -6.1775   3.0507  -0.3015 C.3            1 S1                 0.0000
      2 ****        -4.7268   2.7124  -0.3479 C.2            1 S1                 0.0000
      3 ****        -3.9934   1.6890   0.1837 C.2            1 S1                 0.0000
      4 ****        -2.6732   1.9829  -0.2495 C.2            1 S1                 0.0000
      5 ****        -1.5877   1.1406   0.1016 N.am           1 S1                 0.0000
      6 ****        -0.2986   1.2745  -0.2533 C.2            1 S1                 0.0000
      7 ****         0.1525   2.1703  -0.9674 O.2            1 S1                 0.0000
      8 ****         0.4528   0.2942   0.2668 N.am           1 S1                 0.0000
      9 ****         1.8929   0.1417   0.0567 C.3            1 S1                 0.0000
     10 ****         2.2529  -0.4503  -1.3312 C.3            1 S1                 0.0000
     11 ****         1.4345  -1.7254  -1.6263 C.3            1 S1                 0.0000
     12 ****         2.0340  -2.7434  -0.6397 C.3            1 S1                 0.0000
     13 ****         3.1408  -1.9317   0.0661 C.3            1 S1                 0.0000
     14 ****         3.6324  -1.0481  -1.0745 C.3            1 S1                 0.0000
     15 ****         2.5611  -0.8687   1.0314 C.3            1 S1                 0.0000
     16 ****         1.6973  -1.4053   2.1952 C.3            1 S1                 0.0000
     17 ****         2.4607  -2.2627   3.0172 O.3            1 S1                 0.0000
     18 ****        -2.6062   3.0862  -0.9788 N.2            1 S1                 0.0000
     19 ****        -3.9219   3.5601  -1.0444 O.3            1 S1                 0.0000
     20 ****        -6.7770   2.1640  -0.0955 H              1 S1                 0.0000
     21 ****        -6.5103   3.4689  -1.2516 H              1 S1                 0.0000
     22 ****        -6.3775   3.7835   0.4801 H              1 S1                 0.0000
     23 ****        -4.3476   0.8645   0.7844 H              1 S1                 0.0000
     24 ****        -1.8181   0.3505   0.6854 H              1 S1                 0.0000
     25 ****         0.0004  -0.4016   0.8411 H              1 S1                 0.0000
     26 ****         2.3732   1.1147   0.1783 H              1 S1                 0.0000
     27 ****         2.2170   0.2823  -2.1382 H              1 S1                 0.0000
     28 ****         0.3597  -1.5981  -1.4995 H              1 S1                 0.0000
     29 ****         1.6000  -2.0534  -2.6534 H              1 S1                 0.0000
     30 ****         1.2933  -3.1520   0.0459 H              1 S1                 0.0000
     31 ****         2.4663  -3.5837  -1.1843 H              1 S1                 0.0000
     32 ****         3.9134  -2.5534   0.5193 H              1 S1                 0.0000
     33 ****         4.0264  -1.6120  -1.9222 H              1 S1                 0.0000
     34 ****         4.3737  -0.3088  -0.7653 H              1 S1                 0.0000
     35 ****         3.4088  -0.3547   1.4891 H              1 S1                 0.0000
     36 ****         1.3425  -0.5769   2.8090 H              1 S1                 0.0000
     37 ****         0.8144  -1.9380   1.8441 H              1 S1                 0.0000
     38 ****         1.9158  -2.5610   3.7293 H              1 S1                 0.0000
     39 ****        -0.4574   2.8737  -1.3323 LP             1 S1                 0.0000
     40 ****         1.1288   2.1944  -1.1825 LP             1 S1                 0.0000
     41 ****         3.2491  -1.7668   3.3811 LP             1 S1                 0.0000
     42 ****         2.7774  -3.0471   2.4838 LP             1 S1                 0.0000
     43 ****        -1.7920   3.4928  -1.3931 LP             1 S1                 0.0000
     44 ****        -3.9703   4.4750  -0.6438 LP             1 S1                 0.0000
     45 ****        -4.2187   3.5978  -1.9986 LP             1 S1                 0.0000
@<TRIPOS>BOND
    1    1    2 1     
    2    1   20 1     
    3    1   21 1     
    4    1   22 1     
    5    2   19 1     
    6    2    3 2     
    7    3    4 1     
    8    3   23 1     
    9    4    5 1     
   10    4   18 2     
   11    5    6 am    
   12    5   24 1     
   13    6    7 2     
   14    6    8 am    
   15    8    9 1     
   16    8   25 1     
   17    9   15 1     
   18    9   10 1     
   19    9   26 1     
   20   10   14 1     
   21   10   11 1     
   22   10   27 1     
   23   11   12 1     
   24   11   28 1     
   25   11   29 1     
   26   12   13 1     
   27   12   30 1     
   28   12   31 1     
   29   13   14 1     
   30   13   15 1     
   31   13   32 1     
   32   14   33 1     
   33   14   34 1     
   34   15   16 1     
   35   15   35 1     
   36   16   17 1     
   37   16   36 1     
   38   16   37 1     
   39   17   38 1     
   40   18   19 1     
   41    7   39 1     
   42    7   40 1     
   43   17   41 1     
   44   17   42 1     
   45   18   43 1     
   46   19   44 1     
   47   19   45 1     
@<TRIPOS>SUBSTRUCTURE
      1 S1             1
@<TRIPOS>SET
LONE_PAIRS      STATIC     ATOMS    <user>   **** ""
7 39 40 41 42 43 44 45
DONOR_HYDROGENS      STATIC     ATOMS    <user>   **** ""
3 24 25 38
ATOM$BLUE        STATIC     ATOMS    COLORGROUP SYSTEM
7 39 40 41 42 43 44 45
ATOM$RED        STATIC     ATOMS    COLORGROUP SYSTEM
3 24 25 38
