AV-unprocessed.smi:3069|AV-procd|sdf|11710|dock5
  -GOLD-   2272017113D 1   1.00000     0.00000
 Structure written by MMmdl.
 39 40  0  0  0  0  0  0  0  0  1 V2000
  154.2492  139.2238  154.2339 N   0  0  0  0  0  0  0  0  0  0  0  0
  153.2046  138.7709  154.4410 C   0  0  0  0  0  0  0  0  0  0  0  0
  151.8879  138.2030  154.7011 C   0  0  0  0  0  0  0  0  0  0  0  0
  151.8179  136.8570  154.8191 N   0  0  0  0  0  0  0  0  0  0  0  0
  150.6070  136.3225  155.0856 C   0  0  0  0  0  0  0  0  0  0  0  0
  149.4616  137.1278  155.2379 C   0  0  0  0  0  0  0  0  0  0  0  0
  149.5213  138.4715  155.1226 N   0  0  0  0  0  0  0  0  0  0  0  0
  150.7320  139.0195  154.8527 C   0  0  0  0  0  0  0  0  0  0  0  0
  150.8055  140.4183  154.7372 N   0  0  0  0  0  0  0  0  0  0  0  0
  150.2873  141.2313  155.8324 C   0  0  0  0  0  0  0  0  0  0  0  0
  151.1158  141.0639  157.1152 C   0  0  0  0  0  0  0  0  0  0  0  0
  150.6652  142.0234  158.0612 O   0  0  0  0  0  0  0  0  0  0  0  0
  151.5947  143.0541  158.3715 C   0  0  0  0  0  0  0  0  0  0  0  0
  152.8788  142.3528  158.8540 C   0  0  0  0  0  0  0  0  0  0  0  0
  152.8258  141.8061  160.2906 C   0  0  0  0  0  0  0  0  0  0  0  0
  153.2670  142.8396  161.3399 C   0  0  0  0  0  0  0  0  0  0  0  0
  152.2736  143.9882  161.5682 C   0  0  0  0  0  0  0  0  0  0  0  0
  151.9200  144.7938  160.3055 C   0  0  0  0  0  0  0  0  0  0  0  0
  150.9534  144.0454  159.3728 C   0  0  0  0  0  0  0  0  0  0  0  0
  150.5522  135.2480  155.1791 H   0  0  0  0  0  0  0  0  0  0  0  0
  148.4961  136.6939  155.4521 H   0  0  0  0  0  0  0  0  0  0  0  0
  151.6534  140.7723  154.3176 H   0  0  0  0  0  0  0  0  0  0  0  0
  150.3083  142.2748  155.5178 H   0  0  0  0  0  0  0  0  0  0  0  0
  149.2410  140.9874  156.0191 H   0  0  0  0  0  0  0  0  0  0  0  0
  150.9849  140.0609  157.5225 H   0  0  0  0  0  0  0  0  0  0  0  0
  152.1758  141.1818  156.8912 H   0  0  0  0  0  0  0  0  0  0  0  0
  151.8493  143.5862  157.4532 H   0  0  0  0  0  0  0  0  0  0  0  0
  153.0930  141.5302  158.1706 H   0  0  0  0  0  0  0  0  0  0  0  0
  153.7278  143.0302  158.7537 H   0  0  0  0  0  0  0  0  0  0  0  0
  151.8371  141.4082  160.5219 H   0  0  0  0  0  0  0  0  0  0  0  0
  153.5096  140.9590  160.3544 H   0  0  0  0  0  0  0  0  0  0  0  0
  153.4194  142.3270  162.2902 H   0  0  0  0  0  0  0  0  0  0  0  0
  154.2410  143.2470  161.0662 H   0  0  0  0  0  0  0  0  0  0  0  0
  151.3630  143.6006  162.0266 H   0  0  0  0  0  0  0  0  0  0  0  0
  152.7059  144.6671  162.3038 H   0  0  0  0  0  0  0  0  0  0  0  0
  151.4255  145.7098  160.6307 H   0  0  0  0  0  0  0  0  0  0  0  0
  152.8161  145.1143  159.7731 H   0  0  0  0  0  0  0  0  0  0  0  0
  150.3848  144.7825  158.8055 H   0  0  0  0  0  0  0  0  0  0  0  0
  150.2149  143.5241  159.9823 H   0  0  0  0  0  0  0  0  0  0  0  0
  1  2  3  0  0  0  0
  2  3  1  0  0  0  0
  3  8  1  0  0  0  0
  3  4  2  0  0  0  0
  4  5  1  0  0  0  0
  5  6  2  0  0  0  0
  5 20  1  0  0  0  0
  6  7  1  0  0  0  0
  6 21  1  0  0  0  0
  7  8  2  0  0  0  0
  8  9  1  0  0  0  0
  9 10  1  0  0  0  0
  9 22  1  0  0  0  0
 10 11  1  0  0  0  0
 10 23  1  0  0  0  0
 10 24  1  0  0  0  0
 11 12  1  0  0  0  0
 11 25  1  0  0  0  0
 11 26  1  0  0  0  0
 12 13  1  0  0  0  0
 13 19  1  0  0  0  0
 13 14  1  0  0  0  0
 13 27  1  0  0  0  0
 14 15  1  0  0  0  0
 14 28  1  0  0  0  0
 14 29  1  0  0  0  0
 15 16  1  0  0  0  0
 15 30  1  0  0  0  0
 15 31  1  0  0  0  0
 16 17  1  0  0  0  0
 16 32  1  0  0  0  0
 16 33  1  0  0  0  0
 17 18  1  0  0  0  0
 17 34  1  0  0  0  0
 17 35  1  0  0  0  0
 18 19  1  0  0  0  0
 18 36  1  0  0  0  0
 18 37  1  0  0  0  0
 19 38  1  0  0  0  0
 19 39  1  0  0  0  0
M  END
> <s_m_source_file>
AV-unprocessed.smi

> <i_m_source_file_index>
3069

> <i_lp_mmshare_version>
43012

> <i_f3d_flags>
0

> <s_epik_input>
TiNDYzFuW2NIXVtjSF1uYzFbTkhdW0NIMl1bQ0gyXU9bQ0hdMltDSDJdW0NIMl1bQ0gyXVtDSDJdW0NIMl1bQ0gyXTI=

> <s_epik_cmdline>
J2VwaWtfcHl0aG9uJywgJy1waCcsICc3LjAnLCAnLXRuJywgJzgnLCAnLW1hJywgJzIwMCcsICctbWV0YWxfYmluZGluZycsICctaW1hZScsICc8aW5maWxlLm1hZT4nLCAnLW9tYWUnLCAnPG91dGZpbGUubWFlPic=

> <r_lp_tautomer_probability>
1

> <r_epik_Ionization_Penalty>
5.57718e-05

> <r_epik_Ionization_Penalty_Charging>
0

> <r_epik_Ionization_Penalty_Neutral>
5.57718e-05

> <r_epik_State_Penalty>
-0

> <r_epik_Charging_Adjusted_Penalty>
0

> <i_epik_Tot_Q>
0

> <i_epik_Tot_abs_Q>
0

> <r_epik_Metal_State_Penalty>
-0

> <b_epik_Metal_Only>
0

> <s_lp_Force_Field>
OPLS_2005

> <r_lp_Energy>
28.0763

> <b_lp_Chiralities_Consistent>
1

> <s_lp_Variant>
AV-unprocessed.smi:3069-1

> <Gold.Version>
5.8.1

> <Gold.Id.Protein>
6NUR|6NUR_protein|mol2

> <Gold.PLP.Fitness>
49.5656

> <Gold.PLP.PLP>
-44.3662

> <Gold.PLP.part.hbond>
-2.7116

> <Gold.PLP.part.metal>
0.0000

> <Gold.PLP.part.buried>
-6.0399

> <Gold.PLP.part.nonpolar>
-34.8466

> <Gold.PLP.part.repulsive>
0.3156

> <Gold.PLP.ligand.clash>
0.0000

> <Gold.PLP.ligand.torsion>
0.4282

> <Gold.PLP.Chemscore.Hbond>
2.0000

> <Gold.PLP.Chemscore.CHOScore>
0.0000

> <Gold.PLP.Chemscore.Metal>
0.0000

> <Gold.Chemscore.Hbonds>
donor molecule, donor type, donor heavy atom, donor atom, acceptor molecule, acceptor atom, score
      P1  H  7997  8009       L1     1  1.00
      P1  H 10752 10765       L1     4  1.00

> <Gold.PLP.Chemscore.Internal.Correction>
0.0559

> <Gold.Rescore>
     Score         DG    S(hbond)    S(metal)    S(lipo)     H(rot)  DE(clash)    DE(int)     intcor
     18.31     -18.76       1.80        0.00     106.67       2.04       0.02       0.43       ----

> <Gold.Chemscore.Fitness>
18.3085

> <Gold.Chemscore.DG>
-18.7627

> <Gold.Chemscore.ZeroCoef>
-5.4800

> <Gold.Chemscore.Hbond>
1.8007

> <Gold.Chemscore.Metal>
0.0000

> <Gold.Chemscore.Lipo>
106.6686

> <Gold.Chemscore.Internal_Hbond>
0.0000

> <Gold.Chemscore.DEClash>
0.0221

> <Gold.Chemscore.DEInternal>
0.4322

> <Gold.Chemscore.Rot>
2.0359

> <Gold.Chemscore.Internal.Correction>
   9.000000E+99

> <Gold.Chemscore.Hbonds>
donor molecule, donor type, donor heavy atom, donor atom, acceptor molecule, acceptor atom, score
      P1  H  7997  8009       L1     1  0.91
      P1  H 10752 10765       L1     4  0.67

> <Gold.Chemscore.Hbond.Weighted>
-6.0144

> <Gold.Chemscore.Metal.Weighted>
-0.0000

> <Gold.Chemscore.Lipo.Weighted>
-12.4802

> <Gold.Chemscore.Internal_Hbond.Weighted>
0.0000

> <Gold.Chemscore.DEClash.Weighted>
0.0221

> <Gold.Chemscore.DEInternal.Weighted>
0.4322

> <Gold.Chemscore.Rot.Weighted>
5.2119

> <Gold.Chemscore.Internal.Correction.Weighted>
   9.000000E+99

> <Gold.Protein.RotatedTorsions>
[ 6907 6896 6895 6894 ] final -148.72 input  -60.11 | X-H torsion
[ 7974 7965 7964 7962 ] final   28.68 input  175.53 | X-H torsion
[ 8008 7997 7996 7995 ] final -101.58 input   59.86 | X-H torsion
[ 10167 10162 10161 10158 ] final  -91.76 input  -65.29 | X-H torsion
[ 10718 10713 10712 10709 ] final  -68.01 input   66.30 | X-H torsion
[ 10763 10752 10751 10750 ] final -172.87 input  -60.55 | X-H torsion
[ 11005 11000 10999 10996 ] final   27.25 input  -57.11 | X-H torsion

> <Gold.Protein.ActiveResidues>
 VAL166  LYS551  ARG553  GLY616  TRP617  ASP618  TYR619  PRO620  LYS621  CYS622 
 ASP623  PHE694  ASN695  SER759  ASP760  ASP761  ALA762  ILE779  LEU786  VAL792 
 PHE793  MET794  SER795  GLU796  ALA797  LYS798  CYS799  TRP800  GLU811  SER814 

> <Gold.Protein.RotatedAtoms>
  151.1738  133.4767  159.2593 H   0  0  0  0  0  0  0  0  0  0  0  0  # atno 6907 bound_to 6896
  151.1329  135.0139  159.8600 H   0  0  0  0  0  0  0  0  0  0  0  0  # atno 6908 bound_to 6896
  152.5460  134.1639  159.8622 H   0  0  0  0  0  0  0  0  0  0  0  0  # atno 6909 bound_to 6896
  146.1715  139.7023  142.8964 H   0  0  0  0  0  0  0  0  0  0  0  0  # atno 7974 bound_to 7965
  154.8445  140.0433  157.1563 H   0  0  0  0  0  0  0  0  0  0  0  0  # atno 8008 bound_to 7997
  154.9010  140.3000  155.5297 H   0  0  0  0  0  0  0  0  0  0  0  0  # atno 8009 bound_to 7997
  156.2994  140.2376  156.4038 H   0  0  0  0  0  0  0  0  0  0  0  0  # atno 8010 bound_to 7997
  140.3416  143.2939  151.9828 H   0  0  0  0  0  0  0  0  0  0  0  0  # atno 10167 bound_to 10162
  156.0528  130.4287  150.1937 H   0  0  0  0  0  0  0  0  0  0  0  0  # atno 10718 bound_to 10713
  154.6144  135.2868  155.0396 H   0  0  0  0  0  0  0  0  0  0  0  0  # atno 10763 bound_to 10752
  154.1614  135.6487  153.4991 H   0  0  0  0  0  0  0  0  0  0  0  0  # atno 10764 bound_to 10752
  153.0208  135.5379  154.6910 H   0  0  0  0  0  0  0  0  0  0  0  0  # atno 10765 bound_to 10752
  140.3283  134.2466  155.7706 H   0  0  0  0  0  0  0  0  0  0  0  0  # atno 11005 bound_to 11000
  145.4328  141.0416  143.2901 LP  0  0  0  0  0  0  0  0  0  0  0  0  # atno 17320 bound_to 7965
  144.8170  139.5859  143.7004 LP  0  0  0  0  0  0  0  0  0  0  0  0  # atno 17321 bound_to 7965
  139.4839  144.6152  151.7360 LP  0  0  0  0  0  0  0  0  0  0  0  0  # atno 17342 bound_to 10162
  140.5303  144.0740  150.6051 LP  0  0  0  0  0  0  0  0  0  0  0  0  # atno 17343 bound_to 10162
  157.0018  130.9924  151.3389 LP  0  0  0  0  0  0  0  0  0  0  0  0  # atno 17370 bound_to 10713
  157.5470  130.8157  149.8097 LP  0  0  0  0  0  0  0  0  0  0  0  0  # atno 17371 bound_to 10713
  141.2070  133.7819  157.0146 LP  0  0  0  0  0  0  0  0  0  0  0  0  # atno 17394 bound_to 11000
  140.0882  134.9608  157.1734 LP  0  0  0  0  0  0  0  0  0  0  0  0  # atno 17395 bound_to 11000

$$$$
