AV-unprocessed.smi:2194|AV-procd|sdf|8902|dock5
  -GOLD-   2272012113D 1   1.00000     0.00000
 Structure written by MMmdl.
 45 47  0  0  0  0  0  0  0  0  1 V2000
  152.0894  144.9686  159.0862 C   0  0  0  0  0  0  0  0  0  0  0  0
  152.0687  143.4617  158.9324 C   0  0  0  0  0  0  0  0  0  0  0  0
  151.3163  142.8572  157.9057 C   0  0  0  0  0  0  0  0  0  0  0  0
  151.3036  141.4554  157.7717 C   0  0  0  0  0  0  0  0  0  0  0  0
  152.0394  140.6378  158.6538 C   0  0  0  0  0  0  0  0  0  0  0  0
  151.9712  139.2767  158.4489 O   0  0  0  0  0  0  0  0  0  0  0  0
  150.8140  138.7466  157.8139 C   0  0  0  0  0  0  0  0  0  0  0  0
  150.6277  137.2723  158.2084 C   0  0  2  0  0  0  0  0  0  0  0  0
  151.7245  136.5199  157.7280 O   0  0  0  0  0  0  0  0  0  0  0  0
  149.2767  136.6777  157.7604 C   0  0  0  0  0  0  0  0  0  0  0  0
  149.0569  135.3391  158.2873 N   0  0  0  0  0  0  0  0  0  0  0  0
  149.0395  134.1975  157.5696 C   0  0  0  0  0  0  0  0  0  0  0  0
  148.8111  133.0829  158.2651 N   0  0  0  0  0  0  0  0  0  0  0  0
  148.6724  133.5726  159.5589 C   0  0  0  0  0  0  0  0  0  0  0  0
  148.8161  134.9192  159.5952 C   0  0  0  0  0  0  0  0  0  0  0  0
  148.7119  135.6962  160.8338 C   0  0  0  0  0  0  0  0  0  0  0  0
  148.8390  136.9214  160.8387 O   0  0  0  0  0  0  0  0  0  0  0  0
  148.4637  134.9388  161.9475 N   0  0  0  0  0  0  0  0  0  0  0  0
  148.3582  135.6872  163.2147 C   0  0  0  0  0  0  0  0  0  0  0  0
  148.3110  133.5613  161.9601 C   0  0  0  0  0  0  0  0  0  0  0  0
  148.0894  132.9516  163.0090 O   0  0  0  0  0  0  0  0  0  0  0  0
  148.4118  132.8826  160.7689 N   0  0  0  0  0  0  0  0  0  0  0  0
  148.2556  131.4270  160.6864 C   0  0  0  0  0  0  0  0  0  0  0  0
  152.7934  141.2528  159.6850 C   0  0  0  0  0  0  0  0  0  0  0  0
  152.8056  142.6547  159.8210 C   0  0  0  0  0  0  0  0  0  0  0  0
  151.5231  145.4578  158.2931 H   0  0  0  0  0  0  0  0  0  0  0  0
  153.1146  145.3381  159.0496 H   0  0  0  0  0  0  0  0  0  0  0  0
  151.6540  145.2562  160.0435 H   0  0  0  0  0  0  0  0  0  0  0  0
  150.7470  143.4639  157.2171 H   0  0  0  0  0  0  0  0  0  0  0  0
  150.7240  141.0024  156.9806 H   0  0  0  0  0  0  0  0  0  0  0  0
  149.9241  139.3230  158.0735 H   0  0  0  0  0  0  0  0  0  0  0  0
  150.9437  138.8053  156.7319 H   0  0  0  0  0  0  0  0  0  0  0  0
  150.6825  137.2144  159.2962 H   0  0  0  0  0  0  0  0  0  0  0  0
  151.5651  135.6062  157.9088 H   0  0  0  0  0  0  0  0  0  0  0  0
  148.4634  137.3150  158.1102 H   0  0  0  0  0  0  0  0  0  0  0  0
  149.1905  136.6577  156.6751 H   0  0  0  0  0  0  0  0  0  0  0  0
  149.1961  134.1843  156.5008 H   0  0  0  0  0  0  0  0  0  0  0  0
  148.1461  135.0806  164.0952 H   0  0  0  0  0  0  0  0  0  0  0  0
  147.5601  136.4291  163.1537 H   0  0  0  0  0  0  0  0  0  0  0  0
  149.2902  136.2160  163.4214 H   0  0  0  0  0  0  0  0  0  0  0  0
  148.0798  130.9362  161.6439 H   0  0  0  0  0  0  0  0  0  0  0  0
  149.1524  130.9807  160.2553 H   0  0  0  0  0  0  0  0  0  0  0  0
  147.4151  131.1810  160.0367 H   0  0  0  0  0  0  0  0  0  0  0  0
  153.3712  140.6713  160.3869 H   0  0  0  0  0  0  0  0  0  0  0  0
  153.3841  143.1098  160.6114 H   0  0  0  0  0  0  0  0  0  0  0  0
  1  2  1  0  0  0  0
  1 26  1  0  0  0  0
  1 27  1  0  0  0  0
  1 28  1  0  0  0  0
  2 25  1  0  0  0  0
  2  3  2  0  0  0  0
  3  4  1  0  0  0  0
  3 29  1  0  0  0  0
  4  5  2  0  0  0  0
  4 30  1  0  0  0  0
  5  6  1  0  0  0  0
  5 24  1  0  0  0  0
  6  7  1  0  0  0  0
  7  8  1  0  0  0  0
  7 31  1  0  0  0  0
  7 32  1  0  0  0  0
  8  9  1  0  0  0  0
  8 10  1  0  0  0  0
  8 33  1  0  0  0  0
  9 34  1  0  0  0  0
 10 11  1  0  0  0  0
 10 35  1  0  0  0  0
 10 36  1  0  0  0  0
 11 15  1  0  0  0  0
 11 12  1  0  0  0  0
 12 13  2  0  0  0  0
 12 37  1  0  0  0  0
 13 14  1  0  0  0  0
 14 22  1  0  0  0  0
 14 15  2  0  0  0  0
 15 16  1  0  0  0  0
 16 17  2  0  0  0  0
 16 18  1  0  0  0  0
 18 19  1  0  0  0  0
 18 20  1  0  0  0  0
 19 38  1  0  0  0  0
 19 39  1  0  0  0  0
 19 40  1  0  0  0  0
 20 21  2  0  0  0  0
 20 22  1  0  0  0  0
 22 23  1  0  0  0  0
 23 41  1  0  0  0  0
 23 42  1  0  0  0  0
 23 43  1  0  0  0  0
 24 25  2  0  0  0  0
 24 44  1  0  0  0  0
 25 45  1  0  0  0  0
M  END
> <s_m_source_file>
AV-unprocessed.smi

> <i_m_source_file_index>
2194

> <i_lp_mmshare_version>
43012

> <i_f3d_flags>
0

> <s_epik_input>
W0NIM11jMVtjSF1bY0hdYyhbY0hdW2NIXTEpT1tDSDJdW0NASF0oW09IXSlbQ0gyXW4oW2NIXW4yKWMoYzIzKWMoPU8pbihbQ0gzXSljKD1PKW4zW0NIM10=

> <s_epik_cmdline>
J2VwaWtfcHl0aG9uJywgJy1waCcsICc3LjAnLCAnLXRuJywgJzgnLCAnLW1hJywgJzIwMCcsICctbWV0YWxfYmluZGluZycsICctaW1hZScsICc8aW5maWxlLm1hZT4nLCAnLW9tYWUnLCAnPG91dGZpbGUubWFlPic=

> <r_lp_tautomer_probability>
1

> <r_epik_Ionization_Penalty>
1.06124e-06

> <r_epik_Ionization_Penalty_Charging>
3.25921e-09

> <r_epik_Ionization_Penalty_Neutral>
1.05798e-06

> <r_epik_State_Penalty>
-0

> <r_epik_Charging_Adjusted_Penalty>
3.25921e-09

> <i_epik_Tot_Q>
0

> <i_epik_Tot_abs_Q>
0

> <r_epik_Metal_State_Penalty>
-0

> <b_epik_Metal_Only>
0

> <s_lp_Force_Field>
OPLS_2005

> <r_lp_Energy>
41.6396

> <b_lp_Chiralities_Consistent>
1

> <s_lp_Variant>
AV-unprocessed.smi:2194-1

> <Gold.Version>
5.8.1

> <Gold.Id.Protein>
6NUR|6NUR_protein|mol2

> <Gold.PLP.Fitness>
49.7798

> <Gold.PLP.PLP>
-46.9622

> <Gold.PLP.part.hbond>
-3.8987

> <Gold.PLP.part.metal>
0.0000

> <Gold.PLP.part.buried>
-3.8312

> <Gold.PLP.part.nonpolar>
-40.6274

> <Gold.PLP.part.repulsive>
0.0250

> <Gold.PLP.ligand.clash>
0.0000

> <Gold.PLP.ligand.torsion>
0.6174

> <Gold.PLP.Chemscore.Hbond>
1.3440

> <Gold.PLP.Chemscore.CHOScore>
0.0000

> <Gold.PLP.Chemscore.Metal>
0.0000

> <Gold.Chemscore.Hbonds>
donor molecule, donor type, donor heavy atom, donor atom, acceptor molecule, acceptor atom, score
      P1  H  6931  6943       L1    17  0.91

> <Gold.PLP.Chemscore.Internal.Correction>
0.0204

> <Gold.Rescore>
     Score         DG    S(hbond)    S(metal)    S(lipo)     H(rot)  DE(clash)    DE(int)     intcor
     14.60     -15.31       1.49        0.00     100.22       2.69       0.16       0.56       ----

> <Gold.Chemscore.Fitness>
14.5956

> <Gold.Chemscore.DG>
-15.3109

> <Gold.Chemscore.ZeroCoef>
-5.4800

> <Gold.Chemscore.Hbond>
1.4935

> <Gold.Chemscore.Metal>
0.0000

> <Gold.Chemscore.Lipo>
100.2162

> <Gold.Chemscore.Internal_Hbond>
0.0000

> <Gold.Chemscore.DEClash>
0.1555

> <Gold.Chemscore.DEInternal>
0.5598

> <Gold.Chemscore.Rot>
2.6885

> <Gold.Chemscore.Internal.Correction>
   9.000000E+99

> <Gold.Chemscore.Hbonds>
donor molecule, donor type, donor heavy atom, donor atom, acceptor molecule, acceptor atom, score
      P1  H  6931  6943       L1    17  0.90

> <Gold.Chemscore.Hbond.Weighted>
-4.9881

> <Gold.Chemscore.Metal.Weighted>
-0.0000

> <Gold.Chemscore.Lipo.Weighted>
-11.7253

> <Gold.Chemscore.Internal_Hbond.Weighted>
0.0000

> <Gold.Chemscore.DEClash.Weighted>
0.1555

> <Gold.Chemscore.DEInternal.Weighted>
0.5598

> <Gold.Chemscore.Rot.Weighted>
6.8825

> <Gold.Chemscore.Internal.Correction.Weighted>
   9.000000E+99

> <Gold.Protein.RotatedTorsions>
[ 6907 6896 6895 6894 ] final   16.36 input  -60.11 | X-H torsion
[ 7974 7965 7964 7962 ] final -142.15 input  175.53 | X-H torsion
[ 8008 7997 7996 7995 ] final -127.32 input   59.86 | X-H torsion
[ 10167 10162 10161 10158 ] final  117.97 input  -65.29 | X-H torsion
[ 10718 10713 10712 10709 ] final -122.87 input   66.30 | X-H torsion
[ 10763 10752 10751 10750 ] final  163.50 input  -60.55 | X-H torsion
[ 11005 11000 10999 10996 ] final  -53.12 input  -57.11 | X-H torsion

> <Gold.Protein.ActiveResidues>
 VAL166  LYS551  ARG553  GLY616  TRP617  ASP618  TYR619  PRO620  LYS621  CYS622 
 ASP623  PHE694  ASN695  SER759  ASP760  ASP761  ALA762  ILE779  LEU786  VAL792 
 PHE793  MET794  SER795  GLU796  ALA797  LYS798  CYS799  TRP800  GLU811  SER814 

> <Gold.Protein.RotatedAtoms>
  151.8326  135.0616  160.0438 H   0  0  0  0  0  0  0  0  0  0  0  0  # atno 6907 bound_to 6896
  152.2869  133.5519  159.5541 H   0  0  0  0  0  0  0  0  0  0  0  0  # atno 6908 bound_to 6896
  150.7213  134.0400  159.3805 H   0  0  0  0  0  0  0  0  0  0  0  0  # atno 6909 bound_to 6896
  144.8465  140.5993  143.5418 H   0  0  0  0  0  0  0  0  0  0  0  0  # atno 7974 bound_to 7965
  155.2443  140.0430  157.2979 H   0  0  0  0  0  0  0  0  0  0  0  0  # atno 8008 bound_to 7997
  154.5809  140.2400  155.8025 H   0  0  0  0  0  0  0  0  0  0  0  0  # atno 8009 bound_to 7997
  156.2192  140.2975  155.9919 H   0  0  0  0  0  0  0  0  0  0  0  0  # atno 8010 bound_to 7997
  139.6143  144.7088  151.2775 H   0  0  0  0  0  0  0  0  0  0  0  0  # atno 10167 bound_to 10162
  156.1454  130.6496  150.9834 H   0  0  0  0  0  0  0  0  0  0  0  0  # atno 10718 bound_to 10713
  154.2947  135.2760  155.2639 H   0  0  0  0  0  0  0  0  0  0  0  0  # atno 10763 bound_to 10752
  154.5102  135.5784  153.6602 H   0  0  0  0  0  0  0  0  0  0  0  0  # atno 10764 bound_to 10752
  152.9909  135.6179  154.3114 H   0  0  0  0  0  0  0  0  0  0  0  0  # atno 10765 bound_to 10752
  141.0960  133.6624  156.4125 H   0  0  0  0  0  0  0  0  0  0  0  0  # atno 11005 bound_to 11000
  145.4586  139.1515  143.3878 LP  0  0  0  0  0  0  0  0  0  0  0  0  # atno 17320 bound_to 7965
  146.2748  140.4715  142.8800 LP  0  0  0  0  0  0  0  0  0  0  0  0  # atno 17321 bound_to 7965
  140.7340  143.6778  150.8026 LP  0  0  0  0  0  0  0  0  0  0  0  0  # atno 17342 bound_to 10162
  140.0378  143.5377  152.2731 LP  0  0  0  0  0  0  0  0  0  0  0  0  # atno 17343 bound_to 10162
  157.6612  131.0880  150.7834 LP  0  0  0  0  0  0  0  0  0  0  0  0  # atno 17370 bound_to 10713
  156.7906  130.4889  149.5385 LP  0  0  0  0  0  0  0  0  0  0  0  0  # atno 17371 bound_to 10713
  140.5140  134.6368  157.5294 LP  0  0  0  0  0  0  0  0  0  0  0  0  # atno 17394 bound_to 11000
  139.9796  134.7158  155.9884 LP  0  0  0  0  0  0  0  0  0  0  0  0  # atno 17395 bound_to 11000

$$$$
