AV-unprocessed.smi:2605|AV-procd|sdf|10195|dock4
  -GOLD-   2272014203D 1   1.00000     0.00000
 Structure written by MMmdl.
 26 27  0  0  0  0  0  0  0  0  2 V2000
  152.5537  142.8129  159.7710 C   0  0  0  0  0  0  0  0  0  0  0  0
  151.7051  141.9775  159.0170 C   0  0  0  0  0  0  0  0  0  0  0  0
  151.2486  142.4329  157.7620 C   0  0  0  0  0  0  0  0  0  0  0  0
  150.3211  141.5698  156.9210 C   0  0  2  0  0  0  0  0  0  0  0  0
  150.8635  140.1387  156.6988 C   0  0  0  0  0  0  0  0  0  0  0  0
  149.9121  139.3607  155.9103 N   0  0  0  0  0  0  0  0  0  0  0  0
  149.7564  139.9899  154.6024 C   0  0  0  0  0  0  0  0  0  0  0  0
  149.1778  141.4074  154.7708 C   0  0  0  0  0  0  0  0  0  0  0  0
  150.0704  142.2229  155.6189 N   0  3  0  0  0  0  0  0  0  0  0  0
  151.6588  143.7116  157.3246 C   0  0  0  0  0  0  0  0  0  0  0  0
  152.5096  144.4678  158.1558 C   0  0  0  0  0  0  0  0  0  0  0  0
  152.9512  144.0341  159.3553 N   0  0  0  0  0  0  0  0  0  0  0  0
  152.9210  142.4915  160.7343 H   0  0  0  0  0  0  0  0  0  0  0  0
  151.4168  141.0091  159.3993 H   0  0  0  0  0  0  0  0  0  0  0  0
  149.3649  141.4978  157.4431 H   0  0  0  0  0  0  0  0  0  0  0  0
  151.8297  140.1499  156.1932 H   0  0  0  0  0  0  0  0  0  0  0  0
  151.0100  139.6413  157.6581 H   0  0  0  0  0  0  0  0  0  0  0  0
  150.2605  138.4190  155.7931 H   0  0  0  0  0  0  0  0  0  0  0  0
  150.7166  140.0196  154.0852 H   0  0  0  0  0  0  0  0  0  0  0  0
  149.0850  139.3819  153.9957 H   0  0  0  0  0  0  0  0  0  0  0  0
  149.0693  141.8913  153.8002 H   0  0  0  0  0  0  0  0  0  0  0  0
  148.1846  141.3659  155.2205 H   0  0  0  0  0  0  0  0  0  0  0  0
  149.6545  143.1300  155.7735 H   0  0  0  0  0  0  0  0  0  0  0  0
  151.3319  144.1136  156.3771 H   0  0  0  0  0  0  0  0  0  0  0  0
  152.8410  145.4491  157.8497 H   0  0  0  0  0  0  0  0  0  0  0  0
  150.9539  142.3401  155.1439 H   0  0  0  0  0  0  0  0  0  0  0  0
  1 12  1  0  0  0  0
  1  2  2  0  0  0  0
  1 13  1  0  0  0  0
  2  3  1  0  0  0  0
  2 14  1  0  0  0  0
  3  4  1  0  0  0  0
  3 10  2  0  0  0  0
  4  9  1  0  0  0  0
  4  5  1  0  0  0  0
  4 15  1  0  0  0  0
  5  6  1  0  0  0  0
  5 16  1  0  0  0  0
  5 17  1  0  0  0  0
  6  7  1  0  0  0  0
  6 18  1  0  0  0  0
  7  8  1  0  0  0  0
  7 19  1  0  0  0  0
  7 20  1  0  0  0  0
  8  9  1  0  0  0  0
  8 21  1  0  0  0  0
  8 22  1  0  0  0  0
  9 23  1  0  0  0  0
  9 26  1  0  0  0  0
 10 11  1  0  0  0  0
 10 24  1  0  0  0  0
 11 12  2  0  0  0  0
 11 25  1  0  0  0  0
M  CHG  1   9   1
M  END
> <s_m_source_file>
AV-unprocessed.smi

> <i_m_source_file_index>
2605

> <i_lp_mmshare_version>
43012

> <i_f3d_flags>
0

> <s_epik_input>
W2NIXTFbY0hdbltjSF1bY0hdYzFbQ0BASF0yW0NIMl1bTkhdW0NIMl1bQ0gyXVtOSF0y

> <s_epik_cmdline>
J2VwaWtfcHl0aG9uJywgJy1waCcsICc3LjAnLCAnLXRuJywgJzgnLCAnLW1hJywgJzIwMCcsICctbWV0YWxfYmluZGluZycsICctaW1hZScsICc8aW5maWxlLm1hZT4nLCAnLW9tYWUnLCAnPG91dGZpbGUubWFlPic=

> <r_epik_Ionization_Penalty>
0.0246915

> <r_epik_Ionization_Penalty_Charging>
0.015072

> <r_epik_Ionization_Penalty_Neutral>
0.00961942

> <r_epik_State_Penalty>
0.518662

> <r_epik_Charging_Adjusted_Penalty>
0.533734

> <i_epik_Tot_Q>
1

> <i_epik_Tot_abs_Q>
1

> <r_epik_Metal_State_Penalty>
0.520249

> <b_epik_Metal_Only>
0

> <s_lp_Force_Field>
OPLS_2005

> <r_lp_Energy>
7.08803

> <b_lp_Chiralities_Consistent>
1

> <s_lp_Variant>
AV-unprocessed.smi:2605-3

> <Gold.Version>
5.8.1

> <Gold.Id.Protein>
6NUR|6NUR_protein|mol2

> <Gold.PLP.Fitness>
33.7820

> <Gold.PLP.PLP>
-27.9390

> <Gold.PLP.part.hbond>
-1.0000

> <Gold.PLP.part.metal>
0.0000

> <Gold.PLP.part.buried>
-2.0193

> <Gold.PLP.part.nonpolar>
-24.8674

> <Gold.PLP.part.repulsive>
0.1731

> <Gold.PLP.ligand.clash>
0.0000

> <Gold.PLP.ligand.torsion>
0.0844

> <Gold.PLP.Chemscore.Hbond>
2.0000

> <Gold.PLP.Chemscore.CHOScore>
0.0000

> <Gold.PLP.Chemscore.Metal>
0.0000

> <Gold.Chemscore.Hbonds>
donor molecule, donor type, donor heavy atom, donor atom, acceptor molecule, acceptor atom, score
      L1  H     9    23       P1  8028  2.00

> <Gold.PLP.Chemscore.Internal.Correction>
0.0118

> <Gold.Rescore>
     Score         DG    S(hbond)    S(metal)    S(lipo)     H(rot)  DE(clash)    DE(int)     intcor
     15.59     -15.75       1.00        0.00      81.16       1.00       0.05       0.11       ----

> <Gold.Chemscore.Fitness>
15.5895

> <Gold.Chemscore.DG>
-15.7503

> <Gold.Chemscore.ZeroCoef>
-5.4800

> <Gold.Chemscore.Hbond>
0.9983

> <Gold.Chemscore.Metal>
0.0000

> <Gold.Chemscore.Lipo>
81.1614

> <Gold.Chemscore.Internal_Hbond>
0.0000

> <Gold.Chemscore.DEClash>
0.0536

> <Gold.Chemscore.DEInternal>
0.1071

> <Gold.Chemscore.Rot>
1.0000

> <Gold.Chemscore.Internal.Correction>
   9.000000E+99

> <Gold.Chemscore.Hbonds>
donor molecule, donor type, donor heavy atom, donor atom, acceptor molecule, acceptor atom, score
      L1  H     9    23       P1  8028  1.00

> <Gold.Chemscore.Hbond.Weighted>
-3.3344

> <Gold.Chemscore.Metal.Weighted>
-0.0000

> <Gold.Chemscore.Lipo.Weighted>
-9.4959

> <Gold.Chemscore.Internal_Hbond.Weighted>
0.0000

> <Gold.Chemscore.DEClash.Weighted>
0.0536

> <Gold.Chemscore.DEInternal.Weighted>
0.1071

> <Gold.Chemscore.Rot.Weighted>
2.5600

> <Gold.Chemscore.Internal.Correction.Weighted>
   9.000000E+99

> <Gold.Protein.RotatedTorsions>
[ 6907 6896 6895 6894 ] final   -0.84 input  -60.11 | X-H torsion
[ 7974 7965 7964 7962 ] final  -89.81 input  175.53 | X-H torsion
[ 8008 7997 7996 7995 ] final -177.97 input   59.86 | X-H torsion
[ 10167 10162 10161 10158 ] final   51.82 input  -65.29 | X-H torsion
[ 10718 10713 10712 10709 ] final -151.05 input   66.30 | X-H torsion
[ 10763 10752 10751 10750 ] final  103.61 input  -60.55 | X-H torsion
[ 11005 11000 10999 10996 ] final   24.62 input  -57.11 | X-H torsion

> <Gold.Protein.ActiveResidues>
 VAL166  LYS551  ARG553  GLY616  TRP617  ASP618  TYR619  PRO620  LYS621  CYS622 
 ASP623  PHE694  ASN695  SER759  ASP760  ASP761  ALA762  ILE779  LEU786  VAL792 
 PHE793  MET794  SER795  GLU796  ALA797  LYS798  CYS799  TRP800  GLU811  SER814 

> <Gold.Protein.RotatedAtoms>
  151.5557  135.1066  159.9960 H   0  0  0  0  0  0  0  0  0  0  0  0  # atno 6907 bound_to 6896
  152.4470  133.7552  159.6727 H   0  0  0  0  0  0  0  0  0  0  0  0  # atno 6908 bound_to 6896
  150.8388  133.7901  159.3093 H   0  0  0  0  0  0  0  0  0  0  0  0  # atno 6909 bound_to 6896
  145.4348  140.9557  143.2108 H   0  0  0  0  0  0  0  0  0  0  0  0  # atno 7974 bound_to 7965
  156.0133  140.1245  157.0432 H   0  0  0  0  0  0  0  0  0  0  0  0  # atno 8008 bound_to 7997
  154.4284  140.1083  156.5930 H   0  0  0  0  0  0  0  0  0  0  0  0  # atno 8009 bound_to 7997
  155.6049  140.3471  155.4607 H   0  0  0  0  0  0  0  0  0  0  0  0  # atno 8010 bound_to 7997
  140.2579  144.3406  150.6327 H   0  0  0  0  0  0  0  0  0  0  0  0  # atno 10167 bound_to 10162
  156.4542  130.8182  151.2413 H   0  0  0  0  0  0  0  0  0  0  0  0  # atno 10718 bound_to 10713
  153.3550  135.3971  155.1675 H   0  0  0  0  0  0  0  0  0  0  0  0  # atno 10763 bound_to 10752
  154.8669  135.3665  154.5173 H   0  0  0  0  0  0  0  0  0  0  0  0  # atno 10764 bound_to 10752
  153.5628  135.7080  153.5600 H   0  0  0  0  0  0  0  0  0  0  0  0  # atno 10765 bound_to 10752
  140.3567  134.2170  155.7675 H   0  0  0  0  0  0  0  0  0  0  0  0  # atno 11005 bound_to 11000
  144.8159  139.5877  143.7008 LP  0  0  0  0  0  0  0  0  0  0  0  0  # atno 17320 bound_to 7965
  146.2588  139.6362  142.9376 LP  0  0  0  0  0  0  0  0  0  0  0  0  # atno 17321 bound_to 7965
  140.5989  143.2167  151.7110 LP  0  0  0  0  0  0  0  0  0  0  0  0  # atno 17342 bound_to 10162
  139.5026  144.3823  152.0363 LP  0  0  0  0  0  0  0  0  0  0  0  0  # atno 17343 bound_to 10162
  157.7501  131.0128  150.3399 LP  0  0  0  0  0  0  0  0  0  0  0  0  # atno 17370 bound_to 10713
  156.3784  130.3876  149.7120 LP  0  0  0  0  0  0  0  0  0  0  0  0  # atno 17371 bound_to 10713
  141.1996  133.8007  157.0527 LP  0  0  0  0  0  0  0  0  0  0  0  0  # atno 17394 bound_to 11000
  140.0659  134.9729  157.1385 LP  0  0  0  0  0  0  0  0  0  0  0  0  # atno 17395 bound_to 11000

$$$$
