AV-unprocessed.smi:662|AV-procd|sdf|3246|dock8
  -GOLD-   22720 0193D 1   1.00000     0.00000
 Structure written by MMmdl.
 33 34  0  0  0  0  0  0  0  0  1 V2000
  151.0108  140.5656  156.8336 O   0  0  0  0  0  0  0  0  0  0  0  0
  150.5018  141.6778  156.6896 C   0  0  0  0  0  0  0  0  0  0  0  0
  149.7048  141.9978  155.6577 N   0  0  0  0  0  0  0  0  0  0  0  0
  149.3092  141.0970  154.5780 C   0  0  0  0  0  0  0  0  0  0  0  0
  148.3016  140.0266  155.0404 C   0  0  0  0  0  0  0  0  0  0  0  0
  147.4613  139.4622  153.9401 C   0  0  0  0  0  0  0  0  0  0  0  0
  146.6465  138.4170  154.1030 N   0  0  0  0  0  0  0  0  0  0  0  0
  145.9261  138.1053  152.9448 C   0  0  0  0  0  0  0  0  0  0  0  0
  144.9565  136.9589  152.9556 C   0  0  0  0  0  0  0  0  0  0  0  0
  145.0358  136.2599  154.0881 F   0  0  0  0  0  0  0  0  0  0  0  0
  143.7009  137.3895  152.8373 F   0  0  0  0  0  0  0  0  0  0  0  0
  145.1948  136.1190  151.9487 F   0  0  0  0  0  0  0  0  0  0  0  0
  146.2153  138.9392  151.8920 C   0  0  0  0  0  0  0  0  0  0  0  0
  147.3962  140.1460  152.3194 S   0  0  0  0  0  0  0  0  0  0  0  0
  150.7552  142.7830  157.7208 C   0  0  1  0  0  0  0  0  0  0  0  0
  151.7276  142.3506  158.8314 C   0  0  0  0  0  0  0  0  0  0  0  0
  152.7589  143.4712  158.8794 C   0  0  0  0  0  0  0  0  0  0  0  0
  152.0726  144.6335  158.1655 C   0  0  0  0  0  0  0  0  0  0  0  0
  151.3293  143.9832  157.0996 N   0  0  0  0  0  0  0  0  0  0  0  0
  149.3344  142.9365  155.6235 H   0  0  0  0  0  0  0  0  0  0  0  0
  148.8598  141.6990  153.7883 H   0  0  0  0  0  0  0  0  0  0  0  0
  150.1840  140.6200  154.1327 H   0  0  0  0  0  0  0  0  0  0  0  0
  148.8327  139.2056  155.5230 H   0  0  0  0  0  0  0  0  0  0  0  0
  147.6409  140.4491  155.7981 H   0  0  0  0  0  0  0  0  0  0  0  0
  145.8028  138.9182  150.8944 H   0  0  0  0  0  0  0  0  0  0  0  0
  149.8097  143.0703  158.1848 H   0  0  0  0  0  0  0  0  0  0  0  0
  151.1981  142.2741  159.7818 H   0  0  0  0  0  0  0  0  0  0  0  0
  152.2069  141.3876  158.6466 H   0  0  0  0  0  0  0  0  0  0  0  0
  153.0602  143.7231  159.8965 H   0  0  0  0  0  0  0  0  0  0  0  0
  153.6534  143.1754  158.3292 H   0  0  0  0  0  0  0  0  0  0  0  0
  151.3788  145.1438  158.8354 H   0  0  0  0  0  0  0  0  0  0  0  0
  152.7784  145.3671  157.7754 H   0  0  0  0  0  0  0  0  0  0  0  0
  150.6302  144.5947  156.7031 H   0  0  0  0  0  0  0  0  0  0  0  0
  1  2  2  0  0  0  0
  2  3  1  0  0  0  0
  2 15  1  0  0  0  0
  3  4  1  0  0  0  0
  3 20  1  0  0  0  0
  4  5  1  0  0  0  0
  4 21  1  0  0  0  0
  4 22  1  0  0  0  0
  5  6  1  0  0  0  0
  5 23  1  0  0  0  0
  5 24  1  0  0  0  0
  6 14  1  0  0  0  0
  6  7  2  0  0  0  0
  7  8  1  0  0  0  0
  8  9  1  0  0  0  0
  8 13  2  0  0  0  0
  9 10  1  0  0  0  0
  9 11  1  0  0  0  0
  9 12  1  0  0  0  0
 13 14  1  0  0  0  0
 13 25  1  0  0  0  0
 15 19  1  0  0  0  0
 15 16  1  0  0  0  0
 15 26  1  0  0  0  0
 16 17  1  0  0  0  0
 16 27  1  0  0  0  0
 16 28  1  0  0  0  0
 17 18  1  0  0  0  0
 17 29  1  0  0  0  0
 17 30  1  0  0  0  0
 18 19  1  0  0  0  0
 18 31  1  0  0  0  0
 18 32  1  0  0  0  0
 19 33  1  0  0  0  0
M  END
> <s_m_source_file>
AV-unprocessed.smi

> <i_m_source_file_index>
662

> <i_lp_mmshare_version>
43012

> <i_f3d_flags>
0

> <s_epik_input>
W05IXTFbQ0gyXVtDSDJdW0NIMl1bQ0BIXTFDKD1PKVtOSF1bQ0gyXVtDSDJdYzJuYyhDKEYpKEYpRilbY0hdczI=

> <s_epik_cmdline>
J2VwaWtfcHl0aG9uJywgJy1waCcsICc3LjAnLCAnLXRuJywgJzgnLCAnLW1hJywgJzIwMCcsICctbWV0YWxfYmluZGluZycsICctaW1hZScsICc8aW5maWxlLm1hZT4nLCAnLW9tYWUnLCAnPG91dGZpbGUubWFlPic=

> <r_epik_Ionization_Penalty>
1.64272

> <r_epik_Ionization_Penalty_Charging>
0

> <r_epik_Ionization_Penalty_Neutral>
1.64272

> <r_epik_State_Penalty>
1.74416

> <r_epik_Charging_Adjusted_Penalty>
1.74416

> <i_epik_Tot_Q>
0

> <i_epik_Tot_abs_Q>
0

> <r_epik_Metal_State_Penalty>
1.74416

> <b_epik_Metal_Only>
0

> <s_lp_Force_Field>
OPLS_2005

> <r_lp_Energy>
17.8155

> <b_lp_Chiralities_Consistent>
1

> <s_lp_Variant>
AV-unprocessed.smi:662-4

> <Gold.Version>
5.8.1

> <Gold.Id.Protein>
6NUR|6NUR_protein|mol2

> <Gold.PLP.Fitness>
41.9815

> <Gold.PLP.PLP>
-33.9147

> <Gold.PLP.part.hbond>
-2.0000

> <Gold.PLP.part.metal>
0.0000

> <Gold.PLP.part.buried>
3.0461

> <Gold.PLP.part.nonpolar>
-35.3416

> <Gold.PLP.part.repulsive>
0.3264

> <Gold.PLP.ligand.clash>
0.0000

> <Gold.PLP.ligand.torsion>
0.4655

> <Gold.PLP.Chemscore.Hbond>
1.9920

> <Gold.PLP.Chemscore.CHOScore>
1.0000

> <Gold.PLP.Chemscore.Metal>
0.0000

> <Gold.Chemscore.Hbonds>
donor molecule, donor type, donor heavy atom, donor atom, acceptor molecule, acceptor atom, score
      L1  H     3    20       P1  8028  1.00
      L1  H    19    33       P1  8028  0.96
      L1  C    13    25       P1 10171  1.00

> <Gold.PLP.Chemscore.Internal.Correction>
0.0217

> <Gold.Rescore>
     Score         DG    S(hbond)    S(metal)    S(lipo)     H(rot)  DE(clash)    DE(int)     intcor
     15.41     -17.14       1.90        0.00      87.23       1.91       1.37       0.36       ----

> <Gold.Chemscore.Fitness>
15.4119

> <Gold.Chemscore.DG>
-17.1424

> <Gold.Chemscore.ZeroCoef>
-5.4800

> <Gold.Chemscore.Hbond>
1.8995

> <Gold.Chemscore.Metal>
0.0000

> <Gold.Chemscore.Lipo>
87.2342

> <Gold.Chemscore.Internal_Hbond>
0.0000

> <Gold.Chemscore.DEClash>
1.3661

> <Gold.Chemscore.DEInternal>
0.3643

> <Gold.Chemscore.Rot>
1.9095

> <Gold.Chemscore.Internal.Correction>
   9.000000E+99

> <Gold.Chemscore.Hbonds>
donor molecule, donor type, donor heavy atom, donor atom, acceptor molecule, acceptor atom, score
      L1  H     3    20       P1  8028  1.00
      L1  H    19    33       P1  8028  0.84

> <Gold.Chemscore.Hbond.Weighted>
-6.3443

> <Gold.Chemscore.Metal.Weighted>
-0.0000

> <Gold.Chemscore.Lipo.Weighted>
-10.2064

> <Gold.Chemscore.Internal_Hbond.Weighted>
0.0000

> <Gold.Chemscore.DEClash.Weighted>
1.3661

> <Gold.Chemscore.DEInternal.Weighted>
0.3643

> <Gold.Chemscore.Rot.Weighted>
4.8883

> <Gold.Chemscore.Internal.Correction.Weighted>
   9.000000E+99

> <Gold.Protein.RotatedTorsions>
[ 6907 6896 6895 6894 ] final  -38.02 input  -60.11 | X-H torsion
[ 7974 7965 7964 7962 ] final -105.35 input  175.53 | X-H torsion
[ 8008 7997 7996 7995 ] final  -78.75 input   59.86 | X-H torsion
[ 10167 10162 10161 10158 ] final   43.98 input  -65.29 | X-H torsion
[ 10718 10713 10712 10709 ] final   66.58 input   66.30 | X-H torsion
[ 10763 10752 10751 10750 ] final  -83.53 input  -60.55 | X-H torsion
[ 11005 11000 10999 10996 ] final   75.38 input  -57.11 | X-H torsion

> <Gold.Protein.ActiveResidues>
 VAL166  LYS551  ARG553  GLY616  TRP617  ASP618  TYR619  PRO620  LYS621  CYS622 
 ASP623  PHE694  ASN695  SER759  ASP760  ASP761  ALA762  ILE779  LEU786  VAL792 
 PHE793  MET794  SER795  GLU796  ALA797  LYS798  CYS799  TRP800  GLU811  SER814 

> <Gold.Protein.RotatedAtoms>
  151.0075  134.9371  159.7988 H   0  0  0  0  0  0  0  0  0  0  0  0  # atno 6907 bound_to 6896
  152.5294  134.3071  159.9110 H   0  0  0  0  0  0  0  0  0  0  0  0  # atno 6908 bound_to 6896
  151.3077  133.4052  159.2679 H   0  0  0  0  0  0  0  0  0  0  0  0  # atno 6909 bound_to 6896
  145.2316  140.9172  143.3201 H   0  0  0  0  0  0  0  0  0  0  0  0  # atno 7974 bound_to 7965
  154.5719  140.0689  156.8976 H   0  0  0  0  0  0  0  0  0  0  0  0  # atno 8008 bound_to 7997
  155.2620  140.3359  155.4254 H   0  0  0  0  0  0  0  0  0  0  0  0  # atno 8009 bound_to 7997
  156.2124  140.1764  156.7650 H   0  0  0  0  0  0  0  0  0  0  0  0  # atno 8010 bound_to 7997
  140.3389  144.2495  150.6158 H   0  0  0  0  0  0  0  0  0  0  0  0  # atno 10167 bound_to 10162
  157.6178  130.9275  150.0128 H   0  0  0  0  0  0  0  0  0  0  0  0  # atno 10718 bound_to 10713
  154.5888  135.5553  153.7257 H   0  0  0  0  0  0  0  0  0  0  0  0  # atno 10763 bound_to 10752
  153.0109  135.6338  154.1879 H   0  0  0  0  0  0  0  0  0  0  0  0  # atno 10764 bound_to 10752
  154.1820  135.2886  155.3029 H   0  0  0  0  0  0  0  0  0  0  0  0  # atno 10765 bound_to 10752
  139.9346  134.7513  156.1264 H   0  0  0  0  0  0  0  0  0  0  0  0  # atno 11005 bound_to 11000
  144.9671  139.3918  143.6327 LP  0  0  0  0  0  0  0  0  0  0  0  0  # atno 17320 bound_to 7965
  146.3351  139.8752  142.8833 LP  0  0  0  0  0  0  0  0  0  0  0  0  # atno 17321 bound_to 7965
  140.5327  143.2240  151.8212 LP  0  0  0  0  0  0  0  0  0  0  0  0  # atno 17342 bound_to 10162
  139.4844  144.4699  151.9437 LP  0  0  0  0  0  0  0  0  0  0  0  0  # atno 17343 bound_to 10162
  156.1308  130.3643  149.9735 LP  0  0  0  0  0  0  0  0  0  0  0  0  # atno 17370 bound_to 10713
  156.7796  130.9216  151.3646 LP  0  0  0  0  0  0  0  0  0  0  0  0  # atno 17371 bound_to 10713
  141.0953  133.6698  156.2632 LP  0  0  0  0  0  0  0  0  0  0  0  0  # atno 17394 bound_to 11000
  140.6109  134.5459  157.5533 LP  0  0  0  0  0  0  0  0  0  0  0  0  # atno 17395 bound_to 11000

$$$$
