AV-unprocessed.smi:3193|AV-procd|sdf|12202|dock2
  -GOLD-   2272018 33D 1   1.00000     0.00000
 Structure written by MMmdl.
 40 41  0  0  0  0  0  0  0  0  2 V2000
  151.2409  139.1713  156.8921 C   0  0  0  0  0  0  0  0  0  0  0  0
  151.5080  140.2306  155.8030 C   0  0  1  0  0  0  0  0  0  0  0  0
  151.2007  139.6849  154.3922 C   0  0  0  0  0  0  0  0  0  0  0  0
  149.6908  139.5537  154.1309 C   0  0  0  0  0  0  0  0  0  0  0  0
  148.9683  140.8869  154.3710 C   0  0  0  0  0  0  0  0  0  0  0  0
  149.2550  141.4370  155.7770 C   0  0  0  0  0  0  0  0  0  0  0  0
  150.7729  141.5788  156.0318 C   0  0  1  0  0  0  0  0  0  0  0  0
  151.0833  142.1992  157.4091 C   0  0  0  0  0  0  0  0  0  0  0  0
  150.8619  143.6593  157.4114 N   0  3  0  0  0  0  0  0  0  0  0  0
  150.4108  144.1958  158.7099 C   0  0  0  0  0  0  0  0  0  0  0  0
  151.5761  144.8338  159.4781 C   0  0  0  0  0  0  0  0  0  0  0  0
  152.4518  143.8280  160.0440 N   0  0  0  0  0  0  0  0  0  0  0  0
  153.3032  142.9739  159.3554 C   0  0  0  0  0  0  0  0  0  0  0  0
  153.9363  142.2020  160.3034 C   0  0  0  0  0  0  0  0  0  0  0  0
  153.4930  142.5629  161.5736 N   0  0  0  0  0  0  0  0  0  0  0  0
  152.6153  143.5299  161.3403 C   0  0  0  0  0  0  0  0  0  0  0  0
  150.1820  138.9312  156.9831 H   0  0  0  0  0  0  0  0  0  0  0  0
  151.5910  139.5027  157.8694 H   0  0  0  0  0  0  0  0  0  0  0  0
  151.7670  138.2434  156.6668 H   0  0  0  0  0  0  0  0  0  0  0  0
  152.5794  140.4342  155.8332 H   0  0  0  0  0  0  0  0  0  0  0  0
  151.6311  140.3558  153.6472 H   0  0  0  0  0  0  0  0  0  0  0  0
  151.6892  138.7211  154.2439 H   0  0  0  0  0  0  0  0  0  0  0  0
  149.5214  139.2210  153.1064 H   0  0  0  0  0  0  0  0  0  0  0  0
  149.2659  138.7834  154.7750 H   0  0  0  0  0  0  0  0  0  0  0  0
  149.2891  141.6134  153.6233 H   0  0  0  0  0  0  0  0  0  0  0  0
  147.8944  140.7576  154.2335 H   0  0  0  0  0  0  0  0  0  0  0  0
  148.7618  142.4034  155.8841 H   0  0  0  0  0  0  0  0  0  0  0  0
  148.8056  140.7843  156.5259 H   0  0  0  0  0  0  0  0  0  0  0  0
  151.1614  142.2693  155.2807 H   0  0  0  0  0  0  0  0  0  0  0  0
  150.4684  141.7421  158.1853 H   0  0  0  0  0  0  0  0  0  0  0  0
  152.1254  142.0101  157.6707 H   0  0  0  0  0  0  0  0  0  0  0  0
  151.7275  144.1145  157.1592 H   0  0  0  0  0  0  0  0  0  0  0  0
  149.6254  144.9337  158.5407 H   0  0  0  0  0  0  0  0  0  0  0  0
  149.9739  143.3880  159.2988 H   0  0  0  0  0  0  0  0  0  0  0  0
  152.1637  145.4756  158.8198 H   0  0  0  0  0  0  0  0  0  0  0  0
  151.2033  145.4632  160.2873 H   0  0  0  0  0  0  0  0  0  0  0  0
  153.3875  142.9838  158.2787 H   0  0  0  0  0  0  0  0  0  0  0  0
  154.6710  141.4216  160.1704 H   0  0  0  0  0  0  0  0  0  0  0  0
  152.0808  144.0347  162.1319 H   0  0  0  0  0  0  0  0  0  0  0  0
  150.1659  143.8779  156.7125 H   0  0  0  0  0  0  0  0  0  0  0  0
  1  2  1  0  0  0  0
  1 17  1  0  0  0  0
  1 18  1  0  0  0  0
  1 19  1  0  0  0  0
  2  7  1  0  0  0  0
  2  3  1  0  0  0  0
  2 20  1  0  0  0  0
  3  4  1  0  0  0  0
  3 21  1  0  0  0  0
  3 22  1  0  0  0  0
  4  5  1  0  0  0  0
  4 23  1  0  0  0  0
  4 24  1  0  0  0  0
  5  6  1  0  0  0  0
  5 25  1  0  0  0  0
  5 26  1  0  0  0  0
  6  7  1  0  0  0  0
  6 27  1  0  0  0  0
  6 28  1  0  0  0  0
  7  8  1  0  0  0  0
  7 29  1  0  0  0  0
  8  9  1  0  0  0  0
  8 30  1  0  0  0  0
  8 31  1  0  0  0  0
  9 10  1  0  0  0  0
  9 32  1  0  0  0  0
  9 40  1  0  0  0  0
 10 11  1  0  0  0  0
 10 33  1  0  0  0  0
 10 34  1  0  0  0  0
 11 12  1  0  0  0  0
 11 35  1  0  0  0  0
 11 36  1  0  0  0  0
 12 16  1  0  0  0  0
 12 13  1  0  0  0  0
 13 14  2  0  0  0  0
 13 37  1  0  0  0  0
 14 15  1  0  0  0  0
 14 38  1  0  0  0  0
 15 16  2  0  0  0  0
 16 39  1  0  0  0  0
M  CHG  1   9   1
M  END
> <s_m_source_file>
AV-unprocessed.smi

> <i_m_source_file_index>
3193

> <i_lp_mmshare_version>
43012

> <i_f3d_flags>
0

> <s_epik_input>
W0NIM11bQ0BASF0xW0NIMl1bQ0gyXVtDSDJdW0NIMl1bQ0BIXTFbQ0gyXVtOSF1bQ0gyXVtDSDJdbjJbY0hdW2NIXW5bY0hdMg==

> <s_epik_cmdline>
J2VwaWtfcHl0aG9uJywgJy1waCcsICc3LjAnLCAnLXRuJywgJzgnLCAnLW1hJywgJzIwMCcsICctbWV0YWxfYmluZGluZycsICctaW1hZScsICc8aW5maWxlLm1hZT4nLCAnLW9tYWUnLCAnPG91dGZpbGUubWFlPic=

> <r_lp_tautomer_probability>
1

> <r_epik_Ionization_Penalty>
0.0503046

> <r_epik_Ionization_Penalty_Charging>
0.0503046

> <r_epik_Ionization_Penalty_Neutral>
0

> <r_epik_State_Penalty>
0.0981804

> <r_epik_Charging_Adjusted_Penalty>
0.148485

> <i_epik_Tot_Q>
1

> <i_epik_Tot_abs_Q>
1

> <r_epik_Metal_State_Penalty>
0.000105854

> <b_epik_Metal_Only>
0

> <s_lp_Force_Field>
OPLS_2005

> <r_lp_Energy>
20.219

> <b_lp_Chiralities_Consistent>
1

> <s_lp_Variant>
AV-unprocessed.smi:3193-2

> <Gold.Version>
5.8.1

> <Gold.Id.Protein>
6NUR|6NUR_protein|mol2

> <Gold.PLP.Fitness>
48.0427

> <Gold.PLP.PLP>
-43.5685

> <Gold.PLP.part.hbond>
-1.0000

> <Gold.PLP.part.metal>
0.0000

> <Gold.PLP.part.buried>
-5.0569

> <Gold.PLP.part.nonpolar>
-38.9768

> <Gold.PLP.part.repulsive>
0.0810

> <Gold.PLP.ligand.clash>
0.0000

> <Gold.PLP.ligand.torsion>
0.8183

> <Gold.PLP.Chemscore.Hbond>
2.0000

> <Gold.PLP.Chemscore.CHOScore>
0.0000

> <Gold.PLP.Chemscore.Metal>
0.0000

> <Gold.Chemscore.Hbonds>
donor molecule, donor type, donor heavy atom, donor atom, acceptor molecule, acceptor atom, score
      L1  H     9    40       P1  8028  2.00

> <Gold.PLP.Chemscore.Internal.Correction>
0.1108

> <Gold.Rescore>
     Score         DG    S(hbond)    S(metal)    S(lipo)     H(rot)  DE(clash)    DE(int)     intcor
     13.95     -14.85       1.00        0.00      93.01       1.89       0.16       0.74       ----

> <Gold.Chemscore.Fitness>
13.9508

> <Gold.Chemscore.DG>
-14.8514

> <Gold.Chemscore.ZeroCoef>
-5.4800

> <Gold.Chemscore.Hbond>
0.9958

> <Gold.Chemscore.Metal>
0.0000

> <Gold.Chemscore.Lipo>
93.0140

> <Gold.Chemscore.Internal_Hbond>
0.0000

> <Gold.Chemscore.DEClash>
0.1567

> <Gold.Chemscore.DEInternal>
0.7440

> <Gold.Chemscore.Rot>
1.8895

> <Gold.Chemscore.Internal.Correction>
   9.000000E+99

> <Gold.Chemscore.Hbonds>
donor molecule, donor type, donor heavy atom, donor atom, acceptor molecule, acceptor atom, score
      L1  H     9    40       P1  8028  1.00

> <Gold.Chemscore.Hbond.Weighted>
-3.3259

> <Gold.Chemscore.Metal.Weighted>
-0.0000

> <Gold.Chemscore.Lipo.Weighted>
-10.8826

> <Gold.Chemscore.Internal_Hbond.Weighted>
0.0000

> <Gold.Chemscore.DEClash.Weighted>
0.1567

> <Gold.Chemscore.DEInternal.Weighted>
0.7440

> <Gold.Chemscore.Rot.Weighted>
4.8371

> <Gold.Chemscore.Internal.Correction.Weighted>
   9.000000E+99

> <Gold.Protein.RotatedTorsions>
[ 6907 6896 6895 6894 ] final   -1.78 input  -60.11 | X-H torsion
[ 7974 7965 7964 7962 ] final  -20.97 input  175.53 | X-H torsion
[ 8008 7997 7996 7995 ] final  128.52 input   59.86 | X-H torsion
[ 10167 10162 10161 10158 ] final   43.30 input  -65.29 | X-H torsion
[ 10718 10713 10712 10709 ] final  174.29 input   66.30 | X-H torsion
[ 10763 10752 10751 10750 ] final   -0.59 input  -60.55 | X-H torsion
[ 11005 11000 10999 10996 ] final  110.23 input  -57.11 | X-H torsion

> <Gold.Protein.ActiveResidues>
 VAL166  LYS551  ARG553  GLY616  TRP617  ASP618  TYR619  PRO620  LYS621  CYS622 
 ASP623  PHE694  ASN695  SER759  ASP760  ASP761  ALA762  ILE779  LEU786  VAL792 
 PHE793  MET794  SER795  GLU796  ALA797  LYS798  CYS799  TRP800  GLU811  SER814 

> <Gold.Protein.RotatedAtoms>
  151.5405  135.1068  159.9924 H   0  0  0  0  0  0  0  0  0  0  0  0  # atno 6907 bound_to 6896
  152.4538  133.7677  159.6792 H   0  0  0  0  0  0  0  0  0  0  0  0  # atno 6908 bound_to 6896
  150.8474  133.7773  159.3062 H   0  0  0  0  0  0  0  0  0  0  0  0  # atno 6909 bound_to 6896
  146.1759  140.4276  142.8514 H   0  0  0  0  0  0  0  0  0  0  0  0  # atno 7974 bound_to 7965
  156.2917  140.2643  156.2449 H   0  0  0  0  0  0  0  0  0  0  0  0  # atno 8008 bound_to 7997
  154.9940  140.0388  157.2350 H   0  0  0  0  0  0  0  0  0  0  0  0  # atno 8009 bound_to 7997
  154.7661  140.2769  155.6180 H   0  0  0  0  0  0  0  0  0  0  0  0  # atno 8010 bound_to 7997
  140.3457  144.2414  150.6151 H   0  0  0  0  0  0  0  0  0  0  0  0  # atno 10167 bound_to 10162
  156.9518  131.0033  151.2947 H   0  0  0  0  0  0  0  0  0  0  0  0  # atno 10718 bound_to 10713
  153.3339  135.6976  153.6924 H   0  0  0  0  0  0  0  0  0  0  0  0  # atno 10763 bound_to 10752
  153.5716  135.3515  155.2840 H   0  0  0  0  0  0  0  0  0  0  0  0  # atno 10764 bound_to 10752
  154.8623  135.4273  154.2534 H   0  0  0  0  0  0  0  0  0  0  0  0  # atno 10765 bound_to 10752
  139.8877  134.9479  156.6247 H   0  0  0  0  0  0  0  0  0  0  0  0  # atno 11005 bound_to 11000
  144.8235  140.6590  143.6337 LP  0  0  0  0  0  0  0  0  0  0  0  0  # atno 17320 bound_to 7965
  145.4213  139.1563  143.4072 LP  0  0  0  0  0  0  0  0  0  0  0  0  # atno 17321 bound_to 7965
  140.5267  143.2253  151.8304 LP  0  0  0  0  0  0  0  0  0  0  0  0  # atno 17342 bound_to 10162
  139.4833  144.4771  151.9353 LP  0  0  0  0  0  0  0  0  0  0  0  0  # atno 17343 bound_to 10162
  157.5717  130.8315  149.8400 LP  0  0  0  0  0  0  0  0  0  0  0  0  # atno 17370 bound_to 10713
  156.0359  130.3751  150.1561 LP  0  0  0  0  0  0  0  0  0  0  0  0  # atno 17371 bound_to 10713
  140.7712  133.8736  155.8493 LP  0  0  0  0  0  0  0  0  0  0  0  0  # atno 17394 bound_to 11000
  140.9840  134.1368  157.4469 LP  0  0  0  0  0  0  0  0  0  0  0  0  # atno 17395 bound_to 11000

$$$$
