AV-unprocessed.smi:458|AV-procd|sdf|2620|dock1
  -GOLD-   2262023 23D 1   1.00000     0.00000
 Structure written by MMmdl.
 36 38  0  0  0  0  0  0  0  0  1 V2000
  152.1799  137.1273  153.8903 O   0  0  0  0  0  0  0  0  0  0  0  0
  151.5833  137.6730  155.0466 C   0  0  0  0  0  0  0  0  0  0  0  0
  150.4947  138.6564  154.7376 C   0  0  0  0  0  0  0  0  0  0  0  0
  149.4260  138.3109  154.0184 N   0  0  0  0  0  0  0  0  0  0  0  0
  148.6848  139.4753  153.9943 C   0  0  0  0  0  0  0  0  0  0  0  0
  147.4377  139.7573  153.3916 C   0  0  0  0  0  0  0  0  0  0  0  0
  146.8621  141.0393  153.5089 C   0  0  0  0  0  0  0  0  0  0  0  0
  147.5221  142.0548  154.2308 C   0  0  0  0  0  0  0  0  0  0  0  0
  148.7654  141.7947  154.8384 C   0  0  0  0  0  0  0  0  0  0  0  0
  149.3385  140.5145  154.7147 C   0  0  0  0  0  0  0  0  0  0  0  0
  150.5218  139.9430  155.1733 N   0  0  0  0  0  0  0  0  0  0  0  0
  151.5425  140.6162  155.9684 C   0  0  0  0  0  0  0  0  0  0  0  0
  151.2805  140.5232  157.4862 C   0  0  2  0  0  0  0  0  0  0  0  0
  149.9933  139.9908  157.7283 O   0  0  0  0  0  0  0  0  0  0  0  0
  151.4812  141.8699  158.1633 C   0  0  0  0  0  0  0  0  0  0  0  0
  150.6697  142.9679  157.8048 C   0  0  0  0  0  0  0  0  0  0  0  0
  150.8458  144.2158  158.4342 C   0  0  0  0  0  0  0  0  0  0  0  0
  151.8322  144.3720  159.4269 C   0  0  0  0  0  0  0  0  0  0  0  0
  152.0004  145.5716  160.0318 F   0  0  0  0  0  0  0  0  0  0  0  0
  152.6419  143.2794  159.7914 C   0  0  0  0  0  0  0  0  0  0  0  0
  152.4665  142.0315  159.1626 C   0  0  0  0  0  0  0  0  0  0  0  0
  151.4970  136.9021  153.2775 H   0  0  0  0  0  0  0  0  0  0  0  0
  151.1709  136.8548  155.6379 H   0  0  0  0  0  0  0  0  0  0  0  0
  152.3446  138.1482  155.6651 H   0  0  0  0  0  0  0  0  0  0  0  0
  146.9230  138.9854  152.8391 H   0  0  0  0  0  0  0  0  0  0  0  0
  145.9086  141.2441  153.0444 H   0  0  0  0  0  0  0  0  0  0  0  0
  147.0730  143.0333  154.3176 H   0  0  0  0  0  0  0  0  0  0  0  0
  149.2720  142.5705  155.3927 H   0  0  0  0  0  0  0  0  0  0  0  0
  152.5038  140.1591  155.7311 H   0  0  0  0  0  0  0  0  0  0  0  0
  151.6211  141.6590  155.6645 H   0  0  0  0  0  0  0  0  0  0  0  0
  151.9874  139.8183  157.9244 H   0  0  0  0  0  0  0  0  0  0  0  0
  149.3548  140.5482  157.3109 H   0  0  0  0  0  0  0  0  0  0  0  0
  149.9080  142.8576  157.0467 H   0  0  0  0  0  0  0  0  0  0  0  0
  150.2228  145.0532  158.1563 H   0  0  0  0  0  0  0  0  0  0  0  0
  153.3970  143.3976  160.5547 H   0  0  0  0  0  0  0  0  0  0  0  0
  153.0896  141.1976  159.4513 H   0  0  0  0  0  0  0  0  0  0  0  0
  1  2  1  0  0  0  0
  1 22  1  0  0  0  0
  2  3  1  0  0  0  0
  2 23  1  0  0  0  0
  2 24  1  0  0  0  0
  3 11  1  0  0  0  0
  3  4  2  0  0  0  0
  4  5  1  0  0  0  0
  5 10  2  0  0  0  0
  5  6  1  0  0  0  0
  6  7  2  0  0  0  0
  6 25  1  0  0  0  0
  7  8  1  0  0  0  0
  7 26  1  0  0  0  0
  8  9  2  0  0  0  0
  8 27  1  0  0  0  0
  9 10  1  0  0  0  0
  9 28  1  0  0  0  0
 10 11  1  0  0  0  0
 11 12  1  0  0  0  0
 12 13  1  0  0  0  0
 12 29  1  0  0  0  0
 12 30  1  0  0  0  0
 13 14  1  0  0  0  0
 13 15  1  0  0  0  0
 13 31  1  0  0  0  0
 14 32  1  0  0  0  0
 15 21  1  0  0  0  0
 15 16  2  0  0  0  0
 16 17  1  0  0  0  0
 16 33  1  0  0  0  0
 17 18  2  0  0  0  0
 17 34  1  0  0  0  0
 18 19  1  0  0  0  0
 18 20  1  0  0  0  0
 20 21  2  0  0  0  0
 20 35  1  0  0  0  0
 21 36  1  0  0  0  0
M  END
> <s_m_source_file>
AV-unprocessed.smi

> <i_m_source_file_index>
458

> <i_lp_mmshare_version>
43012

> <i_f3d_flags>
0

> <s_epik_input>
W2NIXTFbY0hdW2NIXVtjSF1jKGMxMiluKGMobjIpW0NIMl1bT0hdKVtDSDJdW0NASF0oW09IXSljM1tjSF1bY0hdYyhGKVtjSF1bY0hdMw==

> <s_epik_cmdline>
J2VwaWtfcHl0aG9uJywgJy1waCcsICc3LjAnLCAnLXRuJywgJzgnLCAnLW1hJywgJzIwMCcsICctbWV0YWxfYmluZGluZycsICctaW1hZScsICc8aW5maWxlLm1hZT4nLCAnLW9tYWUnLCAnPG91dGZpbGUubWFlPic=

> <r_epik_Ionization_Penalty>
0.0634724

> <r_epik_Ionization_Penalty_Charging>
0

> <r_epik_Ionization_Penalty_Neutral>
0.0634724

> <r_epik_State_Penalty>
0.0551572

> <r_epik_Charging_Adjusted_Penalty>
0.0551572

> <i_epik_Tot_Q>
0

> <i_epik_Tot_abs_Q>
0

> <r_epik_Metal_State_Penalty>
5.78034e-05

> <b_epik_Metal_Only>
0

> <s_lp_Force_Field>
OPLS_2005

> <r_lp_Energy>
12.4444

> <b_lp_Chiralities_Consistent>
1

> <s_lp_Variant>
AV-unprocessed.smi:458-1

> <Gold.Version>
5.8.1

> <Gold.Id.Protein>
6NUR|6NUR_protein|mol2

> <Gold.PLP.Fitness>
52.2767

> <Gold.PLP.PLP>
-48.7461

> <Gold.PLP.part.hbond>
-2.0000

> <Gold.PLP.part.metal>
0.0000

> <Gold.PLP.part.buried>
-2.4112

> <Gold.PLP.part.nonpolar>
-46.2586

> <Gold.PLP.part.repulsive>
1.0840

> <Gold.PLP.ligand.clash>
0.0000

> <Gold.PLP.ligand.torsion>
1.0582

> <Gold.PLP.Chemscore.Hbond>
1.8560

> <Gold.PLP.Chemscore.CHOScore>
0.0000

> <Gold.PLP.Chemscore.Metal>
0.0000

> <Gold.Chemscore.Hbonds>
donor molecule, donor type, donor heavy atom, donor atom, acceptor molecule, acceptor atom, score
      L1  H     1    22       P1  7949  0.84
      P1  H 10752 10765       L1     1  1.00

> <Gold.PLP.Chemscore.Internal.Correction>
0.0790

> <Gold.Rescore>
     Score         DG    S(hbond)    S(metal)    S(lipo)     H(rot)  DE(clash)    DE(int)     intcor
     14.78     -16.41       1.19        0.00     119.48       2.75       0.56       1.07       ----

> <Gold.Chemscore.Fitness>
14.7837

> <Gold.Chemscore.DG>
-16.4094

> <Gold.Chemscore.ZeroCoef>
-5.4800

> <Gold.Chemscore.Hbond>
1.1947

> <Gold.Chemscore.Metal>
0.0000

> <Gold.Chemscore.Lipo>
119.4797

> <Gold.Chemscore.Internal_Hbond>
0.0000

> <Gold.Chemscore.DEClash>
0.5594

> <Gold.Chemscore.DEInternal>
1.0664

> <Gold.Chemscore.Rot>
2.7500

> <Gold.Chemscore.Internal.Correction>
   9.000000E+99

> <Gold.Chemscore.Hbonds>
donor molecule, donor type, donor heavy atom, donor atom, acceptor molecule, acceptor atom, score
      L1  H     1    22       P1  7949  0.68
      P1  H 10752 10765       L1     1  0.39

> <Gold.Chemscore.Hbond.Weighted>
-3.9902

> <Gold.Chemscore.Metal.Weighted>
-0.0000

> <Gold.Chemscore.Lipo.Weighted>
-13.9791

> <Gold.Chemscore.Internal_Hbond.Weighted>
0.0000

> <Gold.Chemscore.DEClash.Weighted>
0.5594

> <Gold.Chemscore.DEInternal.Weighted>
1.0664

> <Gold.Chemscore.Rot.Weighted>
7.0399

> <Gold.Chemscore.Internal.Correction.Weighted>
   9.000000E+99

> <Gold.Protein.RotatedTorsions>
[ 6907 6896 6895 6894 ] final   86.92 input  -60.11 | X-H torsion
[ 7974 7965 7964 7962 ] final   -0.71 input  175.53 | X-H torsion
[ 8008 7997 7996 7995 ] final  148.21 input   59.86 | X-H torsion
[ 10167 10162 10161 10158 ] final   92.08 input  -65.29 | X-H torsion
[ 10718 10713 10712 10709 ] final   -7.88 input   66.30 | X-H torsion
[ 10763 10752 10751 10750 ] final  150.74 input  -60.55 | X-H torsion
[ 11005 11000 10999 10996 ] final   24.51 input  -57.11 | X-H torsion

> <Gold.Protein.ActiveResidues>
 VAL166  LYS551  ARG553  GLY616  TRP617  ASP618  TYR619  PRO620  LYS621  CYS622 
 ASP623  PHE694  ASN695  SER759  ASP760  ASP761  ALA762  ILE779  LEU786  VAL792 
 PHE793  MET794  SER795  GLU796  ALA797  LYS798  CYS799  TRP800  GLU811  SER814 

> <Gold.Protein.RotatedAtoms>
  152.5402  134.2357  159.8841 H   0  0  0  0  0  0  0  0  0  0  0  0  # atno 6907 bound_to 6896
  151.2326  133.4435  159.2612 H   0  0  0  0  0  0  0  0  0  0  0  0  # atno 6908 bound_to 6896
  151.0701  134.9806  159.8360 H   0  0  0  0  0  0  0  0  0  0  0  0  # atno 6909 bound_to 6896
  146.2424  140.1311  142.8338 H   0  0  0  0  0  0  0  0  0  0  0  0  # atno 7974 bound_to 7965
  156.2799  140.2135  156.5662 H   0  0  0  0  0  0  0  0  0  0  0  0  # atno 8008 bound_to 7997
  154.7173  140.0506  157.0629 H   0  0  0  0  0  0  0  0  0  0  0  0  # atno 8009 bound_to 7997
  155.0526  140.3158  155.4690 H   0  0  0  0  0  0  0  0  0  0  0  0  # atno 8010 bound_to 7997
  139.8311  144.6686  150.9398 H   0  0  0  0  0  0  0  0  0  0  0  0  # atno 10167 bound_to 10162
  156.7107  130.5121  149.5893 H   0  0  0  0  0  0  0  0  0  0  0  0  # atno 10718 bound_to 10713
  154.0924  135.2851  155.3269 H   0  0  0  0  0  0  0  0  0  0  0  0  # atno 10763 bound_to 10752
  154.6611  135.5334  153.8022 H   0  0  0  0  0  0  0  0  0  0  0  0  # atno 10764 bound_to 10752
  153.0408  135.6534  154.1092 H   0  0  0  0  0  0  0  0  0  0  0  0  # atno 10765 bound_to 10752
  140.3580  134.2157  155.7674 H   0  0  0  0  0  0  0  0  0  0  0  0  # atno 11005 bound_to 11000
  145.0326  140.8882  143.5100 LP  0  0  0  0  0  0  0  0  0  0  0  0  # atno 17320 bound_to 7965
  145.1377  139.2591  143.5506 LP  0  0  0  0  0  0  0  0  0  0  0  0  # atno 17321 bound_to 7965
  140.7806  143.4000  151.1165 LP  0  0  0  0  0  0  0  0  0  0  0  0  # atno 17342 bound_to 10162
  139.7653  143.8574  152.3109 LP  0  0  0  0  0  0  0  0  0  0  0  0  # atno 17343 bound_to 10162
  156.1663  130.6407  151.0782 LP  0  0  0  0  0  0  0  0  0  0  0  0  # atno 17370 bound_to 10713
  157.6937  131.0801  150.7032 LP  0  0  0  0  0  0  0  0  0  0  0  0  # atno 17371 bound_to 10713
  141.1993  133.8016  157.0544 LP  0  0  0  0  0  0  0  0  0  0  0  0  # atno 17394 bound_to 11000
  140.0650  134.9734  157.1370 LP  0  0  0  0  0  0  0  0  0  0  0  0  # atno 17395 bound_to 11000

$$$$
