#       Name:                AV-unprocessed.smi:3085
#       Creating user name   scv26
#       Creation time:       Fri Mar 27 17:14:38 2020


#       File generated by GOLD software.
#

@<TRIPOS>MOLECULE
AV-unprocessed.smi:3085
    32    33     1
SMALL
NO_CHARGES


@<TRIPOS>ATOM
      1 ****        -4.3176   1.5396  -0.8257 C.3            1 S1                 0.0000
      2 ****        -3.7690   0.1084  -0.8283 C.3            1 S1                 0.0000
      3 ****        -2.2765   0.0746  -0.8377 C.2            1 S1                 0.0000
      4 ****        -1.5301   0.0679   0.3079 N.2            1 S1                 0.0000
      5 ****        -0.3043   0.0821  -0.2067 C.2            1 S1                 0.0000
      6 ****         0.9602   0.0409   0.5946 C.3            1 S1                 0.0000
      7 ****         1.3775  -1.3991   0.9525 C.3            1 S1                 0.0000
      8 ****         2.6548  -1.3951   1.6639 N.3            1 S1                 0.0000
      9 ****         3.6857  -0.6987   0.8960 C.3            1 S1                 0.0000
     10 ****         3.2152   0.7211   0.5339 C.3            1 S1                 0.0000
     11 ****         1.9885   0.6488  -0.1852 O.3            1 S1                 0.0000
     12 ****        -0.3165   0.0953  -1.5427 N.pl3          1 S1                 0.0000
     13 ****        -1.5930   0.1041  -1.9807 N.2            1 S1                 0.0000
     14 ****         0.4810   0.1078  -2.1624 H              1 S1                 0.0000
     15 ****        -5.4076   1.5373  -0.8174 H              1 S1                 0.0000
     16 ****        -3.9926   2.0868  -1.7111 H              1 S1                 0.0000
     17 ****        -3.9776   2.0895   0.0524 H              1 S1                 0.0000
     18 ****        -4.1311  -0.4270   0.0501 H              1 S1                 0.0000
     19 ****        -4.1466  -0.4320  -1.6973 H              1 S1                 0.0000
     20 ****         0.8034   0.6240   1.5043 H              1 S1                 0.0000
     21 ****         0.6097  -1.8721   1.5653 H              1 S1                 0.0000
     22 ****         1.4636  -1.9946   0.0427 H              1 S1                 0.0000
     23 ****         2.9486  -2.3504   1.8412 H              1 S1                 0.0000
     24 ****         4.6124  -0.6526   1.4683 H              1 S1                 0.0000
     25 ****         3.9075  -1.2542  -0.0161 H              1 S1                 0.0000
     26 ****         3.0934   1.3334   1.4291 H              1 S1                 0.0000
     27 ****         3.9605   1.2149  -0.0900 H              1 S1                 0.0000
     28 ****        -1.8236   0.0557   1.2637 LP             1 S1                 0.0000
     29 ****         2.5297  -0.9114   2.5301 LP             1 S1                 0.0000
     30 ****         1.7031   1.5741  -0.4346 LP             1 S1                 0.0000
     31 ****         2.1296   0.1085  -1.0148 LP             1 S1                 0.0000
     32 ****        -1.9365   0.1268  -2.9196 LP             1 S1                 0.0000
@<TRIPOS>BOND
    1    1    2 1     
    2    1   15 1     
    3    1   16 1     
    4    1   17 1     
    5    2   18 1     
    6    2   19 1     
    7    2    3 1     
    8    3    4 1     
    9    3   13 2     
   10    4    5 2     
   11    5    6 1     
   12    5   12 1     
   13    6   11 1     
   14    6    7 1     
   15    6   20 1     
   16    7    8 1     
   17    7   21 1     
   18    7   22 1     
   19    8    9 1     
   20    8   23 1     
   21    9   10 1     
   22    9   24 1     
   23    9   25 1     
   24   10   11 1     
   25   10   26 1     
   26   10   27 1     
   27   12   13 1     
   28   12   14 1     
   29    4   28 1     
   30    8   29 1     
   31   11   30 1     
   32   11   31 1     
   33   13   32 1     
@<TRIPOS>SUBSTRUCTURE
      1 S1             1
@<TRIPOS>SET
LONE_PAIRS      STATIC     ATOMS    <user>   **** ""
5 28 29 30 31 32
DONOR_HYDROGENS      STATIC     ATOMS    <user>   **** ""
2 23 14
ATOM$BLUE        STATIC     ATOMS    COLORGROUP SYSTEM
5 28 29 30 31 32
ATOM$RED        STATIC     ATOMS    COLORGROUP SYSTEM
2 23 14
