AV-unprocessed.smi:2814|AV-procd|sdf|10839|dock9
  -GOLD-   2272015283D 1   1.00000     0.00000
 Structure written by MMmdl.
 37 38  0  0  0  0  0  0  0  0  1 V2000
  151.8851  140.0983  156.0931 C   0  0  0  0  0  0  0  0  0  0  0  0
  150.5623  140.2137  155.3648 C   0  0  0  0  0  0  0  0  0  0  0  0
  149.9763  139.0895  154.7449 C   0  0  0  0  0  0  0  0  0  0  0  0
  148.7372  139.2520  154.0794 C   0  0  0  0  0  0  0  0  0  0  0  0
  148.0537  138.2075  153.4002 N   0  0  0  0  0  0  0  0  0  0  0  0
  146.7308  137.9840  153.3188 C   0  0  0  0  0  0  0  0  0  0  0  0
  145.8561  138.6935  153.8156 O   0  0  0  0  0  0  0  0  0  0  0  0
  146.4717  136.8796  152.6038 N   0  0  0  0  0  0  0  0  0  0  0  0
  145.1450  136.3388  152.3148 C   0  0  0  0  0  0  0  0  0  0  0  0
  145.1509  135.3716  151.1092 C   0  0  0  0  0  0  0  0  0  0  0  0
  145.3010  136.1387  149.9275 O   0  0  0  0  0  0  0  0  0  0  0  0
  146.2228  134.2721  151.1477 C   0  0  0  0  0  0  0  0  0  0  0  0
  145.7066  133.1519  150.2356 C   0  0  0  0  0  0  0  0  0  0  0  0
  144.1888  133.3547  150.1149 C   0  0  0  0  0  0  0  0  0  0  0  0
  143.8459  134.5750  150.9790 C   0  0  0  0  0  0  0  0  0  0  0  0
  148.1638  140.5397  154.0492 C   0  0  0  0  0  0  0  0  0  0  0  0
  148.8305  141.5956  154.7012 C   0  0  0  0  0  0  0  0  0  0  0  0
  150.0035  141.4432  155.3504 N   0  0  0  0  0  0  0  0  0  0  0  0
  152.2786  139.0827  156.0425 H   0  0  0  0  0  0  0  0  0  0  0  0
  151.7633  140.3643  157.1434 H   0  0  0  0  0  0  0  0  0  0  0  0
  152.6214  140.7702  155.6512 H   0  0  0  0  0  0  0  0  0  0  0  0
  150.4851  138.1385  154.7785 H   0  0  0  0  0  0  0  0  0  0  0  0
  148.6413  137.5829  152.8677 H   0  0  0  0  0  0  0  0  0  0  0  0
  147.2551  136.3598  152.2360 H   0  0  0  0  0  0  0  0  0  0  0  0
  144.7515  135.8329  153.1981 H   0  0  0  0  0  0  0  0  0  0  0  0
  144.4668  137.1716  152.1251 H   0  0  0  0  0  0  0  0  0  0  0  0
  145.6415  135.5764  149.2486 H   0  0  0  0  0  0  0  0  0  0  0  0
  147.2124  134.6272  150.8568 H   0  0  0  0  0  0  0  0  0  0  0  0
  146.3051  133.8822  152.1631 H   0  0  0  0  0  0  0  0  0  0  0  0
  146.1687  133.2253  149.2504 H   0  0  0  0  0  0  0  0  0  0  0  0
  145.9545  132.1693  150.6385 H   0  0  0  0  0  0  0  0  0  0  0  0
  143.9256  133.5464  149.0740 H   0  0  0  0  0  0  0  0  0  0  0  0
  143.6324  132.4725  150.4333 H   0  0  0  0  0  0  0  0  0  0  0  0
  143.5306  134.2267  151.9637 H   0  0  0  0  0  0  0  0  0  0  0  0
  143.0228  135.1626  150.5693 H   0  0  0  0  0  0  0  0  0  0  0  0
  147.2267  140.7188  153.5424 H   0  0  0  0  0  0  0  0  0  0  0  0
  148.4100  142.5901  154.7002 H   0  0  0  0  0  0  0  0  0  0  0  0
  1  2  1  0  0  0  0
  1 19  1  0  0  0  0
  1 20  1  0  0  0  0
  1 21  1  0  0  0  0
  2 18  1  0  0  0  0
  2  3  2  0  0  0  0
  3  4  1  0  0  0  0
  3 22  1  0  0  0  0
  4  5  1  0  0  0  0
  4 16  2  0  0  0  0
  5  6  1  0  0  0  0
  5 23  1  0  0  0  0
  6  7  2  0  0  0  0
  6  8  1  0  0  0  0
  8  9  1  0  0  0  0
  8 24  1  0  0  0  0
  9 10  1  0  0  0  0
  9 25  1  0  0  0  0
  9 26  1  0  0  0  0
 10 15  1  0  0  0  0
 10 11  1  0  0  0  0
 10 12  1  0  0  0  0
 11 27  1  0  0  0  0
 12 13  1  0  0  0  0
 12 28  1  0  0  0  0
 12 29  1  0  0  0  0
 13 14  1  0  0  0  0
 13 30  1  0  0  0  0
 13 31  1  0  0  0  0
 14 15  1  0  0  0  0
 14 32  1  0  0  0  0
 14 33  1  0  0  0  0
 15 34  1  0  0  0  0
 15 35  1  0  0  0  0
 16 17  1  0  0  0  0
 16 36  1  0  0  0  0
 17 18  2  0  0  0  0
 17 37  1  0  0  0  0
M  END
> <s_m_source_file>
AV-unprocessed.smi

> <i_m_source_file_index>
2814

> <i_lp_mmshare_version>
43012

> <i_f3d_flags>
0

> <s_epik_input>
W0NIM11jMVtjSF1jKFtjSF1bY0hdbjEpW05IXUMoPU8pW05IXVtDSDJdQzIoW09IXSlbQ0gyXVtDSDJdW0NIMl1bQ0gyXTI=

> <s_epik_cmdline>
J2VwaWtfcHl0aG9uJywgJy1waCcsICc3LjAnLCAnLXRuJywgJzgnLCAnLW1hJywgJzIwMCcsICctbWV0YWxfYmluZGluZycsICctaW1hZScsICc8aW5maWxlLm1hZT4nLCAnLW9tYWUnLCAnPG91dGZpbGUubWFlPic=

> <r_epik_Ionization_Penalty>
0.405099

> <r_epik_Ionization_Penalty_Charging>
0

> <r_epik_Ionization_Penalty_Neutral>
0.405099

> <r_epik_State_Penalty>
0.404681

> <r_epik_Charging_Adjusted_Penalty>
0.404681

> <i_epik_Tot_Q>
0

> <i_epik_Tot_abs_Q>
0

> <r_epik_Metal_State_Penalty>
0.238286

> <b_epik_Metal_Only>
0

> <s_lp_Force_Field>
OPLS_2005

> <r_lp_Energy>
28.9703

> <b_lp_Chiralities_Consistent>
1

> <s_lp_Variant>
AV-unprocessed.smi:2814-1

> <Gold.Version>
5.8.1

> <Gold.Id.Protein>
6NUR|6NUR_protein|mol2

> <Gold.PLP.Fitness>
44.6701

> <Gold.PLP.PLP>
-33.7094

> <Gold.PLP.part.hbond>
-4.7128

> <Gold.PLP.part.metal>
0.0000

> <Gold.PLP.part.buried>
-2.0291

> <Gold.PLP.part.nonpolar>
-27.2678

> <Gold.PLP.part.repulsive>
0.3396

> <Gold.PLP.ligand.clash>
0.0000

> <Gold.PLP.ligand.torsion>
0.5215

> <Gold.PLP.Chemscore.Hbond>
3.0000

> <Gold.PLP.Chemscore.CHOScore>
1.0000

> <Gold.PLP.Chemscore.Metal>
0.0000

> <Gold.Chemscore.Hbonds>
donor molecule, donor type, donor heavy atom, donor atom, acceptor molecule, acceptor atom, score
      L1  H     5    23       P1  7948  1.00
      L1  H     8    24       P1  7948  1.00
      L1  H    11    27       P1  7921  1.00
      L1  C    17    37       P1  8028  1.00

> <Gold.PLP.Chemscore.Internal.Correction>
0.0037

> <Gold.Rescore>
     Score         DG    S(hbond)    S(metal)    S(lipo)     H(rot)  DE(clash)    DE(int)     intcor
     17.98     -19.72       2.89        0.00      76.52       1.71       0.13       1.61       ----

> <Gold.Chemscore.Fitness>
17.9770

> <Gold.Chemscore.DG>
-19.7179

> <Gold.Chemscore.ZeroCoef>
-5.4800

> <Gold.Chemscore.Hbond>
2.8932

> <Gold.Chemscore.Metal>
0.0000

> <Gold.Chemscore.Lipo>
76.5236

> <Gold.Chemscore.Internal_Hbond>
0.0000

> <Gold.Chemscore.DEClash>
0.1312

> <Gold.Chemscore.DEInternal>
1.6097

> <Gold.Chemscore.Rot>
1.7103

> <Gold.Chemscore.Internal.Correction>
   9.000000E+99

> <Gold.Chemscore.Hbonds>
donor molecule, donor type, donor heavy atom, donor atom, acceptor molecule, acceptor atom, score
      L1  H     5    23       P1  7948  0.98
      L1  H     8    24       P1  7948  0.96
      L1  H    11    27       P1  7921  1.00

> <Gold.Chemscore.Hbond.Weighted>
-9.6631

> <Gold.Chemscore.Metal.Weighted>
-0.0000

> <Gold.Chemscore.Lipo.Weighted>
-8.9533

> <Gold.Chemscore.Internal_Hbond.Weighted>
0.0000

> <Gold.Chemscore.DEClash.Weighted>
0.1312

> <Gold.Chemscore.DEInternal.Weighted>
1.6097

> <Gold.Chemscore.Rot.Weighted>
4.3785

> <Gold.Chemscore.Internal.Correction.Weighted>
   9.000000E+99

> <Gold.Protein.RotatedTorsions>
[ 6907 6896 6895 6894 ] final   65.24 input  -60.11 | X-H torsion
[ 7974 7965 7964 7962 ] final   29.06 input  175.53 | X-H torsion
[ 8008 7997 7996 7995 ] final -106.75 input   59.86 | X-H torsion
[ 10167 10162 10161 10158 ] final  -95.47 input  -65.29 | X-H torsion
[ 10718 10713 10712 10709 ] final -149.53 input   66.30 | X-H torsion
[ 10763 10752 10751 10750 ] final -154.60 input  -60.55 | X-H torsion
[ 11005 11000 10999 10996 ] final   40.69 input  -57.11 | X-H torsion

> <Gold.Protein.ActiveResidues>
 VAL166  LYS551  ARG553  GLY616  TRP617  ASP618  TYR619  PRO620  LYS621  CYS622 
 ASP623  PHE694  ASN695  SER759  ASP760  ASP761  ALA762  ILE779  LEU786  VAL792 
 PHE793  MET794  SER795  GLU796  ALA797  LYS798  CYS799  TRP800  GLU811  SER814 

> <Gold.Protein.RotatedAtoms>
  152.4393  134.5624  159.9897 H   0  0  0  0  0  0  0  0  0  0  0  0  # atno 6907 bound_to 6896
  151.5726  133.3382  159.3000 H   0  0  0  0  0  0  0  0  0  0  0  0  # atno 6908 bound_to 6896
  150.8296  134.7577  159.6906 H   0  0  0  0  0  0  0  0  0  0  0  0  # atno 6909 bound_to 6896
  146.1693  139.6972  142.8979 H   0  0  0  0  0  0  0  0  0  0  0  0  # atno 7974 bound_to 7965
  154.9191  140.0408  157.1988 H   0  0  0  0  0  0  0  0  0  0  0  0  # atno 8008 bound_to 7997
  154.8272  140.2893  155.5725 H   0  0  0  0  0  0  0  0  0  0  0  0  # atno 8009 bound_to 7997
  156.2984  140.2507  156.3190 H   0  0  0  0  0  0  0  0  0  0  0  0  # atno 8010 bound_to 7997
  140.3039  143.3146  152.0220 H   0  0  0  0  0  0  0  0  0  0  0  0  # atno 10167 bound_to 10162
  156.4343  130.8091  151.2319 H   0  0  0  0  0  0  0  0  0  0  0  0  # atno 10718 bound_to 10713
  154.7847  135.3186  154.7912 H   0  0  0  0  0  0  0  0  0  0  0  0  # atno 10763 bound_to 10752
  153.8615  135.6853  153.4786 H   0  0  0  0  0  0  0  0  0  0  0  0  # atno 10764 bound_to 10752
  153.1495  135.4705  154.9554 H   0  0  0  0  0  0  0  0  0  0  0  0  # atno 10765 bound_to 10752
  140.1907  134.3991  155.8148 H   0  0  0  0  0  0  0  0  0  0  0  0  # atno 11005 bound_to 11000
  145.4383  141.0420  143.2872 LP  0  0  0  0  0  0  0  0  0  0  0  0  # atno 17320 bound_to 7965
  144.8139  139.5912  143.7017 LP  0  0  0  0  0  0  0  0  0  0  0  0  # atno 17321 bound_to 7965
  139.4909  144.6436  151.6826 LP  0  0  0  0  0  0  0  0  0  0  0  0  # atno 17342 bound_to 10162
  140.5627  144.0241  150.6177 LP  0  0  0  0  0  0  0  0  0  0  0  0  # atno 17343 bound_to 10162
  157.7507  131.0188  150.3642 LP  0  0  0  0  0  0  0  0  0  0  0  0  # atno 17370 bound_to 10713
  156.3986  130.3911  149.6976 LP  0  0  0  0  0  0  0  0  0  0  0  0  # atno 17371 bound_to 10713
  141.2226  133.7045  156.8089 LP  0  0  0  0  0  0  0  0  0  0  0  0  # atno 17394 bound_to 11000
  140.2163  134.8790  157.3329 LP  0  0  0  0  0  0  0  0  0  0  0  0  # atno 17395 bound_to 11000

$$$$
