#       Name:                AV-unprocessed.smi:1645
#       Creating user name   scv26
#       Creation time:       Fri Mar 27 07:31:31 2020


#       File generated by GOLD software.
#

@<TRIPOS>MOLECULE
AV-unprocessed.smi:1645
    58    61     1
SMALL
NO_CHARGES


@<TRIPOS>ATOM
      1 ****        -0.9452   1.4080  -0.5023 O.2            1 S1                 0.0000
      2 ****        -1.2938   0.2706  -0.8164 C.2            1 S1                 0.0000
      3 ****        -0.4674  -0.7728  -1.0057 N.am           1 S1                 0.0000
      4 ****         0.9482  -0.8185  -0.8803 C.ar           1 S1                 0.0000
      5 ****         1.6237  -1.9149  -1.4550 C.ar           1 S1                 0.0000
      6 ****         3.0264  -2.0113  -1.3492 C.ar           1 S1                 0.0000
      7 ****         3.7533  -1.0108  -0.6561 C.ar           1 S1                 0.0000
      8 ****         5.1587  -1.0171  -0.5055 N.pl3          1 S1                 0.0000
      9 ****         5.6765  -0.6427   0.8147 C.3            1 S1                 0.0000
     10 ****         7.1644  -0.2593   0.7477 C.3            1 S1                 0.0000
     11 ****         7.9910  -1.3637   0.0753 C.3            1 S1                 0.0000
     12 ****         7.4129  -1.6738  -1.3119 C.3            1 S1                 0.0000
     13 ****         5.9214  -2.0402  -1.2240 C.3            1 S1                 0.0000
     14 ****         3.0571   0.0161  -0.1111 N.pl3          1 S1                 1.0000
     15 ****         1.7158   0.1492  -0.1899 C.ar           1 S1                 0.0000
     16 ****        -2.5716  -0.0764  -1.0263 N.am           1 S1                 0.0000
     17 ****        -3.7143   0.8271  -0.9219 C.3            1 S1                 0.0000
     18 ****        -4.8946   0.4056  -1.8149 C.3            1 S1                 0.0000
     19 ****        -6.1614   0.7358  -1.0011 C.3            1 S1                 0.0000
     20 ****        -5.6763   1.3849   0.2319 N.4            1 S1                 1.0000
     21 ****        -6.5554   1.3180   1.4194 C.3            1 S1                 0.0000
     22 ****        -5.9184   2.1244   2.5685 C.3            1 S1                 0.0000
     23 ****        -4.4698   1.6744   2.8476 C.3            1 S1                 0.0000
     24 ****        -3.6277   1.6749   1.5569 C.3            1 S1                 0.0000
     25 ****        -4.3341   0.8355   0.4786 C.3            1 S1                 0.0000
     26 ****        -0.9003  -1.6278  -1.3232 H              1 S1                 0.0000
     27 ****         1.0732  -2.6819  -1.9803 H              1 S1                 0.0000
     28 ****         3.5165  -2.8629  -1.7960 H              1 S1                 0.0000
     29 ****         5.1260   0.1944   1.2431 H              1 S1                 0.0000
     30 ****         5.5405  -1.4867   1.4921 H              1 S1                 0.0000
     31 ****         7.2762   0.6714   0.1898 H              1 S1                 0.0000
     32 ****         7.5441  -0.0661   1.7512 H              1 S1                 0.0000
     33 ****         9.0334  -1.0558  -0.0108 H              1 S1                 0.0000
     34 ****         7.9783  -2.2636   0.6916 H              1 S1                 0.0000
     35 ****         7.5369  -0.8048  -1.9595 H              1 S1                 0.0000
     36 ****         7.9701  -2.4876  -1.7769 H              1 S1                 0.0000
     37 ****         5.7988  -2.9980  -0.7167 H              1 S1                 0.0000
     38 ****         5.5393  -2.1560  -2.2385 H              1 S1                 0.0000
     39 ****         1.3210   1.0194   0.3120 H              1 S1                 0.0000
     40 ****        -2.7688  -1.0317  -1.2872 H              1 S1                 0.0000
     41 ****        -3.4249   1.8437  -1.1971 H              1 S1                 0.0000
     42 ****        -4.8744   0.9342  -2.7686 H              1 S1                 0.0000
     43 ****        -4.8678  -0.6632  -2.0328 H              1 S1                 0.0000
     44 ****        -6.8422   1.3947  -1.5407 H              1 S1                 0.0000
     45 ****        -6.6997  -0.1815  -0.7574 H              1 S1                 0.0000
     46 ****        -7.5364   1.7256   1.1723 H              1 S1                 0.0000
     47 ****        -6.7016   0.2783   1.7165 H              1 S1                 0.0000
     48 ****        -5.9213   3.1839   2.3094 H              1 S1                 0.0000
     49 ****        -6.5207   2.0280   3.4722 H              1 S1                 0.0000
     50 ****        -4.0123   2.3233   3.5950 H              1 S1                 0.0000
     51 ****        -4.4789   0.6704   3.2742 H              1 S1                 0.0000
     52 ****        -3.4859   2.6976   1.2047 H              1 S1                 0.0000
     53 ****        -2.6355   1.2736   1.7635 H              1 S1                 0.0000
     54 ****        -4.4386  -0.1936   0.8306 H              1 S1                 0.0000
     55 ****        -5.5457   2.3614   0.0094 H              1 S1                 0.0000
     56 ****         3.5786   0.7356   0.3899 H              1 S1                 0.0000
     57 ****         0.0239   1.6146  -0.3672 LP             1 S1                 0.0000
     58 ****        -1.6309   2.1259  -0.3822 LP             1 S1                 0.0000
@<TRIPOS>BOND
    1    1    2 2     
    2    2    3 am    
    3    2   16 am    
    4    3    4 1     
    5    3   26 1     
    6    4   15 ar    
    7    4    5 ar    
    8    5    6 ar    
    9    5   27 1     
   10    6    7 ar    
   11    6   28 1     
   12    7    8 1     
   13    7   14 ar    
   14    8   13 1     
   15    8    9 1     
   16    9   10 1     
   17    9   29 1     
   18    9   30 1     
   19   10   11 1     
   20   10   31 1     
   21   10   32 1     
   22   11   12 1     
   23   11   33 1     
   24   11   34 1     
   25   12   13 1     
   26   12   35 1     
   27   12   36 1     
   28   13   37 1     
   29   13   38 1     
   30   14   15 ar    
   31   14   56 1     
   32   15   39 1     
   33   16   17 1     
   34   16   40 1     
   35   17   25 1     
   36   17   18 1     
   37   17   41 1     
   38   18   19 1     
   39   18   42 1     
   40   18   43 1     
   41   19   20 1     
   42   19   44 1     
   43   19   45 1     
   44   20   25 1     
   45   20   21 1     
   46   20   55 1     
   47   21   22 1     
   48   21   46 1     
   49   21   47 1     
   50   22   23 1     
   51   22   48 1     
   52   22   49 1     
   53   23   24 1     
   54   23   50 1     
   55   23   51 1     
   56   24   25 1     
   57   24   52 1     
   58   24   53 1     
   59   25   54 1     
   60    1   57 1     
   61    1   58 1     
@<TRIPOS>SUBSTRUCTURE
      1 S1             1
@<TRIPOS>SET
LONE_PAIRS      STATIC     ATOMS    <user>   **** ""
2 57 58
DONOR_HYDROGENS      STATIC     ATOMS    <user>   **** ""
4 26 56 40 55
ATOM$BLUE        STATIC     ATOMS    COLORGROUP SYSTEM
2 57 58
ATOM$RED        STATIC     ATOMS    COLORGROUP SYSTEM
4 26 56 40 55
