AV-unprocessed.smi:3303|AV-procd|sdf|12679|dock3
  -GOLD-   2272019 13D 1   1.00000     0.00000
 Structure written by MMmdl.
 44 45  0  0  0  0  0  0  0  0  2 V2000
  146.5362  142.8267  154.0723 C   0  0  0  0  0  0  0  0  0  0  0  0
  147.3850  141.5525  153.9289 C   0  0  2  0  0  0  0  0  0  0  0  0
  146.5749  140.2789  154.2432 C   0  0  0  0  0  0  0  0  0  0  0  0
  147.3820  139.0904  153.9652 N   0  0  0  0  0  0  0  0  0  0  0  0
  146.5666  137.8847  154.0477 C   0  0  0  0  0  0  0  0  0  0  0  0
  148.6069  139.0103  154.7753 C   0  0  2  0  0  0  0  0  0  0  0  0
  148.3637  138.7047  156.2718 C   0  0  0  0  0  0  0  0  0  0  0  0
  149.4639  140.2763  154.5369 C   0  0  0  0  0  0  0  0  0  0  0  0
  148.6959  141.6015  154.7430 C   0  0  2  0  0  0  0  0  0  0  0  0
  148.4363  141.8932  156.1732 N   0  3  0  0  0  0  0  0  0  0  0  0
  149.4436  141.3753  157.1217 C   0  0  0  0  0  0  0  0  0  0  0  0
  150.7522  142.1699  157.0197 C   0  0  0  0  0  0  0  0  0  0  0  0
  151.1049  142.8576  158.3246 C   0  0  0  0  0  0  0  0  0  0  0  0
  151.1983  144.2639  158.3978 C   0  0  0  0  0  0  0  0  0  0  0  0
  151.5408  144.8498  159.6320 C   0  0  0  0  0  0  0  0  0  0  0  0
  151.7769  144.0111  160.7383 C   0  0  0  0  0  0  0  0  0  0  0  0
  151.6583  142.6182  160.5614 C   0  0  0  0  0  0  0  0  0  0  0  0
  151.3311  142.0463  159.3822 N   0  0  0  0  0  0  0  0  0  0  0  0
  146.1500  142.9453  155.0850 H   0  0  0  0  0  0  0  0  0  0  0  0
  145.6798  142.8005  153.3977 H   0  0  0  0  0  0  0  0  0  0  0  0
  147.1179  143.7161  153.8282 H   0  0  0  0  0  0  0  0  0  0  0  0
  147.6686  141.4949  152.8762 H   0  0  0  0  0  0  0  0  0  0  0  0
  146.2224  140.2791  155.2748 H   0  0  0  0  0  0  0  0  0  0  0  0
  145.6868  140.2572  153.6101 H   0  0  0  0  0  0  0  0  0  0  0  0
  147.1654  136.9997  153.8311 H   0  0  0  0  0  0  0  0  0  0  0  0
  145.7589  137.9243  153.3159 H   0  0  0  0  0  0  0  0  0  0  0  0
  146.1177  137.7668  155.0344 H   0  0  0  0  0  0  0  0  0  0  0  0
  149.1824  138.1708  154.3827 H   0  0  0  0  0  0  0  0  0  0  0  0
  149.3012  138.7394  156.8278 H   0  0  0  0  0  0  0  0  0  0  0  0
  147.9561  137.7037  156.4137 H   0  0  0  0  0  0  0  0  0  0  0  0
  147.6779  139.4052  156.7453 H   0  0  0  0  0  0  0  0  0  0  0  0
  150.3704  140.2404  155.1400 H   0  0  0  0  0  0  0  0  0  0  0  0
  149.8142  140.2512  153.5038 H   0  0  0  0  0  0  0  0  0  0  0  0
  149.3026  142.4198  154.3518 H   0  0  0  0  0  0  0  0  0  0  0  0
  148.4120  142.8973  156.2785 H   0  0  0  0  0  0  0  0  0  0  0  0
  149.0586  141.4363  158.1395 H   0  0  0  0  0  0  0  0  0  0  0  0
  149.6330  140.3223  156.9087 H   0  0  0  0  0  0  0  0  0  0  0  0
  151.5700  141.5091  156.7288 H   0  0  0  0  0  0  0  0  0  0  0  0
  150.6726  142.9236  156.2347 H   0  0  0  0  0  0  0  0  0  0  0  0
  151.0136  144.8818  157.5314 H   0  0  0  0  0  0  0  0  0  0  0  0
  151.6215  145.9225  159.7281 H   0  0  0  0  0  0  0  0  0  0  0  0
  152.0422  144.4250  161.6998 H   0  0  0  0  0  0  0  0  0  0  0  0
  151.8325  141.9461  161.3885 H   0  0  0  0  0  0  0  0  0  0  0  0
  147.5287  141.5240  156.4186 H   0  0  0  0  0  0  0  0  0  0  0  0
  1  2  1  0  0  0  0
  1 19  1  0  0  0  0
  1 20  1  0  0  0  0
  1 21  1  0  0  0  0
  2  9  1  0  0  0  0
  2  3  1  0  0  0  0
  2 22  1  0  0  0  0
  3  4  1  0  0  0  0
  3 23  1  0  0  0  0
  3 24  1  0  0  0  0
  4  5  1  0  0  0  0
  4  6  1  0  0  0  0
  5 25  1  0  0  0  0
  5 26  1  0  0  0  0
  5 27  1  0  0  0  0
  6  7  1  0  0  0  0
  6  8  1  0  0  0  0
  6 28  1  0  0  0  0
  7 29  1  0  0  0  0
  7 30  1  0  0  0  0
  7 31  1  0  0  0  0
  8  9  1  0  0  0  0
  8 32  1  0  0  0  0
  8 33  1  0  0  0  0
  9 10  1  0  0  0  0
  9 34  1  0  0  0  0
 10 11  1  0  0  0  0
 10 35  1  0  0  0  0
 10 44  1  0  0  0  0
 11 12  1  0  0  0  0
 11 36  1  0  0  0  0
 11 37  1  0  0  0  0
 12 13  1  0  0  0  0
 12 38  1  0  0  0  0
 12 39  1  0  0  0  0
 13 18  1  0  0  0  0
 13 14  2  0  0  0  0
 14 15  1  0  0  0  0
 14 40  1  0  0  0  0
 15 16  2  0  0  0  0
 15 41  1  0  0  0  0
 16 17  1  0  0  0  0
 16 42  1  0  0  0  0
 17 18  2  0  0  0  0
 17 43  1  0  0  0  0
M  CHG  1  10   1
M  END
> <s_m_source_file>
AV-unprocessed.smi

> <i_m_source_file_index>
3303

> <i_lp_mmshare_version>
43012

> <i_f3d_flags>
0

> <s_epik_input>
W0NIM11bQ0BASF0xW0NIMl1OKFtDSDNdKVtDQEBIXShbQ0gzXSlbQ0gyXVtDQEhdMVtOSF1bQ0gyXVtDSDJdYzJbY0hdW2NIXVtjSF1bY0hdbjI=

> <s_epik_cmdline>
J2VwaWtfcHl0aG9uJywgJy1waCcsICc3LjAnLCAnLXRuJywgJzgnLCAnLW1hJywgJzIwMCcsICctbWV0YWxfYmluZGluZycsICctaW1hZScsICc8aW5maWxlLm1hZT4nLCAnLW9tYWUnLCAnPG91dGZpbGUubWFlPic=

> <r_epik_Ionization_Penalty>
1.37325

> <r_epik_Ionization_Penalty_Charging>
0.000251572

> <r_epik_Ionization_Penalty_Neutral>
1.373

> <r_epik_State_Penalty>
1.46343

> <r_epik_Charging_Adjusted_Penalty>
1.46368

> <i_epik_Tot_Q>
1

> <i_epik_Tot_abs_Q>
1

> <r_epik_Metal_State_Penalty>
1.46331

> <b_epik_Metal_Only>
0

> <s_lp_Force_Field>
OPLS_2005

> <r_lp_Energy>
24.8082

> <b_lp_Chiralities_Consistent>
1

> <s_lp_Variant>
AV-unprocessed.smi:3303-23

> <Gold.Version>
5.8.1

> <Gold.Id.Protein>
6NUR|6NUR_protein|mol2

> <Gold.PLP.Fitness>
44.7531

> <Gold.PLP.PLP>
-40.2547

> <Gold.PLP.part.hbond>
-1.0000

> <Gold.PLP.part.metal>
0.0000

> <Gold.PLP.part.buried>
-5.1902

> <Gold.PLP.part.nonpolar>
-33.9093

> <Gold.PLP.part.repulsive>
0.2130

> <Gold.PLP.ligand.clash>
0.0000

> <Gold.PLP.ligand.torsion>
0.7558

> <Gold.PLP.Chemscore.Hbond>
2.0000

> <Gold.PLP.Chemscore.CHOScore>
0.0000

> <Gold.PLP.Chemscore.Metal>
0.0000

> <Gold.Chemscore.Hbonds>
donor molecule, donor type, donor heavy atom, donor atom, acceptor molecule, acceptor atom, score
      L1  H    10    35       P1  8028  2.00

> <Gold.PLP.Chemscore.Internal.Correction>
0.0100

> <Gold.Rescore>
     Score         DG    S(hbond)    S(metal)    S(lipo)     H(rot)  DE(clash)    DE(int)     intcor
     17.74     -18.81       0.99        0.00     114.64       1.33       0.37       0.70       ----

> <Gold.Chemscore.Fitness>
17.7407

> <Gold.Chemscore.DG>
-18.8120

> <Gold.Chemscore.ZeroCoef>
-5.4800

> <Gold.Chemscore.Hbond>
0.9949

> <Gold.Chemscore.Metal>
0.0000

> <Gold.Chemscore.Lipo>
114.6444

> <Gold.Chemscore.Internal_Hbond>
0.0000

> <Gold.Chemscore.DEClash>
0.3671

> <Gold.Chemscore.DEInternal>
0.7042

> <Gold.Chemscore.Rot>
1.3298

> <Gold.Chemscore.Internal.Correction>
   9.000000E+99

> <Gold.Chemscore.Hbonds>
donor molecule, donor type, donor heavy atom, donor atom, acceptor molecule, acceptor atom, score
      L1  H    10    35       P1  8028  0.83

> <Gold.Chemscore.Hbond.Weighted>
-3.3229

> <Gold.Chemscore.Metal.Weighted>
-0.0000

> <Gold.Chemscore.Lipo.Weighted>
-13.4134

> <Gold.Chemscore.Internal_Hbond.Weighted>
0.0000

> <Gold.Chemscore.DEClash.Weighted>
0.3671

> <Gold.Chemscore.DEInternal.Weighted>
0.7042

> <Gold.Chemscore.Rot.Weighted>
3.4043

> <Gold.Chemscore.Internal.Correction.Weighted>
   9.000000E+99

> <Gold.Protein.RotatedTorsions>
[ 6907 6896 6895 6894 ] final -145.79 input  -60.11 | X-H torsion
[ 7974 7965 7964 7962 ] final -122.07 input  175.53 | X-H torsion
[ 8008 7997 7996 7995 ] final  164.04 input   59.86 | X-H torsion
[ 10167 10162 10161 10158 ] final  128.72 input  -65.29 | X-H torsion
[ 10718 10713 10712 10709 ] final -161.13 input   66.30 | X-H torsion
[ 10763 10752 10751 10750 ] final  -16.61 input  -60.55 | X-H torsion
[ 11005 11000 10999 10996 ] final -141.09 input  -57.11 | X-H torsion

> <Gold.Protein.ActiveResidues>
 VAL166  LYS551  ARG553  GLY616  TRP617  ASP618  TYR619  PRO620  LYS621  CYS622 
 ASP623  PHE694  ASN695  SER759  ASP760  ASP761  ALA762  ILE779  LEU786  VAL792 
 PHE793  MET794  SER795  GLU796  ALA797  LYS798  CYS799  TRP800  GLU811  SER814 

> <Gold.Protein.RotatedAtoms>
  151.1326  133.5026  159.2598 H   0  0  0  0  0  0  0  0  0  0  0  0  # atno 6907 bound_to 6896
  151.1741  135.0331  159.8774 H   0  0  0  0  0  0  0  0  0  0  0  0  # atno 6908 bound_to 6896
  152.5460  134.1186  159.8442 H   0  0  0  0  0  0  0  0  0  0  0  0  # atno 6909 bound_to 6896
  145.0334  140.8086  143.4310 H   0  0  0  0  0  0  0  0  0  0  0  0  # atno 7974 bound_to 7965
  156.1911  140.1707  156.8090 H   0  0  0  0  0  0  0  0  0  0  0  0  # atno 8008 bound_to 7997
  154.5472  140.0725  156.8641 H   0  0  0  0  0  0  0  0  0  0  0  0  # atno 8009 bound_to 7997
  155.3098  140.3367  155.4246 H   0  0  0  0  0  0  0  0  0  0  0  0  # atno 8010 bound_to 7997
  139.5513  144.6815  151.4316 H   0  0  0  0  0  0  0  0  0  0  0  0  # atno 10167 bound_to 10162
  156.5918  130.8773  151.2892 H   0  0  0  0  0  0  0  0  0  0  0  0  # atno 10718 bound_to 10713
  153.5612  135.7009  153.5546 H   0  0  0  0  0  0  0  0  0  0  0  0  # atno 10763 bound_to 10752
  153.3427  135.4016  155.1584 H   0  0  0  0  0  0  0  0  0  0  0  0  # atno 10764 bound_to 10752
  154.8647  135.3746  154.5130 H   0  0  0  0  0  0  0  0  0  0  0  0  # atno 10765 bound_to 10752
  140.8359  134.2461  157.4834 H   0  0  0  0  0  0  0  0  0  0  0  0  # atno 11005 bound_to 11000
  145.1741  139.2388  143.5327 LP  0  0  0  0  0  0  0  0  0  0  0  0  # atno 17320 bound_to 7965
  146.3501  140.1499  142.8592 LP  0  0  0  0  0  0  0  0  0  0  0  0  # atno 17321 bound_to 7965
  140.6776  143.8155  150.7078 LP  0  0  0  0  0  0  0  0  0  0  0  0  # atno 17342 bound_to 10162
  140.1598  143.4285  152.2074 LP  0  0  0  0  0  0  0  0  0  0  0  0  # atno 17343 bound_to 10162
  157.7301  130.9681  150.1820 LP  0  0  0  0  0  0  0  0  0  0  0  0  # atno 17370 bound_to 10713
  156.2543  130.3704  149.8199 LP  0  0  0  0  0  0  0  0  0  0  0  0  # atno 17371 bound_to 10713
  139.8704  134.9610  156.4383 LP  0  0  0  0  0  0  0  0  0  0  0  0  # atno 17394 bound_to 11000
  140.8948  133.7822  155.9613 LP  0  0  0  0  0  0  0  0  0  0  0  0  # atno 17395 bound_to 11000

$$$$
