AV-unprocessed.smi:862|AV-procd|sdf|3982|dock3
  -GOLD-   22720 1463D 1   1.00000     0.00000
 Structure written by MMmdl.
 45 47  0  0  0  0  0  0  0  0  3 V2000
  151.9116  144.7407  161.6160 N   0  0  0  0  0  0  0  0  0  0  0  0
  151.9701  145.2295  160.3735 C   0  0  0  0  0  0  0  0  0  0  0  0
  151.7165  146.4105  160.1442 O   0  0  0  0  0  0  0  0  0  0  0  0
  152.3753  144.3487  159.4243 N   0  0  0  0  0  0  0  0  0  0  0  0
  152.4994  142.8918  159.5933 C   0  0  0  0  0  0  0  0  0  0  0  0
  151.3093  142.2049  158.8970 C   0  0  0  0  0  0  0  0  0  0  0  0
  151.2235  142.6056  157.4044 C   0  0  0  0  0  0  0  0  0  0  0  0
  149.9941  142.0896  156.7587 N   0  3  0  0  0  0  0  0  0  0  0  0
  150.0399  140.6901  156.2688 C   0  0  2  0  0  0  0  0  0  0  0  0
  150.9141  140.4906  155.0254 C   0  0  0  0  0  0  0  0  0  0  0  0
  150.4020  139.1946  154.3819 C   0  0  0  0  0  0  0  0  0  0  0  0
  149.0215  138.9086  154.9993 C   0  0  0  0  0  0  0  0  0  0  0  0
  148.6630  140.1282  155.8649 C   0  0  2  0  0  0  0  0  0  0  0  0
  147.8084  141.0920  155.1377 N   0  0  0  0  0  0  0  0  0  0  0  0
  147.9654  141.5912  153.8662 C   0  0  0  0  0  0  0  0  0  0  0  0
  146.9280  142.4610  153.6513 C   0  0  0  0  0  0  0  0  0  0  0  0
  146.1829  142.4653  154.7986 N   0  3  0  0  0  0  0  0  0  0  0  0
  146.7193  141.6365  155.7000 C   0  0  0  0  0  0  0  0  0  0  0  0
  151.2860  144.1388  157.2445 C   0  0  0  0  0  0  0  0  0  0  0  0
  152.4818  144.7302  158.0113 C   0  0  0  0  0  0  0  0  0  0  0  0
  151.6312  145.3436  162.3761 H   0  0  0  0  0  0  0  0  0  0  0  0
  152.1595  143.7788  161.7944 H   0  0  0  0  0  0  0  0  0  0  0  0
  153.4366  142.5588  159.1446 H   0  0  0  0  0  0  0  0  0  0  0  0
  152.5485  142.5724  160.6341 H   0  0  0  0  0  0  0  0  0  0  0  0
  151.4152  141.1252  159.0005 H   0  0  0  0  0  0  0  0  0  0  0  0
  150.3855  142.4782  159.4091 H   0  0  0  0  0  0  0  0  0  0  0  0
  152.0898  142.1933  156.8858 H   0  0  0  0  0  0  0  0  0  0  0  0
  149.2383  142.1742  157.4234 H   0  0  0  0  0  0  0  0  0  0  0  0
  150.4239  140.0513  157.0645 H   0  0  0  0  0  0  0  0  0  0  0  0
  150.7856  141.3228  154.3324 H   0  0  0  0  0  0  0  0  0  0  0  0
  151.9755  140.4310  155.2690 H   0  0  0  0  0  0  0  0  0  0  0  0
  150.3417  139.2986  153.2982 H   0  0  0  0  0  0  0  0  0  0  0  0
  151.0817  138.3668  154.5879 H   0  0  0  0  0  0  0  0  0  0  0  0
  148.2663  138.6870  154.2439 H   0  0  0  0  0  0  0  0  0  0  0  0
  149.0948  138.0258  155.6359 H   0  0  0  0  0  0  0  0  0  0  0  0
  148.1086  139.8077  156.7490 H   0  0  0  0  0  0  0  0  0  0  0  0
  148.7760  141.2974  153.2156 H   0  0  0  0  0  0  0  0  0  0  0  0
  146.6708  143.0609  152.7902 H   0  0  0  0  0  0  0  0  0  0  0  0
  146.3404  141.4434  156.6879 H   0  0  0  0  0  0  0  0  0  0  0  0
  151.3575  144.4032  156.1889 H   0  0  0  0  0  0  0  0  0  0  0  0
  150.3643  144.5909  157.6150 H   0  0  0  0  0  0  0  0  0  0  0  0
  152.5194  145.8118  157.8723 H   0  0  0  0  0  0  0  0  0  0  0  0
  153.4183  144.3487  157.6023 H   0  0  0  0  0  0  0  0  0  0  0  0
  149.7908  142.6834  155.9675 H   0  0  0  0  0  0  0  0  0  0  0  0
  145.3432  143.0124  154.9441 H   0  0  0  0  0  0  0  0  0  0  0  0
  1  2  1  0  0  0  0
  1 21  1  0  0  0  0
  1 22  1  0  0  0  0
  2  3  2  0  0  0  0
  2  4  1  0  0  0  0
  4 20  1  0  0  0  0
  4  5  1  0  0  0  0
  5  6  1  0  0  0  0
  5 23  1  0  0  0  0
  5 24  1  0  0  0  0
  6  7  1  0  0  0  0
  6 25  1  0  0  0  0
  6 26  1  0  0  0  0
  7  8  1  0  0  0  0
  7 19  1  0  0  0  0
  7 27  1  0  0  0  0
  8  9  1  0  0  0  0
  8 28  1  0  0  0  0
  8 44  1  0  0  0  0
  9 13  1  0  0  0  0
  9 10  1  0  0  0  0
  9 29  1  0  0  0  0
 10 11  1  0  0  0  0
 10 30  1  0  0  0  0
 10 31  1  0  0  0  0
 11 12  1  0  0  0  0
 11 32  1  0  0  0  0
 11 33  1  0  0  0  0
 12 13  1  0  0  0  0
 12 34  1  0  0  0  0
 12 35  1  0  0  0  0
 13 14  1  0  0  0  0
 13 36  1  0  0  0  0
 14 18  1  0  0  0  0
 14 15  1  0  0  0  0
 15 16  2  0  0  0  0
 15 37  1  0  0  0  0
 16 17  1  0  0  0  0
 16 38  1  0  0  0  0
 17 18  2  0  0  0  0
 17 45  1  0  0  0  0
 18 39  1  0  0  0  0
 19 20  1  0  0  0  0
 19 40  1  0  0  0  0
 19 41  1  0  0  0  0
 20 42  1  0  0  0  0
 20 43  1  0  0  0  0
M  CHG  1   8   1
M  CHG  1  17   1
M  END
> <s_m_source_file>
AV-unprocessed.smi

> <i_m_source_file_index>
862

> <i_lp_mmshare_version>
43012

> <i_f3d_flags>
0

> <s_epik_input>
W05IMl1DKD1PKU4xW0NIMl1bQ0gyXVtDSF0oW0NIMl1bQ0gyXTEpW05IXVtDQEBIXTJbQ0gyXVtDSDJdW0NIMl1bQ0BIXTJuM1tjSF1bY0hdbltjSF0z

> <s_epik_cmdline>
J2VwaWtfcHl0aG9uJywgJy1waCcsICc3LjAnLCAnLXRuJywgJzgnLCAnLW1hJywgJzIwMCcsICctbWV0YWxfYmluZGluZycsICctaW1hZScsICc8aW5maWxlLm1hZT4nLCAnLW9tYWUnLCAnPG91dGZpbGUubWFlPic=

> <r_lp_tautomer_probability>
1

> <r_epik_Ionization_Penalty>
1.30217

> <r_epik_Ionization_Penalty_Charging>
0.00439521

> <r_epik_Ionization_Penalty_Neutral>
1.29777

> <r_epik_State_Penalty>
0.977606

> <r_epik_Charging_Adjusted_Penalty>
0.982001

> <i_epik_Tot_Q>
2

> <i_epik_Tot_abs_Q>
2

> <r_epik_Metal_State_Penalty>
1.03289

> <b_epik_Metal_Only>
0

> <s_lp_Force_Field>
OPLS_2005

> <r_lp_Energy>
66.0454

> <b_lp_Chiralities_Consistent>
1

> <s_lp_Variant>
AV-unprocessed.smi:862-7

> <Gold.Version>
5.8.1

> <Gold.Id.Protein>
6NUR|6NUR_protein|mol2

> <Gold.PLP.Fitness>
46.5196

> <Gold.PLP.PLP>
-42.7304

> <Gold.PLP.part.hbond>
-3.9257

> <Gold.PLP.part.metal>
0.0000

> <Gold.PLP.part.buried>
-0.6190

> <Gold.PLP.part.nonpolar>
-36.9658

> <Gold.PLP.part.repulsive>
0.4015

> <Gold.PLP.ligand.clash>
0.0000

> <Gold.PLP.ligand.torsion>
0.6319

> <Gold.PLP.Chemscore.Hbond>
0.6786

> <Gold.PLP.Chemscore.CHOScore>
0.9785

> <Gold.PLP.Chemscore.Metal>
0.0000

> <Gold.Chemscore.Hbonds>
donor molecule, donor type, donor heavy atom, donor atom, acceptor molecule, acceptor atom, score
      L1  H     8    44       P1  8028  0.66
      L1  C    15    37       P1  7957  0.98

> <Gold.PLP.Chemscore.Internal.Correction>
0.0817

> <Gold.Rescore>
     Score         DG    S(hbond)    S(metal)    S(lipo)     H(rot)  DE(clash)    DE(int)     intcor
     11.24     -13.85       0.38        0.00      97.50       1.68       2.14       0.47       ----

> <Gold.Chemscore.Fitness>
11.2359

> <Gold.Chemscore.DG>
-13.8459

> <Gold.Chemscore.ZeroCoef>
-5.4800

> <Gold.Chemscore.Hbond>
0.3780

> <Gold.Chemscore.Metal>
0.0000

> <Gold.Chemscore.Lipo>
97.5027

> <Gold.Chemscore.Internal_Hbond>
0.0000

> <Gold.Chemscore.DEClash>
2.1424

> <Gold.Chemscore.DEInternal>
0.4676

> <Gold.Chemscore.Rot>
1.6814

> <Gold.Chemscore.Internal.Correction>
   9.000000E+99

> <Gold.Chemscore.Hbonds>
donor molecule, donor type, donor heavy atom, donor atom, acceptor molecule, acceptor atom, score
      L1  H     8    44       P1  8028  0.33

> <Gold.Chemscore.Hbond.Weighted>
-1.2624

> <Gold.Chemscore.Metal.Weighted>
-0.0000

> <Gold.Chemscore.Lipo.Weighted>
-11.4078

> <Gold.Chemscore.Internal_Hbond.Weighted>
0.0000

> <Gold.Chemscore.DEClash.Weighted>
2.1424

> <Gold.Chemscore.DEInternal.Weighted>
0.4676

> <Gold.Chemscore.Rot.Weighted>
4.3043

> <Gold.Chemscore.Internal.Correction.Weighted>
   9.000000E+99

> <Gold.Protein.RotatedTorsions>
[ 6907 6896 6895 6894 ] final -140.46 input  -60.11 | X-H torsion
[ 7974 7965 7964 7962 ] final  151.42 input  175.53 | X-H torsion
[ 8008 7997 7996 7995 ] final -114.10 input   59.86 | X-H torsion
[ 10167 10162 10161 10158 ] final  164.36 input  -65.29 | X-H torsion
[ 10718 10713 10712 10709 ] final   41.00 input   66.30 | X-H torsion
[ 10763 10752 10751 10750 ] final   -1.48 input  -60.55 | X-H torsion
[ 11005 11000 10999 10996 ] final -111.83 input  -57.11 | X-H torsion

> <Gold.Protein.ActiveResidues>
 VAL166  LYS551  ARG553  GLY616  TRP617  ASP618  TYR619  PRO620  LYS621  CYS622 
 ASP623  PHE694  ASN695  SER759  ASP760  ASP761  ALA762  ILE779  LEU786  VAL792 
 PHE793  MET794  SER795  GLU796  ALA797  LYS798  CYS799  TRP800  GLU811  SER814 

> <Gold.Protein.RotatedAtoms>
  151.0610  133.5544  159.2634 H   0  0  0  0  0  0  0  0  0  0  0  0  # atno 6907 bound_to 6896
  151.2519  135.0624  159.9075 H   0  0  0  0  0  0  0  0  0  0  0  0  # atno 6908 bound_to 6896
  152.5397  134.0370  159.8104 H   0  0  0  0  0  0  0  0  0  0  0  0  # atno 6909 bound_to 6896
  144.8293  139.6536  143.6066 H   0  0  0  0  0  0  0  0  0  0  0  0  # atno 7974 bound_to 7965
  155.0310  140.0393  157.2474 H   0  0  0  0  0  0  0  0  0  0  0  0  # atno 8008 bound_to 7997
  154.7296  140.2728  155.6444 H   0  0  0  0  0  0  0  0  0  0  0  0  # atno 8009 bound_to 7997
  156.2838  140.2686  156.1993 H   0  0  0  0  0  0  0  0  0  0  0  0  # atno 8010 bound_to 7997
  139.4888  144.4243  151.9149 H   0  0  0  0  0  0  0  0  0  0  0  0  # atno 10167 bound_to 10162
  157.3886  130.7794  149.7251 H   0  0  0  0  0  0  0  0  0  0  0  0  # atno 10718 bound_to 10713
  153.3455  135.6983  153.6832 H   0  0  0  0  0  0  0  0  0  0  0  0  # atno 10763 bound_to 10752
  153.5580  135.3540  155.2788 H   0  0  0  0  0  0  0  0  0  0  0  0  # atno 10764 bound_to 10752
  154.8644  135.4242  154.2678 H   0  0  0  0  0  0  0  0  0  0  0  0  # atno 10765 bound_to 10752
  141.0711  133.9378  157.2482 H   0  0  0  0  0  0  0  0  0  0  0  0  # atno 11005 bound_to 11000
  146.2597  139.6383  142.9370 LP  0  0  0  0  0  0  0  0  0  0  0  0  # atno 17320 bound_to 7965
  145.4930  141.0438  143.2583 LP  0  0  0  0  0  0  0  0  0  0  0  0  # atno 17321 bound_to 7965
  140.3688  144.2881  150.5923 LP  0  0  0  0  0  0  0  0  0  0  0  0  # atno 17342 bound_to 10162
  140.5338  143.2237  151.8196 LP  0  0  0  0  0  0  0  0  0  0  0  0  # atno 17343 bound_to 10162
  155.9793  130.4042  150.3598 LP  0  0  0  0  0  0  0  0  0  0  0  0  # atno 17370 bound_to 10713
  157.1711  131.0369  151.2795 LP  0  0  0  0  0  0  0  0  0  0  0  0  # atno 17371 bound_to 10713
  139.9525  135.0172  156.9034 LP  0  0  0  0  0  0  0  0  0  0  0  0  # atno 17394 bound_to 11000
  140.5671  134.0479  155.7418 LP  0  0  0  0  0  0  0  0  0  0  0  0  # atno 17395 bound_to 11000

$$$$
