AV-unprocessed.smi:866|AV-procd|sdf|3992|dock8
  -GOLD-   22720 1473D 1   1.00000     0.00000
 Structure written by MMmdl.
 34 34  0  0  0  0  0  0  0  0  2 V2000
  145.6205  133.0642  150.1796 C   0  0  0  0  0  0  0  0  0  0  0  0
  145.2555  134.3261  150.9070 C   0  0  0  0  0  0  0  0  0  0  0  0
  143.9552  134.8594  151.1355 C   0  0  0  0  0  0  0  0  0  0  0  0
  143.9775  135.9955  151.8132 N   0  0  0  0  0  0  0  0  0  0  0  0
  145.2875  136.2282  152.0385 N   0  0  0  0  0  0  0  0  0  0  0  0
  145.6910  137.4131  152.7705 C   0  0  0  0  0  0  0  0  0  0  0  0
  146.4643  138.3956  151.8796 C   0  0  0  0  0  0  0  0  0  0  0  0
  147.8683  138.5159  152.3227 N   0  3  0  0  0  0  0  0  0  0  0  0
  148.0563  139.0209  153.7043 C   0  0  2  0  0  0  0  0  0  0  0  0
  147.6539  140.5020  153.8081 C   0  0  0  0  0  0  0  0  0  0  0  0
  149.5193  138.8220  154.1653 C   0  0  0  0  0  0  0  0  0  0  0  0
  149.9489  139.6990  155.3504 C   0  0  0  0  0  0  0  0  0  0  0  0
  149.2217  139.5944  156.4649 N   0  0  0  0  0  0  0  0  0  0  0  0
  150.9141  140.4569  155.2704 O   0  0  0  0  0  0  0  0  0  0  0  0
  146.0814  135.2347  151.5061 C   0  0  0  0  0  0  0  0  0  0  0  0
  144.7379  132.5186  149.8453 H   0  0  0  0  0  0  0  0  0  0  0  0
  146.1955  132.3873  150.8117 H   0  0  0  0  0  0  0  0  0  0  0  0
  146.2239  133.2704  149.2953 H   0  0  0  0  0  0  0  0  0  0  0  0
  143.0008  134.4566  150.8297 H   0  0  0  0  0  0  0  0  0  0  0  0
  144.7980  137.8876  153.1802 H   0  0  0  0  0  0  0  0  0  0  0  0
  146.3042  137.1048  153.6182 H   0  0  0  0  0  0  0  0  0  0  0  0
  146.4290  138.0572  150.8440 H   0  0  0  0  0  0  0  0  0  0  0  0
  145.9941  139.3795  151.9151 H   0  0  0  0  0  0  0  0  0  0  0  0
  148.2684  137.5888  152.2862 H   0  0  0  0  0  0  0  0  0  0  0  0
  147.4104  138.4467  154.3710 H   0  0  0  0  0  0  0  0  0  0  0  0
  147.8090  140.8778  154.8200 H   0  0  0  0  0  0  0  0  0  0  0  0
  146.6012  140.6549  153.5707 H   0  0  0  0  0  0  0  0  0  0  0  0
  148.2429  141.1224  153.1317 H   0  0  0  0  0  0  0  0  0  0  0  0
  149.6847  137.7754  154.4259 H   0  0  0  0  0  0  0  0  0  0  0  0
  150.1938  139.0418  153.3364 H   0  0  0  0  0  0  0  0  0  0  0  0
  149.4504  140.1528  157.2748 H   0  0  0  0  0  0  0  0  0  0  0  0
  148.4355  138.9606  156.4924 H   0  0  0  0  0  0  0  0  0  0  0  0
  147.1576  135.2559  151.5943 H   0  0  0  0  0  0  0  0  0  0  0  0
  148.3745  139.1092  151.6813 H   0  0  0  0  0  0  0  0  0  0  0  0
  1  2  1  0  0  0  0
  1 16  1  0  0  0  0
  1 17  1  0  0  0  0
  1 18  1  0  0  0  0
  2 15  2  0  0  0  0
  2  3  1  0  0  0  0
  3  4  2  0  0  0  0
  3 19  1  0  0  0  0
  4  5  1  0  0  0  0
  5  6  1  0  0  0  0
  5 15  1  0  0  0  0
  6  7  1  0  0  0  0
  6 20  1  0  0  0  0
  6 21  1  0  0  0  0
  7  8  1  0  0  0  0
  7 22  1  0  0  0  0
  7 23  1  0  0  0  0
  8  9  1  0  0  0  0
  8 24  1  0  0  0  0
  8 34  1  0  0  0  0
  9 10  1  0  0  0  0
  9 11  1  0  0  0  0
  9 25  1  0  0  0  0
 10 26  1  0  0  0  0
 10 27  1  0  0  0  0
 10 28  1  0  0  0  0
 11 12  1  0  0  0  0
 11 29  1  0  0  0  0
 11 30  1  0  0  0  0
 12 13  1  0  0  0  0
 12 14  2  0  0  0  0
 13 31  1  0  0  0  0
 13 32  1  0  0  0  0
 15 33  1  0  0  0  0
M  CHG  1   8   1
M  END
> <s_m_source_file>
AV-unprocessed.smi

> <i_m_source_file_index>
866

> <i_lp_mmshare_version>
43012

> <i_f3d_flags>
0

> <s_epik_input>
W0NIM11jMVtjSF1ubihbY0hdMSlbQ0gyXVtDSDJdW05IXVtDQEhdKFtDSDNdKVtDSDJdQyg9TylbTkgyXQ==

> <s_epik_cmdline>
J2VwaWtfcHl0aG9uJywgJy1waCcsICc3LjAnLCAnLXRuJywgJzgnLCAnLW1hJywgJzIwMCcsICctbWV0YWxfYmluZGluZycsICctaW1hZScsICc8aW5maWxlLm1hZT4nLCAnLW9tYWUnLCAnPG91dGZpbGUubWFlPic=

> <r_lp_tautomer_probability>
1

> <r_epik_Ionization_Penalty>
0.0061413

> <r_epik_Ionization_Penalty_Charging>
0.00613574

> <r_epik_Ionization_Penalty_Neutral>
5.56035e-06

> <r_epik_State_Penalty>
0.00452343

> <r_epik_Charging_Adjusted_Penalty>
0.0106592

> <i_epik_Tot_Q>
1

> <i_epik_Tot_abs_Q>
1

> <r_epik_Metal_State_Penalty>
-0

> <b_epik_Metal_Only>
0

> <s_lp_Force_Field>
OPLS_2005

> <r_lp_Energy>
1.4749

> <b_lp_Chiralities_Consistent>
1

> <s_lp_Variant>
AV-unprocessed.smi:866-1

> <Gold.Version>
5.8.1

> <Gold.Id.Protein>
6NUR|6NUR_protein|mol2

> <Gold.PLP.Fitness>
42.5801

> <Gold.PLP.PLP>
-25.8849

> <Gold.PLP.part.hbond>
-3.0000

> <Gold.PLP.part.metal>
0.0000

> <Gold.PLP.part.buried>
-0.9949

> <Gold.PLP.part.nonpolar>
-22.6056

> <Gold.PLP.part.repulsive>
0.3005

> <Gold.PLP.ligand.clash>
0.0000

> <Gold.PLP.ligand.torsion>
0.6905

> <Gold.PLP.Chemscore.Hbond>
4.0000

> <Gold.PLP.Chemscore.CHOScore>
2.0000

> <Gold.PLP.Chemscore.Metal>
0.0000

> <Gold.Chemscore.Hbonds>
donor molecule, donor type, donor heavy atom, donor atom, acceptor molecule, acceptor atom, score
      L1  H     8    24       P1  7948  2.00
      L1  H     8    34       P1  7957  1.00
      P1  H  7989  7998       L1    14  1.00
      L1  C     3    19       P1 10186  1.00
      L1  C    15    33       P1  7948  0.96

> <Gold.PLP.Chemscore.Internal.Correction>
0.0763

> <Gold.Rescore>
     Score         DG    S(hbond)    S(metal)    S(lipo)     H(rot)  DE(clash)    DE(int)     intcor
     13.83     -14.54       2.87        0.00      56.26       2.77       0.06       0.65       ----

> <Gold.Chemscore.Fitness>
13.8319

> <Gold.Chemscore.DG>
-14.5412

> <Gold.Chemscore.ZeroCoef>
-5.4800

> <Gold.Chemscore.Hbond>
2.8684

> <Gold.Chemscore.Metal>
0.0000

> <Gold.Chemscore.Lipo>
56.2582

> <Gold.Chemscore.Internal_Hbond>
0.0000

> <Gold.Chemscore.DEClash>
0.0585

> <Gold.Chemscore.DEInternal>
0.6508

> <Gold.Chemscore.Rot>
2.7740

> <Gold.Chemscore.Internal.Correction>
   9.000000E+99

> <Gold.Chemscore.Hbonds>
donor molecule, donor type, donor heavy atom, donor atom, acceptor molecule, acceptor atom, score
      L1  H     8    24       P1  7948  0.96
      L1  H     8    34       P1  7957  0.88
      P1  H  7989  7998       L1    14  0.90

> <Gold.Chemscore.Hbond.Weighted>
-9.5805

> <Gold.Chemscore.Metal.Weighted>
-0.0000

> <Gold.Chemscore.Lipo.Weighted>
-6.5822

> <Gold.Chemscore.Internal_Hbond.Weighted>
0.0000

> <Gold.Chemscore.DEClash.Weighted>
0.0585

> <Gold.Chemscore.DEInternal.Weighted>
0.6508

> <Gold.Chemscore.Rot.Weighted>
7.1014

> <Gold.Chemscore.Internal.Correction.Weighted>
   9.000000E+99

> <Gold.Protein.RotatedTorsions>
[ 6907 6896 6895 6894 ] final  -94.84 input  -60.11 | X-H torsion
[ 7974 7965 7964 7962 ] final  -98.58 input  175.53 | X-H torsion
[ 8008 7997 7996 7995 ] final -154.10 input   59.86 | X-H torsion
[ 10167 10162 10161 10158 ] final -128.05 input  -65.29 | X-H torsion
[ 10718 10713 10712 10709 ] final   82.31 input   66.30 | X-H torsion
[ 10763 10752 10751 10750 ] final  -73.73 input  -60.55 | X-H torsion
[ 11005 11000 10999 10996 ] final  147.97 input  -57.11 | X-H torsion

> <Gold.Protein.ActiveResidues>
 VAL166  LYS551  ARG553  GLY616  TRP617  ASP618  TYR619  PRO620  LYS621  CYS622 
 ASP623  PHE694  ASN695  SER759  ASP760  ASP761  ALA762  ILE779  LEU786  VAL792 
 PHE793  MET794  SER795  GLU796  ALA797  LYS798  CYS799  TRP800  GLU811  SER814 

> <Gold.Protein.RotatedAtoms>
  150.6950  134.1750  159.4226 H   0  0  0  0  0  0  0  0  0  0  0  0  # atno 6907 bound_to 6896
  151.9726  135.0066  160.0563 H   0  0  0  0  0  0  0  0  0  0  0  0  # atno 6908 bound_to 6896
  152.1827  133.4683  159.5003 H   0  0  0  0  0  0  0  0  0  0  0  0  # atno 6909 bound_to 6896
  145.3188  140.9417  143.2727 H   0  0  0  0  0  0  0  0  0  0  0  0  # atno 7974 bound_to 7965
  155.6812  140.0744  157.2484 H   0  0  0  0  0  0  0  0  0  0  0  0  # atno 8008 bound_to 7997
  154.4105  140.1681  156.2036 H   0  0  0  0  0  0  0  0  0  0  0  0  # atno 8009 bound_to 7997
  155.9533  140.3375  155.6430 H   0  0  0  0  0  0  0  0  0  0  0  0  # atno 8010 bound_to 7997
  139.9544  143.6020  152.2465 H   0  0  0  0  0  0  0  0  0  0  0  0  # atno 10167 bound_to 10162
  157.6854  131.0042  150.2356 H   0  0  0  0  0  0  0  0  0  0  0  0  # atno 10718 bound_to 10713
  154.4635  135.5887  153.6272 H   0  0  0  0  0  0  0  0  0  0  0  0  # atno 10763 bound_to 10752
  152.9826  135.6049  154.3457 H   0  0  0  0  0  0  0  0  0  0  0  0  # atno 10764 bound_to 10752
  154.3331  135.2842  155.2440 H   0  0  0  0  0  0  0  0  0  0  0  0  # atno 10765 bound_to 10752
  140.0921  134.9035  157.1666 H   0  0  0  0  0  0  0  0  0  0  0  0  # atno 11005 bound_to 11000
  144.8956  139.4716  143.6657 LP  0  0  0  0  0  0  0  0  0  0  0  0  # atno 17320 bound_to 7965
  146.3090  139.7680  142.9034 LP  0  0  0  0  0  0  0  0  0  0  0  0  # atno 17321 bound_to 7965
  139.6603  144.7662  151.1976 LP  0  0  0  0  0  0  0  0  0  0  0  0  # atno 17342 bound_to 10162
  140.7573  143.6021  150.8689 LP  0  0  0  0  0  0  0  0  0  0  0  0  # atno 17343 bound_to 10162
  156.2980  130.3754  149.7777 LP  0  0  0  0  0  0  0  0  0  0  0  0  # atno 17370 bound_to 10713
  156.5416  130.8302  151.3271 LP  0  0  0  0  0  0  0  0  0  0  0  0  # atno 17371 bound_to 10713
  140.3338  134.2780  155.7223 LP  0  0  0  0  0  0  0  0  0  0  0  0  # atno 17394 bound_to 11000
  141.2081  133.7787  157.0080 LP  0  0  0  0  0  0  0  0  0  0  0  0  # atno 17395 bound_to 11000

$$$$
