AV-unprocessed.smi:2188|AV-procd|sdf|8882|dock1
  -GOLD-   2272012 83D 1   1.00000     0.00000
 Structure written by MMmdl.
 38 40  0  0  0  0  0  0  0  0  2 V2000
  154.8194  139.8652  161.4323 O   0  0  0  0  0  0  0  0  0  0  0  0
  154.6816  140.2212  160.2544 C   0  0  0  0  0  0  0  0  0  0  0  0
  155.4457  139.7789  159.2077 N   0  5  0  0  0  0  0  0  0  0  0  0
  156.5789  138.8580  159.3072 C   0  0  0  0  0  0  0  0  0  0  0  0
  157.5667  139.3684  160.3756 C   0  0  0  0  0  0  0  0  0  0  0  0
  158.5153  140.4469  159.8694 C   0  0  0  0  0  0  0  0  0  0  0  0
  158.2443  141.1508  158.6755 C   0  0  0  0  0  0  0  0  0  0  0  0
  159.1565  142.1315  158.2412 C   0  0  0  0  0  0  0  0  0  0  0  0
  160.3084  142.3659  159.0178 C   0  0  0  0  0  0  0  0  0  0  0  0
  160.5839  141.6965  160.1577 N   0  0  0  0  0  0  0  0  0  0  0  0
  159.7032  140.7583  160.5683 C   0  0  0  0  0  0  0  0  0  0  0  0
  153.6416  141.2182  159.9248 C   0  0  0  0  0  0  0  0  0  0  0  0
  153.5309  142.3243  160.7080 C   0  0  0  0  0  0  0  0  0  0  0  0
  152.5538  143.3509  160.4453 C   0  0  0  0  0  0  0  0  0  0  0  0
  151.7197  143.1750  159.4157 C   0  0  0  0  0  0  0  0  0  0  0  0
  151.7519  142.0525  158.5904 N   0  0  0  0  0  0  0  0  0  0  0  0
  150.7124  141.9528  157.5713 C   0  0  0  0  0  0  0  0  0  0  0  0
  151.2952  141.4319  156.2705 C   0  0  0  0  0  0  0  0  0  0  0  0
  151.8864  139.7407  156.6340 S   0  0  0  0  0  0  0  0  0  0  0  0
  150.7349  138.9421  157.0828 O   0  0  0  0  0  0  0  0  0  0  0  0
  152.6811  139.2783  155.4861 O   0  0  0  0  0  0  0  0  0  0  0  0
  152.8908  140.0445  157.9390 N   0  0  0  0  0  0  0  0  0  0  0  0
  152.7433  141.0446  158.7620 C   0  0  0  0  0  0  0  0  0  0  0  0
  156.2700  137.8470  159.5769 H   0  0  0  0  0  0  0  0  0  0  0  0
  157.1005  138.7656  158.3541 H   0  0  0  0  0  0  0  0  0  0  0  0
  157.0164  139.7620  161.2316 H   0  0  0  0  0  0  0  0  0  0  0  0
  158.1629  138.5371  160.7554 H   0  0  0  0  0  0  0  0  0  0  0  0
  157.3505  140.9457  158.1045 H   0  0  0  0  0  0  0  0  0  0  0  0
  158.9769  142.6907  157.3348 H   0  0  0  0  0  0  0  0  0  0  0  0
  161.0290  143.1104  158.7134 H   0  0  0  0  0  0  0  0  0  0  0  0
  159.9542  140.2407  161.4827 H   0  0  0  0  0  0  0  0  0  0  0  0
  154.1717  142.4659  161.5668 H   0  0  0  0  0  0  0  0  0  0  0  0
  152.4981  144.2350  161.0630 H   0  0  0  0  0  0  0  0  0  0  0  0
  150.9652  143.9081  159.1702 H   0  0  0  0  0  0  0  0  0  0  0  0
  149.9164  141.2997  157.9303 H   0  0  0  0  0  0  0  0  0  0  0  0
  150.2571  142.9262  157.3868 H   0  0  0  0  0  0  0  0  0  0  0  0
  150.5453  141.3791  155.4817 H   0  0  0  0  0  0  0  0  0  0  0  0
  152.1294  142.0406  155.9197 H   0  0  0  0  0  0  0  0  0  0  0  0
  1  2  2  0  0  0  0
  2  3  1  0  0  0  0
  2 12  1  0  0  0  0
  3  4  1  0  0  0  0
  4  5  1  0  0  0  0
  4 24  1  0  0  0  0
  4 25  1  0  0  0  0
  5  6  1  0  0  0  0
  5 26  1  0  0  0  0
  5 27  1  0  0  0  0
  6 11  1  0  0  0  0
  6  7  2  0  0  0  0
  7  8  1  0  0  0  0
  7 28  1  0  0  0  0
  8  9  2  0  0  0  0
  8 29  1  0  0  0  0
  9 10  1  0  0  0  0
  9 30  1  0  0  0  0
 10 11  2  0  0  0  0
 11 31  1  0  0  0  0
 12 23  1  0  0  0  0
 12 13  2  0  0  0  0
 13 14  1  0  0  0  0
 13 32  1  0  0  0  0
 14 15  2  0  0  0  0
 14 33  1  0  0  0  0
 15 16  1  0  0  0  0
 15 34  1  0  0  0  0
 16 23  1  0  0  0  0
 16 17  1  0  0  0  0
 17 18  1  0  0  0  0
 17 35  1  0  0  0  0
 17 36  1  0  0  0  0
 18 19  1  0  0  0  0
 18 37  1  0  0  0  0
 18 38  1  0  0  0  0
 19 20  2  0  0  0  0
 19 21  2  0  0  0  0
 19 22  1  0  0  0  0
 22 23  2  0  0  0  0
M  CHG  1   3  -1
M  END
> <s_m_source_file>
AV-unprocessed.smi

> <i_m_source_file_index>
2188

> <i_lp_mmshare_version>
43012

> <i_f3d_flags>
0

> <s_epik_input>
W0NIMl0xW0NIMl1TKD1PKSg9TylOPUMoTjEyKUMoPVtDSF1bQ0hdPVtDSF0yKUMoPU8pW05IXVtDSDJdW0NIMl1jM1tjSF1bY0hdW2NIXW5bY0hdMw==

> <s_epik_cmdline>
J2VwaWtfcHl0aG9uJywgJy1waCcsICc3LjAnLCAnLXRuJywgJzgnLCAnLW1hJywgJzIwMCcsICctbWV0YWxfYmluZGluZycsICctaW1hZScsICc8aW5maWxlLm1hZT4nLCAnLW9tYWUnLCAnPG91dGZpbGUubWFlPic=

> <r_epik_Ionization_Penalty>
5.61471

> <r_epik_Ionization_Penalty_Charging>
5.5942

> <r_epik_Ionization_Penalty_Neutral>
0.0205175

> <r_epik_State_Penalty>
5.60129

> <r_epik_Charging_Adjusted_Penalty>
11.1955

> <i_epik_Tot_Q>
-1

> <i_epik_Tot_abs_Q>
1

> <r_epik_Metal_State_Penalty>
1.60393

> <b_epik_Metal_Only>
1

> <s_lp_Force_Field>
OPLS_2005

> <r_lp_Energy>
34.9518

> <b_lp_Chiralities_Consistent>
1

> <s_lp_Variant>
AV-unprocessed.smi:2188-3

> <Gold.Version>
5.8.1

> <Gold.Id.Protein>
6NUR|6NUR_protein|mol2

> <Gold.PLP.Fitness>
51.0725

> <Gold.PLP.PLP>
-44.2012

> <Gold.PLP.part.hbond>
-3.0000

> <Gold.PLP.part.metal>
0.0000

> <Gold.PLP.part.buried>
-5.9011

> <Gold.PLP.part.nonpolar>
-35.5972

> <Gold.PLP.part.repulsive>
0.0935

> <Gold.PLP.ligand.clash>
0.0000

> <Gold.PLP.ligand.torsion>
1.1509

> <Gold.PLP.Chemscore.Hbond>
2.9500

> <Gold.PLP.Chemscore.CHOScore>
0.0000

> <Gold.PLP.Chemscore.Metal>
0.0000

> <Gold.Chemscore.Hbonds>
donor molecule, donor type, donor heavy atom, donor atom, acceptor molecule, acceptor atom, score
      P1  H  7997  8008       L1     3  2.00
      P1  H  7997  8009       L1    21  0.95

> <Gold.PLP.Chemscore.Internal.Correction>
0.3231

> <Gold.Rescore>
     Score         DG    S(hbond)    S(metal)    S(lipo)     H(rot)  DE(clash)    DE(int)     intcor
     13.80     -17.46       0.90        0.00     108.30       1.44       0.08       3.58       ----

> <Gold.Chemscore.Fitness>
13.8024

> <Gold.Chemscore.DG>
-17.4621

> <Gold.Chemscore.ZeroCoef>
-5.4800

> <Gold.Chemscore.Hbond>
0.9000

> <Gold.Chemscore.Metal>
0.0000

> <Gold.Chemscore.Lipo>
108.2985

> <Gold.Chemscore.Internal_Hbond>
0.0000

> <Gold.Chemscore.DEClash>
0.0783

> <Gold.Chemscore.DEInternal>
3.5814

> <Gold.Chemscore.Rot>
1.4433

> <Gold.Chemscore.Internal.Correction>
   9.000000E+99

> <Gold.Chemscore.Hbonds>
donor molecule, donor type, donor heavy atom, donor atom, acceptor molecule, acceptor atom, score
      P1  H  7997  8008       L1     3  0.25
      P1  H  7997  8009       L1    21  0.20

> <Gold.Chemscore.Hbond.Weighted>
-3.0060

> <Gold.Chemscore.Metal.Weighted>
-0.0000

> <Gold.Chemscore.Lipo.Weighted>
-12.6709

> <Gold.Chemscore.Internal_Hbond.Weighted>
0.0000

> <Gold.Chemscore.DEClash.Weighted>
0.0783

> <Gold.Chemscore.DEInternal.Weighted>
3.5814

> <Gold.Chemscore.Rot.Weighted>
3.6949

> <Gold.Chemscore.Internal.Correction.Weighted>
   9.000000E+99

> <Gold.Protein.RotatedTorsions>
[ 6907 6896 6895 6894 ] final   55.66 input  -60.11 | X-H torsion
[ 7974 7965 7964 7962 ] final  -75.04 input  175.53 | X-H torsion
[ 8008 7997 7996 7995 ] final -137.90 input   59.86 | X-H torsion
[ 10167 10162 10161 10158 ] final   84.49 input  -65.29 | X-H torsion
[ 10718 10713 10712 10709 ] final -113.07 input   66.30 | X-H torsion
[ 10763 10752 10751 10750 ] final  -88.80 input  -60.55 | X-H torsion
[ 11005 11000 10999 10996 ] final -134.71 input  -57.11 | X-H torsion

> <Gold.Protein.ActiveResidues>
 VAL166  LYS551  ARG553  GLY616  TRP617  ASP618  TYR619  PRO620  LYS621  CYS622 
 ASP623  PHE694  ASN695  SER759  ASP760  ASP761  ALA762  ILE779  LEU786  VAL792 
 PHE793  MET794  SER795  GLU796  ALA797  LYS798  CYS799  TRP800  GLU811  SER814 

> <Gold.Protein.RotatedAtoms>
  152.3561  134.6938  160.0221 H   0  0  0  0  0  0  0  0  0  0  0  0  # atno 6907 bound_to 6896
  151.7277  133.3311  159.3340 H   0  0  0  0  0  0  0  0  0  0  0  0  # atno 6908 bound_to 6896
  150.7572  134.6325  159.6238 H   0  0  0  0  0  0  0  0  0  0  0  0  # atno 6909 bound_to 6896
  145.6312  140.9337  143.1086 H   0  0  0  0  0  0  0  0  0  0  0  0  # atno 7974 bound_to 7965
  155.4195  140.0517  157.3026 H   0  0  0  0  0  0  0  0  0  0  0  0  # atno 8008 bound_to 7997
  154.4909  140.2119  155.9509 H   0  0  0  0  0  0  0  0  0  0  0  0  # atno 8009 bound_to 7997
  156.1341  140.3166  155.8398 H   0  0  0  0  0  0  0  0  0  0  0  0  # atno 8010 bound_to 7997
  139.9075  144.6292  150.8572 H   0  0  0  0  0  0  0  0  0  0  0  0  # atno 10167 bound_to 10162
  156.0744  130.5953  150.8593 H   0  0  0  0  0  0  0  0  0  0  0  0  # atno 10718 bound_to 10713
  154.6485  135.5364  153.7873 H   0  0  0  0  0  0  0  0  0  0  0  0  # atno 10763 bound_to 10752
  153.0373  135.6476  154.1053 H   0  0  0  0  0  0  0  0  0  0  0  0  # atno 10764 bound_to 10752
  154.0972  135.2936  155.3239 H   0  0  0  0  0  0  0  0  0  0  0  0  # atno 10765 bound_to 10752
  140.8965  134.1745  157.4491 H   0  0  0  0  0  0  0  0  0  0  0  0  # atno 11005 bound_to 11000
  144.7193  139.8086  143.7387 LP  0  0  0  0  0  0  0  0  0  0  0  0  # atno 17320 bound_to 7965
  146.1355  139.4400  143.0142 LP  0  0  0  0  0  0  0  0  0  0  0  0  # atno 17321 bound_to 7965
  140.7693  143.3391  151.2247 LP  0  0  0  0  0  0  0  0  0  0  0  0  # atno 17342 bound_to 10162
  139.6972  143.9594  152.2888 LP  0  0  0  0  0  0  0  0  0  0  0  0  # atno 17343 bound_to 10162
  157.5832  131.0946  150.9238 LP  0  0  0  0  0  0  0  0  0  0  0  0  # atno 17370 bound_to 10713
  156.9429  130.5391  149.5280 LP  0  0  0  0  0  0  0  0  0  0  0  0  # atno 17371 bound_to 10713
  139.8736  134.9880  156.5395 LP  0  0  0  0  0  0  0  0  0  0  0  0  # atno 17394 bound_to 11000
  140.8282  133.8299  155.8959 LP  0  0  0  0  0  0  0  0  0  0  0  0  # atno 17395 bound_to 11000

$$$$
