AV-unprocessed.smi:2390|AV-procd|sdf|9475|dock4
  -GOLD-   2272013103D 1   1.00000     0.00000
 Structure written by MMmdl.
 45 46  0  0  0  0  0  0  0  0  1 V2000
  153.4486  142.1012  161.0172 C   0  0  0  0  0  0  0  0  0  0  0  0
  152.5518  143.1434  160.3827 C   0  0  0  0  0  0  0  0  0  0  0  0
  152.4435  144.4365  160.9307 C   0  0  0  0  0  0  0  0  0  0  0  0
  151.5966  145.3587  160.2908 C   0  0  0  0  0  0  0  0  0  0  0  0
  150.8992  144.9537  159.1364 C   0  0  0  0  0  0  0  0  0  0  0  0
  151.0646  143.6371  158.6505 C   0  0  0  0  0  0  0  0  0  0  0  0
  150.3257  143.3311  157.4770 N   0  0  0  0  0  0  0  0  0  0  0  0
  149.9947  142.1203  156.9949 C   0  0  0  0  0  0  0  0  0  0  0  0
  150.2432  141.0434  157.5382 O   0  0  0  0  0  0  0  0  0  0  0  0
  149.3402  142.2276  155.8291 N   0  0  0  0  0  0  0  0  0  0  0  0
  148.8334  141.1109  155.0320 C   0  0  2  0  0  0  0  0  0  0  0  0
  150.0058  140.4821  154.2584 C   0  0  0  0  0  0  0  0  0  0  0  0
  147.6433  141.5420  154.1137 C   0  0  1  0  0  0  0  0  0  0  0  0
  147.0706  140.3046  153.3734 C   0  0  0  0  0  0  0  0  0  0  0  0
  146.6012  142.3316  154.8130 N   0  0  0  0  0  0  0  0  0  0  0  0
  145.5896  142.8765  153.9000 C   0  0  0  0  0  0  0  0  0  0  0  0
  144.4976  143.6778  154.6301 C   0  0  0  0  0  0  0  0  0  0  0  0
  143.8810  142.8634  155.6179 O   0  0  0  0  0  0  0  0  0  0  0  0
  144.8176  142.3759  156.5685 C   0  0  0  0  0  0  0  0  0  0  0  0
  145.9058  141.5604  155.8493 C   0  0  0  0  0  0  0  0  0  0  0  0
  151.8832  142.7546  159.2755 N   0  0  0  0  0  0  0  0  0  0  0  0
  153.7773  142.4138  162.0086 H   0  0  0  0  0  0  0  0  0  0  0  0
  154.3321  141.9381  160.3997 H   0  0  0  0  0  0  0  0  0  0  0  0
  152.9205  141.1525  161.1192 H   0  0  0  0  0  0  0  0  0  0  0  0
  152.9939  144.7171  161.8168 H   0  0  0  0  0  0  0  0  0  0  0  0
  151.4840  146.3609  160.6773 H   0  0  0  0  0  0  0  0  0  0  0  0
  150.2458  145.6508  158.6317 H   0  0  0  0  0  0  0  0  0  0  0  0
  150.0291  144.1268  156.9318 H   0  0  0  0  0  0  0  0  0  0  0  0
  149.1781  143.1532  155.4607 H   0  0  0  0  0  0  0  0  0  0  0  0
  148.4928  140.3702  155.7545 H   0  0  0  0  0  0  0  0  0  0  0  0
  149.6827  139.6135  153.6845 H   0  0  0  0  0  0  0  0  0  0  0  0
  150.7861  140.1452  154.9415 H   0  0  0  0  0  0  0  0  0  0  0  0
  150.4609  141.1896  153.5650 H   0  0  0  0  0  0  0  0  0  0  0  0
  148.0686  142.1844  153.3409 H   0  0  0  0  0  0  0  0  0  0  0  0
  147.8487  139.6767  152.9412 H   0  0  0  0  0  0  0  0  0  0  0  0
  146.4368  140.5911  152.5349 H   0  0  0  0  0  0  0  0  0  0  0  0
  146.4774  139.6789  154.0405 H   0  0  0  0  0  0  0  0  0  0  0  0
  146.0438  143.5510  153.1771 H   0  0  0  0  0  0  0  0  0  0  0  0
  145.1279  142.0666  153.3330 H   0  0  0  0  0  0  0  0  0  0  0  0
  144.9201  144.5701  155.0948 H   0  0  0  0  0  0  0  0  0  0  0  0
  143.7390  144.0140  153.9231 H   0  0  0  0  0  0  0  0  0  0  0  0
  145.2583  143.2092  157.1186 H   0  0  0  0  0  0  0  0  0  0  0  0
  144.2955  141.7536  157.2953 H   0  0  0  0  0  0  0  0  0  0  0  0
  145.4576  140.6687  155.4085 H   0  0  0  0  0  0  0  0  0  0  0  0
  146.6064  141.2207  156.6102 H   0  0  0  0  0  0  0  0  0  0  0  0
  1  2  1  0  0  0  0
  1 22  1  0  0  0  0
  1 23  1  0  0  0  0
  1 24  1  0  0  0  0
  2 21  1  0  0  0  0
  2  3  2  0  0  0  0
  3  4  1  0  0  0  0
  3 25  1  0  0  0  0
  4  5  2  0  0  0  0
  4 26  1  0  0  0  0
  5  6  1  0  0  0  0
  5 27  1  0  0  0  0
  6  7  1  0  0  0  0
  6 21  2  0  0  0  0
  7  8  1  0  0  0  0
  7 28  1  0  0  0  0
  8  9  2  0  0  0  0
  8 10  1  0  0  0  0
 10 11  1  0  0  0  0
 10 29  1  0  0  0  0
 11 12  1  0  0  0  0
 11 13  1  0  0  0  0
 11 30  1  0  0  0  0
 12 31  1  0  0  0  0
 12 32  1  0  0  0  0
 12 33  1  0  0  0  0
 13 14  1  0  0  0  0
 13 15  1  0  0  0  0
 13 34  1  0  0  0  0
 14 35  1  0  0  0  0
 14 36  1  0  0  0  0
 14 37  1  0  0  0  0
 15 20  1  0  0  0  0
 15 16  1  0  0  0  0
 16 17  1  0  0  0  0
 16 38  1  0  0  0  0
 16 39  1  0  0  0  0
 17 18  1  0  0  0  0
 17 40  1  0  0  0  0
 17 41  1  0  0  0  0
 18 19  1  0  0  0  0
 19 20  1  0  0  0  0
 19 42  1  0  0  0  0
 19 43  1  0  0  0  0
 20 44  1  0  0  0  0
 20 45  1  0  0  0  0
M  END
> <s_m_source_file>
AV-unprocessed.smi

> <i_m_source_file_index>
2390

> <i_lp_mmshare_version>
43012

> <i_f3d_flags>
0

> <s_epik_input>
W0NIM11jMVtjSF1bY0hdW2NIXWMobjEpW05IXUMoPU8pW05IXVtDQEhdKFtDSDNdKVtDQEhdKFtDSDNdKU4yW0NIMl1bQ0gyXU9bQ0gyXVtDSDJdMg==

> <s_epik_cmdline>
J2VwaWtfcHl0aG9uJywgJy1waCcsICc3LjAnLCAnLXRuJywgJzgnLCAnLW1hJywgJzIwMCcsICctbWV0YWxfYmluZGluZycsICctaW1hZScsICc8aW5maWxlLm1hZT4nLCAnLW9tYWUnLCAnPG91dGZpbGUubWFlPic=

> <r_epik_Ionization_Penalty>
0.266074

> <r_epik_Ionization_Penalty_Charging>
0

> <r_epik_Ionization_Penalty_Neutral>
0.266074

> <r_epik_State_Penalty>
0.257924

> <r_epik_Charging_Adjusted_Penalty>
0.257924

> <i_epik_Tot_Q>
0

> <i_epik_Tot_abs_Q>
0

> <r_epik_Metal_State_Penalty>
0.257919

> <b_epik_Metal_Only>
0

> <s_lp_Force_Field>
OPLS_2005

> <r_lp_Energy>
33.31

> <b_lp_Chiralities_Consistent>
1

> <s_lp_Variant>
AV-unprocessed.smi:2390-3

> <Gold.Version>
5.8.1

> <Gold.Id.Protein>
6NUR|6NUR_protein|mol2

> <Gold.PLP.Fitness>
48.4233

> <Gold.PLP.PLP>
-44.4065

> <Gold.PLP.part.hbond>
-2.0000

> <Gold.PLP.part.metal>
0.0000

> <Gold.PLP.part.buried>
-6.2874

> <Gold.PLP.part.nonpolar>
-36.4743

> <Gold.PLP.part.repulsive>
0.4853

> <Gold.PLP.ligand.clash>
0.0000

> <Gold.PLP.ligand.torsion>
0.4678

> <Gold.PLP.Chemscore.Hbond>
1.6000

> <Gold.PLP.Chemscore.CHOScore>
0.0000

> <Gold.PLP.Chemscore.Metal>
0.0000

> <Gold.Chemscore.Hbonds>
donor molecule, donor type, donor heavy atom, donor atom, acceptor molecule, acceptor atom, score
      L1  H     7    28       P1  8028  0.94
      L1  H    10    29       P1  8028  1.00

> <Gold.PLP.Chemscore.Internal.Correction>
0.1525

> <Gold.Rescore>
     Score         DG    S(hbond)    S(metal)    S(lipo)     H(rot)  DE(clash)    DE(int)     intcor
     17.17     -19.39       1.64        0.00     103.72       1.44       0.88       1.34       ----

> <Gold.Chemscore.Fitness>
17.1687

> <Gold.Chemscore.DG>
-19.3945

> <Gold.Chemscore.ZeroCoef>
-5.4800

> <Gold.Chemscore.Hbond>
1.6362

> <Gold.Chemscore.Metal>
0.0000

> <Gold.Chemscore.Lipo>
103.7183

> <Gold.Chemscore.Internal_Hbond>
0.0000

> <Gold.Chemscore.DEClash>
0.8825

> <Gold.Chemscore.DEInternal>
1.3432

> <Gold.Chemscore.Rot>
1.4396

> <Gold.Chemscore.Internal.Correction>
   9.000000E+99

> <Gold.Chemscore.Hbonds>
donor molecule, donor type, donor heavy atom, donor atom, acceptor molecule, acceptor atom, score
      L1  H     7    28       P1  8028  0.84
      L1  H    10    29       P1  8028  0.95

> <Gold.Chemscore.Hbond.Weighted>
-5.4649

> <Gold.Chemscore.Metal.Weighted>
-0.0000

> <Gold.Chemscore.Lipo.Weighted>
-12.1350

> <Gold.Chemscore.Internal_Hbond.Weighted>
0.0000

> <Gold.Chemscore.DEClash.Weighted>
0.8825

> <Gold.Chemscore.DEInternal.Weighted>
1.3432

> <Gold.Chemscore.Rot.Weighted>
3.6855

> <Gold.Chemscore.Internal.Correction.Weighted>
   9.000000E+99

> <Gold.Protein.RotatedTorsions>
[ 6907 6896 6895 6894 ] final  -33.37 input  -60.11 | X-H torsion
[ 7974 7965 7964 7962 ] final  137.38 input  175.53 | X-H torsion
[ 8008 7997 7996 7995 ] final   44.97 input   59.86 | X-H torsion
[ 10167 10162 10161 10158 ] final -131.96 input  -65.29 | X-H torsion
[ 10718 10713 10712 10709 ] final   36.59 input   66.30 | X-H torsion
[ 10763 10752 10751 10750 ] final -111.04 input  -60.55 | X-H torsion
[ 11005 11000 10999 10996 ] final   71.88 input  -57.11 | X-H torsion

> <Gold.Protein.ActiveResidues>
 VAL166  LYS551  ARG553  GLY616  TRP617  ASP618  TYR619  PRO620  LYS621  CYS622 
 ASP623  PHE694  ASN695  SER759  ASP760  ASP761  ALA762  ILE779  LEU786  VAL792 
 PHE793  MET794  SER795  GLU796  ALA797  LYS798  CYS799  TRP800  GLU811  SER814 

> <Gold.Protein.RotatedAtoms>
  151.0664  134.9770  159.8286 H   0  0  0  0  0  0  0  0  0  0  0  0  # atno 6907 bound_to 6896
  152.5402  134.2353  159.8851 H   0  0  0  0  0  0  0  0  0  0  0  0  # atno 6908 bound_to 6896
  151.2375  133.4374  159.2639 H   0  0  0  0  0  0  0  0  0  0  0  0  # atno 6909 bound_to 6896
  144.9474  139.4859  143.5542 H   0  0  0  0  0  0  0  0  0  0  0  0  # atno 7974 bound_to 7965
  155.3281  140.3401  155.4240 H   0  0  0  0  0  0  0  0  0  0  0  0  # atno 8008 bound_to 7997
  156.1875  140.1686  156.8193 H   0  0  0  0  0  0  0  0  0  0  0  0  # atno 8009 bound_to 7997
  154.5404  140.0726  156.8483 H   0  0  0  0  0  0  0  0  0  0  0  0  # atno 8010 bound_to 7997
  139.9135  143.6466  152.2570 H   0  0  0  0  0  0  0  0  0  0  0  0  # atno 10167 bound_to 10162
  157.3367  130.7526  149.6884 H   0  0  0  0  0  0  0  0  0  0  0  0  # atno 10718 bound_to 10713
  154.8280  135.4542  154.0978 H   0  0  0  0  0  0  0  0  0  0  0  0  # atno 10763 bound_to 10752
  153.2276  135.6901  153.7933 H   0  0  0  0  0  0  0  0  0  0  0  0  # atno 10764 bound_to 10752
  153.7328  135.3324  155.3265 H   0  0  0  0  0  0  0  0  0  0  0  0  # atno 10765 bound_to 10752
  139.9520  134.7210  156.0840 H   0  0  0  0  0  0  0  0  0  0  0  0  # atno 11005 bound_to 11000
  146.3308  139.8535  142.8869 LP  0  0  0  0  0  0  0  0  0  0  0  0  # atno 17320 bound_to 7965
  145.2897  141.0163  143.3670 LP  0  0  0  0  0  0  0  0  0  0  0  0  # atno 17321 bound_to 7965
  139.6922  144.7645  151.1418 LP  0  0  0  0  0  0  0  0  0  0  0  0  # atno 17342 bound_to 10162
  140.7680  143.5573  150.9138 LP  0  0  0  0  0  0  0  0  0  0  0  0  # atno 17343 bound_to 10162
  155.9702  130.4179  150.4303 LP  0  0  0  0  0  0  0  0  0  0  0  0  # atno 17370 bound_to 10713
  157.2344  131.0511  151.2473 LP  0  0  0  0  0  0  0  0  0  0  0  0  # atno 17371 bound_to 10713
  141.1184  133.6620  156.3153 LP  0  0  0  0  0  0  0  0  0  0  0  0  # atno 17394 bound_to 11000
  140.5697  134.5852  157.5454 LP  0  0  0  0  0  0  0  0  0  0  0  0  # atno 17395 bound_to 11000

$$$$
