AV-unprocessed.smi:34|AV-procd|sdf|245|dock4
  -GOLD-   2262016 03D 1   1.00000     0.00000
 Structure written by MMmdl.
 54 58  0  0  0  0  0  0  0  0  2 V2000
  152.6410  139.9224  157.8423 O   0  0  0  0  0  0  0  0  0  0  0  0
  151.8905  140.8614  157.5690 C   0  0  0  0  0  0  0  0  0  0  0  0
  150.9276  140.9080  156.6136 N   0  5  0  0  0  0  0  0  0  0  0  0
  150.4525  139.7702  156.0845 C   0  0  0  0  0  0  0  0  0  0  0  0
  150.3550  139.6273  154.7383 N   0  0  0  0  0  0  0  0  0  0  0  0
  149.8942  138.4868  154.2120 C   0  0  0  0  0  0  0  0  0  0  0  0
  149.4889  137.3771  154.8363 N   0  0  0  0  0  0  0  0  0  0  0  0
  149.5840  137.5052  156.1921 C   0  0  0  0  0  0  0  0  0  0  0  0
  150.0572  138.6605  156.8810 C   0  0  0  0  0  0  0  0  0  0  0  0
  150.0367  138.4602  158.2533 N   0  0  0  0  0  0  0  0  0  0  0  0
  149.5606  137.2204  158.3355 C   0  0  0  0  0  0  0  0  0  0  0  0
  149.2662  136.5874  157.1824 N   0  0  0  0  0  0  0  0  0  0  0  0
  148.7227  135.1999  157.0311 C   0  0  2  0  0  0  0  0  0  0  0  0
  149.4729  134.5318  156.0621 O   0  0  0  0  0  0  0  0  0  0  0  0
  148.5969  133.7624  155.2479 C   0  0  2  0  0  0  0  0  0  0  0  0
  149.2564  133.4282  153.9034 C   0  0  0  0  0  0  0  0  0  0  0  0
  148.2573  133.2976  152.9046 O   0  0  0  0  0  0  0  0  0  0  0  0
  147.4503  132.2181  152.8967 C   0  0  0  0  0  0  0  0  0  0  0  0
  147.6724  131.1962  153.5496 O   0  0  0  0  0  0  0  0  0  0  0  0
  146.2559  132.3911  152.0201 C   0  0  0  0  0  0  0  0  0  0  0  0
  145.9755  133.6660  151.4750 C   0  0  0  0  0  0  0  0  0  0  0  0
  144.8577  133.8597  150.6403 C   0  0  0  0  0  0  0  0  0  0  0  0
  144.0052  132.7808  150.3417 C   0  0  0  0  0  0  0  0  0  0  0  0
  144.2715  131.5082  150.8799 C   0  0  0  0  0  0  0  0  0  0  0  0
  145.3895  131.3124  151.7142 C   0  0  0  0  0  0  0  0  0  0  0  0
  147.3340  134.6220  155.1639 C   0  0  2  0  0  0  0  0  0  0  0  0
  147.5169  135.6019  154.2762 F   0  0  0  0  0  0  0  0  0  0  0  0
  147.2459  135.1721  156.5800 C   0  0  2  0  0  0  0  0  0  0  0  0
  146.5543  136.4071  156.6398 O   0  0  0  0  0  0  0  0  0  0  0  0
  151.9619  142.1137  158.4015 C   0  0  0  0  0  0  0  0  0  0  0  0
  152.6747  142.1041  159.6222 C   0  0  0  0  0  0  0  0  0  0  0  0
  152.7752  143.2728  160.4023 C   0  0  0  0  0  0  0  0  0  0  0  0
  152.1720  144.4667  159.9646 C   0  0  0  0  0  0  0  0  0  0  0  0
  151.4715  144.4922  158.7442 C   0  0  0  0  0  0  0  0  0  0  0  0
  151.3703  143.3240  157.9638 C   0  0  0  0  0  0  0  0  0  0  0  0
  149.8457  138.4581  153.1337 H   0  0  0  0  0  0  0  0  0  0  0  0
  149.4146  136.7438  159.2936 H   0  0  0  0  0  0  0  0  0  0  0  0
  148.8719  134.7414  158.0098 H   0  0  0  0  0  0  0  0  0  0  0  0
  148.3743  132.8394  155.7867 H   0  0  0  0  0  0  0  0  0  0  0  0
  149.9788  134.1962  153.6235 H   0  0  0  0  0  0  0  0  0  0  0  0
  149.8010  132.4869  153.9888 H   0  0  0  0  0  0  0  0  0  0  0  0
  146.6164  134.5091  151.6890 H   0  0  0  0  0  0  0  0  0  0  0  0
  144.6551  134.8374  150.2284 H   0  0  0  0  0  0  0  0  0  0  0  0
  143.1483  132.9295  149.7010 H   0  0  0  0  0  0  0  0  0  0  0  0
  143.6167  130.6797  150.6522 H   0  0  0  0  0  0  0  0  0  0  0  0
  145.5645  130.3229  152.1107 H   0  0  0  0  0  0  0  0  0  0  0  0
  146.4484  134.0633  154.8599 H   0  0  0  0  0  0  0  0  0  0  0  0
  146.7280  134.4508  157.2134 H   0  0  0  0  0  0  0  0  0  0  0  0
  146.5893  136.7312  157.5267 H   0  0  0  0  0  0  0  0  0  0  0  0
  153.1456  141.1962  159.9709 H   0  0  0  0  0  0  0  0  0  0  0  0
  153.3172  143.2521  161.3361 H   0  0  0  0  0  0  0  0  0  0  0  0
  152.2498  145.3631  160.5619 H   0  0  0  0  0  0  0  0  0  0  0  0
  151.0138  145.4089  158.4033 H   0  0  0  0  0  0  0  0  0  0  0  0
  150.8378  143.3678  157.0247 H   0  0  0  0  0  0  0  0  0  0  0  0
  1  2  2  0  0  0  0
  2  3  1  0  0  0  0
  2 30  1  0  0  0  0
  3  4  1  0  0  0  0
  4  9  1  0  0  0  0
  4  5  2  0  0  0  0
  5  6  1  0  0  0  0
  6  7  2  0  0  0  0
  6 36  1  0  0  0  0
  7  8  1  0  0  0  0
  8 12  1  0  0  0  0
  8  9  2  0  0  0  0
  9 10  1  0  0  0  0
 10 11  2  0  0  0  0
 11 12  1  0  0  0  0
 11 37  1  0  0  0  0
 12 13  1  0  0  0  0
 13 28  1  0  0  0  0
 13 14  1  0  0  0  0
 13 38  1  0  0  0  0
 14 15  1  0  0  0  0
 15 16  1  0  0  0  0
 15 26  1  0  0  0  0
 15 39  1  0  0  0  0
 16 17  1  0  0  0  0
 16 40  1  0  0  0  0
 16 41  1  0  0  0  0
 17 18  1  0  0  0  0
 18 19  2  0  0  0  0
 18 20  1  0  0  0  0
 20 25  1  0  0  0  0
 20 21  2  0  0  0  0
 21 22  1  0  0  0  0
 21 42  1  0  0  0  0
 22 23  2  0  0  0  0
 22 43  1  0  0  0  0
 23 24  1  0  0  0  0
 23 44  1  0  0  0  0
 24 25  2  0  0  0  0
 24 45  1  0  0  0  0
 25 46  1  0  0  0  0
 26 27  1  0  0  0  0
 26 28  1  0  0  0  0
 26 47  1  0  0  0  0
 28 29  1  0  0  0  0
 28 48  1  0  0  0  0
 29 49  1  0  0  0  0
 30 35  1  0  0  0  0
 30 31  2  0  0  0  0
 31 32  1  0  0  0  0
 31 50  1  0  0  0  0
 32 33  2  0  0  0  0
 32 51  1  0  0  0  0
 33 34  1  0  0  0  0
 33 52  1  0  0  0  0
 34 35  2  0  0  0  0
 34 53  1  0  0  0  0
 35 54  1  0  0  0  0
M  CHG  1   3  -1
M  END
> <s_m_source_file>
AV-unprocessed.smi

> <i_m_source_file_index>
34

> <i_lp_mmshare_version>
43012

> <i_f3d_flags>
0

> <s_epik_input>
W2NIXTFbY0hdW2NIXVtjSF1bY0hdYzFDKD1PKVtOSF1jKG5bY0hdbjIpYyhjMjMpbltjSF1uM1tDQEBIXTRPW0NASF0oW0NAQEhdKEYpW0NASF00W09IXSlbQ0gyXU9DKD1PKWM1W2NIXVtjSF1bY0hdW2NIXVtjSF01

> <s_epik_cmdline>
J2VwaWtfcHl0aG9uJywgJy1waCcsICc3LjAnLCAnLXRuJywgJzgnLCAnLW1hJywgJzIwMCcsICctbWV0YWxfYmluZGluZycsICctaW1hZScsICc8aW5maWxlLm1hZT4nLCAnLW9tYWUnLCAnPG91dGZpbGUubWFlPic=

> <r_lp_tautomer_probability>
1

> <r_epik_Ionization_Penalty>
4.33227

> <r_epik_Ionization_Penalty_Charging>
3.41027

> <r_epik_Ionization_Penalty_Neutral>
0.922001

> <r_epik_State_Penalty>
3.41358

> <r_epik_Charging_Adjusted_Penalty>
6.82385

> <i_epik_Tot_Q>
-1

> <i_epik_Tot_abs_Q>
1

> <r_epik_Metal_State_Penalty>
0.496292

> <b_epik_Metal_Only>
1

> <s_epik_Chemistry_Notes>
This compound has an ester and may undergo hydrolysis at high or low pH. This compound contains an acetal/aminal-like group ( X-CH(R)-Y where X, Y are N, S, or O) that may be acid/base labile, releasing an aldehyde.

> <s_lp_Force_Field>
OPLS_2005

> <r_lp_Energy>
53.545

> <b_lp_Chiralities_Consistent>
1

> <s_lp_Variant>
AV-unprocessed.smi:34-31

> <Gold.Version>
5.8.1

> <Gold.Id.Protein>
6NUR|6NUR_protein|mol2

> <Gold.PLP.Fitness>
59.8208

> <Gold.PLP.PLP>
-51.2392

> <Gold.PLP.part.hbond>
-2.0000

> <Gold.PLP.part.metal>
0.0000

> <Gold.PLP.part.buried>
-6.5077

> <Gold.PLP.part.nonpolar>
-43.9694

> <Gold.PLP.part.repulsive>
0.6874

> <Gold.PLP.ligand.clash>
0.0000

> <Gold.PLP.ligand.torsion>
1.4605

> <Gold.PLP.Chemscore.Hbond>
2.0000

> <Gold.PLP.Chemscore.CHOScore>
1.5289

> <Gold.PLP.Chemscore.Metal>
0.0000

> <Gold.Chemscore.Hbonds>
donor molecule, donor type, donor heavy atom, donor atom, acceptor molecule, acceptor atom, score
      P1  H  7989  7998       L1     5  0.65
      P1  H  7997  8008       L1     1  0.88
      L1  C     6    36       P1  7948  0.54
      L1  C     6    36       P1  7957  1.00

> <Gold.PLP.Chemscore.Internal.Correction>
0.9159

> <Gold.Rescore>
     Score         DG    S(hbond)    S(metal)    S(lipo)     H(rot)  DE(clash)    DE(int)     intcor
     16.97     -20.70       1.84        0.00     136.44       2.69       1.01       2.73       ----

> <Gold.Chemscore.Fitness>
16.9667

> <Gold.Chemscore.DG>
-20.6983

> <Gold.Chemscore.ZeroCoef>
-5.4800

> <Gold.Chemscore.Hbond>
1.8419

> <Gold.Chemscore.Metal>
0.0000

> <Gold.Chemscore.Lipo>
136.4449

> <Gold.Chemscore.Internal_Hbond>
0.0000

> <Gold.Chemscore.DEClash>
1.0064

> <Gold.Chemscore.DEInternal>
2.7253

> <Gold.Chemscore.Rot>
2.6944

> <Gold.Chemscore.Internal.Correction>
   9.000000E+99

> <Gold.Chemscore.Hbonds>
donor molecule, donor type, donor heavy atom, donor atom, acceptor molecule, acceptor atom, score
      P1  H  7989  7998       L1     5  0.58
      P1  H  7997  8008       L1     1  0.70

> <Gold.Chemscore.Hbond.Weighted>
-6.1518

> <Gold.Chemscore.Metal.Weighted>
-0.0000

> <Gold.Chemscore.Lipo.Weighted>
-15.9641

> <Gold.Chemscore.Internal_Hbond.Weighted>
0.0000

> <Gold.Chemscore.DEClash.Weighted>
1.0064

> <Gold.Chemscore.DEInternal.Weighted>
2.7253

> <Gold.Chemscore.Rot.Weighted>
6.8975

> <Gold.Chemscore.Internal.Correction.Weighted>
   9.000000E+99

> <Gold.Protein.RotatedTorsions>
[ 6907 6896 6895 6894 ] final   49.80 input  -60.11 | X-H torsion
[ 7974 7965 7964 7962 ] final  -98.61 input  175.53 | X-H torsion
[ 8008 7997 7996 7995 ] final  -74.48 input   59.86 | X-H torsion
[ 10167 10162 10161 10158 ] final   70.49 input  -65.29 | X-H torsion
[ 10718 10713 10712 10709 ] final -178.03 input   66.30 | X-H torsion
[ 10763 10752 10751 10750 ] final  -75.62 input  -60.55 | X-H torsion
[ 11005 11000 10999 10996 ] final -150.69 input  -57.11 | X-H torsion

> <Gold.Protein.ActiveResidues>
 VAL166  LYS551  ARG553  GLY616  TRP617  ASP618  TYR619  PRO620  LYS621  CYS622 
 ASP623  PHE694  ASN695  SER759  ASP760  ASP761  ALA762  ILE779  LEU786  VAL792 
 PHE793  MET794  SER795  GLU796  ALA797  LYS798  CYS799  TRP800  GLU811  SER814 

> <Gold.Protein.RotatedAtoms>
  152.2947  134.7680  160.0370 H   0  0  0  0  0  0  0  0  0  0  0  0  # atno 6907 bound_to 6896
  151.8214  133.3390  159.3593 H   0  0  0  0  0  0  0  0  0  0  0  0  # atno 6908 bound_to 6896
  150.7246  134.5499  159.5834 H   0  0  0  0  0  0  0  0  0  0  0  0  # atno 6909 bound_to 6896
  145.3183  140.9416  143.2730 H   0  0  0  0  0  0  0  0  0  0  0  0  # atno 7974 bound_to 7965
  154.5334  140.0761  156.8385 H   0  0  0  0  0  0  0  0  0  0  0  0  # atno 8008 bound_to 7997
  155.3328  140.3403  155.4221 H   0  0  0  0  0  0  0  0  0  0  0  0  # atno 8009 bound_to 7997
  156.1804  140.1650  156.8271 H   0  0  0  0  0  0  0  0  0  0  0  0  # atno 8010 bound_to 7997
  140.0563  144.5270  150.7326 H   0  0  0  0  0  0  0  0  0  0  0  0  # atno 10167 bound_to 10162
  156.8383  130.9677  151.3102 H   0  0  0  0  0  0  0  0  0  0  0  0  # atno 10718 bound_to 10713
  154.4890  135.5825  153.6445 H   0  0  0  0  0  0  0  0  0  0  0  0  # atno 10763 bound_to 10752
  152.9859  135.6108  154.3150 H   0  0  0  0  0  0  0  0  0  0  0  0  # atno 10764 bound_to 10752
  154.3047  135.2846  155.2573 H   0  0  0  0  0  0  0  0  0  0  0  0  # atno 10765 bound_to 10752
  140.7376  134.3551  157.5154 H   0  0  0  0  0  0  0  0  0  0  0  0  # atno 11005 bound_to 11000
  144.8960  139.4712  143.6655 LP  0  0  0  0  0  0  0  0  0  0  0  0  # atno 17320 bound_to 7965
  146.3092  139.7686  142.9033 LP  0  0  0  0  0  0  0  0  0  0  0  0  # atno 17321 bound_to 7965
  140.7193  143.2573  151.4332 LP  0  0  0  0  0  0  0  0  0  0  0  0  # atno 17342 bound_to 10162
  139.5921  144.1476  152.2101 LP  0  0  0  0  0  0  0  0  0  0  0  0  # atno 17343 bound_to 10162
  157.6369  130.8774  149.9376 LP  0  0  0  0  0  0  0  0  0  0  0  0  # atno 17370 bound_to 10713
  156.0895  130.3665  150.0423 LP  0  0  0  0  0  0  0  0  0  0  0  0  # atno 17371 bound_to 10713
  139.8813  134.9059  156.2911 LP  0  0  0  0  0  0  0  0  0  0  0  0  # atno 17394 bound_to 11000
  140.9866  133.7234  156.0751 LP  0  0  0  0  0  0  0  0  0  0  0  0  # atno 17395 bound_to 11000

$$$$
