AV-unprocessed.smi:3147|AV-procd|sdf|11989|dock7
  -GOLD-   2272017393D 1   1.00000     0.00000
 Structure written by MMmdl.
 36 37  0  0  0  0  0  0  0  0  1 V2000
  153.3608  142.8396  162.6805 C   0  0  0  0  0  0  0  0  0  0  0  0
  153.0664  142.5908  161.2338 C   0  0  0  0  0  0  0  0  0  0  0  0
  153.6099  141.4987  160.5614 N   0  0  0  0  0  0  0  0  0  0  0  0
  153.1265  141.6119  159.3321 C   0  0  0  0  0  0  0  0  0  0  0  0
  152.3270  142.6710  159.1429 N   0  0  0  0  0  0  0  0  0  0  0  0
  151.6618  143.0442  157.9034 C   0  0  0  0  0  0  0  0  0  0  0  0
  150.9023  141.8790  157.2573 C   0  0  0  0  0  0  0  0  0  0  0  0
  150.9229  140.7514  157.7532 O   0  0  0  0  0  0  0  0  0  0  0  0
  150.2255  142.1773  156.1382 N   0  0  0  0  0  0  0  0  0  0  0  0
  149.3970  141.2453  155.3789 C   0  0  0  0  0  0  0  0  0  0  0  0
  150.2302  140.1992  154.6131 C   0  0  2  0  0  0  0  0  0  0  0  0
  149.6207  138.7969  154.5246 C   0  0  0  0  0  0  0  0  0  0  0  0
  150.8526  137.9473  154.3108 C   0  0  0  0  0  0  0  0  0  0  0  0
  151.8645  138.6413  155.2170 C   0  0  0  0  0  0  0  0  0  0  0  0
  151.5182  140.0234  155.1998 O   0  0  0  0  0  0  0  0  0  0  0  0
  152.2737  143.3218  160.3745 C   0  0  0  0  0  0  0  0  0  0  0  0
  151.4748  144.5614  160.6167 C   0  0  0  0  0  0  0  0  0  0  0  0
  153.7890  143.8311  162.8286 H   0  0  0  0  0  0  0  0  0  0  0  0
  154.0694  142.1123  163.0776 H   0  0  0  0  0  0  0  0  0  0  0  0
  152.4531  142.7775  163.2809 H   0  0  0  0  0  0  0  0  0  0  0  0
  153.3608  140.9061  158.5486 H   0  0  0  0  0  0  0  0  0  0  0  0
  150.9742  143.8655  158.1083 H   0  0  0  0  0  0  0  0  0  0  0  0
  152.4074  143.4194  157.2013 H   0  0  0  0  0  0  0  0  0  0  0  0
  150.2682  143.1272  155.7986 H   0  0  0  0  0  0  0  0  0  0  0  0
  148.7394  140.7369  156.0843 H   0  0  0  0  0  0  0  0  0  0  0  0
  148.7440  141.7838  154.6901 H   0  0  0  0  0  0  0  0  0  0  0  0
  150.4002  140.5622  153.5983 H   0  0  0  0  0  0  0  0  0  0  0  0
  149.1378  138.5083  155.4588 H   0  0  0  0  0  0  0  0  0  0  0  0
  148.8905  138.7017  153.7205 H   0  0  0  0  0  0  0  0  0  0  0  0
  150.7018  136.8978  154.5647 H   0  0  0  0  0  0  0  0  0  0  0  0
  151.1745  138.0069  153.2703 H   0  0  0  0  0  0  0  0  0  0  0  0
  151.7690  138.2738  156.2390 H   0  0  0  0  0  0  0  0  0  0  0  0
  152.8938  138.4832  154.8948 H   0  0  0  0  0  0  0  0  0  0  0  0
  151.6210  144.9328  161.6309 H   0  0  0  0  0  0  0  0  0  0  0  0
  150.4110  144.3650  160.4839 H   0  0  0  0  0  0  0  0  0  0  0  0
  151.7636  145.3535  159.9260 H   0  0  0  0  0  0  0  0  0  0  0  0
  1  2  1  0  0  0  0
  1 18  1  0  0  0  0
  1 19  1  0  0  0  0
  1 20  1  0  0  0  0
  2 16  2  0  0  0  0
  2  3  1  0  0  0  0
  3  4  2  0  0  0  0
  4  5  1  0  0  0  0
  4 21  1  0  0  0  0
  5  6  1  0  0  0  0
  5 16  1  0  0  0  0
  6  7  1  0  0  0  0
  6 22  1  0  0  0  0
  6 23  1  0  0  0  0
  7  8  2  0  0  0  0
  7  9  1  0  0  0  0
  9 10  1  0  0  0  0
  9 24  1  0  0  0  0
 10 11  1  0  0  0  0
 10 25  1  0  0  0  0
 10 26  1  0  0  0  0
 11 15  1  0  0  0  0
 11 12  1  0  0  0  0
 11 27  1  0  0  0  0
 12 13  1  0  0  0  0
 12 28  1  0  0  0  0
 12 29  1  0  0  0  0
 13 14  1  0  0  0  0
 13 30  1  0  0  0  0
 13 31  1  0  0  0  0
 14 15  1  0  0  0  0
 14 32  1  0  0  0  0
 14 33  1  0  0  0  0
 16 17  1  0  0  0  0
 17 34  1  0  0  0  0
 17 35  1  0  0  0  0
 17 36  1  0  0  0  0
M  END
> <s_m_source_file>
AV-unprocessed.smi

> <i_m_source_file_index>
3147

> <i_lp_mmshare_version>
43012

> <i_f3d_flags>
0

> <s_epik_input>
W0NIM11jMW5bY0hdbihjMVtDSDNdKVtDSDJdQyg9TylbTkhdW0NIMl1bQ0BASF0yW0NIMl1bQ0gyXVtDSDJdTzI=

> <s_epik_cmdline>
J2VwaWtfcHl0aG9uJywgJy1waCcsICc3LjAnLCAnLXRuJywgJzgnLCAnLW1hJywgJzIwMCcsICctbWV0YWxfYmluZGluZycsICctaW1hZScsICc8aW5maWxlLm1hZT4nLCAnLW9tYWUnLCAnPG91dGZpbGUubWFlPic=

> <r_lp_tautomer_probability>
1

> <r_epik_Ionization_Penalty>
0.957393

> <r_epik_Ionization_Penalty_Charging>
0.957393

> <r_epik_Ionization_Penalty_Neutral>
1.43432e-07

> <r_epik_State_Penalty>
1.0022

> <r_epik_Charging_Adjusted_Penalty>
1.9596

> <i_epik_Tot_Q>
0

> <i_epik_Tot_abs_Q>
0

> <r_epik_Metal_State_Penalty>
0.374967

> <b_epik_Metal_Only>
0

> <s_lp_Force_Field>
OPLS_2005

> <r_lp_Energy>
19.2408

> <b_lp_Chiralities_Consistent>
1

> <s_lp_Variant>
AV-unprocessed.smi:3147-3

> <Gold.Version>
5.8.1

> <Gold.Id.Protein>
6NUR|6NUR_protein|mol2

> <Gold.PLP.Fitness>
44.1565

> <Gold.PLP.PLP>
-42.8891

> <Gold.PLP.part.hbond>
-2.0000

> <Gold.PLP.part.metal>
0.0000

> <Gold.PLP.part.buried>
-4.0116

> <Gold.PLP.part.nonpolar>
-36.5022

> <Gold.PLP.part.repulsive>
0.1371

> <Gold.PLP.ligand.clash>
0.0000

> <Gold.PLP.ligand.torsion>
0.6667

> <Gold.PLP.Chemscore.Hbond>
0.8640

> <Gold.PLP.Chemscore.CHOScore>
0.0000

> <Gold.PLP.Chemscore.Metal>
0.0000

> <Gold.Chemscore.Hbonds>
donor molecule, donor type, donor heavy atom, donor atom, acceptor molecule, acceptor atom, score
      L1  H     9    24       P1  8028  0.57

> <Gold.PLP.Chemscore.Internal.Correction>
0.0088

> <Gold.Rescore>
     Score         DG    S(hbond)    S(metal)    S(lipo)     H(rot)  DE(clash)    DE(int)     intcor
     10.24     -15.06       0.96        0.00      91.70       1.70       0.15       4.67       ----

> <Gold.Chemscore.Fitness>
10.2439

> <Gold.Chemscore.DG>
-15.0624

> <Gold.Chemscore.ZeroCoef>
-5.4800

> <Gold.Chemscore.Hbond>
0.9623

> <Gold.Chemscore.Metal>
0.0000

> <Gold.Chemscore.Lipo>
91.7007

> <Gold.Chemscore.Internal_Hbond>
0.0000

> <Gold.Chemscore.DEClash>
0.1477

> <Gold.Chemscore.DEInternal>
4.6709

> <Gold.Chemscore.Rot>
1.7034

> <Gold.Chemscore.Internal.Correction>
   9.000000E+99

> <Gold.Chemscore.Hbonds>
donor molecule, donor type, donor heavy atom, donor atom, acceptor molecule, acceptor atom, score
      L1  H     9    24       P1  8028  0.55

> <Gold.Chemscore.Hbond.Weighted>
-3.2142

> <Gold.Chemscore.Metal.Weighted>
-0.0000

> <Gold.Chemscore.Lipo.Weighted>
-10.7290

> <Gold.Chemscore.Internal_Hbond.Weighted>
0.0000

> <Gold.Chemscore.DEClash.Weighted>
0.1477

> <Gold.Chemscore.DEInternal.Weighted>
4.6709

> <Gold.Chemscore.Rot.Weighted>
4.3607

> <Gold.Chemscore.Internal.Correction.Weighted>
   9.000000E+99

> <Gold.Protein.RotatedTorsions>
[ 6907 6896 6895 6894 ] final  -95.53 input  -60.11 | X-H torsion
[ 7974 7965 7964 7962 ] final  132.01 input  175.53 | X-H torsion
[ 8008 7997 7996 7995 ] final  -85.03 input   59.86 | X-H torsion
[ 10167 10162 10161 10158 ] final -164.27 input  -65.29 | X-H torsion
[ 10718 10713 10712 10709 ] final -111.89 input   66.30 | X-H torsion
[ 10763 10752 10751 10750 ] final   -4.04 input  -60.55 | X-H torsion
[ 11005 11000 10999 10996 ] final -129.16 input  -57.11 | X-H torsion

> <Gold.Protein.ActiveResidues>
 VAL166  LYS551  ARG553  GLY616  TRP617  ASP618  TYR619  PRO620  LYS621  CYS622 
 ASP623  PHE694  ASN695  SER759  ASP760  ASP761  ALA762  ILE779  LEU786  VAL792 
 PHE793  MET794  SER795  GLU796  ALA797  LYS798  CYS799  TRP800  GLU811  SER814 

> <Gold.Protein.RotatedAtoms>
  150.6966  134.1643  159.4187 H   0  0  0  0  0  0  0  0  0  0  0  0  # atno 6907 bound_to 6896
  151.9623  135.0115  160.0557 H   0  0  0  0  0  0  0  0  0  0  0  0  # atno 6908 bound_to 6896
  152.1916  133.4742  159.5048 H   0  0  0  0  0  0  0  0  0  0  0  0  # atno 6909 bound_to 6896
  145.0013  139.4310  143.5291 H   0  0  0  0  0  0  0  0  0  0  0  0  # atno 7974 bound_to 7965
  154.6363  140.0597  156.9792 H   0  0  0  0  0  0  0  0  0  0  0  0  # atno 8008 bound_to 7997
  155.1587  140.3280  155.4397 H   0  0  0  0  0  0  0  0  0  0  0  0  # atno 8009 bound_to 7997
  156.2508  140.1934  156.6695 H   0  0  0  0  0  0  0  0  0  0  0  0  # atno 8010 bound_to 7997
  139.6262  144.0528  152.1977 H   0  0  0  0  0  0  0  0  0  0  0  0  # atno 10167 bound_to 10162
  156.0673  130.5891  150.8434 H   0  0  0  0  0  0  0  0  0  0  0  0  # atno 10718 bound_to 10713
  153.3795  135.6998  153.6576 H   0  0  0  0  0  0  0  0  0  0  0  0  # atno 10763 bound_to 10752
  153.5193  135.3615  155.2625 H   0  0  0  0  0  0  0  0  0  0  0  0  # atno 10764 bound_to 10752
  154.8691  135.4154  154.3090 H   0  0  0  0  0  0  0  0  0  0  0  0  # atno 10765 bound_to 10752
  140.9455  134.1135  157.4111 H   0  0  0  0  0  0  0  0  0  0  0  0  # atno 11005 bound_to 11000
  146.3452  139.9402  142.8742 LP  0  0  0  0  0  0  0  0  0  0  0  0  # atno 17320 bound_to 7965
  145.2150  140.9911  143.4079 LP  0  0  0  0  0  0  0  0  0  0  0  0  # atno 17321 bound_to 7965
  140.0182  144.6173  150.7589 LP  0  0  0  0  0  0  0  0  0  0  0  0  # atno 17342 bound_to 10162
  140.7412  143.2815  151.3585 LP  0  0  0  0  0  0  0  0  0  0  0  0  # atno 17343 bound_to 10162
  157.5723  131.0946  150.9399 LP  0  0  0  0  0  0  0  0  0  0  0  0  # atno 17370 bound_to 10713
  156.9613  130.5456  149.5286 LP  0  0  0  0  0  0  0  0  0  0  0  0  # atno 17371 bound_to 10713
  139.8832  135.0050  156.6285 LP  0  0  0  0  0  0  0  0  0  0  0  0  # atno 17394 bound_to 11000
  140.7675  133.8766  155.8465 LP  0  0  0  0  0  0  0  0  0  0  0  0  # atno 17395 bound_to 11000

$$$$
