#       Name:                AV-unprocessed.smi:2353
#       Creating user name   scv26
#       Creation time:       Fri Mar 27 13:01:02 2020


#       File generated by GOLD software.
#

@<TRIPOS>MOLECULE
AV-unprocessed.smi:2353
    53    55     1
SMALL
NO_CHARGES


@<TRIPOS>ATOM
      1 ****        -6.2313  -0.5479   0.1308 C.3            1 S1                 0.0000
      2 ****        -5.2034   0.5633   0.1920 C.ar           1 S1                 0.0000
      3 ****        -5.5889   1.9008  -0.0205 C.ar           1 S1                 0.0000
      4 ****        -4.6278   2.9258   0.0357 C.ar           1 S1                 0.0000
      5 ****        -3.2772   2.6211   0.3040 C.ar           1 S1                 0.0000
      6 ****        -2.2550   3.7405   0.3628 C.3            1 S1                 0.0000
      7 ****        -2.8759   1.2822   0.5197 C.ar           1 S1                 0.0000
      8 ****        -1.5400   1.0538   0.7792 O.3            1 S1                 0.0000
      9 ****        -1.1102  -0.2807   1.0138 C.3            1 S1                 0.0000
     10 ****         0.4009  -0.2688   1.3028 C.3            1 S1                 0.0000
     11 ****         0.5559   0.1061   2.6577 O.3            1 S1                 0.0000
     12 ****         1.0364  -1.6642   1.1129 C.3            1 S1                 0.0000
     13 ****         2.4851  -1.5804   0.8888 N.am           1 S1                 0.0000
     14 ****         2.8420  -1.3955  -0.4366 N.2            1 S1                 0.0000
     15 ****         4.0860  -1.2903  -0.7775 C.2            1 S1                 0.0000
     16 ****         4.5301  -1.0961  -2.1432 N.pl3          1 S1                 0.0000
     17 ****         3.5894  -1.0168  -3.1682 C.2            1 S1                 0.0000
     18 ****         4.3096  -0.8355  -4.3283 C.2            1 S1                 0.0000
     19 ****         5.6739  -0.8004  -4.0411 N.2            1 S1                 0.0000
     20 ****         5.7308  -0.9611  -2.7249 C.2            1 S1                 0.0000
     21 ****         5.1261  -1.3659   0.2342 C.2            1 S1                 0.0000
     22 ****         4.7682  -1.5455   1.5238 C.2            1 S1                 0.0000
     23 ****         3.3680  -1.6637   1.9278 C.2            1 S1                 0.0000
     24 ****         3.0168  -1.8184   3.0968 O.2            1 S1                 0.0000
     25 ****        -3.8538   0.2564   0.4590 C.ar           1 S1                 0.0000
     26 ****        -7.2466  -0.1505   0.1473 H              1 S1                 0.0000
     27 ****        -6.1176  -1.2197   0.9821 H              1 S1                 0.0000
     28 ****        -6.1044  -1.1271  -0.7840 H              1 S1                 0.0000
     29 ****        -6.6202   2.1463  -0.2276 H              1 S1                 0.0000
     30 ****        -4.9328   3.9490  -0.1275 H              1 S1                 0.0000
     31 ****        -1.8500   3.8274   1.3712 H              1 S1                 0.0000
     32 ****        -2.6962   4.6997   0.0900 H              1 S1                 0.0000
     33 ****        -1.4315   3.5403  -0.3232 H              1 S1                 0.0000
     34 ****        -1.6586  -0.7459   1.8352 H              1 S1                 0.0000
     35 ****        -1.3057  -0.8612   0.1107 H              1 S1                 0.0000
     36 ****         0.8906   0.4585   0.6532 H              1 S1                 0.0000
     37 ****         1.4776   0.1006   2.8678 H              1 S1                 0.0000
     38 ****         0.7870  -2.3277   1.9435 H              1 S1                 0.0000
     39 ****         0.5981  -2.1447   0.2363 H              1 S1                 0.0000
     40 ****         2.5224  -1.0914  -3.0136 H              1 S1                 0.0000
     41 ****         3.9533  -0.7286  -5.3423 H              1 S1                 0.0000
     42 ****         6.6666  -0.9797  -2.1862 H              1 S1                 0.0000
     43 ****         6.1688  -1.2815  -0.0309 H              1 S1                 0.0000
     44 ****         5.5369  -1.6022   2.2806 H              1 S1                 0.0000
     45 ****        -3.5914  -0.7789   0.6146 H              1 S1                 0.0000
     46 ****        -1.3023   1.5869   1.5911 LP             1 S1                 0.0000
     47 ****        -1.0246   1.3955  -0.0066 LP             1 S1                 0.0000
     48 ****         0.0724  -0.5434   3.2446 LP             1 S1                 0.0000
     49 ****         0.1835   1.0234   2.7984 LP             1 S1                 0.0000
     50 ****         2.1308  -1.3428  -1.1376 LP             1 S1                 0.0000
     51 ****         6.4341  -0.6816  -4.6797 LP             1 S1                 0.0000
     52 ****         2.0450  -1.8892   3.3218 LP             1 S1                 0.0000
     53 ****         3.7031  -1.8734   3.8220 LP             1 S1                 0.0000
@<TRIPOS>BOND
    1    1    2 1     
    2    1   26 1     
    3    1   27 1     
    4    1   28 1     
    5    2   25 ar    
    6    2    3 ar    
    7    3    4 ar    
    8    3   29 1     
    9    4    5 ar    
   10    4   30 1     
   11    5    6 1     
   12    5    7 ar    
   13    6   31 1     
   14    6   32 1     
   15    6   33 1     
   16    7    8 1     
   17    7   25 ar    
   18    8    9 1     
   19    9   10 1     
   20    9   34 1     
   21    9   35 1     
   22   10   11 1     
   23   10   12 1     
   24   10   36 1     
   25   11   37 1     
   26   12   13 1     
   27   12   38 1     
   28   12   39 1     
   29   13   23 am    
   30   13   14 1     
   31   14   15 2     
   32   15   16 1     
   33   15   21 1     
   34   16   20 1     
   35   16   17 1     
   36   17   18 2     
   37   17   40 1     
   38   18   19 1     
   39   18   41 1     
   40   19   20 2     
   41   20   42 1     
   42   21   22 2     
   43   21   43 1     
   44   22   23 1     
   45   22   44 1     
   46   23   24 2     
   47   25   45 1     
   48    8   46 1     
   49    8   47 1     
   50   11   48 1     
   51   11   49 1     
   52   14   50 1     
   53   19   51 1     
   54   24   52 1     
   55   24   53 1     
@<TRIPOS>SUBSTRUCTURE
      1 S1             1
@<TRIPOS>SET
LONE_PAIRS      STATIC     ATOMS    <user>   **** ""
8 46 47 48 49 50 51 52 53
DONOR_HYDROGENS      STATIC     ATOMS    <user>   **** ""
1 37
ATOM$BLUE        STATIC     ATOMS    COLORGROUP SYSTEM
8 46 47 48 49 50 51 52 53
ATOM$RED        STATIC     ATOMS    COLORGROUP SYSTEM
1 37
