AV-unprocessed.smi:1252|AV-procd|sdf|5265|dock8
  -GOLD-   22720 4383D 1   1.00000     0.00000
 Structure written by MMmdl.
 43 44  0  0  0  0  0  0  0  0  1 V2000
  147.7844  135.9888  162.1704 C   0  0  0  0  0  0  0  0  0  0  0  0
  147.3937  135.4334  160.7852 C   0  0  1  0  0  0  0  0  0  0  0  0
  148.2713  135.9805  159.6458 C   0  0  0  0  0  0  0  0  0  0  0  0
  149.0178  135.2391  159.0059 O   0  0  0  0  0  0  0  0  0  0  0  0
  148.1680  137.2953  159.4042 N   0  0  0  0  0  0  0  0  0  0  0  0
  148.8575  138.0155  158.3398 C   0  0  0  0  0  0  0  0  0  0  0  0
  147.8840  138.4147  157.1941 C   0  0  0  0  0  0  0  0  0  0  0  0
  147.0763  137.1502  156.8146 C   0  0  0  0  0  0  0  0  0  0  0  0
  146.8876  139.4321  157.8082 C   0  0  0  0  0  0  0  0  0  0  0  0
  148.6129  139.0108  156.0388 N   0  0  0  0  0  0  0  0  0  0  0  0
  149.2937  140.2786  156.3274 C   0  0  0  0  0  0  0  0  0  0  0  0
  149.9155  140.9007  155.0659 C   0  0  0  0  0  0  0  0  0  0  0  0
  150.8183  139.9759  154.4723 O   0  0  0  0  0  0  0  0  0  0  0  0
  150.1865  138.7506  154.1218 C   0  0  0  0  0  0  0  0  0  0  0  0
  149.5615  138.1107  155.3733 C   0  0  0  0  0  0  0  0  0  0  0  0
  147.3861  133.9746  160.7628 N   0  0  0  0  0  0  0  0  0  0  0  0
  147.5908  133.1012  161.7514 C   0  0  0  0  0  0  0  0  0  0  0  0
  147.4486  131.8340  161.3893 N   0  0  0  0  0  0  0  0  0  0  0  0
  147.1244  132.0082  160.0739 C   0  0  0  0  0  0  0  0  0  0  0  0
  147.0627  133.2701  159.6495 N   0  0  0  0  0  0  0  0  0  0  0  0
  147.6948  137.0752  162.1986 H   0  0  0  0  0  0  0  0  0  0  0  0
  148.8109  135.7345  162.4380 H   0  0  0  0  0  0  0  0  0  0  0  0
  147.1324  135.5889  162.9474 H   0  0  0  0  0  0  0  0  0  0  0  0
  146.3728  135.7604  160.5810 H   0  0  0  0  0  0  0  0  0  0  0  0
  147.5415  137.8382  159.9807 H   0  0  0  0  0  0  0  0  0  0  0  0
  149.3566  138.8862  158.7657 H   0  0  0  0  0  0  0  0  0  0  0  0
  149.6594  137.3888  157.9447 H   0  0  0  0  0  0  0  0  0  0  0  0
  146.5469  136.7508  157.6804 H   0  0  0  0  0  0  0  0  0  0  0  0
  147.7159  136.3500  156.4430 H   0  0  0  0  0  0  0  0  0  0  0  0
  146.3236  137.3543  156.0538 H   0  0  0  0  0  0  0  0  0  0  0  0
  146.4772  139.0712  158.7521 H   0  0  0  0  0  0  0  0  0  0  0  0
  146.0323  139.6166  157.1583 H   0  0  0  0  0  0  0  0  0  0  0  0
  147.3627  140.3935  158.0086 H   0  0  0  0  0  0  0  0  0  0  0  0
  148.6023  141.0059  156.7484 H   0  0  0  0  0  0  0  0  0  0  0  0
  150.0805  140.1248  157.0661 H   0  0  0  0  0  0  0  0  0  0  0  0
  149.1400  141.1769  154.3495 H   0  0  0  0  0  0  0  0  0  0  0  0
  150.4559  141.8124  155.3204 H   0  0  0  0  0  0  0  0  0  0  0  0
  149.4265  138.9298  153.3597 H   0  0  0  0  0  0  0  0  0  0  0  0
  150.9268  138.0810  153.6839 H   0  0  0  0  0  0  0  0  0  0  0  0
  150.3601  137.8291  156.0597 H   0  0  0  0  0  0  0  0  0  0  0  0
  149.0716  137.1899  155.0616 H   0  0  0  0  0  0  0  0  0  0  0  0
  147.8399  133.3992  162.7594 H   0  0  0  0  0  0  0  0  0  0  0  0
  146.9207  131.1804  159.4106 H   0  0  0  0  0  0  0  0  0  0  0  0
  1  2  1  0  0  0  0
  1 21  1  0  0  0  0
  1 22  1  0  0  0  0
  1 23  1  0  0  0  0
  2  3  1  0  0  0  0
  2 16  1  0  0  0  0
  2 24  1  0  0  0  0
  3  4  2  0  0  0  0
  3  5  1  0  0  0  0
  5  6  1  0  0  0  0
  5 25  1  0  0  0  0
  6  7  1  0  0  0  0
  6 26  1  0  0  0  0
  6 27  1  0  0  0  0
  7  8  1  0  0  0  0
  7  9  1  0  0  0  0
  7 10  1  0  0  0  0
  8 28  1  0  0  0  0
  8 29  1  0  0  0  0
  8 30  1  0  0  0  0
  9 31  1  0  0  0  0
  9 32  1  0  0  0  0
  9 33  1  0  0  0  0
 10 15  1  0  0  0  0
 10 11  1  0  0  0  0
 11 12  1  0  0  0  0
 11 34  1  0  0  0  0
 11 35  1  0  0  0  0
 12 13  1  0  0  0  0
 12 36  1  0  0  0  0
 12 37  1  0  0  0  0
 13 14  1  0  0  0  0
 14 15  1  0  0  0  0
 14 38  1  0  0  0  0
 14 39  1  0  0  0  0
 15 40  1  0  0  0  0
 15 41  1  0  0  0  0
 16 20  1  0  0  0  0
 16 17  1  0  0  0  0
 17 18  2  0  0  0  0
 17 42  1  0  0  0  0
 18 19  1  0  0  0  0
 19 20  2  0  0  0  0
 19 43  1  0  0  0  0
M  END
> <s_m_source_file>
AV-unprocessed.smi

> <i_m_source_file_index>
1252

> <i_lp_mmshare_version>
43012

> <i_f3d_flags>
0

> <s_epik_input>
bjFbY0hdbltjSF1uMVtDQEhdKFtDSDNdKUMoPU8pW05IXVtDSDJdQyhbQ0gzXSkoW0NIM10pTjJbQ0gyXVtDSDJdT1tDSDJdW0NIMl0y

> <s_epik_cmdline>
J2VwaWtfcHl0aG9uJywgJy1waCcsICc3LjAnLCAnLXRuJywgJzgnLCAnLW1hJywgJzIwMCcsICctbWV0YWxfYmluZGluZycsICctaW1hZScsICc8aW5maWxlLm1hZT4nLCAnLW9tYWUnLCAnPG91dGZpbGUubWFlPic=

> <r_lp_tautomer_probability>
1

> <r_epik_Ionization_Penalty>
0.211373

> <r_epik_Ionization_Penalty_Charging>
0

> <r_epik_Ionization_Penalty_Neutral>
0.211373

> <r_epik_State_Penalty>
0.201459

> <r_epik_Charging_Adjusted_Penalty>
0.201459

> <i_epik_Tot_Q>
0

> <i_epik_Tot_abs_Q>
0

> <r_epik_Metal_State_Penalty>
0.201458

> <b_epik_Metal_Only>
0

> <s_lp_Force_Field>
OPLS_2005

> <r_lp_Energy>
47.0271

> <b_lp_Chiralities_Consistent>
1

> <s_lp_Variant>
AV-unprocessed.smi:1252-2

> <Gold.Version>
5.8.1

> <Gold.Id.Protein>
6NUR|6NUR_protein|mol2

> <Gold.PLP.Fitness>
31.0693

> <Gold.PLP.PLP>
-25.6774

> <Gold.PLP.part.hbond>
-2.0000

> <Gold.PLP.part.metal>
0.0000

> <Gold.PLP.part.buried>
-4.4601

> <Gold.PLP.part.nonpolar>
-19.6637

> <Gold.PLP.part.repulsive>
0.3628

> <Gold.PLP.ligand.clash>
0.0000

> <Gold.PLP.ligand.torsion>
0.3864

> <Gold.PLP.Chemscore.Hbond>
2.0000

> <Gold.PLP.Chemscore.CHOScore>
0.0000

> <Gold.PLP.Chemscore.Metal>
0.0000

> <Gold.Chemscore.Hbonds>
donor molecule, donor type, donor heavy atom, donor atom, acceptor molecule, acceptor atom, score
      P1  H  6896  6907       L1     4  1.00
      P1  H  7989  7998       L1    13  1.00

> <Gold.PLP.Chemscore.Internal.Correction>
0.1646

> <Gold.Rescore>
     Score         DG    S(hbond)    S(metal)    S(lipo)     H(rot)  DE(clash)    DE(int)     intcor
      9.38      -9.93       1.89        0.00      39.21       2.52       0.00       0.55       ----

> <Gold.Chemscore.Fitness>
9.3798

> <Gold.Chemscore.DG>
-9.9326

> <Gold.Chemscore.ZeroCoef>
-5.4800

> <Gold.Chemscore.Hbond>
1.8876

> <Gold.Chemscore.Metal>
0.0000

> <Gold.Chemscore.Lipo>
39.2052

> <Gold.Chemscore.Internal_Hbond>
0.0000

> <Gold.Chemscore.DEClash>
0.0021

> <Gold.Chemscore.DEInternal>
0.5507

> <Gold.Chemscore.Rot>
2.5153

> <Gold.Chemscore.Internal.Correction>
   9.000000E+99

> <Gold.Chemscore.Hbonds>
donor molecule, donor type, donor heavy atom, donor atom, acceptor molecule, acceptor atom, score
      P1  H  6896  6907       L1     4  1.00
      P1  H  7989  7998       L1    13  0.38

> <Gold.Chemscore.Hbond.Weighted>
-6.3047

> <Gold.Chemscore.Metal.Weighted>
-0.0000

> <Gold.Chemscore.Lipo.Weighted>
-4.5870

> <Gold.Chemscore.Internal_Hbond.Weighted>
0.0000

> <Gold.Chemscore.DEClash.Weighted>
0.0021

> <Gold.Chemscore.DEInternal.Weighted>
0.5507

> <Gold.Chemscore.Rot.Weighted>
6.4392

> <Gold.Chemscore.Internal.Correction.Weighted>
   9.000000E+99

> <Gold.Protein.RotatedTorsions>
[ 6907 6896 6895 6894 ] final  -67.58 input  -60.11 | X-H torsion
[ 7974 7965 7964 7962 ] final  -22.19 input  175.53 | X-H torsion
[ 8008 7997 7996 7995 ] final -133.53 input   59.86 | X-H torsion
[ 10167 10162 10161 10158 ] final  168.80 input  -65.29 | X-H torsion
[ 10718 10713 10712 10709 ] final  -43.51 input   66.30 | X-H torsion
[ 10763 10752 10751 10750 ] final   70.28 input  -60.55 | X-H torsion
[ 11005 11000 10999 10996 ] final   75.60 input  -57.11 | X-H torsion

> <Gold.Protein.ActiveResidues>
 VAL166  LYS551  ARG553  GLY616  TRP617  ASP618  TYR619  PRO620  LYS621  CYS622 
 ASP623  PHE694  ASN695  SER759  ASP760  ASP761  ALA762  ILE779  LEU786  VAL792 
 PHE793  MET794  SER795  GLU796  ALA797  LYS798  CYS799  TRP800  GLU811  SER814 

> <Gold.Protein.RotatedAtoms>
  150.7402  134.5861  159.5963 H   0  0  0  0  0  0  0  0  0  0  0  0  # atno 6907 bound_to 6896
  152.3261  134.7315  160.0310 H   0  0  0  0  0  0  0  0  0  0  0  0  # atno 6908 bound_to 6896
  151.7815  133.3314  159.3509 H   0  0  0  0  0  0  0  0  0  0  0  0  # atno 6909 bound_to 6896
  146.1690  140.4445  142.8540 H   0  0  0  0  0  0  0  0  0  0  0  0  # atno 7974 bound_to 7965
  155.3470  140.0475  157.3045 H   0  0  0  0  0  0  0  0  0  0  0  0  # atno 8008 bound_to 7997
  154.5247  140.2237  155.8876 H   0  0  0  0  0  0  0  0  0  0  0  0  # atno 8009 bound_to 7997
  156.1727  140.3092  155.9008 H   0  0  0  0  0  0  0  0  0  0  0  0  # atno 8010 bound_to 7997
  139.4977  144.3775  151.9658 H   0  0  0  0  0  0  0  0  0  0  0  0  # atno 10167 bound_to 10162
  156.2482  130.4185  149.8680 H   0  0  0  0  0  0  0  0  0  0  0  0  # atno 10718 bound_to 10713
  153.0333  135.5179  154.7417 H   0  0  0  0  0  0  0  0  0  0  0  0  # atno 10763 bound_to 10752
  154.6414  135.2913  155.0101 H   0  0  0  0  0  0  0  0  0  0  0  0  # atno 10764 bound_to 10752
  154.1017  135.6635  153.4922 H   0  0  0  0  0  0  0  0  0  0  0  0  # atno 10765 bound_to 10752
  139.9336  134.7531  156.1291 H   0  0  0  0  0  0  0  0  0  0  0  0  # atno 11005 bound_to 11000
  144.8134  140.6426  143.6400 LP  0  0  0  0  0  0  0  0  0  0  0  0  # atno 17320 bound_to 7965
  145.4391  139.1538  143.3980 LP  0  0  0  0  0  0  0  0  0  0  0  0  # atno 17321 bound_to 7965
  140.3211  144.3426  150.6009 LP  0  0  0  0  0  0  0  0  0  0  0  0  # atno 17342 bound_to 10162
  140.5722  143.2180  151.7579 LP  0  0  0  0  0  0  0  0  0  0  0  0  # atno 17343 bound_to 10162
  156.6238  130.8637  151.3481 LP  0  0  0  0  0  0  0  0  0  0  0  0  # atno 17370 bound_to 10713
  157.7203  130.9550  150.1415 LP  0  0  0  0  0  0  0  0  0  0  0  0  # atno 17371 bound_to 10713
  141.0938  133.6703  156.2600 LP  0  0  0  0  0  0  0  0  0  0  0  0  # atno 17394 bound_to 11000
  140.6135  134.5434  157.5537 LP  0  0  0  0  0  0  0  0  0  0  0  0  # atno 17395 bound_to 11000

$$$$
