AV-unprocessed.smi:132|AV-procd|sdf|1164|dock1
  -GOLD-   2262018303D 1   1.00000     0.00000
 Structure written by MMmdl.
 41 44  0  0  0  0  0  0  0  0  1 V2000
  150.7768  139.3982  154.1710 O   0  0  0  0  0  0  0  0  0  0  0  0
  150.9424  140.0370  155.2117 C   0  0  0  0  0  0  0  0  0  0  0  0
  150.0872  141.1468  155.6181 C   0  0  0  0  0  0  0  0  0  0  0  0
  149.0762  141.5333  154.8217 F   0  0  0  0  0  0  0  0  0  0  0  0
  150.2958  141.7966  156.7834 C   0  0  0  0  0  0  0  0  0  0  0  0
  151.3107  141.4637  157.6635 N   0  0  0  0  0  0  0  0  0  0  0  0
  151.4930  142.2246  158.9558 C   0  0  1  0  0  0  0  0  0  0  0  0
  152.7267  143.1318  158.8831 C   0  0  0  0  0  0  0  0  0  0  0  0
  152.2286  144.3835  159.5726 C   0  0  0  0  0  0  0  0  0  0  0  0
  150.7653  144.4061  159.1493 C   0  0  0  0  0  0  0  0  0  0  0  0
  150.3743  143.0368  159.1724 O   0  0  0  0  0  0  0  0  0  0  0  0
  152.2003  140.4144  157.3443 C   0  0  0  0  0  0  0  0  0  0  0  0
  153.1174  140.1056  158.1085 O   0  0  0  0  0  0  0  0  0  0  0  0
  151.9885  139.7374  156.1188 N   0  0  0  0  0  0  0  0  0  0  0  0
  152.8690  138.6290  155.7827 C   0  0  0  0  0  0  0  0  0  0  0  0
  152.2863  137.3177  156.2169 C   0  0  0  0  0  0  0  0  0  0  0  0
  151.9719  136.9535  157.4607 N   0  0  0  0  0  0  0  0  0  0  0  0
  151.4712  135.6755  157.3615 N   0  0  0  0  0  0  0  0  0  0  0  0
  151.5189  135.3550  156.0639 C   0  0  0  0  0  0  0  0  0  0  0  0
  151.1118  134.1070  155.4209 C   0  0  0  0  0  0  0  0  0  0  0  0
  150.2908  134.1186  154.2699 C   0  0  0  0  0  0  0  0  0  0  0  0
  149.9051  132.9097  153.6585 C   0  0  0  0  0  0  0  0  0  0  0  0
  150.3329  131.6797  154.1938 C   0  0  0  0  0  0  0  0  0  0  0  0
  149.8601  130.1990  153.4444 Cl  0  0  0  0  0  0  0  0  0  0  0  0
  151.1469  131.6598  155.3422 C   0  0  0  0  0  0  0  0  0  0  0  0
  151.5347  132.8682  155.9529 C   0  0  0  0  0  0  0  0  0  0  0  0
  152.0189  136.3575  155.2927 O   0  0  0  0  0  0  0  0  0  0  0  0
  149.6342  142.6125  157.0297 H   0  0  0  0  0  0  0  0  0  0  0  0
  151.5341  141.4980  159.7680 H   0  0  0  0  0  0  0  0  0  0  0  0
  153.5865  142.6704  159.3698 H   0  0  0  0  0  0  0  0  0  0  0  0
  152.9762  143.3459  157.8427 H   0  0  0  0  0  0  0  0  0  0  0  0
  152.3054  144.2731  160.6550 H   0  0  0  0  0  0  0  0  0  0  0  0
  152.7729  145.2811  159.2780 H   0  0  0  0  0  0  0  0  0  0  0  0
  150.1452  145.0088  159.8132 H   0  0  0  0  0  0  0  0  0  0  0  0
  150.6650  144.8015  158.1381 H   0  0  0  0  0  0  0  0  0  0  0  0
  153.0337  138.6464  154.7039 H   0  0  0  0  0  0  0  0  0  0  0  0
  153.8456  138.7878  156.2407 H   0  0  0  0  0  0  0  0  0  0  0  0
  149.9532  135.0514  153.8423 H   0  0  0  0  0  0  0  0  0  0  0  0
  149.2805  132.9279  152.7774 H   0  0  0  0  0  0  0  0  0  0  0  0
  151.4756  130.7180  155.7566 H   0  0  0  0  0  0  0  0  0  0  0  0
  152.1589  132.8355  156.8338 H   0  0  0  0  0  0  0  0  0  0  0  0
  1  2  2  0  0  0  0
  2 14  1  0  0  0  0
  2  3  1  0  0  0  0
  3  4  1  0  0  0  0
  3  5  2  0  0  0  0
  5  6  1  0  0  0  0
  5 28  1  0  0  0  0
  6  7  1  0  0  0  0
  6 12  1  0  0  0  0
  7 11  1  0  0  0  0
  7  8  1  0  0  0  0
  7 29  1  0  0  0  0
  8  9  1  0  0  0  0
  8 30  1  0  0  0  0
  8 31  1  0  0  0  0
  9 10  1  0  0  0  0
  9 32  1  0  0  0  0
  9 33  1  0  0  0  0
 10 11  1  0  0  0  0
 10 34  1  0  0  0  0
 10 35  1  0  0  0  0
 12 13  2  0  0  0  0
 12 14  1  0  0  0  0
 14 15  1  0  0  0  0
 15 16  1  0  0  0  0
 15 36  1  0  0  0  0
 15 37  1  0  0  0  0
 16 27  1  0  0  0  0
 16 17  2  0  0  0  0
 17 18  1  0  0  0  0
 18 19  2  0  0  0  0
 19 20  1  0  0  0  0
 19 27  1  0  0  0  0
 20 26  1  0  0  0  0
 20 21  2  0  0  0  0
 21 22  1  0  0  0  0
 21 38  1  0  0  0  0
 22 23  2  0  0  0  0
 22 39  1  0  0  0  0
 23 24  1  0  0  0  0
 23 25  1  0  0  0  0
 25 26  2  0  0  0  0
 25 40  1  0  0  0  0
 26 41  1  0  0  0  0
M  END
> <s_m_source_file>
AV-unprocessed.smi

> <i_m_source_file_index>
132

> <i_lp_mmshare_version>
43012

> <i_f3d_flags>
0

> <s_epik_input>
TzFbQ0gyXVtDSDJdW0NIMl1bQ0BIXTFuKFtjSF1jKEYpYzI9TyljKD1PKW4yW0NIMl1jM25uYyhvMyktYzRbY0hdW2NIXWMoQ2wpW2NIXVtjSF00

> <s_epik_cmdline>
J2VwaWtfcHl0aG9uJywgJy1waCcsICc3LjAnLCAnLXRuJywgJzgnLCAnLW1hJywgJzIwMCcsICctbWV0YWxfYmluZGluZycsICctaW1hZScsICc8aW5maWxlLm1hZT4nLCAnLW9tYWUnLCAnPG91dGZpbGUubWFlPic=

> <r_lp_tautomer_probability>
1

> <r_epik_Ionization_Penalty>
2.5553e-09

> <r_epik_Ionization_Penalty_Charging>
2.54231e-09

> <r_epik_Ionization_Penalty_Neutral>
1.29923e-11

> <r_epik_State_Penalty>
-0

> <r_epik_Charging_Adjusted_Penalty>
2.54231e-09

> <i_epik_Tot_Q>
0

> <i_epik_Tot_abs_Q>
0

> <r_epik_Metal_State_Penalty>
-0

> <b_epik_Metal_Only>
0

> <s_epik_Chemistry_Notes>
This compound contains an acetal/aminal-like group ( X-CH(R)-Y where X, Y are N, S, or O) that may be acid/base labile, releasing an aldehyde.

> <s_lp_Force_Field>
OPLS_2005

> <r_lp_Energy>
32.8563

> <b_lp_Chiralities_Consistent>
1

> <s_lp_Variant>
AV-unprocessed.smi:132-2

> <Gold.Version>
5.8.1

> <Gold.Id.Protein>
6NUR|6NUR_protein|mol2

> <Gold.PLP.Fitness>
60.8981

> <Gold.PLP.PLP>
-54.1434

> <Gold.PLP.part.hbond>
-4.0000

> <Gold.PLP.part.metal>
0.0000

> <Gold.PLP.part.buried>
-3.6288

> <Gold.PLP.part.nonpolar>
-46.1933

> <Gold.PLP.part.repulsive>
0.3380

> <Gold.PLP.ligand.clash>
0.0000

> <Gold.PLP.ligand.torsion>
1.4291

> <Gold.PLP.Chemscore.Hbond>
2.1748

> <Gold.PLP.Chemscore.CHOScore>
0.9906

> <Gold.PLP.Chemscore.Metal>
0.0000

> <Gold.Chemscore.Hbonds>
donor molecule, donor type, donor heavy atom, donor atom, acceptor molecule, acceptor atom, score
      P1  H  7989  7998       L1     1  0.05
      P1  H  7997  8008       L1    13  0.91
      P1  H 10752 10765       L1    27  0.34
      L1  C     5    28       P1  8028  0.78

> <Gold.PLP.Chemscore.Internal.Correction>
0.1167

> <Gold.Rescore>
     Score         DG    S(hbond)    S(metal)    S(lipo)     H(rot)  DE(clash)    DE(int)     intcor
     16.69     -18.60       2.06        0.00      90.52       1.70       0.02       1.89       ----

> <Gold.Chemscore.Fitness>
16.6908

> <Gold.Chemscore.DG>
-18.5968

> <Gold.Chemscore.ZeroCoef>
-5.4800

> <Gold.Chemscore.Hbond>
2.0578

> <Gold.Chemscore.Metal>
0.0000

> <Gold.Chemscore.Lipo>
90.5189

> <Gold.Chemscore.Internal_Hbond>
0.0000

> <Gold.Chemscore.DEClash>
0.0189

> <Gold.Chemscore.DEInternal>
1.8871

> <Gold.Chemscore.Rot>
1.6980

> <Gold.Chemscore.Internal.Correction>
   9.000000E+99

> <Gold.Chemscore.Hbonds>
donor molecule, donor type, donor heavy atom, donor atom, acceptor molecule, acceptor atom, score
      P1  H  7997  8008       L1    13  0.58
      P1  H 10752 10765       L1    27  0.02

> <Gold.Chemscore.Hbond.Weighted>
-6.8730

> <Gold.Chemscore.Metal.Weighted>
-0.0000

> <Gold.Chemscore.Lipo.Weighted>
-10.5907

> <Gold.Chemscore.Internal_Hbond.Weighted>
0.0000

> <Gold.Chemscore.DEClash.Weighted>
0.0189

> <Gold.Chemscore.DEInternal.Weighted>
1.8871

> <Gold.Chemscore.Rot.Weighted>
4.3469

> <Gold.Chemscore.Internal.Correction.Weighted>
   9.000000E+99

> <Gold.Protein.RotatedTorsions>
[ 6907 6896 6895 6894 ] final  -66.84 input  -60.11 | X-H torsion
[ 7974 7965 7964 7962 ] final   89.43 input  175.53 | X-H torsion
[ 8008 7997 7996 7995 ] final  -94.69 input   59.86 | X-H torsion
[ 10167 10162 10161 10158 ] final  160.45 input  -65.29 | X-H torsion
[ 10718 10713 10712 10709 ] final   -5.30 input   66.30 | X-H torsion
[ 10763 10752 10751 10750 ] final -166.92 input  -60.55 | X-H torsion
[ 11005 11000 10999 10996 ] final  105.62 input  -57.11 | X-H torsion

> <Gold.Protein.ActiveResidues>
 VAL166  LYS551  ARG553  GLY616  TRP617  ASP618  TYR619  PRO620  LYS621  CYS622 
 ASP623  PHE694  ASN695  SER759  ASP760  ASP761  ALA762  ILE779  LEU786  VAL792 
 PHE793  MET794  SER795  GLU796  ALA797  LYS798  CYS799  TRP800  GLU811  SER814 

> <Gold.Protein.RotatedAtoms>
  150.7443  134.5965  159.6014 H   0  0  0  0  0  0  0  0  0  0  0  0  # atno 6907 bound_to 6896
  152.3338  134.7221  160.0291 H   0  0  0  0  0  0  0  0  0  0  0  0  # atno 6908 bound_to 6896
  151.7696  133.3304  159.3477 H   0  0  0  0  0  0  0  0  0  0  0  0  # atno 6909 bound_to 6896
  145.5324  139.2284  143.2611 H   0  0  0  0  0  0  0  0  0  0  0  0  # atno 7974 bound_to 7965
  154.7517  140.0487  157.0899 H   0  0  0  0  0  0  0  0  0  0  0  0  # atno 8008 bound_to 7997
  155.0049  140.3129  155.4833 H   0  0  0  0  0  0  0  0  0  0  0  0  # atno 8009 bound_to 7997
  156.2886  140.2195  156.5160 H   0  0  0  0  0  0  0  0  0  0  0  0  # atno 8010 bound_to 7997
  139.4840  144.4633  151.8676 H   0  0  0  0  0  0  0  0  0  0  0  0  # atno 10167 bound_to 10162
  156.7485  130.5232  149.5809 H   0  0  0  0  0  0  0  0  0  0  0  0  # atno 10718 bound_to 10713
  154.6784  135.2950  154.9647 H   0  0  0  0  0  0  0  0  0  0  0  0  # atno 10763 bound_to 10752
  154.0650  135.6626  153.4820 H   0  0  0  0  0  0  0  0  0  0  0  0  # atno 10764 bound_to 10752
  153.0531  135.5161  154.7815 H   0  0  0  0  0  0  0  0  0  0  0  0  # atno 10765 bound_to 10752
  139.8804  134.9342  156.5542 H   0  0  0  0  0  0  0  0  0  0  0  0  # atno 11005 bound_to 11000
  146.2035  140.6141  142.9091 LP  0  0  0  0  0  0  0  0  0  0  0  0  # atno 17320 bound_to 7965
  144.7619  140.5441  143.6730 LP  0  0  0  0  0  0  0  0  0  0  0  0  # atno 17321 bound_to 7965
  140.4097  144.2386  150.5889 LP  0  0  0  0  0  0  0  0  0  0  0  0  # atno 17342 bound_to 10162
  140.4978  143.2327  151.8723 LP  0  0  0  0  0  0  0  0  0  0  0  0  # atno 17343 bound_to 10162
  156.1417  130.6249  151.0476 LP  0  0  0  0  0  0  0  0  0  0  0  0  # atno 17370 bound_to 10713
  157.6787  131.0843  150.7426 LP  0  0  0  0  0  0  0  0  0  0  0  0  # atno 17371 bound_to 10713
  140.8217  133.8348  155.8902 LP  0  0  0  0  0  0  0  0  0  0  0  0  # atno 17394 bound_to 11000
  140.9412  134.1899  157.4796 LP  0  0  0  0  0  0  0  0  0  0  0  0  # atno 17395 bound_to 11000

$$$$
