#       Name:                AV-unprocessed.smi:2440
#       Creating user name   scv26
#       Creation time:       Fri Mar 27 13:25:07 2020


#       File generated by GOLD software.
#

@<TRIPOS>MOLECULE
AV-unprocessed.smi:2440
    55    57     1
SMALL
NO_CHARGES


@<TRIPOS>ATOM
      1 ****        -4.7763  -4.0365   0.7695 C.3            1 S1                 0.0000
      2 ****        -5.6556  -2.8144   0.5698 C.ar           1 S1                 0.0000
      3 ****        -7.0453  -2.9800   0.3820 C.ar           1 S1                 0.0000
      4 ****        -7.8392  -1.9028   0.2058 N.pl3          1 S1                 1.0000
      5 ****        -7.3655  -0.6396   0.2035 C.ar           1 S1                 0.0000
      6 ****        -5.9880  -0.4058   0.3840 C.ar           1 S1                 0.0000
      7 ****        -5.1092  -1.5055   0.5570 C.ar           1 S1                 0.0000
      8 ****        -3.7110  -1.3436   0.7663 N.am           1 S1                 0.0000
      9 ****        -2.9158  -0.3555   0.3222 C.2            1 S1                 0.0000
     10 ****        -3.2798   0.5831  -0.3862 O.2            1 S1                 0.0000
     11 ****        -1.6501  -0.5265   0.7300 N.am           1 S1                 0.0000
     12 ****        -0.5403   0.3690   0.4165 C.3            1 S1                 0.0000
     13 ****         0.0644   0.0373  -0.9567 C.3            1 S1                 0.0000
     14 ****         1.2853   0.9246  -1.2469 C.3            1 S1                 0.0000
     15 ****         2.3339   0.7897  -0.1948 N.4            1 S1                 1.0000
     16 ****         3.5972   1.5077  -0.5677 C.3            1 S1                 0.0000
     17 ****         4.4167   0.6611  -1.5734 C.3            1 S1                 0.0000
     18 ****         5.7063   1.3697  -2.0181 C.3            1 S1                 0.0000
     19 ****         6.5837   1.7372  -0.8150 C.3            1 S1                 0.0000
     20 ****         5.7966   2.5875   0.1898 C.3            1 S1                 0.0000
     21 ****         4.5067   1.8792   0.6343 C.3            1 S1                 0.0000
     22 ****         1.7741   1.1155   1.1498 C.3            1 S1                 0.0000
     23 ****         0.5516   0.2441   1.4864 C.3            1 S1                 0.0000
     24 ****        -5.3675  -4.9526   0.7800 H              1 S1                 0.0000
     25 ****        -4.2402  -3.9723   1.7166 H              1 S1                 0.0000
     26 ****        -4.0465  -4.1150  -0.0368 H              1 S1                 0.0000
     27 ****        -7.5455  -3.9376   0.3686 H              1 S1                 0.0000
     28 ****        -8.0982   0.1420   0.0645 H              1 S1                 0.0000
     29 ****        -5.6311   0.6130   0.3997 H              1 S1                 0.0000
     30 ****        -3.2535  -2.1027   1.2497 H              1 S1                 0.0000
     31 ****        -1.4395  -1.3286   1.3062 H              1 S1                 0.0000
     32 ****        -0.8999   1.4000   0.4110 H              1 S1                 0.0000
     33 ****         0.3590  -1.0127  -0.9937 H              1 S1                 0.0000
     34 ****        -0.6817   0.1767  -1.7401 H              1 S1                 0.0000
     35 ****         1.6797   0.6556  -2.2253 H              1 S1                 0.0000
     36 ****         0.9744   1.9684  -1.3160 H              1 S1                 0.0000
     37 ****         3.3145   2.4456  -1.0494 H              1 S1                 0.0000
     38 ****         4.6713  -0.2983  -1.1204 H              1 S1                 0.0000
     39 ****         3.8338   0.4289  -2.4634 H              1 S1                 0.0000
     40 ****         6.2653   0.7295  -2.7013 H              1 S1                 0.0000
     41 ****         5.4539   2.2717  -2.5770 H              1 S1                 0.0000
     42 ****         6.9414   0.8290  -0.3281 H              1 S1                 0.0000
     43 ****         7.4692   2.2788  -1.1496 H              1 S1                 0.0000
     44 ****         6.4191   2.8040   1.0585 H              1 S1                 0.0000
     45 ****         5.5490   3.5500  -0.2597 H              1 S1                 0.0000
     46 ****         3.9876   2.5477   1.3215 H              1 S1                 0.0000
     47 ****         4.7674   0.9817   1.1971 H              1 S1                 0.0000
     48 ****         2.5114   0.9347   1.9310 H              1 S1                 0.0000
     49 ****         1.5081   2.1730   1.1903 H              1 S1                 0.0000
     50 ****         0.1544   0.5320   2.4606 H              1 S1                 0.0000
     51 ****         0.8655  -0.7971   1.5768 H              1 S1                 0.0000
     52 ****         2.5788  -0.1892  -0.1524 H              1 S1                 0.0000
     53 ****        -8.8404  -2.0496   0.0740 H              1 S1                 0.0000
     54 ****        -4.2348   0.6505  -0.6749 LP             1 S1                 0.0000
     55 ****        -2.6205   1.2781  -0.6730 LP             1 S1                 0.0000
@<TRIPOS>BOND
    1    1    2 1     
    2    1   24 1     
    3    1   25 1     
    4    1   26 1     
    5    2    7 ar    
    6    2    3 ar    
    7    3    4 ar    
    8    3   27 1     
    9    4    5 ar    
   10    4   53 1     
   11    5    6 ar    
   12    5   28 1     
   13    6    7 ar    
   14    6   29 1     
   15    7    8 1     
   16    8    9 am    
   17    8   30 1     
   18    9   10 2     
   19    9   11 am    
   20   11   12 1     
   21   11   31 1     
   22   12   23 1     
   23   12   13 1     
   24   12   32 1     
   25   13   14 1     
   26   13   33 1     
   27   13   34 1     
   28   14   15 1     
   29   14   35 1     
   30   14   36 1     
   31   15   16 1     
   32   15   22 1     
   33   15   52 1     
   34   16   21 1     
   35   16   17 1     
   36   16   37 1     
   37   17   18 1     
   38   17   38 1     
   39   17   39 1     
   40   18   19 1     
   41   18   40 1     
   42   18   41 1     
   43   19   20 1     
   44   19   42 1     
   45   19   43 1     
   46   20   21 1     
   47   20   44 1     
   48   20   45 1     
   49   21   46 1     
   50   21   47 1     
   51   22   23 1     
   52   22   48 1     
   53   22   49 1     
   54   23   50 1     
   55   23   51 1     
   56   10   54 1     
   57   10   55 1     
@<TRIPOS>SUBSTRUCTURE
      1 S1             1
@<TRIPOS>SET
LONE_PAIRS      STATIC     ATOMS    <user>   **** ""
2 54 55
DONOR_HYDROGENS      STATIC     ATOMS    <user>   **** ""
4 53 30 31 52
ATOM$BLUE        STATIC     ATOMS    COLORGROUP SYSTEM
2 54 55
ATOM$RED        STATIC     ATOMS    COLORGROUP SYSTEM
4 53 30 31 52
