AV-unprocessed.smi:50|AV-procd|sdf|496|dock4
  -GOLD-   2262016363D 1   1.00000     0.00000
 Structure written by MMmdl.
 43 44  0  0  0  0  0  0  0  0  3 V2000
  144.2041  132.7982  150.1805 C   0  0  0  0  0  0  0  0  0  0  0  0
  144.8609  133.1590  151.5277 C   0  0  0  0  0  0  0  0  0  0  0  0
  143.9745  134.1760  152.2708 C   0  0  0  0  0  0  0  0  0  0  0  0
  146.3161  133.6739  151.3523 C   0  0  1  0  0  0  0  0  0  0  0  0
  146.3562  134.9951  150.6980 N   0  3  0  0  0  0  0  0  0  0  0  0
  147.0827  133.8438  152.6736 C   0  0  0  0  0  0  0  0  0  0  0  0
  146.8423  134.7117  153.5145 O   0  0  0  0  0  0  0  0  0  0  0  0
  148.0728  132.9391  152.7558 O   0  0  0  0  0  0  0  0  0  0  0  0
  148.7553  132.7547  153.9858 C   0  0  0  0  0  0  0  0  0  0  0  0
  149.5021  134.0390  154.3564 C   0  0  0  0  0  0  0  0  0  0  0  0
  149.0991  134.4428  155.6545 O   0  0  0  0  0  0  0  0  0  0  0  0
  150.1188  135.0579  156.3712 C   0  0  0  0  0  0  0  0  0  0  0  0
  149.5260  135.8510  157.4340 N   0  0  0  0  0  0  0  0  0  0  0  0
  149.4295  137.1944  157.5057 C   0  0  0  0  0  0  0  0  0  0  0  0
  148.8427  137.6682  158.6040 N   0  0  0  0  0  0  0  0  0  0  0  0
  148.5469  136.5024  159.3011 C   0  0  0  0  0  0  0  0  0  0  0  0
  147.8987  136.2762  160.6158 C   0  0  0  0  0  0  0  0  0  0  0  0
  147.5119  137.2445  161.2676 O   0  0  0  0  0  0  0  0  0  0  0  0
  147.7871  134.9677  160.9988 N   0  5  0  0  0  0  0  0  0  0  0  0
  148.2654  133.9420  160.1712 C   0  0  0  0  0  0  0  0  0  0  0  0
  148.0799  132.6888  160.7131 N   0  0  0  0  0  0  0  0  0  0  0  0
  148.8400  134.0675  159.0000 N   0  0  0  0  0  0  0  0  0  0  0  0
  148.9541  135.3906  158.6142 C   0  0  0  0  0  0  0  0  0  0  0  0
  146.8590  132.9756  150.7142 H   0  0  0  0  0  0  0  0  0  0  0  0
  144.1671  133.6622  149.5162 H   0  0  0  0  0  0  0  0  0  0  0  0
  143.1809  132.4495  150.3243 H   0  0  0  0  0  0  0  0  0  0  0  0
  144.7388  132.0037  149.6604 H   0  0  0  0  0  0  0  0  0  0  0  0
  144.8835  132.2527  152.1353 H   0  0  0  0  0  0  0  0  0  0  0  0
  143.9362  135.1284  151.7409 H   0  0  0  0  0  0  0  0  0  0  0  0
  144.3343  134.3691  153.2813 H   0  0  0  0  0  0  0  0  0  0  0  0
  142.9517  133.8090  152.3639 H   0  0  0  0  0  0  0  0  0  0  0  0
  145.5543  135.5358  150.9893 H   0  0  0  0  0  0  0  0  0  0  0  0
  146.3339  134.8730  149.6957 H   0  0  0  0  0  0  0  0  0  0  0  0
  148.0261  132.5149  154.7607 H   0  0  0  0  0  0  0  0  0  0  0  0
  149.4522  131.9175  153.9206 H   0  0  0  0  0  0  0  0  0  0  0  0
  150.5817  133.8878  154.3103 H   0  0  0  0  0  0  0  0  0  0  0  0
  149.2482  134.8193  153.6376 H   0  0  0  0  0  0  0  0  0  0  0  0
  150.7745  134.3082  156.8170 H   0  0  0  0  0  0  0  0  0  0  0  0
  150.6997  135.7203  155.7283 H   0  0  0  0  0  0  0  0  0  0  0  0
  149.7998  137.8464  156.7286 H   0  0  0  0  0  0  0  0  0  0  0  0
  147.6461  132.5272  161.6098 H   0  0  0  0  0  0  0  0  0  0  0  0
  148.3599  131.8396  160.2446 H   0  0  0  0  0  0  0  0  0  0  0  0
  147.2037  135.4770  150.9614 H   0  0  0  0  0  0  0  0  0  0  0  0
  1  2  1  0  0  0  0
  1 25  1  0  0  0  0
  1 26  1  0  0  0  0
  1 27  1  0  0  0  0
  2  3  1  0  0  0  0
  2  4  1  0  0  0  0
  2 28  1  0  0  0  0
  3 29  1  0  0  0  0
  3 30  1  0  0  0  0
  3 31  1  0  0  0  0
  4 24  1  0  0  0  0
  4  5  1  0  0  0  0
  4  6  1  0  0  0  0
  5 32  1  0  0  0  0
  5 33  1  0  0  0  0
  5 43  1  0  0  0  0
  6  7  2  0  0  0  0
  6  8  1  0  0  0  0
  8  9  1  0  0  0  0
  9 10  1  0  0  0  0
  9 34  1  0  0  0  0
  9 35  1  0  0  0  0
 10 11  1  0  0  0  0
 10 36  1  0  0  0  0
 10 37  1  0  0  0  0
 11 12  1  0  0  0  0
 12 13  1  0  0  0  0
 12 38  1  0  0  0  0
 12 39  1  0  0  0  0
 13 23  1  0  0  0  0
 13 14  1  0  0  0  0
 14 15  2  0  0  0  0
 14 40  1  0  0  0  0
 15 16  1  0  0  0  0
 16 23  2  0  0  0  0
 16 17  1  0  0  0  0
 17 18  2  0  0  0  0
 17 19  1  0  0  0  0
 19 20  1  0  0  0  0
 20 21  1  0  0  0  0
 20 22  2  0  0  0  0
 21 41  1  0  0  0  0
 21 42  1  0  0  0  0
 22 23  1  0  0  0  0
M  CHG  1   5   1
M  CHG  1  19  -1
M  END
> <s_m_source_file>
AV-unprocessed.smi

> <i_m_source_file_index>
50

> <i_lp_mmshare_version>
43012

> <i_f3d_flags>
0

> <s_epik_input>
W0NIM11bQ0hdKFtDSDNdKVtDQEhdKFtOSDJdKUMoPU8pT1tDSDJdW0NIMl1PW0NIMl1uKFtjSF1uMSljKGMxMiluYyhbTkgyXSlbbkhdYzI9Tw==

> <s_epik_cmdline>
J2VwaWtfcHl0aG9uJywgJy1waCcsICc3LjAnLCAnLXRuJywgJzgnLCAnLW1hJywgJzIwMCcsICctbWV0YWxfYmluZGluZycsICctaW1hZScsICc8aW5maWxlLm1hZT4nLCAnLW9tYWUnLCAnPG91dGZpbGUubWFlPic=

> <r_lp_tautomer_probability>
0.99994

> <r_epik_Ionization_Penalty>
3.77459

> <r_epik_Ionization_Penalty_Charging>
0.215994

> <r_epik_Ionization_Penalty_Neutral>
3.5586

> <r_epik_State_Penalty>
3.75449

> <r_epik_Charging_Adjusted_Penalty>
3.97048

> <i_epik_Tot_Q>
0

> <i_epik_Tot_abs_Q>
2

> <r_epik_Metal_State_Penalty>
0.723824

> <b_epik_Metal_Only>
1

> <s_epik_Chemistry_Notes>
This compound has an ester and may undergo hydrolysis at high or low pH. This compound contains an acetal/aminal-like group ( X-CH(R)-Y where X, Y are N, S, or O) that may be acid/base labile, releasing an aldehyde.

> <s_lp_Force_Field>
OPLS_2005

> <r_lp_Energy>
22.4326

> <b_lp_Chiralities_Consistent>
1

> <s_lp_Variant>
AV-unprocessed.smi:50-6

> <Gold.Version>
5.8.1

> <Gold.Id.Protein>
6NUR|6NUR_protein|mol2

> <Gold.PLP.Fitness>
40.0711

> <Gold.PLP.PLP>
-26.2827

> <Gold.PLP.part.hbond>
-4.9646

> <Gold.PLP.part.metal>
0.0000

> <Gold.PLP.part.buried>
-1.0559

> <Gold.PLP.part.nonpolar>
-20.2646

> <Gold.PLP.part.repulsive>
0.9348

> <Gold.PLP.ligand.clash>
0.0000

> <Gold.PLP.ligand.torsion>
1.1513

> <Gold.PLP.Chemscore.Hbond>
5.2937

> <Gold.PLP.Chemscore.CHOScore>
0.0000

> <Gold.PLP.Chemscore.Metal>
0.0000

> <Gold.Chemscore.Hbonds>
donor molecule, donor type, donor heavy atom, donor atom, acceptor molecule, acceptor atom, score
      L1  H     5    33       P1  7921  0.93
      L1  H     5    43       P1  7948  1.92
      P1  H  6896  6908       L1    22  0.58
      P1  H  6931  6943       L1    18  0.88
      P1  H  6934  6947       L1    18  0.91

> <Gold.PLP.Chemscore.Internal.Correction>
0.2101

> <Gold.Rescore>
     Score         DG    S(hbond)    S(metal)    S(lipo)     H(rot)  DE(clash)    DE(int)     intcor
      4.62      -7.33       2.90        0.00      38.65       4.83       0.30       2.40       ----

> <Gold.Chemscore.Fitness>
4.6197

> <Gold.Chemscore.DG>
-7.3277

> <Gold.Chemscore.ZeroCoef>
-5.4800

> <Gold.Chemscore.Hbond>
2.9022

> <Gold.Chemscore.Metal>
0.0000

> <Gold.Chemscore.Lipo>
38.6517

> <Gold.Chemscore.Internal_Hbond>
0.0000

> <Gold.Chemscore.DEClash>
0.3049

> <Gold.Chemscore.DEInternal>
2.4030

> <Gold.Chemscore.Rot>
4.8312

> <Gold.Chemscore.Internal.Correction>
   9.000000E+99

> <Gold.Chemscore.Hbonds>
donor molecule, donor type, donor heavy atom, donor atom, acceptor molecule, acceptor atom, score
      L1  H     5    33       P1  7921  0.31
      L1  H     5    43       P1  7948  0.64
      P1  H  6896  6908       L1    22  0.02
      P1  H  6931  6943       L1    18  0.64
      P1  H  6934  6947       L1    18  0.90

> <Gold.Chemscore.Hbond.Weighted>
-9.6933

> <Gold.Chemscore.Metal.Weighted>
-0.0000

> <Gold.Chemscore.Lipo.Weighted>
-4.5222

> <Gold.Chemscore.Internal_Hbond.Weighted>
0.0000

> <Gold.Chemscore.DEClash.Weighted>
0.3049

> <Gold.Chemscore.DEInternal.Weighted>
2.4030

> <Gold.Chemscore.Rot.Weighted>
12.3678

> <Gold.Chemscore.Internal.Correction.Weighted>
   9.000000E+99

> <Gold.Protein.RotatedTorsions>
[ 6907 6896 6895 6894 ] final  128.65 input  -60.11 | X-H torsion
[ 7974 7965 7964 7962 ] final  139.02 input  175.53 | X-H torsion
[ 8008 7997 7996 7995 ] final  106.35 input   59.86 | X-H torsion
[ 10167 10162 10161 10158 ] final -108.11 input  -65.29 | X-H torsion
[ 10718 10713 10712 10709 ] final   33.13 input   66.30 | X-H torsion
[ 10763 10752 10751 10750 ] final   41.95 input  -60.55 | X-H torsion
[ 11005 11000 10999 10996 ] final   35.98 input  -57.11 | X-H torsion

> <Gold.Protein.ActiveResidues>
 VAL166  LYS551  ARG553  GLY616  TRP617  ASP618  TYR619  PRO620  LYS621  CYS622 
 ASP623  PHE694  ASN695  SER759  ASP760  ASP761  ALA762  ILE779  LEU786  VAL792 
 PHE793  MET794  SER795  GLU796  ALA797  LYS798  CYS799  TRP800  GLU811  SER814 

> <Gold.Protein.RotatedAtoms>
  152.3699  133.6405  159.6078 H   0  0  0  0  0  0  0  0  0  0  0  0  # atno 6907 bound_to 6896
  150.7661  133.9287  159.3429 H   0  0  0  0  0  0  0  0  0  0  0  0  # atno 6908 bound_to 6896
  151.7111  135.0913  160.0319 H   0  0  0  0  0  0  0  0  0  0  0  0  # atno 6909 bound_to 6896
  144.9318  139.5038  143.5614 H   0  0  0  0  0  0  0  0  0  0  0  0  # atno 7974 bound_to 7965
  156.1735  140.3114  155.9017 H   0  0  0  0  0  0  0  0  0  0  0  0  # atno 8008 bound_to 7997
  155.3536  140.0472  157.3063 H   0  0  0  0  0  0  0  0  0  0  0  0  # atno 8009 bound_to 7997
  154.5266  140.2216  155.8889 H   0  0  0  0  0  0  0  0  0  0  0  0  # atno 8010 bound_to 7997
  140.1697  143.4052  152.1363 H   0  0  0  0  0  0  0  0  0  0  0  0  # atno 10167 bound_to 10162
  157.2940  130.7317  149.6627 H   0  0  0  0  0  0  0  0  0  0  0  0  # atno 10718 bound_to 10713
  152.9895  135.6146  154.2870 H   0  0  0  0  0  0  0  0  0  0  0  0  # atno 10763 bound_to 10752
  154.2597  135.2782  155.2785 H   0  0  0  0  0  0  0  0  0  0  0  0  # atno 10764 bound_to 10752
  154.5216  135.5813  153.6743 H   0  0  0  0  0  0  0  0  0  0  0  0  # atno 10765 bound_to 10752
  140.2372  134.3458  155.7940 H   0  0  0  0  0  0  0  0  0  0  0  0  # atno 11005 bound_to 11000
  146.3250  139.8273  142.8915 LP  0  0  0  0  0  0  0  0  0  0  0  0  # atno 17320 bound_to 7965
  145.3130  141.0225  143.3543 LP  0  0  0  0  0  0  0  0  0  0  0  0  # atno 17321 bound_to 7965
  139.5343  144.7193  151.4946 LP  0  0  0  0  0  0  0  0  0  0  0  0  # atno 17342 bound_to 10162
  140.6590  143.8539  150.6866 LP  0  0  0  0  0  0  0  0  0  0  0  0  # atno 17343 bound_to 10162
  155.9668  130.4300  150.4858 LP  0  0  0  0  0  0  0  0  0  0  0  0  # atno 17370 bound_to 10713
  157.2826  131.0610  151.2187 LP  0  0  0  0  0  0  0  0  0  0  0  0  # atno 17371 bound_to 10713
  141.2213  133.7278  156.8826 LP  0  0  0  0  0  0  0  0  0  0  0  0  # atno 17394 bound_to 11000
  140.1690  134.9113  157.2810 LP  0  0  0  0  0  0  0  0  0  0  0  0  # atno 17395 bound_to 11000

$$$$
