AV-unprocessed.smi:891|AV-procd|sdf|4064|dock6
  -GOLD-   22720 1553D 1   1.00000     0.00000
 Structure written by MMmdl.
 38 38  0  0  0  0  0  0  0  0  1 V2000
  154.7686  140.2199  160.9087 C   0  0  0  0  0  0  0  0  0  0  0  0
  153.8468  141.3601  160.5879 C   0  0  0  0  0  0  0  0  0  0  0  0
  153.3354  141.4724  159.3715 N   0  0  0  0  0  0  0  0  0  0  0  0
  152.5533  142.5814  159.4092 N   0  0  0  0  0  0  0  0  0  0  0  0
  151.8318  142.9757  158.2077 C   0  0  0  0  0  0  0  0  0  0  0  0
  150.8995  141.8723  157.6929 C   0  0  0  0  0  0  0  0  0  0  0  0
  150.9875  140.7198  158.1192 O   0  0  0  0  0  0  0  0  0  0  0  0
  150.0006  142.2489  156.7702 N   0  0  0  0  0  0  0  0  0  0  0  0
  149.0145  141.3783  156.1348 C   0  0  0  0  0  0  0  0  0  0  0  0
  149.5887  140.6250  154.9146 C   0  0  1  0  0  0  0  0  0  0  0  0
  150.7683  139.7418  155.3593 C   0  0  0  0  0  0  0  0  0  0  0  0
  148.5056  139.8055  154.1698 C   0  0  0  0  0  0  0  0  0  0  0  0
  147.2996  140.6164  153.6650 C   0  0  0  0  0  0  0  0  0  0  0  0
  146.4400  139.8031  152.8946 O   0  0  0  0  0  0  0  0  0  0  0  0
  152.5667  143.1895  160.6548 C   0  0  0  0  0  0  0  0  0  0  0  0
  151.7920  144.4271  160.9732 C   0  0  0  0  0  0  0  0  0  0  0  0
  153.3916  142.4175  161.4182 C   0  0  0  0  0  0  0  0  0  0  0  0
  153.8009  142.6749  163.0756 Cl  0  0  0  0  0  0  0  0  0  0  0  0
  155.0917  140.2495  161.9492 H   0  0  0  0  0  0  0  0  0  0  0  0
  155.6615  140.2504  160.2842 H   0  0  0  0  0  0  0  0  0  0  0  0
  154.2777  139.2609  160.7424 H   0  0  0  0  0  0  0  0  0  0  0  0
  151.2607  143.8791  158.4262 H   0  0  0  0  0  0  0  0  0  0  0  0
  152.5464  143.2346  157.4249 H   0  0  0  0  0  0  0  0  0  0  0  0
  150.0010  143.2165  156.4811 H   0  0  0  0  0  0  0  0  0  0  0  0
  148.6950  140.6605  156.8911 H   0  0  0  0  0  0  0  0  0  0  0  0
  148.1183  141.9326  155.8510 H   0  0  0  0  0  0  0  0  0  0  0  0
  149.9837  141.3754  154.2285 H   0  0  0  0  0  0  0  0  0  0  0  0
  150.4337  138.9290  156.0044 H   0  0  0  0  0  0  0  0  0  0  0  0
  151.5059  140.3222  155.9142 H   0  0  0  0  0  0  0  0  0  0  0  0
  151.2886  139.3033  154.5083 H   0  0  0  0  0  0  0  0  0  0  0  0
  148.9667  139.2920  153.3253 H   0  0  0  0  0  0  0  0  0  0  0  0
  148.1223  139.0185  154.8175 H   0  0  0  0  0  0  0  0  0  0  0  0
  146.7428  141.0672  154.4857 H   0  0  0  0  0  0  0  0  0  0  0  0
  147.6460  141.4365  153.0358 H   0  0  0  0  0  0  0  0  0  0  0  0
  145.6037  140.2368  152.8199 H   0  0  0  0  0  0  0  0  0  0  0  0
  151.9973  144.7693  161.9875 H   0  0  0  0  0  0  0  0  0  0  0  0
  150.7208  144.2438  160.8936 H   0  0  0  0  0  0  0  0  0  0  0  0
  152.0503  145.2362  160.2901 H   0  0  0  0  0  0  0  0  0  0  0  0
  1  2  1  0  0  0  0
  1 19  1  0  0  0  0
  1 20  1  0  0  0  0
  1 21  1  0  0  0  0
  2 17  1  0  0  0  0
  2  3  2  0  0  0  0
  3  4  1  0  0  0  0
  4  5  1  0  0  0  0
  4 15  1  0  0  0  0
  5  6  1  0  0  0  0
  5 22  1  0  0  0  0
  5 23  1  0  0  0  0
  6  7  2  0  0  0  0
  6  8  1  0  0  0  0
  8  9  1  0  0  0  0
  8 24  1  0  0  0  0
  9 10  1  0  0  0  0
  9 25  1  0  0  0  0
  9 26  1  0  0  0  0
 10 11  1  0  0  0  0
 10 12  1  0  0  0  0
 10 27  1  0  0  0  0
 11 28  1  0  0  0  0
 11 29  1  0  0  0  0
 11 30  1  0  0  0  0
 12 13  1  0  0  0  0
 12 31  1  0  0  0  0
 12 32  1  0  0  0  0
 13 14  1  0  0  0  0
 13 33  1  0  0  0  0
 13 34  1  0  0  0  0
 14 35  1  0  0  0  0
 15 16  1  0  0  0  0
 15 17  2  0  0  0  0
 16 36  1  0  0  0  0
 16 37  1  0  0  0  0
 16 38  1  0  0  0  0
 17 18  1  0  0  0  0
M  END
> <s_m_source_file>
AV-unprocessed.smi

> <i_m_source_file_index>
891

> <i_lp_mmshare_version>
43012

> <i_f3d_flags>
0

> <s_epik_input>
W0NIM11jMW5uKGMoW0NIM10pYzFDbClbQ0gyXUMoPU8pW05IXVtDSDJdW0NASF0oW0NIM10pW0NIMl1bQ0gyXVtPSF0=

> <s_epik_cmdline>
J2VwaWtfcHl0aG9uJywgJy1waCcsICc3LjAnLCAnLXRuJywgJzgnLCAnLW1hJywgJzIwMCcsICctbWV0YWxfYmluZGluZycsICctaW1hZScsICc8aW5maWxlLm1hZT4nLCAnLW9tYWUnLCAnPG91dGZpbGUubWFlPic=

> <r_lp_tautomer_probability>
1

> <r_epik_Ionization_Penalty>
4.9564e-06

> <r_epik_Ionization_Penalty_Charging>
0

> <r_epik_Ionization_Penalty_Neutral>
4.9564e-06

> <r_epik_State_Penalty>
-0

> <r_epik_Charging_Adjusted_Penalty>
0

> <i_epik_Tot_Q>
0

> <i_epik_Tot_abs_Q>
0

> <r_epik_Metal_State_Penalty>
-0

> <b_epik_Metal_Only>
0

> <s_lp_Force_Field>
OPLS_2005

> <r_lp_Energy>
8.21906

> <b_lp_Chiralities_Consistent>
1

> <s_lp_Variant>
AV-unprocessed.smi:891-2

> <Gold.Version>
5.8.1

> <Gold.Id.Protein>
6NUR|6NUR_protein|mol2

> <Gold.PLP.Fitness>
49.1433

> <Gold.PLP.PLP>
-44.3988

> <Gold.PLP.part.hbond>
-2.0000

> <Gold.PLP.part.metal>
0.0000

> <Gold.PLP.part.buried>
-3.3944

> <Gold.PLP.part.nonpolar>
-38.7770

> <Gold.PLP.part.repulsive>
0.0432

> <Gold.PLP.ligand.clash>
0.0000

> <Gold.PLP.ligand.torsion>
0.3527

> <Gold.PLP.Chemscore.Hbond>
1.8000

> <Gold.PLP.Chemscore.CHOScore>
0.0000

> <Gold.PLP.Chemscore.Metal>
0.0000

> <Gold.Chemscore.Hbonds>
donor molecule, donor type, donor heavy atom, donor atom, acceptor molecule, acceptor atom, score
      L1  H     8    24       P1  8028  0.89
      L1  H    14    35       P1 10175  1.00

> <Gold.PLP.Chemscore.Internal.Correction>
0.0498

> <Gold.Rescore>
     Score         DG    S(hbond)    S(metal)    S(lipo)     H(rot)  DE(clash)    DE(int)     intcor
     15.68     -17.47       1.89        0.00     106.05       2.62       0.00       1.79       ----

> <Gold.Chemscore.Fitness>
15.6769

> <Gold.Chemscore.DG>
-17.4688

> <Gold.Chemscore.ZeroCoef>
-5.4800

> <Gold.Chemscore.Hbond>
1.8862

> <Gold.Chemscore.Metal>
0.0000

> <Gold.Chemscore.Lipo>
106.0512

> <Gold.Chemscore.Internal_Hbond>
0.0000

> <Gold.Chemscore.DEClash>
0.0000

> <Gold.Chemscore.DEInternal>
1.7919

> <Gold.Chemscore.Rot>
2.6247

> <Gold.Chemscore.Internal.Correction>
   9.000000E+99

> <Gold.Chemscore.Hbonds>
donor molecule, donor type, donor heavy atom, donor atom, acceptor molecule, acceptor atom, score
      L1  H     8    24       P1  8028  0.82
      L1  H    14    35       P1 10175  0.91

> <Gold.Chemscore.Hbond.Weighted>
-6.3000

> <Gold.Chemscore.Metal.Weighted>
-0.0000

> <Gold.Chemscore.Lipo.Weighted>
-12.4080

> <Gold.Chemscore.Internal_Hbond.Weighted>
0.0000

> <Gold.Chemscore.DEClash.Weighted>
0.0000

> <Gold.Chemscore.DEInternal.Weighted>
1.7919

> <Gold.Chemscore.Rot.Weighted>
6.7192

> <Gold.Chemscore.Internal.Correction.Weighted>
   9.000000E+99

> <Gold.Protein.RotatedTorsions>
[ 6907 6896 6895 6894 ] final -115.13 input  -60.11 | X-H torsion
[ 7974 7965 7964 7962 ] final  -67.36 input  175.53 | X-H torsion
[ 8008 7997 7996 7995 ] final  144.59 input   59.86 | X-H torsion
[ 10167 10162 10161 10158 ] final   46.46 input  -65.29 | X-H torsion
[ 10718 10713 10712 10709 ] final  141.48 input   66.30 | X-H torsion
[ 10763 10752 10751 10750 ] final  -21.74 input  -60.55 | X-H torsion
[ 11005 11000 10999 10996 ] final  107.91 input  -57.11 | X-H torsion

> <Gold.Protein.ActiveResidues>
 VAL166  LYS551  ARG553  GLY616  TRP617  ASP618  TYR619  PRO620  LYS621  CYS622 
 ASP623  PHE694  ASN695  SER759  ASP760  ASP761  ALA762  ILE779  LEU786  VAL792 
 PHE793  MET794  SER795  GLU796  ALA797  LYS798  CYS799  TRP800  GLU811  SER814 

> <Gold.Protein.RotatedAtoms>
  150.7954  133.8702  159.3256 H   0  0  0  0  0  0  0  0  0  0  0  0  # atno 6907 bound_to 6896
  151.6529  135.0997  160.0173 H   0  0  0  0  0  0  0  0  0  0  0  0  # atno 6908 bound_to 6896
  152.4035  133.6815  159.6372 H   0  0  0  0  0  0  0  0  0  0  0  0  # atno 6909 bound_to 6896
  145.7301  140.9000  143.0584 H   0  0  0  0  0  0  0  0  0  0  0  0  # atno 7974 bound_to 7965
  156.2904  140.2232  156.5077 H   0  0  0  0  0  0  0  0  0  0  0  0  # atno 8008 bound_to 7997
  154.7635  140.0471  157.1014 H   0  0  0  0  0  0  0  0  0  0  0  0  # atno 8009 bound_to 7997
  154.9962  140.3096  155.4889 H   0  0  0  0  0  0  0  0  0  0  0  0  # atno 8010 bound_to 7997
  140.3137  144.2789  150.6195 H   0  0  0  0  0  0  0  0  0  0  0  0  # atno 10167 bound_to 10162
  157.3915  131.1005  151.0641 H   0  0  0  0  0  0  0  0  0  0  0  0  # atno 10718 bound_to 10713
  153.6410  135.6985  153.5242 H   0  0  0  0  0  0  0  0  0  0  0  0  # atno 10763 bound_to 10752
  153.2783  135.4193  155.1053 H   0  0  0  0  0  0  0  0  0  0  0  0  # atno 10764 bound_to 10752
  154.8500  135.3595  154.5954 H   0  0  0  0  0  0  0  0  0  0  0  0  # atno 10765 bound_to 10752
  139.8835  134.9415  156.5892 H   0  0  0  0  0  0  0  0  0  0  0  0  # atno 11005 bound_to 11000
  144.6895  139.9320  143.7472 LP  0  0  0  0  0  0  0  0  0  0  0  0  # atno 17320 bound_to 7965
  146.0545  139.3543  143.0619 LP  0  0  0  0  0  0  0  0  0  0  0  0  # atno 17321 bound_to 7965
  140.5545  143.2201  151.7870 LP  0  0  0  0  0  0  0  0  0  0  0  0  # atno 17342 bound_to 10162
  139.4888  144.4432  151.9741 LP  0  0  0  0  0  0  0  0  0  0  0  0  # atno 17343 bound_to 10162
  157.1673  130.6252  149.5629 LP  0  0  0  0  0  0  0  0  0  0  0  0  # atno 17370 bound_to 10713
  155.9799  130.4797  150.6745 LP  0  0  0  0  0  0  0  0  0  0  0  0  # atno 17371 bound_to 10713
  140.7968  133.8537  155.8693 LP  0  0  0  0  0  0  0  0  0  0  0  0  # atno 17394 bound_to 11000
  140.9628  134.1633  157.4640 LP  0  0  0  0  0  0  0  0  0  0  0  0  # atno 17395 bound_to 11000

$$$$
