AV-unprocessed.smi:236|AV-procd|sdf|1810|dock3
  -GOLD-   2262020393D 1   1.00000     0.00000
 Structure written by MMmdl.
 58 62  0  0  0  0  0  0  0  0  1 V2000
  144.5998  137.4978  162.4645 C   0  0  0  0  0  0  0  0  0  0  0  0
  145.9159  136.9716  161.8695 C   0  0  1  0  0  0  0  0  0  0  0  0
  146.9961  137.4141  162.6858 O   0  0  0  0  0  0  0  0  0  0  0  0
  148.0453  136.4673  162.5949 C   0  0  0  0  0  0  0  0  0  0  0  0
  147.2905  135.1487  162.6354 C   0  0  0  0  0  0  0  0  0  0  0  0
  146.0662  135.4281  161.7614 C   0  0  1  0  0  0  0  0  0  0  0  0
  144.9601  134.7316  162.3113 O   0  0  0  0  0  0  0  0  0  0  0  0
  146.2378  134.9889  160.2832 C   0  0  0  0  0  0  0  0  0  0  0  0
  147.2206  135.7615  159.5375 N   0  0  0  0  0  0  0  0  0  0  0  0
  148.5902  135.7042  159.6684 C   0  0  0  0  0  0  0  0  0  0  0  0
  149.2590  136.5018  158.8810 N   0  0  0  0  0  0  0  0  0  0  0  0
  148.2772  137.1448  158.1367 C   0  0  0  0  0  0  0  0  0  0  0  0
  148.2900  138.1288  157.1077 C   0  0  0  0  0  0  0  0  0  0  0  0
  149.4007  138.7025  156.6003 N   0  0  0  0  0  0  0  0  0  0  0  0
  149.6072  138.4113  155.1884 C   0  0  0  0  0  0  0  0  0  0  0  0
  150.9699  138.9606  154.7375 C   0  0  0  0  0  0  0  0  0  0  0  0
  151.0412  140.3517  155.0354 O   0  0  0  0  0  0  0  0  0  0  0  0
  150.9315  140.6168  156.4331 C   0  0  1  0  0  0  0  0  0  0  0  0
  151.0981  142.1264  156.6479 C   0  0  0  0  0  0  0  0  0  0  0  0
  151.5474  142.3567  157.9729 O   0  0  0  0  0  0  0  0  0  0  0  0
  152.0354  143.6730  158.1637 C   0  0  0  0  0  0  0  0  0  0  0  0
  151.8789  144.0499  159.6216 C   0  0  0  0  0  0  0  0  0  0  0  0
  150.7141  144.8981  160.0803 C   0  0  0  0  0  0  0  0  0  0  0  0
  152.1060  145.4762  160.0688 C   0  0  0  0  0  0  0  0  0  0  0  0
  149.5559  140.1172  156.9159 C   0  0  0  0  0  0  0  0  0  0  0  0
  147.1006  138.5400  156.6046 N   0  0  0  0  0  0  0  0  0  0  0  0
  145.9621  138.0169  157.0699 C   0  0  0  0  0  0  0  0  0  0  0  0
  145.7935  137.0948  158.0204 N   0  0  0  0  0  0  0  0  0  0  0  0
  146.9898  136.6859  158.5334 C   0  0  0  0  0  0  0  0  0  0  0  0
  143.7445  137.1909  161.8624 H   0  0  0  0  0  0  0  0  0  0  0  0
  144.6016  138.5873  162.5036 H   0  0  0  0  0  0  0  0  0  0  0  0
  144.4482  137.1330  163.4809 H   0  0  0  0  0  0  0  0  0  0  0  0
  146.0549  137.4252  160.8871 H   0  0  0  0  0  0  0  0  0  0  0  0
  148.5793  136.5890  161.6511 H   0  0  0  0  0  0  0  0  0  0  0  0
  148.7559  136.5732  163.4147 H   0  0  0  0  0  0  0  0  0  0  0  0
  147.8973  134.3034  162.3158 H   0  0  0  0  0  0  0  0  0  0  0  0
  146.9891  134.9566  163.6667 H   0  0  0  0  0  0  0  0  0  0  0  0
  144.3282  135.3657  162.6136 H   0  0  0  0  0  0  0  0  0  0  0  0
  146.5307  133.9390  160.2385 H   0  0  0  0  0  0  0  0  0  0  0  0
  145.2843  135.0581  159.7581 H   0  0  0  0  0  0  0  0  0  0  0  0
  149.0811  135.0516  160.3759 H   0  0  0  0  0  0  0  0  0  0  0  0
  149.5625  137.3349  155.0181 H   0  0  0  0  0  0  0  0  0  0  0  0
  148.8112  138.8662  154.5977 H   0  0  0  0  0  0  0  0  0  0  0  0
  151.7866  138.4297  155.2290 H   0  0  0  0  0  0  0  0  0  0  0  0
  151.0970  138.8185  153.6643 H   0  0  0  0  0  0  0  0  0  0  0  0
  151.7196  140.0890  156.9737 H   0  0  0  0  0  0  0  0  0  0  0  0
  151.7976  142.5405  155.9198 H   0  0  0  0  0  0  0  0  0  0  0  0
  150.1401  142.6297  156.5071 H   0  0  0  0  0  0  0  0  0  0  0  0
  153.0915  143.7266  157.8957 H   0  0  0  0  0  0  0  0  0  0  0  0
  151.4921  144.3818  157.5367 H   0  0  0  0  0  0  0  0  0  0  0  0
  152.2206  143.2823  160.3135 H   0  0  0  0  0  0  0  0  0  0  0  0
  150.0160  145.2540  159.3250 H   0  0  0  0  0  0  0  0  0  0  0  0
  150.2741  144.6634  161.0475 H   0  0  0  0  0  0  0  0  0  0  0  0
  152.5941  145.6295  161.0290 H   0  0  0  0  0  0  0  0  0  0  0  0
  152.3352  146.2177  159.3057 H   0  0  0  0  0  0  0  0  0  0  0  0
  148.7668  140.6969  156.4360 H   0  0  0  0  0  0  0  0  0  0  0  0
  149.4582  140.2661  157.9921 H   0  0  0  0  0  0  0  0  0  0  0  0
  145.0562  138.3922  156.6167 H   0  0  0  0  0  0  0  0  0  0  0  0
  1  2  1  0  0  0  0
  1 30  1  0  0  0  0
  1 31  1  0  0  0  0
  1 32  1  0  0  0  0
  2  6  1  0  0  0  0
  2  3  1  0  0  0  0
  2 33  1  0  0  0  0
  3  4  1  0  0  0  0
  4  5  1  0  0  0  0
  4 34  1  0  0  0  0
  4 35  1  0  0  0  0
  5  6  1  0  0  0  0
  5 36  1  0  0  0  0
  5 37  1  0  0  0  0
  6  7  1  0  0  0  0
  6  8  1  0  0  0  0
  7 38  1  0  0  0  0
  8  9  1  0  0  0  0
  8 39  1  0  0  0  0
  8 40  1  0  0  0  0
  9 29  1  0  0  0  0
  9 10  1  0  0  0  0
 10 11  2  0  0  0  0
 10 41  1  0  0  0  0
 11 12  1  0  0  0  0
 12 29  2  0  0  0  0
 12 13  1  0  0  0  0
 13 14  1  0  0  0  0
 13 26  2  0  0  0  0
 14 25  1  0  0  0  0
 14 15  1  0  0  0  0
 15 16  1  0  0  0  0
 15 42  1  0  0  0  0
 15 43  1  0  0  0  0
 16 17  1  0  0  0  0
 16 44  1  0  0  0  0
 16 45  1  0  0  0  0
 17 18  1  0  0  0  0
 18 19  1  0  0  0  0
 18 25  1  0  0  0  0
 18 46  1  0  0  0  0
 19 20  1  0  0  0  0
 19 47  1  0  0  0  0
 19 48  1  0  0  0  0
 20 21  1  0  0  0  0
 21 22  1  0  0  0  0
 21 49  1  0  0  0  0
 21 50  1  0  0  0  0
 22 24  1  0  0  0  0
 22 23  1  0  0  0  0
 22 51  1  0  0  0  0
 23 24  1  0  0  0  0
 23 52  1  0  0  0  0
 23 53  1  0  0  0  0
 24 54  1  0  0  0  0
 24 55  1  0  0  0  0
 25 56  1  0  0  0  0
 25 57  1  0  0  0  0
 26 27  1  0  0  0  0
 27 28  2  0  0  0  0
 27 58  1  0  0  0  0
 28 29  1  0  0  0  0
M  END
> <s_m_source_file>
AV-unprocessed.smi

> <i_m_source_file_index>
236

> <i_lp_mmshare_version>
43012

> <i_f3d_flags>
0

> <s_epik_input>
W0NIMl0xW0NIMl1PW0NAQEhdKFtDSDNdKVtDQEBdMShbT0hdKVtDSDJdbihbY0hdbjIpYyhjMjMpbltjSF1uYzNONFtDSDJdW0NIMl1PW0NASF0oW0NIMl00KVtDSDJdT1tDSDJdW0NIXTVbQ0gyXVtDSDJdNQ==

> <s_epik_cmdline>
J2VwaWtfcHl0aG9uJywgJy1waCcsICc3LjAnLCAnLXRuJywgJzgnLCAnLW1hJywgJzIwMCcsICctbWV0YWxfYmluZGluZycsICctaW1hZScsICc8aW5maWxlLm1hZT4nLCAnLW9tYWUnLCAnPG91dGZpbGUubWFlPic=

> <r_lp_tautomer_probability>
1

> <r_epik_Ionization_Penalty>
7.21838e-05

> <r_epik_Ionization_Penalty_Charging>
0

> <r_epik_Ionization_Penalty_Neutral>
7.21838e-05

> <r_epik_State_Penalty>
-0

> <r_epik_Charging_Adjusted_Penalty>
0

> <i_epik_Tot_Q>
0

> <i_epik_Tot_abs_Q>
0

> <r_epik_Metal_State_Penalty>
-0

> <b_epik_Metal_Only>
0

> <s_lp_Force_Field>
OPLS_2005

> <r_lp_Energy>
50.1764

> <b_lp_Chiralities_Consistent>
1

> <s_lp_Variant>
AV-unprocessed.smi:236-2

> <Gold.Version>
5.8.1

> <Gold.Id.Protein>
6NUR|6NUR_protein|mol2

> <Gold.PLP.Fitness>
48.9568

> <Gold.PLP.PLP>
-47.1084

> <Gold.PLP.part.hbond>
-3.0000

> <Gold.PLP.part.metal>
0.0000

> <Gold.PLP.part.buried>
-7.0945

> <Gold.PLP.part.nonpolar>
-37.8812

> <Gold.PLP.part.repulsive>
0.1018

> <Gold.PLP.ligand.clash>
0.0000

> <Gold.PLP.ligand.torsion>
1.0447

> <Gold.PLP.Chemscore.Hbond>
1.0121

> <Gold.PLP.Chemscore.CHOScore>
0.0000

> <Gold.PLP.Chemscore.Metal>
0.0000

> <Gold.Chemscore.Hbonds>
donor molecule, donor type, donor heavy atom, donor atom, acceptor molecule, acceptor atom, score
      P1  H  6934  6947       L1     3  0.01
      P1  H  7989  7998       L1    17  0.90

> <Gold.PLP.Chemscore.Internal.Correction>
0.9017

> <Gold.Rescore>
     Score         DG    S(hbond)    S(metal)    S(lipo)     H(rot)  DE(clash)    DE(int)     intcor
     13.85     -14.99       0.96        0.00     116.67       2.87       0.01       1.14       ----

> <Gold.Chemscore.Fitness>
13.8482

> <Gold.Chemscore.DG>
-14.9944

> <Gold.Chemscore.ZeroCoef>
-5.4800

> <Gold.Chemscore.Hbond>
0.9582

> <Gold.Chemscore.Metal>
0.0000

> <Gold.Chemscore.Lipo>
116.6651

> <Gold.Chemscore.Internal_Hbond>
0.0000

> <Gold.Chemscore.DEClash>
0.0076

> <Gold.Chemscore.DEInternal>
1.1386

> <Gold.Chemscore.Rot>
2.8655

> <Gold.Chemscore.Internal.Correction>
   9.000000E+99

> <Gold.Chemscore.Hbonds>
donor molecule, donor type, donor heavy atom, donor atom, acceptor molecule, acceptor atom, score
      P1  H  7989  7998       L1    17  0.18

> <Gold.Chemscore.Hbond.Weighted>
-3.2003

> <Gold.Chemscore.Metal.Weighted>
-0.0000

> <Gold.Chemscore.Lipo.Weighted>
-13.6498

> <Gold.Chemscore.Internal_Hbond.Weighted>
0.0000

> <Gold.Chemscore.DEClash.Weighted>
0.0076

> <Gold.Chemscore.DEInternal.Weighted>
1.1386

> <Gold.Chemscore.Rot.Weighted>
7.3358

> <Gold.Chemscore.Internal.Correction.Weighted>
   9.000000E+99

> <Gold.Protein.RotatedTorsions>
[ 6907 6896 6895 6894 ] final    7.06 input  -60.11 | X-H torsion
[ 7974 7965 7964 7962 ] final -137.11 input  175.53 | X-H torsion
[ 8008 7997 7996 7995 ] final   88.09 input   59.86 | X-H torsion
[ 10167 10162 10161 10158 ] final  175.55 input  -65.29 | X-H torsion
[ 10718 10713 10712 10709 ] final  168.05 input   66.30 | X-H torsion
[ 10763 10752 10751 10750 ] final   69.95 input  -60.55 | X-H torsion
[ 11005 11000 10999 10996 ] final -117.86 input  -57.11 | X-H torsion

> <Gold.Protein.ActiveResidues>
 VAL166  LYS551  ARG553  GLY616  TRP617  ASP618  TYR619  PRO620  LYS621  CYS622 
 ASP623  PHE694  ASN695  SER759  ASP760  ASP761  ALA762  ILE779  LEU786  VAL792 
 PHE793  MET794  SER795  GLU796  ALA797  LYS798  CYS799  TRP800  GLU811  SER814 

> <Gold.Protein.RotatedAtoms>
  151.6838  135.0957  160.0220 H   0  0  0  0  0  0  0  0  0  0  0  0  # atno 6907 bound_to 6896
  152.3820  133.6554  159.6177 H   0  0  0  0  0  0  0  0  0  0  0  0  # atno 6908 bound_to 6896
  150.7754  133.9015  159.3384 H   0  0  0  0  0  0  0  0  0  0  0  0  # atno 6909 bound_to 6896
  144.8869  140.6588  143.5170 H   0  0  0  0  0  0  0  0  0  0  0  0  # atno 7974 bound_to 7965
  155.9835  140.3375  155.6685 H   0  0  0  0  0  0  0  0  0  0  0  0  # atno 8008 bound_to 7997
  155.6517  140.0706  157.2603 H   0  0  0  0  0  0  0  0  0  0  0  0  # atno 8009 bound_to 7997
  154.4198  140.1724  156.1669 H   0  0  0  0  0  0  0  0  0  0  0  0  # atno 8010 bound_to 7997
  139.5181  144.3019  152.0371 H   0  0  0  0  0  0  0  0  0  0  0  0  # atno 10167 bound_to 10162
  157.0427  131.0291  151.2708 H   0  0  0  0  0  0  0  0  0  0  0  0  # atno 10718 bound_to 10713
  153.0315  135.5191  154.7367 H   0  0  0  0  0  0  0  0  0  0  0  0  # atno 10763 bound_to 10752
  154.6379  135.2908  155.0141 H   0  0  0  0  0  0  0  0  0  0  0  0  # atno 10764 bound_to 10752
  154.1070  135.6628  153.4931 H   0  0  0  0  0  0  0  0  0  0  0  0  # atno 10765 bound_to 10752
  141.0326  133.9958  157.3120 H   0  0  0  0  0  0  0  0  0  0  0  0  # atno 11005 bound_to 11000
  145.3852  139.1628  143.4259 LP  0  0  0  0  0  0  0  0  0  0  0  0  # atno 17320 bound_to 7965
  146.3030  140.3936  142.8697 LP  0  0  0  0  0  0  0  0  0  0  0  0  # atno 17321 bound_to 7965
  140.2466  144.4213  150.6238 LP  0  0  0  0  0  0  0  0  0  0  0  0  # atno 17342 bound_to 10162
  140.6254  143.2180  151.6608 LP  0  0  0  0  0  0  0  0  0  0  0  0  # atno 17343 bound_to 10162
  157.5092  130.7928  149.7687 LP  0  0  0  0  0  0  0  0  0  0  0  0  # atno 17370 bound_to 10713
  156.0033  130.3868  150.2525 LP  0  0  0  0  0  0  0  0  0  0  0  0  # atno 17371 bound_to 10713
  139.9218  135.0200  156.8092 LP  0  0  0  0  0  0  0  0  0  0  0  0  # atno 17394 bound_to 11000
  140.6379  133.9845  155.7693 LP  0  0  0  0  0  0  0  0  0  0  0  0  # atno 17395 bound_to 11000

$$$$
