AV-unprocessed.smi:3017|AV-procd|sdf|11478|dock7
  -GOLD-   2272016413D 1   1.00000     0.00000
 Structure written by MMmdl.
 37 38  0  0  0  0  0  0  0  0  1 V2000
  144.7341  142.7729  155.0432 C   0  0  0  0  0  0  0  0  0  0  0  0
  146.0105  141.9259  155.1444 C   0  0  1  0  0  0  0  0  0  0  0  0
  145.7199  140.4339  154.8920 C   0  0  0  0  0  0  0  0  0  0  0  0
  146.9980  139.5865  154.9903 C   0  0  0  0  0  0  0  0  0  0  0  0
  148.0868  140.1029  154.0352 C   0  0  0  0  0  0  0  0  0  0  0  0
  148.3926  141.5928  154.2687 C   0  0  2  0  0  0  0  0  0  0  0  0
  148.9955  141.7141  155.5513 O   0  0  0  0  0  0  0  0  0  0  0  0
  150.3508  141.2868  155.6164 C   0  0  0  0  0  0  0  0  0  0  0  0
  150.9786  141.7496  156.9335 C   0  0  0  0  0  0  0  0  0  0  0  0
  151.5593  140.9248  157.6384 O   0  0  0  0  0  0  0  0  0  0  0  0
  150.8389  143.0527  157.2443 N   0  0  0  0  0  0  0  0  0  0  0  0
  151.3363  143.7440  158.3793 C   0  0  0  0  0  0  0  0  0  0  0  0
  151.0300  145.1241  158.4397 C   0  0  0  0  0  0  0  0  0  0  0  0
  151.4380  145.9180  159.4548 N   0  0  0  0  0  0  0  0  0  0  0  0
  152.1647  145.3281  160.4278 C   0  0  0  0  0  0  0  0  0  0  0  0
  152.4790  143.9551  160.3845 C   0  0  0  0  0  0  0  0  0  0  0  0
  152.0673  143.1673  159.3674 N   0  0  0  0  0  0  0  0  0  0  0  0
  147.1004  142.4328  154.1783 C   0  0  0  0  0  0  0  0  0  0  0  0
  144.2981  142.7168  154.0452 H   0  0  0  0  0  0  0  0  0  0  0  0
  144.9424  143.8217  155.2570 H   0  0  0  0  0  0  0  0  0  0  0  0
  143.9812  142.4354  155.7559 H   0  0  0  0  0  0  0  0  0  0  0  0
  146.3881  142.0275  156.1631 H   0  0  0  0  0  0  0  0  0  0  0  0
  144.9843  140.0695  155.6101 H   0  0  0  0  0  0  0  0  0  0  0  0
  145.2756  140.3064  153.9040 H   0  0  0  0  0  0  0  0  0  0  0  0
  147.3696  139.6035  156.0159 H   0  0  0  0  0  0  0  0  0  0  0  0
  146.7707  138.5448  154.7636 H   0  0  0  0  0  0  0  0  0  0  0  0
  148.9960  139.5122  154.1517 H   0  0  0  0  0  0  0  0  0  0  0  0
  147.7583  139.9598  153.0049 H   0  0  0  0  0  0  0  0  0  0  0  0
  149.0989  141.9196  153.5034 H   0  0  0  0  0  0  0  0  0  0  0  0
  150.4078  140.1990  155.5592 H   0  0  0  0  0  0  0  0  0  0  0  0
  150.9309  141.6956  154.7892 H   0  0  0  0  0  0  0  0  0  0  0  0
  150.3297  143.6149  156.5774 H   0  0  0  0  0  0  0  0  0  0  0  0
  150.4507  145.6005  157.6621 H   0  0  0  0  0  0  0  0  0  0  0  0
  152.4970  145.9530  161.2434 H   0  0  0  0  0  0  0  0  0  0  0  0
  153.0611  143.4890  161.1655 H   0  0  0  0  0  0  0  0  0  0  0  0
  146.7221  142.3883  153.1561 H   0  0  0  0  0  0  0  0  0  0  0  0
  147.3105  143.4846  154.3697 H   0  0  0  0  0  0  0  0  0  0  0  0
  1  2  1  0  0  0  0
  1 19  1  0  0  0  0
  1 20  1  0  0  0  0
  1 21  1  0  0  0  0
  2 18  1  0  0  0  0
  2  3  1  0  0  0  0
  2 22  1  0  0  0  0
  3  4  1  0  0  0  0
  3 23  1  0  0  0  0
  3 24  1  0  0  0  0
  4  5  1  0  0  0  0
  4 25  1  0  0  0  0
  4 26  1  0  0  0  0
  5  6  1  0  0  0  0
  5 27  1  0  0  0  0
  5 28  1  0  0  0  0
  6  7  1  0  0  0  0
  6 18  1  0  0  0  0
  6 29  1  0  0  0  0
  7  8  1  0  0  0  0
  8  9  1  0  0  0  0
  8 30  1  0  0  0  0
  8 31  1  0  0  0  0
  9 10  2  0  0  0  0
  9 11  1  0  0  0  0
 11 12  1  0  0  0  0
 11 32  1  0  0  0  0
 12 17  1  0  0  0  0
 12 13  2  0  0  0  0
 13 14  1  0  0  0  0
 13 33  1  0  0  0  0
 14 15  2  0  0  0  0
 15 16  1  0  0  0  0
 15 34  1  0  0  0  0
 16 17  2  0  0  0  0
 16 35  1  0  0  0  0
 18 36  1  0  0  0  0
 18 37  1  0  0  0  0
M  END
> <s_m_source_file>
AV-unprocessed.smi

> <i_m_source_file_index>
3017

> <i_lp_mmshare_version>
43012

> <i_f3d_flags>
0

> <s_epik_input>
W0NIM11bQ0BASF0xW0NIMl1bQ0gyXVtDSDJdW0NASF0oW0NIMl0xKU9bQ0gyXUMoPU8pW05IXWMyW2NIXW5bY0hdW2NIXW4y

> <s_epik_cmdline>
J2VwaWtfcHl0aG9uJywgJy1waCcsICc3LjAnLCAnLXRuJywgJzgnLCAnLW1hJywgJzIwMCcsICctbWV0YWxfYmluZGluZycsICctaW1hZScsICc8aW5maWxlLm1hZT4nLCAnLW9tYWUnLCAnPG91dGZpbGUubWFlPic=

> <r_lp_tautomer_probability>
1

> <r_epik_Ionization_Penalty>
2.89243e-06

> <r_epik_Ionization_Penalty_Charging>
0

> <r_epik_Ionization_Penalty_Neutral>
2.89243e-06

> <r_epik_State_Penalty>
-0

> <r_epik_Charging_Adjusted_Penalty>
0

> <i_epik_Tot_Q>
0

> <i_epik_Tot_abs_Q>
0

> <r_epik_Metal_State_Penalty>
-0

> <b_epik_Metal_Only>
0

> <s_lp_Force_Field>
OPLS_2005

> <r_lp_Energy>
20.5114

> <b_lp_Chiralities_Consistent>
1

> <s_lp_Variant>
AV-unprocessed.smi:3017-4

> <Gold.Version>
5.8.1

> <Gold.Id.Protein>
6NUR|6NUR_protein|mol2

> <Gold.PLP.Fitness>
38.4541

> <Gold.PLP.PLP>
-33.8031

> <Gold.PLP.part.hbond>
-2.5480

> <Gold.PLP.part.metal>
0.0000

> <Gold.PLP.part.buried>
-4.2699

> <Gold.PLP.part.nonpolar>
-26.7020

> <Gold.PLP.part.repulsive>
0.9822

> <Gold.PLP.ligand.clash>
0.0000

> <Gold.PLP.ligand.torsion>
0.2349

> <Gold.PLP.Chemscore.Hbond>
1.0000

> <Gold.PLP.Chemscore.CHOScore>
0.7042

> <Gold.PLP.Chemscore.Metal>
0.0000

> <Gold.Chemscore.Hbonds>
donor molecule, donor type, donor heavy atom, donor atom, acceptor molecule, acceptor atom, score
      L1  H    11    32       P1  8028  1.00
      L1  C    13    33       P1  8028  0.24
      L1  C    13    33       P1  8029  0.39

> <Gold.PLP.Chemscore.Internal.Correction>
0.0083

> <Gold.Rescore>
     Score         DG    S(hbond)    S(metal)    S(lipo)     H(rot)  DE(clash)    DE(int)     intcor
     12.01     -13.76       0.90        0.00      78.16       1.51       0.21       1.53       ----

> <Gold.Chemscore.Fitness>
12.0123

> <Gold.Chemscore.DG>
-13.7586

> <Gold.Chemscore.ZeroCoef>
-5.4800

> <Gold.Chemscore.Hbond>
0.8994

> <Gold.Chemscore.Metal>
0.0000

> <Gold.Chemscore.Lipo>
78.1637

> <Gold.Chemscore.Internal_Hbond>
0.0000

> <Gold.Chemscore.DEClash>
0.2136

> <Gold.Chemscore.DEInternal>
1.5327

> <Gold.Chemscore.Rot>
1.5119

> <Gold.Chemscore.Internal.Correction>
   9.000000E+99

> <Gold.Chemscore.Hbonds>
donor molecule, donor type, donor heavy atom, donor atom, acceptor molecule, acceptor atom, score
      L1  H    11    32       P1  8028  0.93

> <Gold.Chemscore.Hbond.Weighted>
-3.0040

> <Gold.Chemscore.Metal.Weighted>
-0.0000

> <Gold.Chemscore.Lipo.Weighted>
-9.1451

> <Gold.Chemscore.Internal_Hbond.Weighted>
0.0000

> <Gold.Chemscore.DEClash.Weighted>
0.2136

> <Gold.Chemscore.DEInternal.Weighted>
1.5327

> <Gold.Chemscore.Rot.Weighted>
3.8706

> <Gold.Chemscore.Internal.Correction.Weighted>
   9.000000E+99

> <Gold.Protein.RotatedTorsions>
[ 6907 6896 6895 6894 ] final  -32.35 input  -60.11 | X-H torsion
[ 7974 7965 7964 7962 ] final  156.38 input  175.53 | X-H torsion
[ 8008 7997 7996 7995 ] final  -26.45 input   59.86 | X-H torsion
[ 10167 10162 10161 10158 ] final  -62.92 input  -65.29 | X-H torsion
[ 10718 10713 10712 10709 ] final -164.03 input   66.30 | X-H torsion
[ 10763 10752 10751 10750 ] final  133.20 input  -60.55 | X-H torsion
[ 11005 11000 10999 10996 ] final   -0.76 input  -57.11 | X-H torsion

> <Gold.Protein.ActiveResidues>
 VAL166  LYS551  ARG553  GLY616  TRP617  ASP618  TYR619  PRO620  LYS621  CYS622 
 ASP623  PHE694  ASN695  SER759  ASP760  ASP761  ALA762  ILE779  LEU786  VAL792 
 PHE793  MET794  SER795  GLU796  ALA797  LYS798  CYS799  TRP800  GLU811  SER814 

> <Gold.Protein.RotatedAtoms>
  151.0799  134.9851  159.8350 H   0  0  0  0  0  0  0  0  0  0  0  0  # atno 6907 bound_to 6896
  152.5418  134.2195  159.8792 H   0  0  0  0  0  0  0  0  0  0  0  0  # atno 6908 bound_to 6896
  151.2224  133.4451  159.2634 H   0  0  0  0  0  0  0  0  0  0  0  0  # atno 6909 bound_to 6896
  144.7966  139.7196  143.6199 H   0  0  0  0  0  0  0  0  0  0  0  0  # atno 7974 bound_to 7965
  154.4424  140.1899  156.0778 H   0  0  0  0  0  0  0  0  0  0  0  0  # atno 8008 bound_to 7997
  156.0462  140.3314  155.7272 H   0  0  0  0  0  0  0  0  0  0  0  0  # atno 8009 bound_to 7997
  155.5626  140.0605  157.2816 H   0  0  0  0  0  0  0  0  0  0  0  0  # atno 8010 bound_to 7997
  140.5906  143.2341  151.6147 H   0  0  0  0  0  0  0  0  0  0  0  0  # atno 10167 bound_to 10162
  156.6332  130.8938  151.2981 H   0  0  0  0  0  0  0  0  0  0  0  0  # atno 10718 bound_to 10713
  153.8033  135.3139  155.3392 H   0  0  0  0  0  0  0  0  0  0  0  0  # atno 10763 bound_to 10752
  154.8080  135.4685  154.0446 H   0  0  0  0  0  0  0  0  0  0  0  0  # atno 10764 bound_to 10752
  153.1801  135.6892  153.8578 H   0  0  0  0  0  0  0  0  0  0  0  0  # atno 10765 bound_to 10752
  140.6398  133.9500  155.8320 H   0  0  0  0  0  0  0  0  0  0  0  0  # atno 11005 bound_to 11000
  146.2236  139.5682  142.9602 LP  0  0  0  0  0  0  0  0  0  0  0  0  # atno 17320 bound_to 7965
  145.5657  141.0399  143.2202 LP  0  0  0  0  0  0  0  0  0  0  0  0  # atno 17321 bound_to 7965
  139.5225  144.3161  152.0951 LP  0  0  0  0  0  0  0  0  0  0  0  0  # atno 17342 bound_to 10162
  140.2324  144.4354  150.6294 LP  0  0  0  0  0  0  0  0  0  0  0  0  # atno 17343 bound_to 10162
  157.7193  130.9538  150.1377 LP  0  0  0  0  0  0  0  0  0  0  0  0  # atno 17370 bound_to 10713
  156.2218  130.3674  149.8547 LP  0  0  0  0  0  0  0  0  0  0  0  0  # atno 17371 bound_to 10713
  141.0615  134.0339  157.3652 LP  0  0  0  0  0  0  0  0  0  0  0  0  # atno 17394 bound_to 11000
  139.9084  135.0185  156.7588 LP  0  0  0  0  0  0  0  0  0  0  0  0  # atno 17395 bound_to 11000

$$$$
