#       Name:                AV-unprocessed.smi:33
#       Creating user name   scv26
#       Creation time:       Thu Mar 26 15:52:11 2020


#       File generated by GOLD software.
#

@<TRIPOS>MOLECULE
AV-unprocessed.smi:33
    80    85     1
SMALL
NO_CHARGES


@<TRIPOS>ATOM
      1 ****        -7.3009   1.8682   1.5521 O.2            1 S1                 0.0000
      2 ****        -6.0793   1.9753   1.4275 C.2            1 S1                 0.0000
      3 ****        -5.3398   1.1900   0.6260 O.3            1 S1                 0.0000
      4 ****        -5.9401   0.1385  -0.1113 C.3            1 S1                 0.0000
      5 ****        -4.8125  -0.6453  -0.7880 C.3            1 S1                 0.0000
      6 ****        -4.0744  -1.3906   0.1744 O.3            1 S1                 0.0000
      7 ****        -3.3974  -2.4314  -0.4623 C.3            1 S1                 0.0000
      8 ****        -1.9217  -2.1448  -0.4867 N.pl3          1 S1                 0.0000
      9 ****        -0.9130  -3.0738  -0.6203 C.2            1 S1                 0.0000
     10 ****         0.3011  -2.5958  -0.6070 N.2            1 S1                 0.0000
     11 ****         0.1183  -1.2300  -0.4456 C.ar           1 S1                 0.0000
     12 ****         1.0048  -0.1252  -0.3484 C.ar           1 S1                 0.0000
     13 ****         2.3481  -0.2630  -0.3978 N.am           1 S1                 0.0000
     14 ****         3.0153  -0.6914   0.8392 C.2            1 S1                 0.0000
     15 ****         2.4840  -0.4646   1.9280 O.2            1 S1                 0.0000
     16 ****         4.3558  -1.3668   0.7864 C.ar           1 S1                 0.0000
     17 ****         5.3956  -0.9443   1.6434 C.ar           1 S1                 0.0000
     18 ****         6.6488  -1.5860   1.6078 C.ar           1 S1                 0.0000
     19 ****         6.8634  -2.6660   0.7303 C.ar           1 S1                 0.0000
     20 ****         5.8219  -3.1102  -0.1063 C.ar           1 S1                 0.0000
     21 ****         4.5694  -2.4679  -0.0731 C.ar           1 S1                 0.0000
     22 ****         3.0036   0.0175  -1.6832 C.2            1 S1                 0.0000
     23 ****         2.3503  -0.0516  -2.7261 O.2            1 S1                 0.0000
     24 ****         4.4709   0.3353  -1.7407 C.ar           1 S1                 0.0000
     25 ****         5.2977  -0.3192  -2.6801 C.ar           1 S1                 0.0000
     26 ****         6.6721  -0.0189  -2.7476 C.ar           1 S1                 0.0000
     27 ****         7.2245   0.9514  -1.8901 C.ar           1 S1                 0.0000
     28 ****         6.4003   1.6290  -0.9716 C.ar           1 S1                 0.0000
     29 ****         5.0260   1.3284  -0.9023 C.ar           1 S1                 0.0000
     30 ****         0.4747   1.1146  -0.1974 N.ar           1 S1                 0.0000
     31 ****        -0.8512   1.2598  -0.1346 C.ar           1 S1                 0.0000
     32 ****        -1.7967   0.3202  -0.2038 N.ar           1 S1                 0.0000
     33 ****        -1.2697  -0.9290  -0.3668 C.ar           1 S1                 0.0000
     34 ****        -4.0075  -2.5847  -1.8752 C.3            1 S1                 0.0000
     35 ****        -3.1695  -2.1404  -2.9286 O.3            1 S1                 0.0000
     36 ****        -5.2522  -1.7155  -1.7826 C.3            1 S1                 0.0000
     37 ****        -6.2647  -2.4304  -1.2875 F              1 S1                 0.0000
     38 ****        -5.2593   2.9910   2.1492 C.ar           1 S1                 0.0000
     39 ****        -5.8994   3.9359   2.9844 C.ar           1 S1                 0.0000
     40 ****        -5.1478   4.9040   3.6787 C.ar           1 S1                 0.0000
     41 ****        -3.7471   4.9381   3.5475 C.ar           1 S1                 0.0000
     42 ****        -3.0981   4.0021   2.7214 C.ar           1 S1                 0.0000
     43 ****        -3.8481   3.0339   2.0262 C.ar           1 S1                 0.0000
     44 ****        -6.5260  -0.5105   0.5410 H              1 S1                 0.0000
     45 ****        -6.6122   0.5600  -0.8597 H              1 S1                 0.0000
     46 ****        -4.1507   0.0481  -1.3079 H              1 S1                 0.0000
     47 ****        -3.4842  -3.3358   0.1409 H              1 S1                 0.0000
     48 ****        -1.1099  -4.1303  -0.7309 H              1 S1                 0.0000
     49 ****         5.2415  -0.1167   2.3209 H              1 S1                 0.0000
     50 ****         7.4455  -1.2503   2.2551 H              1 S1                 0.0000
     51 ****         7.8244  -3.1579   0.7038 H              1 S1                 0.0000
     52 ****         5.9825  -3.9445  -0.7729 H              1 S1                 0.0000
     53 ****         3.7751  -2.8202  -0.7158 H              1 S1                 0.0000
     54 ****         4.8846  -1.0660  -3.3428 H              1 S1                 0.0000
     55 ****         7.3020  -0.5330  -3.4584 H              1 S1                 0.0000
     56 ****         8.2787   1.1804  -1.9416 H              1 S1                 0.0000
     57 ****         6.8221   2.3798  -0.3198 H              1 S1                 0.0000
     58 ****         4.4025   1.8572  -0.1957 H              1 S1                 0.0000
     59 ****        -1.2058   2.2725  -0.0113 H              1 S1                 0.0000
     60 ****        -4.2563  -3.6314  -2.0543 H              1 S1                 0.0000
     61 ****        -2.3562  -2.6198  -2.8880 H              1 S1                 0.0000
     62 ****        -5.5790  -1.3090  -2.7408 H              1 S1                 0.0000
     63 ****        -6.9736   3.9287   3.1010 H              1 S1                 0.0000
     64 ****        -5.6473   5.6212   4.3131 H              1 S1                 0.0000
     65 ****        -3.1715   5.6799   4.0810 H              1 S1                 0.0000
     66 ****        -2.0228   4.0241   2.6212 H              1 S1                 0.0000
     67 ****        -3.3184   2.3276   1.4043 H              1 S1                 0.0000
     68 ****        -7.7961   1.1662   1.0402 LP             1 S1                 0.0000
     69 ****        -7.7968   2.4833   2.1651 LP             1 S1                 0.0000
     70 ****        -4.7014  -1.7684   0.8557 LP             1 S1                 0.0000
     71 ****        -3.4141  -0.7904   0.6257 LP             1 S1                 0.0000
     72 ****         1.1622  -3.0969  -0.6930 LP             1 S1                 0.0000
     73 ****         1.6038   0.0085   1.9660 LP             1 S1                 0.0000
     74 ****         2.9331  -0.7537   2.7734 LP             1 S1                 0.0000
     75 ****         1.3814  -0.2971  -2.6938 LP             1 S1                 0.0000
     76 ****         2.7891   0.1378  -3.6045 LP             1 S1                 0.0000
     77 ****         1.0725   1.9137  -0.1336 LP             1 S1                 0.0000
     78 ****        -2.7769   0.5090  -0.1433 LP             1 S1                 0.0000
     79 ****        -2.9897  -1.1620  -2.8266 LP             1 S1                 0.0000
     80 ****        -3.6158  -2.3074  -3.8078 LP             1 S1                 0.0000
@<TRIPOS>BOND
    1    1    2 2     
    2    2    3 1     
    3    2   38 1     
    4    3    4 1     
    5    4    5 1     
    6    4   44 1     
    7    4   45 1     
    8    5   36 1     
    9    5    6 1     
   10    5   46 1     
   11    6    7 1     
   12    7    8 1     
   13    7   34 1     
   14    7   47 1     
   15    8   33 1     
   16    8    9 1     
   17    9   10 2     
   18    9   48 1     
   19   10   11 1     
   20   11   33 ar    
   21   11   12 ar    
   22   12   13 1     
   23   12   30 ar    
   24   13   14 am    
   25   13   22 am    
   26   14   15 2     
   27   14   16 1     
   28   16   21 ar    
   29   16   17 ar    
   30   17   18 ar    
   31   17   49 1     
   32   18   19 ar    
   33   18   50 1     
   34   19   20 ar    
   35   19   51 1     
   36   20   21 ar    
   37   20   52 1     
   38   21   53 1     
   39   22   23 2     
   40   22   24 1     
   41   24   29 ar    
   42   24   25 ar    
   43   25   26 ar    
   44   25   54 1     
   45   26   27 ar    
   46   26   55 1     
   47   27   28 ar    
   48   27   56 1     
   49   28   29 ar    
   50   28   57 1     
   51   29   58 1     
   52   30   31 ar    
   53   31   32 ar    
   54   31   59 1     
   55   32   33 ar    
   56   34   35 1     
   57   34   36 1     
   58   34   60 1     
   59   35   61 1     
   60   36   37 1     
   61   36   62 1     
   62   38   43 ar    
   63   38   39 ar    
   64   39   40 ar    
   65   39   63 1     
   66   40   41 ar    
   67   40   64 1     
   68   41   42 ar    
   69   41   65 1     
   70   42   43 ar    
   71   42   66 1     
   72   43   67 1     
   73    1   68 1     
   74    1   69 1     
   75    6   70 1     
   76    6   71 1     
   77   10   72 1     
   78   15   73 1     
   79   15   74 1     
   80   23   75 1     
   81   23   76 1     
   82   30   77 1     
   83   32   78 1     
   84   35   79 1     
   85   35   80 1     
@<TRIPOS>SUBSTRUCTURE
      1 S1             1
@<TRIPOS>SET
LONE_PAIRS      STATIC     ATOMS    <user>   **** ""
13 68 69 70 71 72 73 74 75 76 77 78 79 80
DONOR_HYDROGENS      STATIC     ATOMS    <user>   **** ""
1 61
ATOM$BLUE        STATIC     ATOMS    COLORGROUP SYSTEM
13 68 69 70 71 72 73 74 75 76 77 78 79 80
ATOM$RED        STATIC     ATOMS    COLORGROUP SYSTEM
1 61
