#       Name:                AV-unprocessed.smi:2784
#       Creating user name   scv26
#       Creation time:       Fri Mar 27 15:18:01 2020


#       File generated by GOLD software.
#

@<TRIPOS>MOLECULE
AV-unprocessed.smi:2784
    38    39     1
SMALL
NO_CHARGES


@<TRIPOS>ATOM
      1 ****        -1.8191   0.7144   2.2076 C.3            1 S1                 0.0000
      2 ****        -1.0291  -0.2560   1.5404 O.3            1 S1                 0.0000
      3 ****         0.3638  -0.1552   1.8231 C.3            1 S1                 0.0000
      4 ****         0.6792  -1.0110   3.0545 C.3            1 S1                 0.0000
      5 ****         0.8013  -2.4279   2.5007 C.3            1 S1                 0.0000
      6 ****         1.4647  -2.2566   1.1314 C.3            1 S1                 0.0000
      7 ****         1.1871  -0.8065   0.6879 C.3            1 S1                 0.0000
      8 ****         0.5127  -0.7674  -0.6089 N.am           1 S1                 0.0000
      9 ****         0.3682   0.3180  -1.3827 C.2            1 S1                 0.0000
     10 ****         0.8290   1.4009  -1.0137 O.2            1 S1                 0.0000
     11 ****        -0.3044   0.0825  -2.5318 N.pl3          1 S1                -1.0000
     12 ****        -0.5360   1.0896  -3.3891 C.2            1 S1                 0.0000
     13 ****         0.1403   1.3452  -4.5104 N.2            1 S1                 0.0000
     14 ****        -0.4564   2.4666  -5.0655 C.2            1 S1                 0.0000
     15 ****        -1.4872   2.8418  -4.2480 C.2            1 S1                 0.0000
     16 ****        -1.5495   1.9791  -3.1889 O.3            1 S1                 0.0000
     17 ****        -2.8688   0.5646   1.9560 H              1 S1                 0.0000
     18 ****        -1.5427   1.7231   1.8979 H              1 S1                 0.0000
     19 ****        -1.7193   0.6413   3.2905 H              1 S1                 0.0000
     20 ****         0.6578   0.8875   1.9576 H              1 S1                 0.0000
     21 ****         1.6365  -0.7027   3.4768 H              1 S1                 0.0000
     22 ****        -0.0682  -0.9327   3.8438 H              1 S1                 0.0000
     23 ****         1.3642  -3.0892   3.1596 H              1 S1                 0.0000
     24 ****        -0.1944  -2.8551   2.3735 H              1 S1                 0.0000
     25 ****         2.5408  -2.4113   1.2176 H              1 S1                 0.0000
     26 ****         1.0924  -2.9973   0.4221 H              1 S1                 0.0000
     27 ****         2.1470  -0.2932   0.6046 H              1 S1                 0.0000
     28 ****         0.1145  -1.6324  -0.9432 H              1 S1                 0.0000
     29 ****        -0.1053   2.9024  -5.9889 H              1 S1                 0.0000
     30 ****        -2.2177   3.6363  -4.2733 H              1 S1                 0.0000
     31 ****        -1.1599  -0.1460   0.5551 LP             1 S1                 0.0000
     32 ****        -1.3427  -1.1638   1.8189 LP             1 S1                 0.0000
     33 ****         1.3091   1.4681  -0.1391 LP             1 S1                 0.0000
     34 ****         0.7224   2.2118  -1.5892 LP             1 S1                 0.0000
     35 ****        -0.6287  -0.8396  -2.7427 LP             1 S1                 0.0000
     36 ****         0.9178   0.8331  -4.8754 LP             1 S1                 0.0000
     37 ****        -1.4188   2.4712  -2.3283 LP             1 S1                 0.0000
     38 ****        -2.4313   1.5076  -3.1727 LP             1 S1                 0.0000
@<TRIPOS>BOND
    1    1    2 1     
    2    1   17 1     
    3    1   18 1     
    4    1   19 1     
    5    2    3 1     
    6    3    7 1     
    7    3    4 1     
    8    3   20 1     
    9    4    5 1     
   10    4   21 1     
   11    4   22 1     
   12    5    6 1     
   13    5   23 1     
   14    5   24 1     
   15    6    7 1     
   16    6   25 1     
   17    6   26 1     
   18    7    8 1     
   19    7   27 1     
   20    8   28 1     
   21    8    9 am    
   22    9   11 1     
   23    9   10 2     
   24   11   12 1     
   25   12   16 1     
   26   12   13 2     
   27   13   14 1     
   28   14   29 1     
   29   14   15 2     
   30   15   30 1     
   31   15   16 1     
   32    2   31 1     
   33    2   32 1     
   34   10   33 1     
   35   10   34 1     
   36   11   35 1     
   37   13   36 1     
   38   16   37 1     
   39   16   38 1     
@<TRIPOS>SUBSTRUCTURE
      1 S1             1
@<TRIPOS>SET
LONE_PAIRS      STATIC     ATOMS    <user>   **** ""
8 31 32 33 34 35 36 37 38
DONOR_HYDROGENS      STATIC     ATOMS    <user>   **** ""
1 28
ATOM$BLUE        STATIC     ATOMS    COLORGROUP SYSTEM
8 31 32 33 34 35 36 37 38
ATOM$RED        STATIC     ATOMS    COLORGROUP SYSTEM
1 28
