AV-unprocessed.smi:1754|AV-procd|sdf|7066|dock6
  -GOLD-   22720 8283D 1   1.00000     0.00000
 Structure written by MMmdl.
 44 45  0  0  0  0  0  0  0  0  1 V2000
  152.5233  144.4343  158.2791 C   0  0  0  0  0  0  0  0  0  0  0  0
  152.2360  143.7248  159.6118 C   0  0  0  0  0  0  0  0  0  0  0  0
  152.9660  142.4634  159.7607 N   0  0  0  0  0  0  0  0  0  0  0  0
  153.4945  142.1557  161.0894 C   0  0  0  0  0  0  0  0  0  0  0  0
  152.7650  142.9089  162.2124 C   0  0  0  0  0  0  0  0  0  0  0  0
  152.5327  141.3386  159.0232 C   0  0  0  0  0  0  0  0  0  0  0  0
  153.0984  140.0673  159.2754 C   0  0  0  0  0  0  0  0  0  0  0  0
  152.6467  138.9531  158.5428 C   0  0  0  0  0  0  0  0  0  0  0  0
  151.6396  139.1375  157.5669 C   0  0  0  0  0  0  0  0  0  0  0  0
  151.0843  138.1003  156.7690 N   0  0  0  0  0  0  0  0  0  0  0  0
  150.8717  136.8063  157.0807 C   0  0  0  0  0  0  0  0  0  0  0  0
  151.1577  136.2863  158.1565 O   0  0  0  0  0  0  0  0  0  0  0  0
  150.3226  136.0835  156.0878 N   0  0  0  0  0  0  0  0  0  0  0  0
  149.9635  134.6644  156.0879 C   0  0  2  0  0  0  0  0  0  0  0  0
  149.0398  134.3323  157.2750 C   0  0  0  0  0  0  0  0  0  0  0  0
  148.9870  132.8094  157.4502 C   0  0  0  0  0  0  0  0  0  0  0  0
  150.6118  132.1749  156.8859 S   0  0  0  0  0  0  0  0  0  0  0  0
  151.4369  131.8220  158.0511 O   0  0  0  0  0  0  0  0  0  0  0  0
  150.3941  131.2155  155.7927 O   0  0  0  0  0  0  0  0  0  0  0  0
  151.2048  133.7630  156.1919 C   0  0  0  0  0  0  0  0  0  0  0  0
  151.1296  140.4400  157.3959 C   0  0  0  0  0  0  0  0  0  0  0  0
  151.5594  141.5101  158.0960 N   0  0  0  0  0  0  0  0  0  0  0  0
  151.9944  145.3861  158.2307 H   0  0  0  0  0  0  0  0  0  0  0  0
  152.2073  143.8425  157.4204 H   0  0  0  0  0  0  0  0  0  0  0  0
  153.5878  144.6423  158.1687 H   0  0  0  0  0  0  0  0  0  0  0  0
  152.5156  144.3916  160.4279 H   0  0  0  0  0  0  0  0  0  0  0  0
  151.1651  143.5493  159.7211 H   0  0  0  0  0  0  0  0  0  0  0  0
  153.4581  141.0841  161.2821 H   0  0  0  0  0  0  0  0  0  0  0  0
  154.5526  142.4186  161.1089 H   0  0  0  0  0  0  0  0  0  0  0  0
  153.1993  142.6661  163.1823 H   0  0  0  0  0  0  0  0  0  0  0  0
  151.7081  142.6430  162.2493 H   0  0  0  0  0  0  0  0  0  0  0  0
  152.8355  143.9888  162.0801 H   0  0  0  0  0  0  0  0  0  0  0  0
  153.8754  139.9383  160.0142 H   0  0  0  0  0  0  0  0  0  0  0  0
  153.0760  137.9871  158.7556 H   0  0  0  0  0  0  0  0  0  0  0  0
  150.8572  138.3647  155.8216 H   0  0  0  0  0  0  0  0  0  0  0  0
  150.1453  136.5770  155.2247 H   0  0  0  0  0  0  0  0  0  0  0  0
  149.4206  134.4145  155.1744 H   0  0  0  0  0  0  0  0  0  0  0  0
  149.4518  134.7721  158.1846 H   0  0  0  0  0  0  0  0  0  0  0  0
  148.0423  134.7531  157.1430 H   0  0  0  0  0  0  0  0  0  0  0  0
  148.7997  132.5060  158.4805 H   0  0  0  0  0  0  0  0  0  0  0  0
  148.2170  132.3736  156.8135 H   0  0  0  0  0  0  0  0  0  0  0  0
  151.6965  133.5927  155.2338 H   0  0  0  0  0  0  0  0  0  0  0  0
  151.9356  134.1760  156.8882 H   0  0  0  0  0  0  0  0  0  0  0  0
  150.3517  140.6328  156.6715 H   0  0  0  0  0  0  0  0  0  0  0  0
  1  2  1  0  0  0  0
  1 23  1  0  0  0  0
  1 24  1  0  0  0  0
  1 25  1  0  0  0  0
  2  3  1  0  0  0  0
  2 26  1  0  0  0  0
  2 27  1  0  0  0  0
  3  4  1  0  0  0  0
  3  6  1  0  0  0  0
  4  5  1  0  0  0  0
  4 28  1  0  0  0  0
  4 29  1  0  0  0  0
  5 30  1  0  0  0  0
  5 31  1  0  0  0  0
  5 32  1  0  0  0  0
  6 22  1  0  0  0  0
  6  7  2  0  0  0  0
  7  8  1  0  0  0  0
  7 33  1  0  0  0  0
  8  9  2  0  0  0  0
  8 34  1  0  0  0  0
  9 10  1  0  0  0  0
  9 21  1  0  0  0  0
 10 11  1  0  0  0  0
 10 35  1  0  0  0  0
 11 12  2  0  0  0  0
 11 13  1  0  0  0  0
 13 14  1  0  0  0  0
 13 36  1  0  0  0  0
 14 20  1  0  0  0  0
 14 15  1  0  0  0  0
 14 37  1  0  0  0  0
 15 16  1  0  0  0  0
 15 38  1  0  0  0  0
 15 39  1  0  0  0  0
 16 17  1  0  0  0  0
 16 40  1  0  0  0  0
 16 41  1  0  0  0  0
 17 18  2  0  0  0  0
 17 19  2  0  0  0  0
 17 20  1  0  0  0  0
 20 42  1  0  0  0  0
 20 43  1  0  0  0  0
 21 22  2  0  0  0  0
 21 44  1  0  0  0  0
M  END
> <s_m_source_file>
AV-unprocessed.smi

> <i_m_source_file_index>
1754

> <i_lp_mmshare_version>
43012

> <i_f3d_flags>
0

> <s_epik_input>
W0NIM11bQ0gyXU4oW0NIMl1bQ0gzXSljMVtjSF1bY0hdYyhbY0hdbjEpW05IXUMoPU8pW05IXVtDQEBIXShbQ0gyXTIpW0NIMl1bQ0gyXVMyKD1PKT1P

> <s_epik_cmdline>
J2VwaWtfcHl0aG9uJywgJy1waCcsICc3LjAnLCAnLXRuJywgJzgnLCAnLW1hJywgJzIwMCcsICctbWV0YWxfYmluZGluZycsICctaW1hZScsICc8aW5maWxlLm1hZT4nLCAnLW9tYWUnLCAnPG91dGZpbGUubWFlPic=

> <r_lp_tautomer_probability>
1

> <r_epik_Ionization_Penalty>
0.615754

> <r_epik_Ionization_Penalty_Charging>
0

> <r_epik_Ionization_Penalty_Neutral>
0.615754

> <r_epik_State_Penalty>
2.08676

> <r_epik_Charging_Adjusted_Penalty>
2.08676

> <i_epik_Tot_Q>
0

> <i_epik_Tot_abs_Q>
0

> <r_epik_Metal_State_Penalty>
1.53042

> <b_epik_Metal_Only>
0

> <s_lp_Force_Field>
OPLS_2005

> <r_lp_Energy>
24.3589

> <b_lp_Chiralities_Consistent>
1

> <s_lp_Variant>
AV-unprocessed.smi:1754-3

> <Gold.Version>
5.8.1

> <Gold.Id.Protein>
6NUR|6NUR_protein|mol2

> <Gold.PLP.Fitness>
42.2713

> <Gold.PLP.PLP>
-38.6175

> <Gold.PLP.part.hbond>
-2.0000

> <Gold.PLP.part.metal>
0.0000

> <Gold.PLP.part.buried>
-5.4152

> <Gold.PLP.part.nonpolar>
-31.6133

> <Gold.PLP.part.repulsive>
0.1056

> <Gold.PLP.ligand.clash>
0.0000

> <Gold.PLP.ligand.torsion>
0.8411

> <Gold.PLP.Chemscore.Hbond>
1.4917

> <Gold.PLP.Chemscore.CHOScore>
0.0000

> <Gold.PLP.Chemscore.Metal>
0.0000

> <Gold.Chemscore.Hbonds>
donor molecule, donor type, donor heavy atom, donor atom, acceptor molecule, acceptor atom, score
      P1  H  6896  6907       L1    18  1.00
      P1  H  6896  6908       L1    12  0.41

> <Gold.PLP.Chemscore.Internal.Correction>
0.8610

> <Gold.Rescore>
     Score         DG    S(hbond)    S(metal)    S(lipo)     H(rot)  DE(clash)    DE(int)     intcor
     15.15     -16.65       1.43        0.00      85.11       1.39       0.00       1.50       ----

> <Gold.Chemscore.Fitness>
15.1481

> <Gold.Chemscore.DG>
-16.6539

> <Gold.Chemscore.ZeroCoef>
-5.4800

> <Gold.Chemscore.Hbond>
1.4278

> <Gold.Chemscore.Metal>
0.0000

> <Gold.Chemscore.Lipo>
85.1060

> <Gold.Chemscore.Internal_Hbond>
0.0000

> <Gold.Chemscore.DEClash>
0.0029

> <Gold.Chemscore.DEInternal>
1.5030

> <Gold.Chemscore.Rot>
1.3876

> <Gold.Chemscore.Internal.Correction>
   9.000000E+99

> <Gold.Chemscore.Hbonds>
donor molecule, donor type, donor heavy atom, donor atom, acceptor molecule, acceptor atom, score
      P1  H  6896  6907       L1    18  0.70
      P1  H  6896  6908       L1    12  0.41

> <Gold.Chemscore.Hbond.Weighted>
-4.7689

> <Gold.Chemscore.Metal.Weighted>
-0.0000

> <Gold.Chemscore.Lipo.Weighted>
-9.9574

> <Gold.Chemscore.Internal_Hbond.Weighted>
0.0000

> <Gold.Chemscore.DEClash.Weighted>
0.0029

> <Gold.Chemscore.DEInternal.Weighted>
1.5030

> <Gold.Chemscore.Rot.Weighted>
3.5524

> <Gold.Chemscore.Internal.Correction.Weighted>
   9.000000E+99

> <Gold.Protein.RotatedTorsions>
[ 6907 6896 6895 6894 ] final -170.50 input  -60.11 | X-H torsion
[ 7974 7965 7964 7962 ] final  122.39 input  175.53 | X-H torsion
[ 8008 7997 7996 7995 ] final -137.64 input   59.86 | X-H torsion
[ 10167 10162 10161 10158 ] final  -27.41 input  -65.29 | X-H torsion
[ 10718 10713 10712 10709 ] final -120.97 input   66.30 | X-H torsion
[ 10763 10752 10751 10750 ] final -150.30 input  -60.55 | X-H torsion
[ 11005 11000 10999 10996 ] final  133.71 input  -57.11 | X-H torsion

> <Gold.Protein.ActiveResidues>
 VAL166  LYS551  ARG553  GLY616  TRP617  ASP618  TYR619  PRO620  LYS621  CYS622 
 ASP623  PHE694  ASN695  SER759  ASP760  ASP761  ALA762  ILE779  LEU786  VAL792 
 PHE793  MET794  SER795  GLU796  ALA797  LYS798  CYS799  TRP800  GLU811  SER814 

> <Gold.Protein.RotatedAtoms>
  151.5088  133.3489  159.2881 H   0  0  0  0  0  0  0  0  0  0  0  0  # atno 6907 bound_to 6896
  150.8726  134.8105  159.7177 H   0  0  0  0  0  0  0  0  0  0  0  0  # atno 6908 bound_to 6896
  152.4708  134.4974  159.9766 H   0  0  0  0  0  0  0  0  0  0  0  0  # atno 6909 bound_to 6896
  145.1081  139.3472  143.4777 H   0  0  0  0  0  0  0  0  0  0  0  0  # atno 7974 bound_to 7965
  155.4151  140.0515  157.3029 H   0  0  0  0  0  0  0  0  0  0  0  0  # atno 8008 bound_to 7997
  154.4928  140.2127  155.9471 H   0  0  0  0  0  0  0  0  0  0  0  0  # atno 8009 bound_to 7997
  156.1365  140.3162  155.8434 H   0  0  0  0  0  0  0  0  0  0  0  0  # atno 8010 bound_to 7997
  140.7277  143.4096  151.1128 H   0  0  0  0  0  0  0  0  0  0  0  0  # atno 10167 bound_to 10162
  156.1300  130.6388  150.9605 H   0  0  0  0  0  0  0  0  0  0  0  0  # atno 10718 bound_to 10713
  154.8127  135.3287  154.7262 H   0  0  0  0  0  0  0  0  0  0  0  0  # atno 10763 bound_to 10752
  153.7908  135.6911  153.4876 H   0  0  0  0  0  0  0  0  0  0  0  0  # atno 10764 bound_to 10752
  153.1918  135.4548  155.0105 H   0  0  0  0  0  0  0  0  0  0  0  0  # atno 10765 bound_to 10752
  139.9868  134.9529  156.9763 H   0  0  0  0  0  0  0  0  0  0  0  0  # atno 11005 bound_to 11000
  146.3527  140.0988  142.8609 LP  0  0  0  0  0  0  0  0  0  0  0  0  # atno 17320 bound_to 7965
  145.0878  140.9264  143.4787 LP  0  0  0  0  0  0  0  0  0  0  0  0  # atno 17321 bound_to 7965
  139.7727  143.8470  152.3123 LP  0  0  0  0  0  0  0  0  0  0  0  0  # atno 17342 bound_to 10162
  139.8394  144.7217  150.9350 LP  0  0  0  0  0  0  0  0  0  0  0  0  # atno 17343 bound_to 10162
  157.6478  131.0901  150.8115 LP  0  0  0  0  0  0  0  0  0  0  0  0  # atno 17370 bound_to 10713
  156.8201  130.4981  149.5344 LP  0  0  0  0  0  0  0  0  0  0  0  0  # atno 17371 bound_to 10713
  140.4986  134.1120  155.7246 LP  0  0  0  0  0  0  0  0  0  0  0  0  # atno 17394 bound_to 11000
  141.1532  133.8931  157.2045 LP  0  0  0  0  0  0  0  0  0  0  0  0  # atno 17395 bound_to 11000

$$$$
