AV-unprocessed.smi:679|AV-procd|sdf|3319|dock9
  -GOLD-   22720 0283D 1   1.00000     0.00000
 Structure written by MMmdl.
 41 43  0  0  0  0  0  0  0  0  1 V2000
  147.9404  141.0338  153.6357 C   0  0  0  0  0  0  0  0  0  0  0  0
  149.1077  141.6396  154.4179 C   0  0  0  0  0  0  0  0  0  0  0  0
  150.0494  140.6179  154.6974 O   0  0  0  0  0  0  0  0  0  0  0  0
  149.6113  139.7225  155.7073 C   0  0  2  0  0  0  0  0  0  0  0  0
  149.6080  140.3068  157.1234 C   0  0  0  0  0  0  0  0  0  0  0  0
  150.1735  138.9657  157.6050 C   0  0  1  0  0  0  0  0  0  0  0  0
  149.1009  138.0496  157.9922 N   0  0  0  0  0  0  0  0  0  0  0  0
  149.2603  136.9720  158.7761 C   0  0  0  0  0  0  0  0  0  0  0  0
  150.3449  136.6350  159.2492 O   0  0  0  0  0  0  0  0  0  0  0  0
  148.0121  136.1319  159.0544 C   0  0  0  0  0  0  0  0  0  0  0  0
  147.5592  136.2813  160.4254 N   0  0  0  0  0  0  0  0  0  0  0  0
  147.4057  135.3832  161.4005 C   0  0  0  0  0  0  0  0  0  0  0  0
  146.9530  135.9413  162.5126 N   0  0  0  0  0  0  0  0  0  0  0  0
  146.8309  137.2768  162.1671 N   0  0  0  0  0  0  0  0  0  0  0  0
  147.1891  137.4847  160.9298 N   0  0  0  0  0  0  0  0  0  0  0  0
  150.7015  138.7237  156.1663 C   0  0  0  0  0  0  0  0  0  0  0  0
  152.1577  139.1160  155.9022 C   0  0  0  0  0  0  0  0  0  0  0  0
  152.5693  138.4724  154.5737 C   0  0  0  0  0  0  0  0  0  0  0  0
  151.5590  137.3484  154.3238 C   0  0  0  0  0  0  0  0  0  0  0  0
  150.6600  137.3217  155.5614 C   0  0  0  0  0  0  0  0  0  0  0  0
  147.1903  141.7909  153.4064 H   0  0  0  0  0  0  0  0  0  0  0  0
  147.4542  140.2428  154.2072 H   0  0  0  0  0  0  0  0  0  0  0  0
  148.2817  140.6053  152.6933 H   0  0  0  0  0  0  0  0  0  0  0  0
  149.5717  142.4356  153.8336 H   0  0  0  0  0  0  0  0  0  0  0  0
  148.7452  142.0797  155.3480 H   0  0  0  0  0  0  0  0  0  0  0  0
  148.6732  139.2218  155.4569 H   0  0  0  0  0  0  0  0  0  0  0  0
  150.3141  141.1298  157.2451 H   0  0  0  0  0  0  0  0  0  0  0  0
  148.6211  140.5657  157.5091 H   0  0  0  0  0  0  0  0  0  0  0  0
  150.9581  139.0829  158.3548 H   0  0  0  0  0  0  0  0  0  0  0  0
  148.1771  138.2516  157.6388 H   0  0  0  0  0  0  0  0  0  0  0  0
  147.2094  136.4353  158.3813 H   0  0  0  0  0  0  0  0  0  0  0  0
  148.2152  135.0776  158.8600 H   0  0  0  0  0  0  0  0  0  0  0  0
  147.6193  134.3298  161.2948 H   0  0  0  0  0  0  0  0  0  0  0  0
  152.3114  140.1957  155.8863 H   0  0  0  0  0  0  0  0  0  0  0  0
  152.7933  138.7265  156.6986 H   0  0  0  0  0  0  0  0  0  0  0  0
  152.5227  139.2021  153.7646 H   0  0  0  0  0  0  0  0  0  0  0  0
  153.5919  138.0965  154.6192 H   0  0  0  0  0  0  0  0  0  0  0  0
  150.9657  137.5788  153.4381 H   0  0  0  0  0  0  0  0  0  0  0  0
  152.0432  136.3862  154.1544 H   0  0  0  0  0  0  0  0  0  0  0  0
  151.0535  136.5964  156.2749 H   0  0  0  0  0  0  0  0  0  0  0  0
  149.6482  137.0017  155.3101 H   0  0  0  0  0  0  0  0  0  0  0  0
  1  2  1  0  0  0  0
  1 21  1  0  0  0  0
  1 22  1  0  0  0  0
  1 23  1  0  0  0  0
  2  3  1  0  0  0  0
  2 24  1  0  0  0  0
  2 25  1  0  0  0  0
  3  4  1  0  0  0  0
  4 16  1  0  0  0  0
  4  5  1  0  0  0  0
  4 26  1  0  0  0  0
  5  6  1  0  0  0  0
  5 27  1  0  0  0  0
  5 28  1  0  0  0  0
  6  7  1  0  0  0  0
  6 16  1  0  0  0  0
  6 29  1  0  0  0  0
  7  8  1  0  0  0  0
  7 30  1  0  0  0  0
  8  9  2  0  0  0  0
  8 10  1  0  0  0  0
 10 11  1  0  0  0  0
 10 31  1  0  0  0  0
 10 32  1  0  0  0  0
 11 15  1  0  0  0  0
 11 12  1  0  0  0  0
 12 13  2  0  0  0  0
 12 33  1  0  0  0  0
 13 14  1  0  0  0  0
 14 15  2  0  0  0  0
 16 20  1  0  0  0  0
 16 17  1  0  0  0  0
 17 18  1  0  0  0  0
 17 34  1  0  0  0  0
 17 35  1  0  0  0  0
 18 19  1  0  0  0  0
 18 36  1  0  0  0  0
 18 37  1  0  0  0  0
 19 20  1  0  0  0  0
 19 38  1  0  0  0  0
 19 39  1  0  0  0  0
 20 40  1  0  0  0  0
 20 41  1  0  0  0  0
M  END
> <s_m_source_file>
AV-unprocessed.smi

> <i_m_source_file_index>
679

> <i_lp_mmshare_version>
43012

> <i_f3d_flags>
0

> <s_epik_input>
W0NIMl0xW0NIMl1bQ0gyXVtDSDJdQzEyW0NASF0oT1tDSDJdW0NIM10pW0NIMl1bQ0BIXTJbTkhdQyg9TylbQ0gyXW4zW2NIXW5ubjM=

> <s_epik_cmdline>
J2VwaWtfcHl0aG9uJywgJy1waCcsICc3LjAnLCAnLXRuJywgJzgnLCAnLW1hJywgJzIwMCcsICctbWV0YWxfYmluZGluZycsICctaW1hZScsICc8aW5maWxlLm1hZT4nLCAnLW9tYWUnLCAnPG91dGZpbGUubWFlPic=

> <r_lp_tautomer_probability>
1

> <r_epik_Ionization_Penalty>
7.96741e-07

> <r_epik_Ionization_Penalty_Charging>
0

> <r_epik_Ionization_Penalty_Neutral>
7.96741e-07

> <r_epik_State_Penalty>
-0

> <r_epik_Charging_Adjusted_Penalty>
0

> <i_epik_Tot_Q>
0

> <i_epik_Tot_abs_Q>
0

> <r_epik_Metal_State_Penalty>
-0

> <b_epik_Metal_Only>
0

> <s_lp_Force_Field>
OPLS_2005

> <r_lp_Energy>
39.8699

> <b_lp_Chiralities_Consistent>
1

> <s_lp_Variant>
AV-unprocessed.smi:679-1

> <Gold.Version>
5.8.1

> <Gold.Id.Protein>
6NUR|6NUR_protein|mol2

> <Gold.PLP.Fitness>
40.9138

> <Gold.PLP.PLP>
-32.8665

> <Gold.PLP.part.hbond>
-5.7920

> <Gold.PLP.part.metal>
0.0000

> <Gold.PLP.part.buried>
-2.5791

> <Gold.PLP.part.nonpolar>
-25.1236

> <Gold.PLP.part.repulsive>
0.2165

> <Gold.PLP.ligand.clash>
0.0000

> <Gold.PLP.ligand.torsion>
0.4840

> <Gold.PLP.Chemscore.Hbond>
2.8879

> <Gold.PLP.Chemscore.CHOScore>
0.0000

> <Gold.PLP.Chemscore.Metal>
0.0000

> <Gold.Chemscore.Hbonds>
donor molecule, donor type, donor heavy atom, donor atom, acceptor molecule, acceptor atom, score
      P1  H  6896  6907       L1     9  1.00
      P1  H  6931  6943       L1    15  0.04
      P1  H  6934  6947       L1    15  0.95
      P1  H  7989  7998       L1     3  0.85

> <Gold.PLP.Chemscore.Internal.Correction>
0.3514

> <Gold.Rescore>
     Score         DG    S(hbond)    S(metal)    S(lipo)     H(rot)  DE(clash)    DE(int)     intcor
     13.84     -14.59       2.33        0.00      64.15       2.41       0.33       0.41       ----

> <Gold.Chemscore.Fitness>
13.8416

> <Gold.Chemscore.DG>
-14.5863

> <Gold.Chemscore.ZeroCoef>
-5.4800

> <Gold.Chemscore.Hbond>
2.3255

> <Gold.Chemscore.Metal>
0.0000

> <Gold.Chemscore.Lipo>
64.1540

> <Gold.Chemscore.Internal_Hbond>
0.0000

> <Gold.Chemscore.DEClash>
0.3314

> <Gold.Chemscore.DEInternal>
0.4133

> <Gold.Chemscore.Rot>
2.4089

> <Gold.Chemscore.Internal.Correction>
   9.000000E+99

> <Gold.Chemscore.Hbonds>
donor molecule, donor type, donor heavy atom, donor atom, acceptor molecule, acceptor atom, score
      P1  H  6896  6907       L1     9  0.99
      P1  H  6934  6947       L1    15  0.20
      P1  H  7989  7998       L1     3  0.50

> <Gold.Chemscore.Hbond.Weighted>
-7.7671

> <Gold.Chemscore.Metal.Weighted>
-0.0000

> <Gold.Chemscore.Lipo.Weighted>
-7.5060

> <Gold.Chemscore.Internal_Hbond.Weighted>
0.0000

> <Gold.Chemscore.DEClash.Weighted>
0.3314

> <Gold.Chemscore.DEInternal.Weighted>
0.4133

> <Gold.Chemscore.Rot.Weighted>
6.1668

> <Gold.Chemscore.Internal.Correction.Weighted>
   9.000000E+99

> <Gold.Protein.RotatedTorsions>
[ 6907 6896 6895 6894 ] final  -19.20 input  -60.11 | X-H torsion
[ 7974 7965 7964 7962 ] final   35.42 input  175.53 | X-H torsion
[ 8008 7997 7996 7995 ] final  175.21 input   59.86 | X-H torsion
[ 10167 10162 10161 10158 ] final  -23.20 input  -65.29 | X-H torsion
[ 10718 10713 10712 10709 ] final   14.78 input   66.30 | X-H torsion
[ 10763 10752 10751 10750 ] final -141.93 input  -60.55 | X-H torsion
[ 11005 11000 10999 10996 ] final -138.93 input  -57.11 | X-H torsion

> <Gold.Protein.ActiveResidues>
 VAL166  LYS551  ARG553  GLY616  TRP617  ASP618  TYR619  PRO620  LYS621  CYS622 
 ASP623  PHE694  ASN695  SER759  ASP760  ASP761  ALA762  ILE779  LEU786  VAL792 
 PHE793  MET794  SER795  GLU796  ALA797  LYS798  CYS799  TRP800  GLU811  SER814 

> <Gold.Protein.RotatedAtoms>
  151.2667  135.0671  159.9118 H   0  0  0  0  0  0  0  0  0  0  0  0  # atno 6907 bound_to 6896
  152.5357  134.0174  159.7976 H   0  0  0  0  0  0  0  0  0  0  0  0  # atno 6908 bound_to 6896
  151.0405  133.5660  159.2682 H   0  0  0  0  0  0  0  0  0  0  0  0  # atno 6909 bound_to 6896
  146.1284  139.6145  142.9243 H   0  0  0  0  0  0  0  0  0  0  0  0  # atno 7974 bound_to 7965
  156.0894  140.1414  156.9612 H   0  0  0  0  0  0  0  0  0  0  0  0  # atno 8008 bound_to 7997
  154.4632  140.0935  156.6998 H   0  0  0  0  0  0  0  0  0  0  0  0  # atno 8009 bound_to 7997
  155.4945  140.3449  155.4362 H   0  0  0  0  0  0  0  0  0  0  0  0  # atno 8010 bound_to 7997
  140.7287  143.4465  151.0580 H   0  0  0  0  0  0  0  0  0  0  0  0  # atno 10167 bound_to 10162
  157.0441  130.6243  149.5756 H   0  0  0  0  0  0  0  0  0  0  0  0  # atno 10718 bound_to 10713
  154.8528  135.3510  154.5946 H   0  0  0  0  0  0  0  0  0  0  0  0  # atno 10763 bound_to 10752
  153.6556  135.6992  153.5199 H   0  0  0  0  0  0  0  0  0  0  0  0  # atno 10764 bound_to 10752
  153.2859  135.4249  155.1080 H   0  0  0  0  0  0  0  0  0  0  0  0  # atno 10765 bound_to 10752
  140.8568  134.2218  157.4730 H   0  0  0  0  0  0  0  0  0  0  0  0  # atno 11005 bound_to 11000
  145.5314  141.0427  143.2381 LP  0  0  0  0  0  0  0  0  0  0  0  0  # atno 17320 bound_to 7965
  144.7666  139.6832  143.7212 LP  0  0  0  0  0  0  0  0  0  0  0  0  # atno 17321 bound_to 7965
  139.8137  143.7916  152.3173 LP  0  0  0  0  0  0  0  0  0  0  0  0  # atno 17342 bound_to 10162
  139.7974  144.7387  150.9871 LP  0  0  0  0  0  0  0  0  0  0  0  0  # atno 17343 bound_to 10162
  156.0029  130.5111  150.7726 LP  0  0  0  0  0  0  0  0  0  0  0  0  # atno 17370 bound_to 10713
  157.5082  131.0923  151.0231 LP  0  0  0  0  0  0  0  0  0  0  0  0  # atno 17371 bound_to 10713
  139.8705  134.9710  156.4722 LP  0  0  0  0  0  0  0  0  0  0  0  0  # atno 17394 bound_to 11000
  140.8728  133.7975  155.9382 LP  0  0  0  0  0  0  0  0  0  0  0  0  # atno 17395 bound_to 11000

$$$$
