#       Name:                AV-unprocessed.smi:500
#       Creating user name   scv26
#       Creation time:       Thu Mar 26 23:19:18 2020


#       File generated by GOLD software.
#

@<TRIPOS>MOLECULE
AV-unprocessed.smi:500
    52    54     1
SMALL
NO_CHARGES


@<TRIPOS>ATOM
      1 ****        -4.2453   3.6016   1.9948 C.3            1 S1                 0.0000
      2 ****        -2.7529   3.5541   1.6589 C.3            1 S1                 0.0000
      3 ****        -2.3647   2.2038   1.4695 O.3            1 S1                 0.0000
      4 ****        -0.9879   2.0683   1.1623 C.3            1 S1                 0.0000
      5 ****        -0.6729   0.5812   0.9619 C.3            1 S1                 0.0000
      6 ****         0.7381   0.3614   0.6184 N.pl3          1 S1                 0.0000
      7 ****         1.3404   0.2123  -0.5974 C.2            1 S1                 0.0000
      8 ****         0.6571   0.2111  -1.9368 C.3            1 S1                 0.0000
      9 ****         1.6238   0.5039  -3.1003 C.3            1 S1                 0.0000
     10 ****        -0.1153  -1.0089  -2.1740 N.am           1 S1                 0.0000
     11 ****         0.3482  -2.2708  -2.1791 C.2            1 S1                 0.0000
     12 ****         1.5292  -2.5642  -1.9937 O.2            1 S1                 0.0000
     13 ****        -0.6599  -3.3213  -2.4151 C.2            1 S1                 0.0000
     14 ****        -2.0057  -3.2472  -2.6630 C.2            1 S1                 0.0000
     15 ****        -2.4669  -4.5845  -2.8101 C.2            1 S1                 0.0000
     16 ****        -1.3708  -5.3806  -2.6420 C.2            1 S1                 0.0000
     17 ****        -0.2633  -4.6273  -2.4018 O.3            1 S1                 0.0000
     18 ****         2.6701   0.0145  -0.3613 N.pl3          1 S1                 1.0000
     19 ****         2.9212   0.0565   1.0102 C.ar           1 S1                 0.0000
     20 ****         4.1064  -0.0836   1.7255 C.ar           1 S1                 0.0000
     21 ****         4.0132   0.0132   3.1297 C.ar           1 S1                 0.0000
     22 ****         2.7771   0.2397   3.7696 C.ar           1 S1                 0.0000
     23 ****         1.5821   0.3788   3.0333 C.ar           1 S1                 0.0000
     24 ****         1.6837   0.2812   1.6459 C.ar           1 S1                 0.0000
     25 ****        -4.5767   4.6288   2.1482 H              1 S1                 0.0000
     26 ****        -4.4597   3.0417   2.9055 H              1 S1                 0.0000
     27 ****        -4.8430   3.1740   1.1894 H              1 S1                 0.0000
     28 ****        -2.5567   4.1322   0.7547 H              1 S1                 0.0000
     29 ****        -2.1762   4.0019   2.4694 H              1 S1                 0.0000
     30 ****        -0.7493   2.6268   0.2557 H              1 S1                 0.0000
     31 ****        -0.3831   2.4785   1.9725 H              1 S1                 0.0000
     32 ****        -0.9142   0.0023   1.8540 H              1 S1                 0.0000
     33 ****        -1.2834   0.1736   0.1561 H              1 S1                 0.0000
     34 ****        -0.0719   1.0218  -1.9186 H              1 S1                 0.0000
     35 ****         2.1185   1.4661  -2.9648 H              1 S1                 0.0000
     36 ****         1.0898   0.5432  -4.0502 H              1 S1                 0.0000
     37 ****         2.3996  -0.2569  -3.1908 H              1 S1                 0.0000
     38 ****        -1.1039  -0.8834  -2.3372 H              1 S1                 0.0000
     39 ****        -2.5907  -2.3417  -2.7302 H              1 S1                 0.0000
     40 ****        -3.4728  -4.9215  -3.0125 H              1 S1                 0.0000
     41 ****        -1.2084  -6.4483  -2.6600 H              1 S1                 0.0000
     42 ****         5.0542  -0.2580   1.2375 H              1 S1                 0.0000
     43 ****         4.9071  -0.0885   3.7278 H              1 S1                 0.0000
     44 ****         2.7443   0.3076   4.8474 H              1 S1                 0.0000
     45 ****         0.6402   0.5528   3.5324 H              1 S1                 0.0000
     46 ****         3.3525  -0.1455  -1.0912 H              1 S1                 0.0000
     47 ****        -2.8997   1.8197   0.7170 LP             1 S1                 0.0000
     48 ****        -2.5568   1.6950   2.3087 LP             1 S1                 0.0000
     49 ****         2.2031  -1.8443  -1.8277 LP             1 S1                 0.0000
     50 ****         1.8147  -3.5225  -2.0091 LP             1 S1                 0.0000
     51 ****         0.1236  -4.8599  -1.5095 LP             1 S1                 0.0000
     52 ****         0.4211  -4.7859  -3.1134 LP             1 S1                 0.0000
@<TRIPOS>BOND
    1    1    2 1     
    2    1   25 1     
    3    1   26 1     
    4    1   27 1     
    5    2    3 1     
    6    2   28 1     
    7    2   29 1     
    8    3    4 1     
    9    4    5 1     
   10    4   30 1     
   11    4   31 1     
   12    5    6 1     
   13    5   32 1     
   14    5   33 1     
   15    6   24 1     
   16    6    7 1     
   17    7    8 1     
   18    7   18 2     
   19    8    9 1     
   20    8   10 1     
   21    8   34 1     
   22    9   35 1     
   23    9   36 1     
   24    9   37 1     
   25   10   11 am    
   26   10   38 1     
   27   11   12 2     
   28   11   13 1     
   29   13   17 1     
   30   13   14 2     
   31   14   15 1     
   32   14   39 1     
   33   15   16 2     
   34   15   40 1     
   35   16   17 1     
   36   16   41 1     
   37   18   19 1     
   38   18   46 1     
   39   19   24 ar    
   40   19   20 ar    
   41   20   21 ar    
   42   20   42 1     
   43   21   22 ar    
   44   21   43 1     
   45   22   23 ar    
   46   22   44 1     
   47   23   24 ar    
   48   23   45 1     
   49    3   47 1     
   50    3   48 1     
   51   12   49 1     
   52   12   50 1     
   53   17   51 1     
   54   17   52 1     
@<TRIPOS>SUBSTRUCTURE
      1 S1             1
@<TRIPOS>SET
LONE_PAIRS      STATIC     ATOMS    <user>   **** ""
6 47 48 49 50 51 52
DONOR_HYDROGENS      STATIC     ATOMS    <user>   **** ""
2 38 46
ATOM$BLUE        STATIC     ATOMS    COLORGROUP SYSTEM
6 47 48 49 50 51 52
ATOM$RED        STATIC     ATOMS    COLORGROUP SYSTEM
2 38 46
