AV-unprocessed.smi:3354|AV-procd|sdf|12962|dock8
  -GOLD-   2272019403D 1   1.00000     0.00000
 Structure written by MMmdl.
 38 40  0  0  0  0  0  0  0  0  1 V2000
  150.8819  141.8881  157.1948 C   0  0  0  0  0  0  0  0  0  0  0  0
  150.4391  141.1332  155.9602 C   0  0  1  0  0  0  0  0  0  0  0  0
  151.1062  139.8279  155.5905 C   0  0  0  0  0  0  0  0  0  0  0  0
  149.6711  139.8352  156.0780 C   0  0  2  0  0  0  0  0  0  0  0  0
  148.5954  139.5861  155.1666 N   0  0  0  0  0  0  0  0  0  0  0  0
  148.0163  138.2542  155.1170 C   0  0  0  0  0  0  0  0  0  0  0  0
  146.9150  138.3270  154.0458 C   0  0  2  0  0  0  0  0  0  0  0  0
  146.9328  137.1394  153.1962 N   0  0  0  0  0  0  0  0  0  0  0  0
  145.8590  136.3930  152.9030 C   0  0  0  0  0  0  0  0  0  0  0  0
  144.7274  136.6416  153.3184 O   0  0  0  0  0  0  0  0  0  0  0  0
  146.1840  135.3715  152.0922 N   0  0  0  0  0  0  0  0  0  0  0  0
  145.3458  134.3404  151.5886 C   0  0  0  0  0  0  0  0  0  0  0  0
  145.7456  133.3924  150.6157 C   0  0  0  0  0  0  0  0  0  0  0  0
  144.8134  132.4312  150.1800 C   0  0  0  0  0  0  0  0  0  0  0  0
  143.5156  132.4564  150.7262 C   0  0  0  0  0  0  0  0  0  0  0  0
  143.1168  133.3615  151.6446 N   0  0  0  0  0  0  0  0  0  0  0  0
  144.0159  134.2805  152.0570 C   0  0  0  0  0  0  0  0  0  0  0  0
  147.1994  139.6183  153.2626 C   0  0  0  0  0  0  0  0  0  0  0  0
  148.2523  140.3231  154.1010 C   0  0  0  0  0  0  0  0  0  0  0  0
  148.7170  141.4186  153.7889 O   0  0  0  0  0  0  0  0  0  0  0  0
  151.1398  141.1988  157.9997 H   0  0  0  0  0  0  0  0  0  0  0  0
  150.0797  142.5401  157.5404 H   0  0  0  0  0  0  0  0  0  0  0  0
  151.7547  142.5001  156.9669 H   0  0  0  0  0  0  0  0  0  0  0  0
  150.1700  141.7795  155.1265 H   0  0  0  0  0  0  0  0  0  0  0  0
  151.3053  139.6657  154.5329 H   0  0  0  0  0  0  0  0  0  0  0  0
  151.8603  139.4323  156.2680 H   0  0  0  0  0  0  0  0  0  0  0  0
  149.5183  139.4562  157.0869 H   0  0  0  0  0  0  0  0  0  0  0  0
  148.7976  137.5404  154.8502 H   0  0  0  0  0  0  0  0  0  0  0  0
  147.6131  137.9642  156.0882 H   0  0  0  0  0  0  0  0  0  0  0  0
  145.9458  138.4132  154.5412 H   0  0  0  0  0  0  0  0  0  0  0  0
  147.8247  136.8673  152.8093 H   0  0  0  0  0  0  0  0  0  0  0  0
  147.1378  135.3523  151.7621 H   0  0  0  0  0  0  0  0  0  0  0  0
  146.7351  133.3912  150.1859 H   0  0  0  0  0  0  0  0  0  0  0  0
  145.0862  131.6942  149.4393 H   0  0  0  0  0  0  0  0  0  0  0  0
  142.7766  131.7341  150.4121 H   0  0  0  0  0  0  0  0  0  0  0  0
  143.6608  134.9907  152.7895 H   0  0  0  0  0  0  0  0  0  0  0  0
  147.6075  139.4212  152.2700 H   0  0  0  0  0  0  0  0  0  0  0  0
  146.3058  140.2341  153.1535 H   0  0  0  0  0  0  0  0  0  0  0  0
  1  2  1  0  0  0  0
  1 21  1  0  0  0  0
  1 22  1  0  0  0  0
  1 23  1  0  0  0  0
  2  4  1  0  0  0  0
  2  3  1  0  0  0  0
  2 24  1  0  0  0  0
  3  4  1  0  0  0  0
  3 25  1  0  0  0  0
  3 26  1  0  0  0  0
  4  5  1  0  0  0  0
  4 27  1  0  0  0  0
  5 19  1  0  0  0  0
  5  6  1  0  0  0  0
  6  7  1  0  0  0  0
  6 28  1  0  0  0  0
  6 29  1  0  0  0  0
  7  8  1  0  0  0  0
  7 18  1  0  0  0  0
  7 30  1  0  0  0  0
  8  9  1  0  0  0  0
  8 31  1  0  0  0  0
  9 10  2  0  0  0  0
  9 11  1  0  0  0  0
 11 12  1  0  0  0  0
 11 32  1  0  0  0  0
 12 17  1  0  0  0  0
 12 13  2  0  0  0  0
 13 14  1  0  0  0  0
 13 33  1  0  0  0  0
 14 15  2  0  0  0  0
 14 34  1  0  0  0  0
 15 16  1  0  0  0  0
 15 35  1  0  0  0  0
 16 17  2  0  0  0  0
 17 36  1  0  0  0  0
 18 19  1  0  0  0  0
 18 37  1  0  0  0  0
 18 38  1  0  0  0  0
 19 20  2  0  0  0  0
M  END
> <s_m_source_file>
AV-unprocessed.smi

> <i_m_source_file_index>
3354

> <i_lp_mmshare_version>
43012

> <i_f3d_flags>
0

> <s_epik_input>
W0NIM11bQ0BASF0xW0NIMl1bQ0BIXTFOMltDSDJdW0NASF0oW0NIMl1DMj1PKVtOSF1DKD1PKVtOSF1jM1tjSF1bY0hdW2NIXW5bY0hdMw==

> <s_epik_cmdline>
J2VwaWtfcHl0aG9uJywgJy1waCcsICc3LjAnLCAnLXRuJywgJzgnLCAnLW1hJywgJzIwMCcsICctbWV0YWxfYmluZGluZycsICctaW1hZScsICc8aW5maWxlLm1hZT4nLCAnLW9tYWUnLCAnPG91dGZpbGUubWFlPic=

> <r_epik_Ionization_Penalty>
0.00456191

> <r_epik_Ionization_Penalty_Charging>
0

> <r_epik_Ionization_Penalty_Neutral>
0.00456191

> <r_epik_State_Penalty>
0.00327094

> <r_epik_Charging_Adjusted_Penalty>
0.00327094

> <i_epik_Tot_Q>
0

> <i_epik_Tot_abs_Q>
0

> <r_epik_Metal_State_Penalty>
-0

> <b_epik_Metal_Only>
0

> <s_lp_Force_Field>
OPLS_2005

> <r_lp_Energy>
40.9267

> <b_lp_Chiralities_Consistent>
1

> <s_lp_Variant>
AV-unprocessed.smi:3354-8

> <Gold.Version>
5.8.1

> <Gold.Id.Protein>
6NUR|6NUR_protein|mol2

> <Gold.PLP.Fitness>
42.7606

> <Gold.PLP.PLP>
-31.9500

> <Gold.PLP.part.hbond>
-2.9853

> <Gold.PLP.part.metal>
0.0000

> <Gold.PLP.part.buried>
-4.9476

> <Gold.PLP.part.nonpolar>
-25.0934

> <Gold.PLP.part.repulsive>
1.1387

> <Gold.PLP.ligand.clash>
0.0000

> <Gold.PLP.ligand.torsion>
0.3215

> <Gold.PLP.Chemscore.Hbond>
2.6960

> <Gold.PLP.Chemscore.CHOScore>
0.9954

> <Gold.PLP.Chemscore.Metal>
0.0000

> <Gold.Chemscore.Hbonds>
donor molecule, donor type, donor heavy atom, donor atom, acceptor molecule, acceptor atom, score
      L1  H     8    31       P1  7948  1.00
      L1  H    11    32       P1  7948  0.94
      P1  H  8011  8017       L1    20  0.68
      L1  C    15    35       P1 10952  0.98

> <Gold.PLP.Chemscore.Internal.Correction>
0.3794

> <Gold.Rescore>
     Score         DG    S(hbond)    S(metal)    S(lipo)     H(rot)  DE(clash)    DE(int)     intcor
     16.21     -19.31       2.66        0.00      69.40       1.24       0.06       3.04       ----

> <Gold.Chemscore.Fitness>
16.2112

> <Gold.Chemscore.DG>
-19.3081

> <Gold.Chemscore.ZeroCoef>
-5.4800

> <Gold.Chemscore.Hbond>
2.6565

> <Gold.Chemscore.Metal>
0.0000

> <Gold.Chemscore.Lipo>
69.3988

> <Gold.Chemscore.Internal_Hbond>
0.0000

> <Gold.Chemscore.DEClash>
0.0579

> <Gold.Chemscore.DEInternal>
3.0390

> <Gold.Chemscore.Rot>
1.2361

> <Gold.Chemscore.Internal.Correction>
   9.000000E+99

> <Gold.Chemscore.Hbonds>
donor molecule, donor type, donor heavy atom, donor atom, acceptor molecule, acceptor atom, score
      L1  H     8    31       P1  7948  0.98
      L1  H    11    32       P1  7948  0.88
      P1  H  8011  8017       L1    20  0.65

> <Gold.Chemscore.Hbond.Weighted>
-8.8727

> <Gold.Chemscore.Metal.Weighted>
-0.0000

> <Gold.Chemscore.Lipo.Weighted>
-8.1197

> <Gold.Chemscore.Internal_Hbond.Weighted>
0.0000

> <Gold.Chemscore.DEClash.Weighted>
0.0579

> <Gold.Chemscore.DEInternal.Weighted>
3.0390

> <Gold.Chemscore.Rot.Weighted>
3.1643

> <Gold.Chemscore.Internal.Correction.Weighted>
   9.000000E+99

> <Gold.Protein.RotatedTorsions>
[ 6907 6896 6895 6894 ] final  157.42 input  -60.11 | X-H torsion
[ 7974 7965 7964 7962 ] final   79.24 input  175.53 | X-H torsion
[ 8008 7997 7996 7995 ] final   58.49 input   59.86 | X-H torsion
[ 10167 10162 10161 10158 ] final  111.90 input  -65.29 | X-H torsion
[ 10718 10713 10712 10709 ] final  -31.78 input   66.30 | X-H torsion
[ 10763 10752 10751 10750 ] final   97.41 input  -60.55 | X-H torsion
[ 11005 11000 10999 10996 ] final  -15.65 input  -57.11 | X-H torsion

> <Gold.Protein.ActiveResidues>
 VAL166  LYS551  ARG553  GLY616  TRP617  ASP618  TYR619  PRO620  LYS621  CYS622 
 ASP623  PHE694  ASN695  SER759  ASP760  ASP761  ALA762  ILE779  LEU786  VAL792 
 PHE793  MET794  SER795  GLU796  ALA797  LYS798  CYS799  TRP800  GLU811  SER814 

> <Gold.Protein.RotatedAtoms>
  152.0153  133.3877  159.4236 H   0  0  0  0  0  0  0  0  0  0  0  0  # atno 6907 bound_to 6896
  150.6895  134.3685  159.4991 H   0  0  0  0  0  0  0  0  0  0  0  0  # atno 6908 bound_to 6896
  152.1451  134.9031  160.0602 H   0  0  0  0  0  0  0  0  0  0  0  0  # atno 6909 bound_to 6896
  145.6668  139.2486  143.1891 H   0  0  0  0  0  0  0  0  0  0  0  0  # atno 7974 bound_to 7965
  155.5508  140.3486  155.4468 H   0  0  0  0  0  0  0  0  0  0  0  0  # atno 8008 bound_to 7997
  156.0585  140.1334  156.9995 H   0  0  0  0  0  0  0  0  0  0  0  0  # atno 8009 bound_to 7997
  154.4468  140.0990  156.6466 H   0  0  0  0  0  0  0  0  0  0  0  0  # atno 8010 bound_to 7997
  139.6576  144.7129  151.1927 H   0  0  0  0  0  0  0  0  0  0  0  0  # atno 10167 bound_to 10162
  156.3831  130.4359  149.7453 H   0  0  0  0  0  0  0  0  0  0  0  0  # atno 10718 bound_to 10713
  153.2766  135.4184  155.1038 H   0  0  0  0  0  0  0  0  0  0  0  0  # atno 10763 bound_to 10752
  154.8475  135.3485  154.6170 H   0  0  0  0  0  0  0  0  0  0  0  0  # atno 10764 bound_to 10752
  153.6591  135.7049  153.5241 H   0  0  0  0  0  0  0  0  0  0  0  0  # atno 10765 bound_to 10752
  140.7988  133.8230  155.9449 H   0  0  0  0  0  0  0  0  0  0  0  0  # atno 11005 bound_to 11000
  146.1079  140.7464  142.9517 LP  0  0  0  0  0  0  0  0  0  0  0  0  # atno 17320 bound_to 7965
  144.7070  140.3892  143.7110 LP  0  0  0  0  0  0  0  0  0  0  0  0  # atno 17321 bound_to 7965
  140.7566  143.6047  150.8665 LP  0  0  0  0  0  0  0  0  0  0  0  0  # atno 17342 bound_to 10162
  139.9701  143.6066  152.2976 LP  0  0  0  0  0  0  0  0  0  0  0  0  # atno 17343 bound_to 10162
  156.4536  130.7918  151.2939 LP  0  0  0  0  0  0  0  0  0  0  0  0  # atno 17370 bound_to 10713
  157.7494  131.0088  150.3241 LP  0  0  0  0  0  0  0  0  0  0  0  0  # atno 17371 bound_to 10713
  140.9316  134.2015  157.4860 LP  0  0  0  0  0  0  0  0  0  0  0  0  # atno 17394 bound_to 11000
  139.8723  134.9835  156.5200 LP  0  0  0  0  0  0  0  0  0  0  0  0  # atno 17395 bound_to 11000

$$$$
