AV-unprocessed.smi:262|AV-procd|sdf|1999|dock8
  -GOLD-   2262021193D 1   1.00000     0.00000
 Structure written by MMmdl.
 60 64  0  0  0  0  0  0  0  0  2 V2000
  143.6760  136.8258  152.0276 O   0  0  0  0  0  0  0  0  0  0  0  0
  143.6852  136.2137  153.3061 C   0  0  0  0  0  0  0  0  0  0  0  0
  145.1445  136.2244  153.8254 C   0  0  0  0  0  0  0  0  0  0  0  0
  145.6978  137.5571  154.0141 N   0  0  0  0  0  0  0  0  0  0  0  0
  146.6492  138.1722  153.2304 C   0  0  0  0  0  0  0  0  0  0  0  0
  146.9832  139.3785  153.6021 N   0  0  0  0  0  0  0  0  0  0  0  0
  146.1968  139.6134  154.7221 C   0  0  0  0  0  0  0  0  0  0  0  0
  146.0508  140.7092  155.6113 C   0  0  0  0  0  0  0  0  0  0  0  0
  146.7600  141.8489  155.4600 N   0  0  0  0  0  0  0  0  0  0  0  0
  146.9266  142.6551  156.6639 C   0  0  0  0  0  0  0  0  0  0  0  0
  148.2147  142.2920  157.4273 C   0  0  0  0  0  0  0  0  0  0  0  0
  149.3982  142.3147  156.5265 N   0  3  0  0  0  0  0  0  0  0  0  0
  150.6851  142.0512  157.2209 C   0  0  0  0  0  0  0  0  0  0  0  0
  150.9756  143.0470  158.3621 C   0  0  2  0  0  0  0  0  0  0  0  0
  151.7058  144.3051  157.9337 C   0  0  0  0  0  0  0  0  0  0  0  0
  152.2665  144.8127  159.2591 C   0  0  0  0  0  0  0  0  0  0  0  0
  152.4918  143.6535  160.0563 O   0  0  0  0  0  0  0  0  0  0  0  0
  151.9389  142.5063  159.4189 C   0  0  0  0  0  0  0  0  0  0  0  0
  149.2092  141.4263  155.3504 C   0  0  0  0  0  0  0  0  0  0  0  0
  147.9208  141.7742  154.5799 C   0  0  0  0  0  0  0  0  0  0  0  0
  145.1626  140.5895  156.6315 N   0  0  0  0  0  0  0  0  0  0  0  0
  144.4549  139.4636  156.7693 C   0  0  0  0  0  0  0  0  0  0  0  0
  144.4822  138.3627  156.0144 N   0  0  0  0  0  0  0  0  0  0  0  0
  145.3790  138.4819  154.9933 C   0  0  0  0  0  0  0  0  0  0  0  0
  142.7773  137.0344  154.2438 C   0  0  0  0  0  0  0  0  0  0  0  0
  141.2898  136.9112  153.8679 C   0  0  0  0  0  0  0  0  0  0  0  0
  140.9051  135.5421  153.8466 O   0  0  0  0  0  0  0  0  0  0  0  0
  141.6043  134.7917  152.8613 C   0  0  0  0  0  0  0  0  0  0  0  0
  143.1119  134.7861  153.1703 C   0  0  0  0  0  0  0  0  0  0  0  0
  142.8293  137.2225  151.8908 H   0  0  0  0  0  0  0  0  0  0  0  0
  145.2109  135.6924  154.7756 H   0  0  0  0  0  0  0  0  0  0  0  0
  145.7919  135.6847  153.1329 H   0  0  0  0  0  0  0  0  0  0  0  0
  147.0925  137.6926  152.3695 H   0  0  0  0  0  0  0  0  0  0  0  0
  146.9597  143.7035  156.3653 H   0  0  0  0  0  0  0  0  0  0  0  0
  146.0585  142.5477  157.3160 H   0  0  0  0  0  0  0  0  0  0  0  0
  148.3387  142.9996  158.2453 H   0  0  0  0  0  0  0  0  0  0  0  0
  148.1231  141.3039  157.8802 H   0  0  0  0  0  0  0  0  0  0  0  0
  150.6905  141.0285  157.6006 H   0  0  0  0  0  0  0  0  0  0  0  0
  151.4977  142.1122  156.4951 H   0  0  0  0  0  0  0  0  0  0  0  0
  150.0536  143.3278  158.8714 H   0  0  0  0  0  0  0  0  0  0  0  0
  152.5221  144.0608  157.2522 H   0  0  0  0  0  0  0  0  0  0  0  0
  151.0578  145.0330  157.4448 H   0  0  0  0  0  0  0  0  0  0  0  0
  153.1807  145.3925  159.1292 H   0  0  0  0  0  0  0  0  0  0  0  0
  151.5345  145.4433  159.7650 H   0  0  0  0  0  0  0  0  0  0  0  0
  151.4472  141.8504  160.1377 H   0  0  0  0  0  0  0  0  0  0  0  0
  152.7529  141.9476  158.9549 H   0  0  0  0  0  0  0  0  0  0  0  0
  150.0620  141.5160  154.6766 H   0  0  0  0  0  0  0  0  0  0  0  0
  149.1825  140.3882  155.6841 H   0  0  0  0  0  0  0  0  0  0  0  0
  147.7476  141.0467  153.7852 H   0  0  0  0  0  0  0  0  0  0  0  0
  148.0343  142.7423  154.0911 H   0  0  0  0  0  0  0  0  0  0  0  0
  143.7681  139.4403  157.6029 H   0  0  0  0  0  0  0  0  0  0  0  0
  142.9032  136.6800  155.2678 H   0  0  0  0  0  0  0  0  0  0  0  0
  143.0764  138.0832  154.2458 H   0  0  0  0  0  0  0  0  0  0  0  0
  140.6769  137.4347  154.6020 H   0  0  0  0  0  0  0  0  0  0  0  0
  141.0872  137.3739  152.9007 H   0  0  0  0  0  0  0  0  0  0  0  0
  141.2216  133.7709  152.8630 H   0  0  0  0  0  0  0  0  0  0  0  0
  141.4075  135.2000  151.8688 H   0  0  0  0  0  0  0  0  0  0  0  0
  143.6403  134.2249  152.3990 H   0  0  0  0  0  0  0  0  0  0  0  0
  143.2697  134.2467  154.1052 H   0  0  0  0  0  0  0  0  0  0  0  0
  149.4615  143.2526  156.1574 H   0  0  0  0  0  0  0  0  0  0  0  0
  1  2  1  0  0  0  0
  1 30  1  0  0  0  0
  2 29  1  0  0  0  0
  2  3  1  0  0  0  0
  2 25  1  0  0  0  0
  3  4  1  0  0  0  0
  3 31  1  0  0  0  0
  3 32  1  0  0  0  0
  4 24  1  0  0  0  0
  4  5  1  0  0  0  0
  5  6  2  0  0  0  0
  5 33  1  0  0  0  0
  6  7  1  0  0  0  0
  7 24  2  0  0  0  0
  7  8  1  0  0  0  0
  8  9  1  0  0  0  0
  8 21  2  0  0  0  0
  9 20  1  0  0  0  0
  9 10  1  0  0  0  0
 10 11  1  0  0  0  0
 10 34  1  0  0  0  0
 10 35  1  0  0  0  0
 11 12  1  0  0  0  0
 11 36  1  0  0  0  0
 11 37  1  0  0  0  0
 12 13  1  0  0  0  0
 12 19  1  0  0  0  0
 12 60  1  0  0  0  0
 13 14  1  0  0  0  0
 13 38  1  0  0  0  0
 13 39  1  0  0  0  0
 14 18  1  0  0  0  0
 14 15  1  0  0  0  0
 14 40  1  0  0  0  0
 15 16  1  0  0  0  0
 15 41  1  0  0  0  0
 15 42  1  0  0  0  0
 16 17  1  0  0  0  0
 16 43  1  0  0  0  0
 16 44  1  0  0  0  0
 17 18  1  0  0  0  0
 18 45  1  0  0  0  0
 18 46  1  0  0  0  0
 19 20  1  0  0  0  0
 19 47  1  0  0  0  0
 19 48  1  0  0  0  0
 20 49  1  0  0  0  0
 20 50  1  0  0  0  0
 21 22  1  0  0  0  0
 22 23  2  0  0  0  0
 22 51  1  0  0  0  0
 23 24  1  0  0  0  0
 25 26  1  0  0  0  0
 25 52  1  0  0  0  0
 25 53  1  0  0  0  0
 26 27  1  0  0  0  0
 26 54  1  0  0  0  0
 26 55  1  0  0  0  0
 27 28  1  0  0  0  0
 28 29  1  0  0  0  0
 28 56  1  0  0  0  0
 28 57  1  0  0  0  0
 29 58  1  0  0  0  0
 29 59  1  0  0  0  0
M  CHG  1  12   1
M  END
> <s_m_source_file>
AV-unprocessed.smi

> <i_m_source_file_index>
262

> <i_lp_mmshare_version>
43012

> <i_f3d_flags>
0

> <s_epik_input>
W0NIMl0xW0NIMl1PW0NIMl1bQ0gyXUMxKFtPSF0pW0NIMl1uKFtjSF1uMiljKGMyMyluW2NIXW5jM040W0NIMl1bQ0gyXU4oW0NIMl1bQ0gyXTQpW0NIMl1bQ0BASF01W0NIMl1bQ0gyXU9bQ0gyXTU=

> <s_epik_cmdline>
J2VwaWtfcHl0aG9uJywgJy1waCcsICc3LjAnLCAnLXRuJywgJzgnLCAnLW1hJywgJzIwMCcsICctbWV0YWxfYmluZGluZycsICctaW1hZScsICc8aW5maWxlLm1hZT4nLCAnLW9tYWUnLCAnPG91dGZpbGUubWFlPic=

> <r_lp_tautomer_probability>
1

> <r_epik_Ionization_Penalty>
0.010889

> <r_epik_Ionization_Penalty_Charging>
0.0108222

> <r_epik_Ionization_Penalty_Neutral>
6.6801e-05

> <r_epik_State_Penalty>
0.00829663

> <r_epik_Charging_Adjusted_Penalty>
0.0191189

> <i_epik_Tot_Q>
1

> <i_epik_Tot_abs_Q>
1

> <r_epik_Metal_State_Penalty>
0.00842341

> <b_epik_Metal_Only>
0

> <s_lp_Force_Field>
OPLS_2005

> <r_lp_Energy>
57.8888

> <b_lp_Chiralities_Consistent>
1

> <s_lp_Variant>
AV-unprocessed.smi:262-1

> <Gold.Version>
5.8.1

> <Gold.Id.Protein>
6NUR|6NUR_protein|mol2

> <Gold.PLP.Fitness>
50.9805

> <Gold.PLP.PLP>
-40.9492

> <Gold.PLP.part.hbond>
-3.0000

> <Gold.PLP.part.metal>
0.0000

> <Gold.PLP.part.buried>
-7.6409

> <Gold.PLP.part.nonpolar>
-32.6881

> <Gold.PLP.part.repulsive>
0.5899

> <Gold.PLP.ligand.clash>
0.0000

> <Gold.PLP.ligand.torsion>
0.9766

> <Gold.PLP.Chemscore.Hbond>
3.0000

> <Gold.PLP.Chemscore.CHOScore>
0.8468

> <Gold.PLP.Chemscore.Metal>
0.0000

> <Gold.Chemscore.Hbonds>
donor molecule, donor type, donor heavy atom, donor atom, acceptor molecule, acceptor atom, score
      L1  H    12    60       P1  8028  2.00
      P1  H 11000 11005       L1    27  0.20
      L1  C     5    33       P1  7948  1.00

> <Gold.PLP.Chemscore.Internal.Correction>
0.4441

> <Gold.Rescore>
     Score         DG    S(hbond)    S(metal)    S(lipo)     H(rot)  DE(clash)    DE(int)     intcor
     13.07     -16.53       1.86        0.00      96.72       2.53       0.06       3.39       ----

> <Gold.Chemscore.Fitness>
13.0675

> <Gold.Chemscore.DG>
-16.5261

> <Gold.Chemscore.ZeroCoef>
-5.4800

> <Gold.Chemscore.Hbond>
1.8574

> <Gold.Chemscore.Metal>
0.0000

> <Gold.Chemscore.Lipo>
96.7200

> <Gold.Chemscore.Internal_Hbond>
0.0000

> <Gold.Chemscore.DEClash>
0.0645

> <Gold.Chemscore.DEInternal>
3.3941

> <Gold.Chemscore.Rot>
2.5288

> <Gold.Chemscore.Internal.Correction>
   9.000000E+99

> <Gold.Chemscore.Hbonds>
donor molecule, donor type, donor heavy atom, donor atom, acceptor molecule, acceptor atom, score
      L1  H    12    60       P1  8028  0.98
      P1  H 11000 11005       L1    27  0.17

> <Gold.Chemscore.Hbond.Weighted>
-6.2037

> <Gold.Chemscore.Metal.Weighted>
-0.0000

> <Gold.Chemscore.Lipo.Weighted>
-11.3162

> <Gold.Chemscore.Internal_Hbond.Weighted>
0.0000

> <Gold.Chemscore.DEClash.Weighted>
0.0645

> <Gold.Chemscore.DEInternal.Weighted>
3.3941

> <Gold.Chemscore.Rot.Weighted>
6.4738

> <Gold.Chemscore.Internal.Correction.Weighted>
   9.000000E+99

> <Gold.Protein.RotatedTorsions>
[ 6907 6896 6895 6894 ] final   95.45 input  -60.11 | X-H torsion
[ 7974 7965 7964 7962 ] final   35.66 input  175.53 | X-H torsion
[ 8008 7997 7996 7995 ] final -176.55 input   59.86 | X-H torsion
[ 10167 10162 10161 10158 ] final  -57.74 input  -65.29 | X-H torsion
[ 10718 10713 10712 10709 ] final  -42.13 input   66.30 | X-H torsion
[ 10763 10752 10751 10750 ] final -156.91 input  -60.55 | X-H torsion
[ 11005 11000 10999 10996 ] final   20.27 input  -57.11 | X-H torsion

> <Gold.Protein.ActiveResidues>
 VAL166  LYS551  ARG553  GLY616  TRP617  ASP618  TYR619  PRO620  LYS621  CYS622 
 ASP623  PHE694  ASN695  SER759  ASP760  ASP761  ALA762  ILE779  LEU786  VAL792 
 PHE793  MET794  SER795  GLU796  ALA797  LYS798  CYS799  TRP800  GLU811  SER814 

> <Gold.Protein.RotatedAtoms>
  152.5443  134.1038  159.8329 H   0  0  0  0  0  0  0  0  0  0  0  0  # atno 6907 bound_to 6896
  151.1113  133.5164  159.2613 H   0  0  0  0  0  0  0  0  0  0  0  0  # atno 6908 bound_to 6896
  151.1881  135.0400  159.8875 H   0  0  0  0  0  0  0  0  0  0  0  0  # atno 6909 bound_to 6896
  146.1267  139.6115  142.9254 H   0  0  0  0  0  0  0  0  0  0  0  0  # atno 7974 bound_to 7965
  155.9962  140.1211  157.0591 H   0  0  0  0  0  0  0  0  0  0  0  0  # atno 8008 bound_to 7997
  154.4227  140.1116  156.5703 H   0  0  0  0  0  0  0  0  0  0  0  0  # atno 8009 bound_to 7997
  155.6275  140.3472  155.4674 H   0  0  0  0  0  0  0  0  0  0  0  0  # atno 8010 bound_to 7997
  140.6240  143.2431  151.5410 H   0  0  0  0  0  0  0  0  0  0  0  0  # atno 10167 bound_to 10162
  156.2629  130.4199  149.8522 H   0  0  0  0  0  0  0  0  0  0  0  0  # atno 10718 bound_to 10713
  154.7677  135.3136  154.8253 H   0  0  0  0  0  0  0  0  0  0  0  0  # atno 10763 bound_to 10752
  153.8997  135.6817  153.4760 H   0  0  0  0  0  0  0  0  0  0  0  0  # atno 10764 bound_to 10752
  153.1285  135.4790  154.9244 H   0  0  0  0  0  0  0  0  0  0  0  0  # atno 10765 bound_to 10752
  140.4045  134.1683  155.7665 H   0  0  0  0  0  0  0  0  0  0  0  0  # atno 11005 bound_to 11000
  145.5349  141.0425  143.2362 LP  0  0  0  0  0  0  0  0  0  0  0  0  # atno 17320 bound_to 7965
  144.7650  139.6867  143.7219 LP  0  0  0  0  0  0  0  0  0  0  0  0  # atno 17321 bound_to 7965
  139.5463  144.2512  152.1449 LP  0  0  0  0  0  0  0  0  0  0  0  0  # atno 17342 bound_to 10162
  140.1739  144.4910  150.6565 LP  0  0  0  0  0  0  0  0  0  0  0  0  # atno 17343 bound_to 10162
  156.6031  130.8555  151.3436 LP  0  0  0  0  0  0  0  0  0  0  0  0  # atno 17370 bound_to 10713
  157.7257  130.9619  150.1625 LP  0  0  0  0  0  0  0  0  0  0  0  0  # atno 17371 bound_to 10713
  141.1844  133.8344  157.1140 LP  0  0  0  0  0  0  0  0  0  0  0  0  # atno 17394 bound_to 11000
  140.0312  134.9900  157.0784 LP  0  0  0  0  0  0  0  0  0  0  0  0  # atno 17395 bound_to 11000

$$$$
