AV-unprocessed.smi:658|AV-procd|sdf|3235|dock1
  -GOLD-   22720 0183D 1   1.00000     0.00000
 Structure written by MMmdl.
 37 37  0  0  0  0  0  0  0  0  3 V2000
  144.1075  135.7794  152.5394 C   0  0  0  0  0  0  0  0  0  0  0  0
  145.5424  135.4461  152.0925 C   0  0  1  0  0  0  0  0  0  0  0  0
  146.4945  136.2195  152.9197 N   0  3  0  0  0  0  0  0  0  0  0  0
  146.1075  137.6237  153.1639 C   0  0  0  0  0  0  0  0  0  0  0  0
  147.2190  138.3805  153.8992 C   0  0  0  0  0  0  0  0  0  0  0  0
  147.2707  139.8692  153.5182 C   0  0  0  0  0  0  0  0  0  0  0  0
  148.6614  140.7429  154.3555 S   0  0  0  0  0  0  0  0  0  0  0  0
  149.9281  139.9778  153.7128 N   0  5  0  0  0  0  0  0  0  0  0  0
  148.5818  142.1498  153.9330 O   0  0  0  0  0  0  0  0  0  0  0  0
  148.5111  140.4475  155.7878 O   0  0  0  0  0  0  0  0  0  0  0  0
  145.8694  133.9307  152.1716 C   0  0  2  0  0  0  0  0  0  0  0  0
  147.3834  133.6443  152.1438 C   0  0  0  0  0  0  0  0  0  0  0  0
  145.2002  133.1726  151.1221 N   0  0  0  0  0  0  0  0  0  0  0  0
  145.7652  132.3685  150.1533 C   0  0  0  0  0  0  0  0  0  0  0  0
  144.7472  131.8647  149.3955 C   0  0  0  0  0  0  0  0  0  0  0  0
  143.5792  132.4280  149.9807 C   0  0  0  0  0  0  0  0  0  0  0  0
  143.8528  133.2102  151.0120 N   0  0  0  0  0  0  0  0  0  0  0  0
  143.3628  135.3132  151.8939 H   0  0  0  0  0  0  0  0  0  0  0  0
  143.9275  136.8543  152.5062 H   0  0  0  0  0  0  0  0  0  0  0  0
  143.9222  135.4418  153.5597 H   0  0  0  0  0  0  0  0  0  0  0  0
  145.6354  135.7649  151.0525 H   0  0  0  0  0  0  0  0  0  0  0  0
  146.5971  135.7590  153.8125 H   0  0  0  0  0  0  0  0  0  0  0  0
  145.8819  138.1199  152.2189 H   0  0  0  0  0  0  0  0  0  0  0  0
  145.1941  137.6365  153.7598 H   0  0  0  0  0  0  0  0  0  0  0  0
  147.0494  138.2953  154.9730 H   0  0  0  0  0  0  0  0  0  0  0  0
  148.1805  137.9044  153.7035 H   0  0  0  0  0  0  0  0  0  0  0  0
  147.4263  139.9793  152.4454 H   0  0  0  0  0  0  0  0  0  0  0  0
  146.3432  140.3851  153.7679 H   0  0  0  0  0  0  0  0  0  0  0  0
  149.6887  139.7154  152.7492 H   0  0  0  0  0  0  0  0  0  0  0  0
  145.4833  133.5544  153.1204 H   0  0  0  0  0  0  0  0  0  0  0  0
  147.8909  134.0832  153.0029 H   0  0  0  0  0  0  0  0  0  0  0  0
  147.8505  134.0450  151.2435 H   0  0  0  0  0  0  0  0  0  0  0  0
  147.5782  132.5714  152.1688 H   0  0  0  0  0  0  0  0  0  0  0  0
  146.8329  132.2206  150.0839 H   0  0  0  0  0  0  0  0  0  0  0  0
  144.8246  131.1965  148.5507 H   0  0  0  0  0  0  0  0  0  0  0  0
  142.5481  132.2926  149.6891 H   0  0  0  0  0  0  0  0  0  0  0  0
  147.3913  136.2165  152.4548 H   0  0  0  0  0  0  0  0  0  0  0  0
  1  2  1  0  0  0  0
  1 18  1  0  0  0  0
  1 19  1  0  0  0  0
  1 20  1  0  0  0  0
  2  3  1  0  0  0  0
  2 11  1  0  0  0  0
  2 21  1  0  0  0  0
  3  4  1  0  0  0  0
  3 22  1  0  0  0  0
  3 37  1  0  0  0  0
  4  5  1  0  0  0  0
  4 23  1  0  0  0  0
  4 24  1  0  0  0  0
  5  6  1  0  0  0  0
  5 25  1  0  0  0  0
  5 26  1  0  0  0  0
  6  7  1  0  0  0  0
  6 27  1  0  0  0  0
  6 28  1  0  0  0  0
  7  8  1  0  0  0  0
  7  9  2  0  0  0  0
  7 10  2  0  0  0  0
  8 29  1  0  0  0  0
 11 12  1  0  0  0  0
 11 13  1  0  0  0  0
 11 30  1  0  0  0  0
 12 31  1  0  0  0  0
 12 32  1  0  0  0  0
 12 33  1  0  0  0  0
 13 17  1  0  0  0  0
 13 14  1  0  0  0  0
 14 15  2  0  0  0  0
 14 34  1  0  0  0  0
 15 16  1  0  0  0  0
 15 35  1  0  0  0  0
 16 17  2  0  0  0  0
 16 36  1  0  0  0  0
M  CHG  1   3   1
M  CHG  1   8  -1
M  END
> <s_m_source_file>
AV-unprocessed.smi

> <i_m_source_file_index>
658

> <i_lp_mmshare_version>
43012

> <i_f3d_flags>
0

> <s_epik_input>
bjFbY0hdW2NIXVtjSF1uMVtDQEBIXShbQ0gzXSlbQ0BIXShbQ0gzXSlbTkhdW0NIMl1bQ0gyXVtDSDJdUyg9TykoPU8pW05IMl0=

> <s_epik_cmdline>
J2VwaWtfcHl0aG9uJywgJy1waCcsICc3LjAnLCAnLXRuJywgJzgnLCAnLW1hJywgJzIwMCcsICctbWV0YWxfYmluZGluZycsICctaW1hZScsICc8aW5maWxlLm1hZT4nLCAnLW9tYWUnLCAnPG91dGZpbGUubWFlPic=

> <r_lp_tautomer_probability>
1

> <r_epik_Ionization_Penalty>
4.63642

> <r_epik_Ionization_Penalty_Charging>
4.63641

> <r_epik_Ionization_Penalty_Neutral>
1.08396e-05

> <r_epik_State_Penalty>
4.63466

> <r_epik_Charging_Adjusted_Penalty>
9.27106

> <i_epik_Tot_Q>
0

> <i_epik_Tot_abs_Q>
2

> <r_epik_Metal_State_Penalty>
0.890424

> <b_epik_Metal_Only>
1

> <s_lp_Force_Field>
OPLS_2005

> <r_lp_Energy>
-2.21025

> <b_lp_Chiralities_Consistent>
1

> <s_lp_Variant>
AV-unprocessed.smi:658-6

> <Gold.Version>
5.8.1

> <Gold.Id.Protein>
6NUR|6NUR_protein|mol2

> <Gold.PLP.Fitness>
47.0171

> <Gold.PLP.PLP>
-27.3865

> <Gold.PLP.part.hbond>
-4.0000

> <Gold.PLP.part.metal>
0.0000

> <Gold.PLP.part.buried>
-2.5543

> <Gold.PLP.part.nonpolar>
-22.0812

> <Gold.PLP.part.repulsive>
0.4384

> <Gold.PLP.ligand.clash>
0.0000

> <Gold.PLP.ligand.torsion>
0.6407

> <Gold.PLP.Chemscore.Hbond>
4.2880

> <Gold.PLP.Chemscore.CHOScore>
2.6009

> <Gold.PLP.Chemscore.Metal>
0.0000

> <Gold.Chemscore.Hbonds>
donor molecule, donor type, donor heavy atom, donor atom, acceptor molecule, acceptor atom, score
      L1  H     3    37       P1  7948  2.00
      L1  H     8    29       P1  7957  1.00
      P1  H  7989  7998       L1     8  0.77
      P1  H  8011  8017       L1     9  0.34
      L1  C    14    34       P1 10747  0.98
      L1  C    16    36       P1 10186  0.60
      L1  C    16    36       P1 10952  0.83

> <Gold.PLP.Chemscore.Internal.Correction>
0.2451

> <Gold.Rescore>
     Score         DG    S(hbond)    S(metal)    S(lipo)     H(rot)  DE(clash)    DE(int)     intcor
     13.18     -14.55       2.68        0.00      67.44       3.04       0.25       1.12       ----

> <Gold.Chemscore.Fitness>
13.1806

> <Gold.Chemscore.DG>
-14.5478

> <Gold.Chemscore.ZeroCoef>
-5.4800

> <Gold.Chemscore.Hbond>
2.6831

> <Gold.Chemscore.Metal>
0.0000

> <Gold.Chemscore.Lipo>
67.4443

> <Gold.Chemscore.Internal_Hbond>
0.0000

> <Gold.Chemscore.DEClash>
0.2466

> <Gold.Chemscore.DEInternal>
1.1206

> <Gold.Chemscore.Rot>
3.0409

> <Gold.Chemscore.Internal.Correction>
   9.000000E+99

> <Gold.Chemscore.Hbonds>
donor molecule, donor type, donor heavy atom, donor atom, acceptor molecule, acceptor atom, score
      L1  H     3    37       P1  7948  1.00
      L1  H     8    29       P1  7957  0.95
      P1  H  7989  7998       L1     8  0.22
      P1  H  8011  8017       L1     9  0.24

> <Gold.Chemscore.Hbond.Weighted>
-8.9616

> <Gold.Chemscore.Metal.Weighted>
-0.0000

> <Gold.Chemscore.Lipo.Weighted>
-7.8910

> <Gold.Chemscore.Internal_Hbond.Weighted>
0.0000

> <Gold.Chemscore.DEClash.Weighted>
0.2466

> <Gold.Chemscore.DEInternal.Weighted>
1.1206

> <Gold.Chemscore.Rot.Weighted>
7.7848

> <Gold.Chemscore.Internal.Correction.Weighted>
   9.000000E+99

> <Gold.Protein.RotatedTorsions>
[ 6907 6896 6895 6894 ] final -123.92 input  -60.11 | X-H torsion
[ 7974 7965 7964 7962 ] final    7.91 input  175.53 | X-H torsion
[ 8008 7997 7996 7995 ] final  -54.68 input   59.86 | X-H torsion
[ 10167 10162 10161 10158 ] final -162.90 input  -65.29 | X-H torsion
[ 10718 10713 10712 10709 ] final   77.92 input   66.30 | X-H torsion
[ 10763 10752 10751 10750 ] final -179.46 input  -60.55 | X-H torsion
[ 11005 11000 10999 10996 ] final -122.26 input  -57.11 | X-H torsion

> <Gold.Protein.ActiveResidues>
 VAL166  LYS551  ARG553  GLY616  TRP617  ASP618  TYR619  PRO620  LYS621  CYS622 
 ASP623  PHE694  ASN695  SER759  ASP760  ASP761  ALA762  ILE779  LEU786  VAL792 
 PHE793  MET794  SER795  GLU796  ALA797  LYS798  CYS799  TRP800  GLU811  SER814 

> <Gold.Protein.RotatedAtoms>
  150.8717  133.7496  159.2958 H   0  0  0  0  0  0  0  0  0  0  0  0  # atno 6907 bound_to 6896
  151.5105  135.1063  159.9862 H   0  0  0  0  0  0  0  0  0  0  0  0  # atno 6908 bound_to 6896
  152.4700  133.7963  159.6984 H   0  0  0  0  0  0  0  0  0  0  0  0  # atno 6909 bound_to 6896
  146.2422  140.0012  142.8416 H   0  0  0  0  0  0  0  0  0  0  0  0  # atno 7974 bound_to 7965
  154.4170  140.1170  156.5354 H   0  0  0  0  0  0  0  0  0  0  0  0  # atno 8008 bound_to 7997
  155.6562  140.3496  155.4747 H   0  0  0  0  0  0  0  0  0  0  0  0  # atno 8009 bound_to 7997
  155.9751  140.1149  157.0767 H   0  0  0  0  0  0  0  0  0  0  0  0  # atno 8010 bound_to 7997
  139.6359  144.0351  152.2053 H   0  0  0  0  0  0  0  0  0  0  0  0  # atno 10167 bound_to 10162
  157.6727  130.9844  150.1711 H   0  0  0  0  0  0  0  0  0  0  0  0  # atno 10718 bound_to 10713
  154.5348  135.2802  155.1148 H   0  0  0  0  0  0  0  0  0  0  0  0  # atno 10763 bound_to 10752
  154.2654  135.6314  153.5294 H   0  0  0  0  0  0  0  0  0  0  0  0  # atno 10764 bound_to 10752
  152.9965  135.5615  154.5871 H   0  0  0  0  0  0  0  0  0  0  0  0  # atno 10765 bound_to 10752
  141.0009  134.0404  157.3539 H   0  0  0  0  0  0  0  0  0  0  0  0  # atno 11005 bound_to 11000
  145.1413  140.9573  143.4487 LP  0  0  0  0  0  0  0  0  0  0  0  0  # atno 17320 bound_to 7965
  145.0293  139.3355  143.6033 LP  0  0  0  0  0  0  0  0  0  0  0  0  # atno 17321 bound_to 7965
  140.0028  144.6280  150.7714 LP  0  0  0  0  0  0  0  0  0  0  0  0  # atno 17342 bound_to 10162
  140.7465  143.2891  151.3380 LP  0  0  0  0  0  0  0  0  0  0  0  0  # atno 17343 bound_to 10162
  156.2465  130.3696  149.8279 LP  0  0  0  0  0  0  0  0  0  0  0  0  # atno 17370 bound_to 10713
  156.6065  130.8568  151.3444 LP  0  0  0  0  0  0  0  0  0  0  0  0  # atno 17371 bound_to 10713
  139.9038  135.0173  156.7393 LP  0  0  0  0  0  0  0  0  0  0  0  0  # atno 17394 bound_to 11000
  140.6891  133.9406  155.7955 LP  0  0  0  0  0  0  0  0  0  0  0  0  # atno 17395 bound_to 11000

$$$$
