AV-unprocessed.smi:1346|AV-procd|sdf|5513|dock3
  -GOLD-   22720 5 93D 1   1.00000     0.00000
 Structure written by MMmdl.
 47 48  0  0  0  0  0  0  0  0  1 V2000
  151.6823  138.7921  154.8419 C   0  0  0  0  0  0  0  0  0  0  0  0
  151.0152  137.4703  155.0927 C   0  0  0  0  0  0  0  0  0  0  0  0
  151.7332  136.3619  155.0270 N   0  0  0  0  0  0  0  0  0  0  0  0
  150.8491  135.3154  155.3051 O   0  0  0  0  0  0  0  0  0  0  0  0
  149.6181  135.8408  155.5284 C   0  0  0  0  0  0  0  0  0  0  0  0
  148.5299  134.8727  155.8488 C   0  0  0  0  0  0  0  0  0  0  0  0
  149.6509  137.2031  155.4063 C   0  0  0  0  0  0  0  0  0  0  0  0
  148.5217  138.1881  155.5677 C   0  0  0  0  0  0  0  0  0  0  0  0
  148.7414  139.0216  156.8303 C   0  0  0  0  0  0  0  0  0  0  0  0
  148.3879  138.5844  157.9254 O   0  0  0  0  0  0  0  0  0  0  0  0
  149.3238  140.2189  156.6647 N   0  0  0  0  0  0  0  0  0  0  0  0
  149.6082  141.1720  157.7314 C   0  0  0  0  0  0  0  0  0  0  0  0
  151.0552  141.6824  157.6703 C   0  0  0  0  0  0  0  0  0  0  0  0
  151.4270  142.1846  158.9449 O   0  0  0  0  0  0  0  0  0  0  0  0
  152.6298  142.9460  158.9427 C   0  0  1  0  0  0  0  0  0  0  0  0
  152.3858  144.2204  158.1138 C   0  0  0  0  0  0  0  0  0  0  0  0
  151.3646  145.1548  158.7836 C   0  0  0  0  0  0  0  0  0  0  0  0
  151.7836  145.4988  160.2206 C   0  0  0  0  0  0  0  0  0  0  0  0
  152.0058  144.2278  161.0557 C   0  0  0  0  0  0  0  0  0  0  0  0
  153.0355  143.2895  160.3950 C   0  0  1  0  0  0  0  0  0  0  0  0
  153.2887  142.0349  161.2451 C   0  0  0  0  0  0  0  0  0  0  0  0
  151.1061  139.6150  155.2642 H   0  0  0  0  0  0  0  0  0  0  0  0
  151.7912  138.9767  153.7730 H   0  0  0  0  0  0  0  0  0  0  0  0
  152.6760  138.8253  155.2896 H   0  0  0  0  0  0  0  0  0  0  0  0
  147.6654  135.3815  156.2756 H   0  0  0  0  0  0  0  0  0  0  0  0
  148.8717  134.1309  156.5708 H   0  0  0  0  0  0  0  0  0  0  0  0
  148.2039  134.3480  154.9509 H   0  0  0  0  0  0  0  0  0  0  0  0
  148.4365  138.8435  154.6999 H   0  0  0  0  0  0  0  0  0  0  0  0
  147.5606  137.6799  155.6525 H   0  0  0  0  0  0  0  0  0  0  0  0
  149.5794  140.4962  155.7281 H   0  0  0  0  0  0  0  0  0  0  0  0
  148.9108  142.0090  157.6727 H   0  0  0  0  0  0  0  0  0  0  0  0
  149.4269  140.6828  158.6887 H   0  0  0  0  0  0  0  0  0  0  0  0
  151.7291  140.8822  157.3608 H   0  0  0  0  0  0  0  0  0  0  0  0
  151.1360  142.4782  156.9286 H   0  0  0  0  0  0  0  0  0  0  0  0
  153.4433  142.3898  158.4717 H   0  0  0  0  0  0  0  0  0  0  0  0
  153.3292  144.7529  157.9871 H   0  0  0  0  0  0  0  0  0  0  0  0
  152.0474  143.9541  157.1119 H   0  0  0  0  0  0  0  0  0  0  0  0
  151.2584  146.0687  158.1987 H   0  0  0  0  0  0  0  0  0  0  0  0
  150.3830  144.6797  158.7934 H   0  0  0  0  0  0  0  0  0  0  0  0
  152.7006  146.0891  160.2026 H   0  0  0  0  0  0  0  0  0  0  0  0
  151.0231  146.1237  160.6899 H   0  0  0  0  0  0  0  0  0  0  0  0
  152.3428  144.5050  162.0551 H   0  0  0  0  0  0  0  0  0  0  0  0
  151.0569  143.7054  161.1854 H   0  0  0  0  0  0  0  0  0  0  0  0
  153.9812  143.8313  160.3443 H   0  0  0  0  0  0  0  0  0  0  0  0
  152.3761  141.4543  161.3811 H   0  0  0  0  0  0  0  0  0  0  0  0
  153.6598  142.3012  162.2350 H   0  0  0  0  0  0  0  0  0  0  0  0
  154.0304  141.3865  160.7780 H   0  0  0  0  0  0  0  0  0  0  0  0
  1  2  1  0  0  0  0
  1 22  1  0  0  0  0
  1 23  1  0  0  0  0
  1 24  1  0  0  0  0
  2  7  1  0  0  0  0
  2  3  2  0  0  0  0
  3  4  1  0  0  0  0
  4  5  1  0  0  0  0
  5  6  1  0  0  0  0
  5  7  2  0  0  0  0
  6 25  1  0  0  0  0
  6 26  1  0  0  0  0
  6 27  1  0  0  0  0
  7  8  1  0  0  0  0
  8  9  1  0  0  0  0
  8 28  1  0  0  0  0
  8 29  1  0  0  0  0
  9 10  2  0  0  0  0
  9 11  1  0  0  0  0
 11 12  1  0  0  0  0
 11 30  1  0  0  0  0
 12 13  1  0  0  0  0
 12 31  1  0  0  0  0
 12 32  1  0  0  0  0
 13 14  1  0  0  0  0
 13 33  1  0  0  0  0
 13 34  1  0  0  0  0
 14 15  1  0  0  0  0
 15 20  1  0  0  0  0
 15 16  1  0  0  0  0
 15 35  1  0  0  0  0
 16 17  1  0  0  0  0
 16 36  1  0  0  0  0
 16 37  1  0  0  0  0
 17 18  1  0  0  0  0
 17 38  1  0  0  0  0
 17 39  1  0  0  0  0
 18 19  1  0  0  0  0
 18 40  1  0  0  0  0
 18 41  1  0  0  0  0
 19 20  1  0  0  0  0
 19 42  1  0  0  0  0
 19 43  1  0  0  0  0
 20 21  1  0  0  0  0
 20 44  1  0  0  0  0
 21 45  1  0  0  0  0
 21 46  1  0  0  0  0
 21 47  1  0  0  0  0
M  END
> <s_m_source_file>
AV-unprocessed.smi

> <i_m_source_file_index>
1346

> <i_lp_mmshare_version>
43012

> <i_f3d_flags>
0

> <s_epik_input>
W0NIM11jMW5vYyhbQ0gzXSljMVtDSDJdQyg9TylbTkhdW0NIMl1bQ0gyXU9bQ0BASF0yW0NIMl1bQ0gyXVtDSDJdW0NIMl1bQ0BIXTJbQ0gzXQ==

> <s_epik_cmdline>
J2VwaWtfcHl0aG9uJywgJy1waCcsICc3LjAnLCAnLXRuJywgJzgnLCAnLW1hJywgJzIwMCcsICctbWV0YWxfYmluZGluZycsICctaW1hZScsICc8aW5maWxlLm1hZT4nLCAnLW9tYWUnLCAnPG91dGZpbGUubWFlPic=

> <r_lp_tautomer_probability>
1

> <r_epik_Ionization_Penalty>
3.26154e-08

> <r_epik_Ionization_Penalty_Charging>
0

> <r_epik_Ionization_Penalty_Neutral>
3.26154e-08

> <r_epik_State_Penalty>
-0

> <r_epik_Charging_Adjusted_Penalty>
0

> <i_epik_Tot_Q>
0

> <i_epik_Tot_abs_Q>
0

> <r_epik_Metal_State_Penalty>
-0

> <b_epik_Metal_Only>
0

> <s_lp_Force_Field>
OPLS_2005

> <r_lp_Energy>
6.45158

> <b_lp_Chiralities_Consistent>
1

> <s_lp_Variant>
AV-unprocessed.smi:1346-2

> <Gold.Version>
5.8.1

> <Gold.Id.Protein>
6NUR|6NUR_protein|mol2

> <Gold.PLP.Fitness>
44.3468

> <Gold.PLP.PLP>
-42.5064

> <Gold.PLP.part.hbond>
-1.5655

> <Gold.PLP.part.metal>
0.0000

> <Gold.PLP.part.buried>
-6.4449

> <Gold.PLP.part.nonpolar>
-35.5310

> <Gold.PLP.part.repulsive>
0.3091

> <Gold.PLP.ligand.clash>
0.0000

> <Gold.PLP.ligand.torsion>
0.6314

> <Gold.PLP.Chemscore.Hbond>
1.0000

> <Gold.PLP.Chemscore.CHOScore>
0.0000

> <Gold.PLP.Chemscore.Metal>
0.0000

> <Gold.Chemscore.Hbonds>
donor molecule, donor type, donor heavy atom, donor atom, acceptor molecule, acceptor atom, score
      P1  H 10752 10765       L1     3  1.00

> <Gold.PLP.Chemscore.Internal.Correction>
0.1033

> <Gold.Rescore>
     Score         DG    S(hbond)    S(metal)    S(lipo)     H(rot)  DE(clash)    DE(int)     intcor
     17.70     -18.57       0.98        0.00     121.80       1.74       0.11       0.76       ----

> <Gold.Chemscore.Fitness>
17.7006

> <Gold.Chemscore.DG>
-18.5706

> <Gold.Chemscore.ZeroCoef>
-5.4800

> <Gold.Chemscore.Hbond>
0.9828

> <Gold.Chemscore.Metal>
0.0000

> <Gold.Chemscore.Lipo>
121.7960

> <Gold.Chemscore.Internal_Hbond>
0.0000

> <Gold.Chemscore.DEClash>
0.1080

> <Gold.Chemscore.DEInternal>
0.7620

> <Gold.Chemscore.Rot>
1.7352

> <Gold.Chemscore.Internal.Correction>
   9.000000E+99

> <Gold.Chemscore.Hbonds>
donor molecule, donor type, donor heavy atom, donor atom, acceptor molecule, acceptor atom, score
      P1  H 10752 10765       L1     3  0.37

> <Gold.Chemscore.Hbond.Weighted>
-3.2825

> <Gold.Chemscore.Metal.Weighted>
-0.0000

> <Gold.Chemscore.Lipo.Weighted>
-14.2501

> <Gold.Chemscore.Internal_Hbond.Weighted>
0.0000

> <Gold.Chemscore.DEClash.Weighted>
0.1080

> <Gold.Chemscore.DEInternal.Weighted>
0.7620

> <Gold.Chemscore.Rot.Weighted>
4.4420

> <Gold.Chemscore.Internal.Correction.Weighted>
   9.000000E+99

> <Gold.Protein.RotatedTorsions>
[ 6907 6896 6895 6894 ] final  155.70 input  -60.11 | X-H torsion
[ 7974 7965 7964 7962 ] final  132.69 input  175.53 | X-H torsion
[ 8008 7997 7996 7995 ] final -111.05 input   59.86 | X-H torsion
[ 10167 10162 10161 10158 ] final   90.76 input  -65.29 | X-H torsion
[ 10718 10713 10712 10709 ] final  160.67 input   66.30 | X-H torsion
[ 10763 10752 10751 10750 ] final  164.64 input  -60.55 | X-H torsion
[ 11005 11000 10999 10996 ] final  102.57 input  -57.11 | X-H torsion

> <Gold.Protein.ActiveResidues>
 VAL166  LYS551  ARG553  GLY616  TRP617  ASP618  TYR619  PRO620  LYS621  CYS622 
 ASP623  PHE694  ASN695  SER759  ASP760  ASP761  ALA762  ILE779  LEU786  VAL792 
 PHE793  MET794  SER795  GLU796  ALA797  LYS798  CYS799  TRP800  GLU811  SER814 

> <Gold.Protein.RotatedAtoms>
  152.0403  133.3975  159.4333 H   0  0  0  0  0  0  0  0  0  0  0  0  # atno 6907 bound_to 6896
  150.6876  134.3422  159.4882 H   0  0  0  0  0  0  0  0  0  0  0  0  # atno 6908 bound_to 6896
  152.1219  134.9198  160.0613 H   0  0  0  0  0  0  0  0  0  0  0  0  # atno 6909 bound_to 6896
  144.9942  139.4376  143.5324 H   0  0  0  0  0  0  0  0  0  0  0  0  # atno 7974 bound_to 7965
  154.9838  140.0396  157.2289 H   0  0  0  0  0  0  0  0  0  0  0  0  # atno 8008 bound_to 7997
  154.7690  140.2798  155.6130 H   0  0  0  0  0  0  0  0  0  0  0  0  # atno 8009 bound_to 7997
  156.2917  140.2614  156.2488 H   0  0  0  0  0  0  0  0  0  0  0  0  # atno 8010 bound_to 7997
  139.8441  144.6626  150.9247 H   0  0  0  0  0  0  0  0  0  0  0  0  # atno 10167 bound_to 10162
  157.1471  131.0555  151.2298 H   0  0  0  0  0  0  0  0  0  0  0  0  # atno 10718 bound_to 10713
  154.3119  135.2757  155.2562 H   0  0  0  0  0  0  0  0  0  0  0  0  # atno 10763 bound_to 10752
  154.4953  135.5822  153.6493 H   0  0  0  0  0  0  0  0  0  0  0  0  # atno 10764 bound_to 10752
  152.9887  135.6144  154.3297 H   0  0  0  0  0  0  0  0  0  0  0  0  # atno 10765 bound_to 10752
  139.8778  134.9229  156.5078 H   0  0  0  0  0  0  0  0  0  0  0  0  # atno 11005 bound_to 11000
  146.3438  139.9292  142.8756 LP  0  0  0  0  0  0  0  0  0  0  0  0  # atno 17320 bound_to 7965
  145.2243  140.9947  143.4027 LP  0  0  0  0  0  0  0  0  0  0  0  0  # atno 17321 bound_to 7965
  140.7795  143.3886  151.1350 LP  0  0  0  0  0  0  0  0  0  0  0  0  # atno 17342 bound_to 10162
  139.7529  143.8751  152.3081 LP  0  0  0  0  0  0  0  0  0  0  0  0  # atno 17343 bound_to 10162
  157.4254  130.7461  149.6947 LP  0  0  0  0  0  0  0  0  0  0  0  0  # atno 17370 bound_to 10713
  155.9777  130.4059  150.3693 LP  0  0  0  0  0  0  0  0  0  0  0  0  # atno 17371 bound_to 10713
  140.8542  133.8109  155.9199 LP  0  0  0  0  0  0  0  0  0  0  0  0  # atno 17394 bound_to 11000
  140.9114  134.2256  157.4983 LP  0  0  0  0  0  0  0  0  0  0  0  0  # atno 17395 bound_to 11000

$$$$
