AV-unprocessed.smi:2156|AV-procd|sdf|8781|dock3
  -GOLD-   2272011563D 1   1.00000     0.00000
 Structure written by MMmdl.
 33 33  0  0  0  0  0  0  0  0  2 V2000
  152.5053  144.9364  158.2573 C   0  0  0  0  0  0  0  0  0  0  0  0
  151.7217  144.6053  159.5324 C   0  0  0  0  0  0  0  0  0  0  0  0
  152.4788  143.6297  160.4501 C   0  0  0  0  0  0  0  0  0  0  0  0
  153.0040  142.3733  159.7291 C   0  0  2  0  0  0  0  0  0  0  0  0
  151.9857  141.8516  158.7017 C   0  0  0  0  0  0  0  0  0  0  0  0
  153.3230  141.3293  160.7003 N   0  0  0  0  0  0  0  0  0  0  0  0
  153.9118  140.1570  160.4187 C   0  0  0  0  0  0  0  0  0  0  0  0
  154.2305  139.8199  159.2775 O   0  0  0  0  0  0  0  0  0  0  0  0
  154.1463  139.2218  161.6136 C   0  0  0  0  0  0  0  0  0  0  0  0
  154.2784  137.8069  161.2290 N   0  0  0  0  0  0  0  0  0  0  0  0
  155.3407  137.0750  161.7882 C   0  0  0  0  0  0  0  0  0  0  0  0
  155.5376  135.7747  161.4990 C   0  0  0  0  0  0  0  0  0  0  0  0
  154.6130  135.1248  160.5784 C   0  0  0  0  0  0  0  0  0  0  0  0
  154.7804  133.9392  160.2990 O   0  0  0  0  0  0  0  0  0  0  0  0
  153.5951  135.8762  160.0655 N   0  5  0  0  0  0  0  0  0  0  0  0
  153.4062  137.1978  160.3702 C   0  0  0  0  0  0  0  0  0  0  0  0
  152.4799  137.8574  159.8975 O   0  0  0  0  0  0  0  0  0  0  0  0
  151.9475  145.6297  157.6276 H   0  0  0  0  0  0  0  0  0  0  0  0
  152.7002  144.0379  157.6711 H   0  0  0  0  0  0  0  0  0  0  0  0
  153.4643  145.3986  158.4923 H   0  0  0  0  0  0  0  0  0  0  0  0
  151.5117  145.5283  160.0741 H   0  0  0  0  0  0  0  0  0  0  0  0
  150.7545  144.1856  159.2539 H   0  0  0  0  0  0  0  0  0  0  0  0
  153.3097  144.1504  160.9282 H   0  0  0  0  0  0  0  0  0  0  0  0
  151.8121  143.3208  161.2563 H   0  0  0  0  0  0  0  0  0  0  0  0
  153.9163  142.6492  159.1967 H   0  0  0  0  0  0  0  0  0  0  0  0
  151.7439  142.6192  157.9662 H   0  0  0  0  0  0  0  0  0  0  0  0
  151.0559  141.5476  159.1837 H   0  0  0  0  0  0  0  0  0  0  0  0
  152.3756  140.9912  158.1571 H   0  0  0  0  0  0  0  0  0  0  0  0
  153.0932  141.5202  161.6647 H   0  0  0  0  0  0  0  0  0  0  0  0
  155.0340  139.5448  162.1608 H   0  0  0  0  0  0  0  0  0  0  0  0
  153.3181  139.3498  162.3118 H   0  0  0  0  0  0  0  0  0  0  0  0
  155.9750  137.6290  162.4647 H   0  0  0  0  0  0  0  0  0  0  0  0
  156.3572  135.2259  161.9391 H   0  0  0  0  0  0  0  0  0  0  0  0
  1  2  1  0  0  0  0
  1 18  1  0  0  0  0
  1 19  1  0  0  0  0
  1 20  1  0  0  0  0
  2  3  1  0  0  0  0
  2 21  1  0  0  0  0
  2 22  1  0  0  0  0
  3  4  1  0  0  0  0
  3 23  1  0  0  0  0
  3 24  1  0  0  0  0
  4  5  1  0  0  0  0
  4  6  1  0  0  0  0
  4 25  1  0  0  0  0
  5 26  1  0  0  0  0
  5 27  1  0  0  0  0
  5 28  1  0  0  0  0
  6  7  1  0  0  0  0
  6 29  1  0  0  0  0
  7  8  2  0  0  0  0
  7  9  1  0  0  0  0
  9 10  1  0  0  0  0
  9 30  1  0  0  0  0
  9 31  1  0  0  0  0
 10 16  1  0  0  0  0
 10 11  1  0  0  0  0
 11 12  2  0  0  0  0
 11 32  1  0  0  0  0
 12 13  1  0  0  0  0
 12 33  1  0  0  0  0
 13 14  2  0  0  0  0
 13 15  1  0  0  0  0
 15 16  1  0  0  0  0
 16 17  2  0  0  0  0
M  CHG  1  15  -1
M  END
> <s_m_source_file>
AV-unprocessed.smi

> <i_m_source_file_index>
2156

> <i_lp_mmshare_version>
43012

> <i_f3d_flags>
0

> <s_epik_input>
W0NIM11bQ0gyXVtDSDJdW0NASF0oW0NIM10pW05IXUMoPU8pW0NIMl1uMVtjSF1bY0hdYyg9TylbbkhdYzE9Tw==

> <s_epik_cmdline>
J2VwaWtfcHl0aG9uJywgJy1waCcsICc3LjAnLCAnLXRuJywgJzgnLCAnLW1hJywgJzIwMCcsICctbWV0YWxfYmluZGluZycsICctaW1hZScsICc8aW5maWxlLm1hZT4nLCAnLW9tYWUnLCAnPG91dGZpbGUubWFlPic=

> <r_lp_tautomer_probability>
0.999537

> <r_epik_Ionization_Penalty>
3.08607

> <r_epik_Ionization_Penalty_Charging>
2.78879e-08

> <r_epik_Ionization_Penalty_Neutral>
3.08607

> <r_epik_State_Penalty>
3.08511

> <r_epik_Charging_Adjusted_Penalty>
3.08511

> <i_epik_Tot_Q>
-1

> <i_epik_Tot_abs_Q>
1

> <r_epik_Metal_State_Penalty>
0.460479

> <b_epik_Metal_Only>
1

> <s_lp_Force_Field>
OPLS_2005

> <r_lp_Energy>
12.6721

> <b_lp_Chiralities_Consistent>
1

> <s_lp_Variant>
AV-unprocessed.smi:2156-3

> <Gold.Version>
5.8.1

> <Gold.Id.Protein>
6NUR|6NUR_protein|mol2

> <Gold.PLP.Fitness>
38.8822

> <Gold.PLP.PLP>
-31.2438

> <Gold.PLP.part.hbond>
-2.0000

> <Gold.PLP.part.metal>
0.0000

> <Gold.PLP.part.buried>
-4.6878

> <Gold.PLP.part.nonpolar>
-24.1911

> <Gold.PLP.part.repulsive>
0.0644

> <Gold.PLP.ligand.clash>
0.0000

> <Gold.PLP.ligand.torsion>
0.6901

> <Gold.PLP.Chemscore.Hbond>
3.0000

> <Gold.PLP.Chemscore.CHOScore>
0.0000

> <Gold.PLP.Chemscore.Metal>
0.0000

> <Gold.Chemscore.Hbonds>
donor molecule, donor type, donor heavy atom, donor atom, acceptor molecule, acceptor atom, score
      P1  H  6896  6907       L1    15  2.00
      P1  H  7997  8010       L1     8  0.71

> <Gold.PLP.Chemscore.Internal.Correction>
0.0186

> <Gold.Rescore>
     Score         DG    S(hbond)    S(metal)    S(lipo)     H(rot)  DE(clash)    DE(int)     intcor
     13.96     -15.30       1.91        0.00      76.13       2.14       0.13       1.22       ----

> <Gold.Chemscore.Fitness>
13.9572

> <Gold.Chemscore.DG>
-15.3046

> <Gold.Chemscore.ZeroCoef>
-5.4800

> <Gold.Chemscore.Hbond>
1.9127

> <Gold.Chemscore.Metal>
0.0000

> <Gold.Chemscore.Lipo>
76.1317

> <Gold.Chemscore.Internal_Hbond>
0.0000

> <Gold.Chemscore.DEClash>
0.1322

> <Gold.Chemscore.DEInternal>
1.2153

> <Gold.Chemscore.Rot>
2.1372

> <Gold.Chemscore.Internal.Correction>
   9.000000E+99

> <Gold.Chemscore.Hbonds>
donor molecule, donor type, donor heavy atom, donor atom, acceptor molecule, acceptor atom, score
      P1  H  6896  6907       L1    15  0.56
      P1  H  7997  8010       L1     8  0.68

> <Gold.Chemscore.Hbond.Weighted>
-6.3885

> <Gold.Chemscore.Metal.Weighted>
-0.0000

> <Gold.Chemscore.Lipo.Weighted>
-8.9074

> <Gold.Chemscore.Internal_Hbond.Weighted>
0.0000

> <Gold.Chemscore.DEClash.Weighted>
0.1322

> <Gold.Chemscore.DEInternal.Weighted>
1.2153

> <Gold.Chemscore.Rot.Weighted>
5.4713

> <Gold.Chemscore.Internal.Correction.Weighted>
   9.000000E+99

> <Gold.Protein.RotatedTorsions>
[ 6907 6896 6895 6894 ] final   39.61 input  -60.11 | X-H torsion
[ 7974 7965 7964 7962 ] final  -25.17 input  175.53 | X-H torsion
[ 8008 7997 7996 7995 ] final   -3.39 input   59.86 | X-H torsion
[ 10167 10162 10161 10158 ] final   13.05 input  -65.29 | X-H torsion
[ 10718 10713 10712 10709 ] final   89.31 input   66.30 | X-H torsion
[ 10763 10752 10751 10750 ] final -146.74 input  -60.55 | X-H torsion
[ 11005 11000 10999 10996 ] final   23.31 input  -57.11 | X-H torsion

> <Gold.Protein.ActiveResidues>
 VAL166  LYS551  ARG553  GLY616  TRP617  ASP618  TYR619  PRO620  LYS621  CYS622 
 ASP623  PHE694  ASN695  SER759  ASP760  ASP761  ALA762  ILE779  LEU786  VAL792 
 PHE793  MET794  SER795  GLU796  ALA797  LYS798  CYS799  TRP800  GLU811  SER814 

> <Gold.Protein.RotatedAtoms>
  152.1717  134.8828  160.0533 H   0  0  0  0  0  0  0  0  0  0  0  0  # atno 6907 bound_to 6896
  151.9785  133.3745  159.4106 H   0  0  0  0  0  0  0  0  0  0  0  0  # atno 6908 bound_to 6896
  150.6903  134.3986  159.5153 H   0  0  0  0  0  0  0  0  0  0  0  0  # atno 6909 bound_to 6896
  146.1508  140.4850  142.8612 H   0  0  0  0  0  0  0  0  0  0  0  0  # atno 7974 bound_to 7965
  154.6254  140.2510  155.7498 H   0  0  0  0  0  0  0  0  0  0  0  0  # atno 8008 bound_to 7997
  156.2450  140.2918  156.0502 H   0  0  0  0  0  0  0  0  0  0  0  0  # atno 8009 bound_to 7997
  155.1829  140.0389  157.2876 H   0  0  0  0  0  0  0  0  0  0  0  0  # atno 8010 bound_to 7997
  140.6028  143.8570  150.6982 H   0  0  0  0  0  0  0  0  0  0  0  0  # atno 10167 bound_to 10162
  157.6954  131.0328  150.3406 H   0  0  0  0  0  0  0  0  0  0  0  0  # atno 10718 bound_to 10713
  154.8321  135.3378  154.6709 H   0  0  0  0  0  0  0  0  0  0  0  0  # atno 10763 bound_to 10752
  153.7328  135.6951  153.4990 H   0  0  0  0  0  0  0  0  0  0  0  0  # atno 10764 bound_to 10752
  153.2300  135.4420  155.0536 H   0  0  0  0  0  0  0  0  0  0  0  0  # atno 10765 bound_to 10752
  140.3710  134.2022  155.7667 H   0  0  0  0  0  0  0  0  0  0  0  0  # atno 11005 bound_to 11000
  144.7902  140.6017  143.6546 LP  0  0  0  0  0  0  0  0  0  0  0  0  # atno 17320 bound_to 7965
  145.4827  139.1494  143.3753 LP  0  0  0  0  0  0  0  0  0  0  0  0  # atno 17321 bound_to 7965
  140.2120  143.3876  152.1711 LP  0  0  0  0  0  0  0  0  0  0  0  0  # atno 17342 bound_to 10162
  139.5303  144.7151  151.5080 LP  0  0  0  0  0  0  0  0  0  0  0  0  # atno 17343 bound_to 10162
  156.3867  130.3890  149.7060 LP  0  0  0  0  0  0  0  0  0  0  0  0  # atno 17370 bound_to 10713
  156.4424  130.7867  151.2888 LP  0  0  0  0  0  0  0  0  0  0  0  0  # atno 17371 bound_to 10713
  141.1954  133.8106  157.0715 LP  0  0  0  0  0  0  0  0  0  0  0  0  # atno 17394 bound_to 11000
  140.0551  134.9785  157.1206 LP  0  0  0  0  0  0  0  0  0  0  0  0  # atno 17395 bound_to 11000

$$$$
