AV-unprocessed.smi:427|AV-procd|sdf|2543|dock8
  -GOLD-   2262022503D 1   1.00000     0.00000
 Structure written by MMmdl.
 51 52  0  0  0  0  0  0  0  0  1 V2000
  152.2926  138.5599  159.0427 C   0  0  0  0  0  0  0  0  0  0  0  0
  151.4500  139.8015  158.8153 C   0  0  0  0  0  0  0  0  0  0  0  0
  151.9500  141.0635  159.1992 C   0  0  0  0  0  0  0  0  0  0  0  0
  151.1892  142.2415  159.0034 C   0  0  0  0  0  0  0  0  0  0  0  0
  151.7049  143.6358  159.4092 C   0  0  0  0  0  0  0  0  0  0  0  0
  152.0996  143.6281  160.9008 C   0  0  0  0  0  0  0  0  0  0  0  0
  150.6537  144.7513  159.2087 C   0  0  0  0  0  0  0  0  0  0  0  0
  152.9402  144.0000  158.5591 C   0  0  0  0  0  0  0  0  0  0  0  0
  149.9118  142.1158  158.4115 C   0  0  0  0  0  0  0  0  0  0  0  0
  149.4077  140.8600  158.0262 C   0  0  0  0  0  0  0  0  0  0  0  0
  150.1732  139.6859  158.2239 C   0  0  0  0  0  0  0  0  0  0  0  0
  149.7475  138.4224  157.8719 O   0  0  0  0  0  0  0  0  0  0  0  0
  148.3509  138.1813  157.7533 C   0  0  0  0  0  0  0  0  0  0  0  0
  147.8065  137.6302  159.0815 C   0  0  1  0  0  0  0  0  0  0  0  0
  146.5349  137.0692  158.8247 O   0  0  0  0  0  0  0  0  0  0  0  0
  148.7409  136.5806  159.7234 C   0  0  0  0  0  0  0  0  0  0  0  0
  148.0428  135.6357  160.5788 N   0  0  0  0  0  0  0  0  0  0  0  0
  147.4642  136.1250  161.7762 C   0  0  0  0  0  0  0  0  0  0  0  0
  147.5353  137.3098  162.1045 O   0  0  0  0  0  0  0  0  0  0  0  0
  146.7953  135.1146  162.5888 C   0  0  0  0  0  0  0  0  0  0  0  0
  146.7628  133.8212  162.2008 C   0  0  0  0  0  0  0  0  0  0  0  0
  147.3520  133.3744  161.0343 N   0  0  0  0  0  0  0  0  0  0  0  0
  147.3197  131.9973  160.6335 C   0  0  0  0  0  0  0  0  0  0  0  0
  148.0238  134.2773  160.1817 C   0  0  0  0  0  0  0  0  0  0  0  0
  148.5737  133.8915  159.1460 O   0  0  0  0  0  0  0  0  0  0  0  0
  153.2557  138.8038  159.4916 H   0  0  0  0  0  0  0  0  0  0  0  0
  152.4793  138.0505  158.0971 H   0  0  0  0  0  0  0  0  0  0  0  0
  151.7743  137.8686  159.7079 H   0  0  0  0  0  0  0  0  0  0  0  0
  152.9305  141.1014  159.6468 H   0  0  0  0  0  0  0  0  0  0  0  0
  152.4510  144.6089  161.2227 H   0  0  0  0  0  0  0  0  0  0  0  0
  152.9000  142.9185  161.1111 H   0  0  0  0  0  0  0  0  0  0  0  0
  151.2512  143.3613  161.5319 H   0  0  0  0  0  0  0  0  0  0  0  0
  149.7601  144.5766  159.8092 H   0  0  0  0  0  0  0  0  0  0  0  0
  150.3498  144.8370  158.1647 H   0  0  0  0  0  0  0  0  0  0  0  0
  151.0488  145.7238  159.5045 H   0  0  0  0  0  0  0  0  0  0  0  0
  153.3160  144.9926  158.8108 H   0  0  0  0  0  0  0  0  0  0  0  0
  152.7002  144.0015  157.4952 H   0  0  0  0  0  0  0  0  0  0  0  0
  153.7633  143.3013  158.7088 H   0  0  0  0  0  0  0  0  0  0  0  0
  149.2997  142.9894  158.2449 H   0  0  0  0  0  0  0  0  0  0  0  0
  148.4263  140.8261  157.5787 H   0  0  0  0  0  0  0  0  0  0  0  0
  147.8466  139.1240  157.5350 H   0  0  0  0  0  0  0  0  0  0  0  0
  148.1354  137.4918  156.9350 H   0  0  0  0  0  0  0  0  0  0  0  0
  147.6605  138.4725  159.7591 H   0  0  0  0  0  0  0  0  0  0  0  0
  146.3779  137.0945  157.8932 H   0  0  0  0  0  0  0  0  0  0  0  0
  149.3204  136.0270  158.9826 H   0  0  0  0  0  0  0  0  0  0  0  0
  149.4967  137.0592  160.3489 H   0  0  0  0  0  0  0  0  0  0  0  0
  146.3211  135.4068  163.5142 H   0  0  0  0  0  0  0  0  0  0  0  0
  146.2562  133.1087  162.8354 H   0  0  0  0  0  0  0  0  0  0  0  0
  146.8022  131.9464  159.6741 H   0  0  0  0  0  0  0  0  0  0  0  0
  146.7757  131.4376  161.3949 H   0  0  0  0  0  0  0  0  0  0  0  0
  148.3518  131.6496  160.5647 H   0  0  0  0  0  0  0  0  0  0  0  0
  1  2  1  0  0  0  0
  1 26  1  0  0  0  0
  1 27  1  0  0  0  0
  1 28  1  0  0  0  0
  2 11  1  0  0  0  0
  2  3  2  0  0  0  0
  3  4  1  0  0  0  0
  3 29  1  0  0  0  0
  4  5  1  0  0  0  0
  4  9  2  0  0  0  0
  5  6  1  0  0  0  0
  5  7  1  0  0  0  0
  5  8  1  0  0  0  0
  6 30  1  0  0  0  0
  6 31  1  0  0  0  0
  6 32  1  0  0  0  0
  7 33  1  0  0  0  0
  7 34  1  0  0  0  0
  7 35  1  0  0  0  0
  8 36  1  0  0  0  0
  8 37  1  0  0  0  0
  8 38  1  0  0  0  0
  9 10  1  0  0  0  0
  9 39  1  0  0  0  0
 10 11  2  0  0  0  0
 10 40  1  0  0  0  0
 11 12  1  0  0  0  0
 12 13  1  0  0  0  0
 13 14  1  0  0  0  0
 13 41  1  0  0  0  0
 13 42  1  0  0  0  0
 14 15  1  0  0  0  0
 14 16  1  0  0  0  0
 14 43  1  0  0  0  0
 15 44  1  0  0  0  0
 16 17  1  0  0  0  0
 16 45  1  0  0  0  0
 16 46  1  0  0  0  0
 17 24  1  0  0  0  0
 17 18  1  0  0  0  0
 18 19  2  0  0  0  0
 18 20  1  0  0  0  0
 20 21  2  0  0  0  0
 20 47  1  0  0  0  0
 21 22  1  0  0  0  0
 21 48  1  0  0  0  0
 22 23  1  0  0  0  0
 22 24  1  0  0  0  0
 23 49  1  0  0  0  0
 23 50  1  0  0  0  0
 23 51  1  0  0  0  0
 24 25  2  0  0  0  0
M  END
> <s_m_source_file>
AV-unprocessed.smi

> <i_m_source_file_index>
427

> <i_lp_mmshare_version>
43012

> <i_f3d_flags>
0

> <s_epik_input>
W0NIM11jMVtjSF1jKEMoW0NIM10pKFtDSDNdKVtDSDNdKVtjSF1bY0hdYzFPW0NIMl1bQ0BIXShbT0hdKVtDSDJdbjJjKD1PKVtjSF1bY0hdbihbQ0gzXSljMj1P

> <s_epik_cmdline>
J2VwaWtfcHl0aG9uJywgJy1waCcsICc3LjAnLCAnLXRuJywgJzgnLCAnLW1hJywgJzIwMCcsICctbWV0YWxfYmluZGluZycsICctaW1hZScsICc8aW5maWxlLm1hZT4nLCAnLW9tYWUnLCAnPG91dGZpbGUubWFlPic=

> <r_lp_tautomer_probability>
1

> <r_epik_Ionization_Penalty>
2.02112e-07

> <r_epik_Ionization_Penalty_Charging>
8.49383e-08

> <r_epik_Ionization_Penalty_Neutral>
1.17174e-07

> <r_epik_State_Penalty>
-0

> <r_epik_Charging_Adjusted_Penalty>
8.49383e-08

> <i_epik_Tot_Q>
0

> <i_epik_Tot_abs_Q>
0

> <r_epik_Metal_State_Penalty>
-0

> <b_epik_Metal_Only>
0

> <s_lp_Force_Field>
OPLS_2005

> <r_lp_Energy>
28.8364

> <b_lp_Chiralities_Consistent>
1

> <s_lp_Variant>
AV-unprocessed.smi:427-2

> <Gold.Version>
5.8.1

> <Gold.Id.Protein>
6NUR|6NUR_protein|mol2

> <Gold.PLP.Fitness>
51.5639

> <Gold.PLP.PLP>
-46.3712

> <Gold.PLP.part.hbond>
-3.0000

> <Gold.PLP.part.metal>
0.0000

> <Gold.PLP.part.buried>
-4.6168

> <Gold.PLP.part.nonpolar>
-39.0392

> <Gold.PLP.part.repulsive>
0.0000

> <Gold.PLP.ligand.clash>
0.0000

> <Gold.PLP.ligand.torsion>
1.1073

> <Gold.PLP.Chemscore.Hbond>
2.4560

> <Gold.PLP.Chemscore.CHOScore>
0.0000

> <Gold.PLP.Chemscore.Metal>
0.0000

> <Gold.Chemscore.Hbonds>
donor molecule, donor type, donor heavy atom, donor atom, acceptor molecule, acceptor atom, score
      P1  H  6896  6909       L1    25  0.86
      P1  H  6931  6943       L1    19  0.86
      P1  H  6934  6947       L1    19  0.51

> <Gold.PLP.Chemscore.Internal.Correction>
0.0393

> <Gold.Rescore>
     Score         DG    S(hbond)    S(metal)    S(lipo)     H(rot)  DE(clash)    DE(int)     intcor
     19.02     -19.99       2.34        0.00     111.70       2.49       0.04       0.93       ----

> <Gold.Chemscore.Fitness>
19.0236

> <Gold.Chemscore.DG>
-19.9893

> <Gold.Chemscore.ZeroCoef>
-5.4800

> <Gold.Chemscore.Hbond>
2.3393

> <Gold.Chemscore.Metal>
0.0000

> <Gold.Chemscore.Lipo>
111.6999

> <Gold.Chemscore.Internal_Hbond>
0.0000

> <Gold.Chemscore.DEClash>
0.0376

> <Gold.Chemscore.DEInternal>
0.9281

> <Gold.Chemscore.Rot>
2.4894

> <Gold.Chemscore.Internal.Correction>
   9.000000E+99

> <Gold.Chemscore.Hbonds>
donor molecule, donor type, donor heavy atom, donor atom, acceptor molecule, acceptor atom, score
      P1  H  6896  6909       L1    25  0.53
      P1  H  6931  6943       L1    19  0.84
      P1  H  6934  6947       L1    19  0.49

> <Gold.Chemscore.Hbond.Weighted>
-7.8132

> <Gold.Chemscore.Metal.Weighted>
-0.0000

> <Gold.Chemscore.Lipo.Weighted>
-13.0689

> <Gold.Chemscore.Internal_Hbond.Weighted>
0.0000

> <Gold.Chemscore.DEClash.Weighted>
0.0376

> <Gold.Chemscore.DEInternal.Weighted>
0.9281

> <Gold.Chemscore.Rot.Weighted>
6.3728

> <Gold.Chemscore.Internal.Correction.Weighted>
   9.000000E+99

> <Gold.Protein.RotatedTorsions>
[ 6907 6896 6895 6894 ] final   22.19 input  -60.11 | X-H torsion
[ 7974 7965 7964 7962 ] final  -59.13 input  175.53 | X-H torsion
[ 8008 7997 7996 7995 ] final  -51.17 input   59.86 | X-H torsion
[ 10167 10162 10161 10158 ] final   -7.38 input  -65.29 | X-H torsion
[ 10718 10713 10712 10709 ] final  -76.97 input   66.30 | X-H torsion
[ 10763 10752 10751 10750 ] final   69.23 input  -60.55 | X-H torsion
[ 11005 11000 10999 10996 ] final  115.25 input  -57.11 | X-H torsion

> <Gold.Protein.ActiveResidues>
 VAL166  LYS551  ARG553  GLY616  TRP617  ASP618  TYR619  PRO620  LYS621  CYS622 
 ASP623  PHE694  ASN695  SER759  ASP760  ASP761  ALA762  ILE779  LEU786  VAL792 
 PHE793  MET794  SER795  GLU796  ALA797  LYS798  CYS799  TRP800  GLU811  SER814 

> <Gold.Protein.RotatedAtoms>
  151.9234  135.0288  160.0523 H   0  0  0  0  0  0  0  0  0  0  0  0  # atno 6907 bound_to 6896
  152.2180  133.4957  159.5155 H   0  0  0  0  0  0  0  0  0  0  0  0  # atno 6908 bound_to 6896
  150.6992  134.1297  159.4107 H   0  0  0  0  0  0  0  0  0  0  0  0  # atno 6909 bound_to 6896
  145.8311  140.8479  143.0083 H   0  0  0  0  0  0  0  0  0  0  0  0  # atno 7974 bound_to 7965
  154.4077  140.1254  156.4786 H   0  0  0  0  0  0  0  0  0  0  0  0  # atno 8008 bound_to 7997
  155.7108  140.3494  155.4953 H   0  0  0  0  0  0  0  0  0  0  0  0  # atno 8009 bound_to 7997
  155.9302  140.1068  157.1128 H   0  0  0  0  0  0  0  0  0  0  0  0  # atno 8010 bound_to 7997
  140.7027  143.6087  150.8725 H   0  0  0  0  0  0  0  0  0  0  0  0  # atno 10167 bound_to 10162
  156.0159  130.4479  150.3274 H   0  0  0  0  0  0  0  0  0  0  0  0  # atno 10718 bound_to 10713
  153.0276  135.5218  154.7257 H   0  0  0  0  0  0  0  0  0  0  0  0  # atno 10763 bound_to 10752
  154.6299  135.2899  155.0230 H   0  0  0  0  0  0  0  0  0  0  0  0  # atno 10764 bound_to 10752
  154.1186  135.6611  153.4951 H   0  0  0  0  0  0  0  0  0  0  0  0  # atno 10765 bound_to 10752
  139.9004  134.9581  156.7016 H   0  0  0  0  0  0  0  0  0  0  0  0  # atno 11005 bound_to 11000
  144.6740  140.0673  143.7474 LP  0  0  0  0  0  0  0  0  0  0  0  0  # atno 17320 bound_to 7965
  145.9570  139.2773  143.1178 LP  0  0  0  0  0  0  0  0  0  0  0  0  # atno 17321 bound_to 7965
  139.9811  143.5951  152.2942 LP  0  0  0  0  0  0  0  0  0  0  0  0  # atno 17342 bound_to 10162
  139.6572  144.7662  151.2033 LP  0  0  0  0  0  0  0  0  0  0  0  0  # atno 17343 bound_to 10162
  157.1373  131.0287  151.2943 LP  0  0  0  0  0  0  0  0  0  0  0  0  # atno 17370 bound_to 10713
  157.4501  130.7593  149.7144 LP  0  0  0  0  0  0  0  0  0  0  0  0  # atno 17371 bound_to 10713
  140.7146  133.9194  155.8106 LP  0  0  0  0  0  0  0  0  0  0  0  0  # atno 17394 bound_to 11000
  141.0274  134.0804  157.4053 LP  0  0  0  0  0  0  0  0  0  0  0  0  # atno 17395 bound_to 11000

$$$$
