AV-unprocessed.smi:1057|AV-procd|sdf|4650|dock7
  -GOLD-   22720 3153D 1   1.00000     0.00000
 Structure written by MMmdl.
 44 45  0  0  0  0  0  0  0  0  1 V2000
  153.0009  136.8848  164.5321 C   0  0  0  0  0  0  0  0  0  0  0  0
  153.9342  137.2034  163.8120 C   0  0  0  0  0  0  0  0  0  0  0  0
  155.0487  137.6050  162.9369 C   0  0  0  0  0  0  0  0  0  0  0  0
  154.6652  137.6674  161.5314 N   0  0  0  0  0  0  0  0  0  0  0  0
  153.9692  136.7279  160.8661 C   0  0  0  0  0  0  0  0  0  0  0  0
  153.5763  135.6901  161.3974 O   0  0  0  0  0  0  0  0  0  0  0  0
  153.6648  136.9637  159.3777 C   0  0  0  0  0  0  0  0  0  0  0  0
  152.7684  138.0885  159.1100 N   0  0  0  0  0  0  0  0  0  0  0  0
  153.1271  139.3806  159.1045 C   0  0  0  0  0  0  0  0  0  0  0  0
  154.2646  139.7738  159.3625 O   0  0  0  0  0  0  0  0  0  0  0  0
  152.0974  140.1666  158.7521 N   0  0  0  0  0  0  0  0  0  0  0  0
  152.1017  141.5758  158.5585 C   0  0  0  0  0  0  0  0  0  0  0  0
  152.8255  142.4600  159.3938 C   0  0  0  0  0  0  0  0  0  0  0  0
  152.7553  143.8437  159.1482 C   0  0  0  0  0  0  0  0  0  0  0  0
  151.9571  144.2948  158.0811 C   0  0  0  0  0  0  0  0  0  0  0  0
  151.2508  143.4661  157.2846 N   0  0  0  0  0  0  0  0  0  0  0  0
  151.3162  142.1334  157.5184 C   0  0  0  0  0  0  0  0  0  0  0  0
  150.5728  141.2931  156.6734 N   0  0  0  0  0  0  0  0  0  0  0  0
  149.5007  141.9811  155.9604 C   0  0  0  0  0  0  0  0  0  0  0  0
  148.5790  140.9677  155.2601 C   0  0  0  0  0  0  0  0  0  0  0  0
  149.3868  140.0285  154.3490 C   0  0  0  0  0  0  0  0  0  0  0  0
  150.5220  139.3606  155.1428 C   0  0  0  0  0  0  0  0  0  0  0  0
  151.3947  140.4151  155.8449 C   0  0  0  0  0  0  0  0  0  0  0  0
  152.1828  136.6127  165.1605 H   0  0  0  0  0  0  0  0  0  0  0  0
  155.4392  138.5626  163.2839 H   0  0  0  0  0  0  0  0  0  0  0  0
  155.8471  136.8718  163.0515 H   0  0  0  0  0  0  0  0  0  0  0  0
  154.9469  138.4915  161.0208 H   0  0  0  0  0  0  0  0  0  0  0  0
  154.6067  137.1564  158.8639 H   0  0  0  0  0  0  0  0  0  0  0  0
  153.2621  136.0459  158.9459 H   0  0  0  0  0  0  0  0  0  0  0  0
  151.8112  137.8600  158.8851 H   0  0  0  0  0  0  0  0  0  0  0  0
  151.2491  139.6949  158.4744 H   0  0  0  0  0  0  0  0  0  0  0  0
  153.4171  142.1014  160.2223 H   0  0  0  0  0  0  0  0  0  0  0  0
  153.2969  144.5435  159.7671 H   0  0  0  0  0  0  0  0  0  0  0  0
  151.8794  145.3498  157.8641 H   0  0  0  0  0  0  0  0  0  0  0  0
  148.9238  142.5888  156.6590 H   0  0  0  0  0  0  0  0  0  0  0  0
  149.9322  142.6612  155.2247 H   0  0  0  0  0  0  0  0  0  0  0  0
  148.0480  140.3800  156.0102 H   0  0  0  0  0  0  0  0  0  0  0  0
  147.8186  141.4917  154.6807 H   0  0  0  0  0  0  0  0  0  0  0  0
  148.7344  139.2713  153.9132 H   0  0  0  0  0  0  0  0  0  0  0  0
  149.8062  140.5965  153.5177 H   0  0  0  0  0  0  0  0  0  0  0  0
  150.0990  138.6843  155.8868 H   0  0  0  0  0  0  0  0  0  0  0  0
  151.1348  138.7490  154.4803 H   0  0  0  0  0  0  0  0  0  0  0  0
  151.9276  141.0097  155.1016 H   0  0  0  0  0  0  0  0  0  0  0  0
  152.1480  139.9238  156.4624 H   0  0  0  0  0  0  0  0  0  0  0  0
  1  2  3  0  0  0  0
  1 24  1  0  0  0  0
  2  3  1  0  0  0  0
  3  4  1  0  0  0  0
  3 25  1  0  0  0  0
  3 26  1  0  0  0  0
  4  5  1  0  0  0  0
  4 27  1  0  0  0  0
  5  6  2  0  0  0  0
  5  7  1  0  0  0  0
  7  8  1  0  0  0  0
  7 28  1  0  0  0  0
  7 29  1  0  0  0  0
  8  9  1  0  0  0  0
  8 30  1  0  0  0  0
  9 10  2  0  0  0  0
  9 11  1  0  0  0  0
 11 12  1  0  0  0  0
 11 31  1  0  0  0  0
 12 17  1  0  0  0  0
 12 13  2  0  0  0  0
 13 14  1  0  0  0  0
 13 32  1  0  0  0  0
 14 15  2  0  0  0  0
 14 33  1  0  0  0  0
 15 16  1  0  0  0  0
 15 34  1  0  0  0  0
 16 17  2  0  0  0  0
 17 18  1  0  0  0  0
 18 23  1  0  0  0  0
 18 19  1  0  0  0  0
 19 20  1  0  0  0  0
 19 35  1  0  0  0  0
 19 36  1  0  0  0  0
 20 21  1  0  0  0  0
 20 37  1  0  0  0  0
 20 38  1  0  0  0  0
 21 22  1  0  0  0  0
 21 39  1  0  0  0  0
 21 40  1  0  0  0  0
 22 23  1  0  0  0  0
 22 41  1  0  0  0  0
 22 42  1  0  0  0  0
 23 43  1  0  0  0  0
 23 44  1  0  0  0  0
M  END
> <s_m_source_file>
AV-unprocessed.smi

> <i_m_source_file_index>
1057

> <i_lp_mmshare_version>
43012

> <i_f3d_flags>
0

> <s_epik_input>
W0NIXSNDW0NIMl1bTkhdQyg9TylbQ0gyXVtOSF1DKD1PKVtOSF1jMVtjSF1bY0hdW2NIXW5jMU4yW0NIMl1bQ0gyXVtDSDJdW0NIMl1bQ0gyXTI=

> <s_epik_cmdline>
J2VwaWtfcHl0aG9uJywgJy1waCcsICc3LjAnLCAnLXRuJywgJzgnLCAnLW1hJywgJzIwMCcsICctbWV0YWxfYmluZGluZycsICctaW1hZScsICc8aW5maWxlLm1hZT4nLCAnLW9tYWUnLCAnPG91dGZpbGUubWFlPic=

> <r_lp_tautomer_probability>
1

> <r_epik_Ionization_Penalty>
0.251144

> <r_epik_Ionization_Penalty_Charging>
0

> <r_epik_Ionization_Penalty_Neutral>
0.251144

> <r_epik_State_Penalty>
0.236346

> <r_epik_Charging_Adjusted_Penalty>
0.236346

> <i_epik_Tot_Q>
0

> <i_epik_Tot_abs_Q>
0

> <r_epik_Metal_State_Penalty>
0.166327

> <b_epik_Metal_Only>
0

> <s_lp_Force_Field>
OPLS_2005

> <r_lp_Energy>
16.5817

> <b_lp_Chiralities_Consistent>
1

> <s_lp_Variant>
AV-unprocessed.smi:1057-1

> <Gold.Version>
5.8.1

> <Gold.Id.Protein>
6NUR|6NUR_protein|mol2

> <Gold.PLP.Fitness>
43.0428

> <Gold.PLP.PLP>
-39.8286

> <Gold.PLP.part.hbond>
-1.6624

> <Gold.PLP.part.metal>
0.0000

> <Gold.PLP.part.buried>
-2.0881

> <Gold.PLP.part.nonpolar>
-36.6409

> <Gold.PLP.part.repulsive>
0.3895

> <Gold.PLP.ligand.clash>
0.0000

> <Gold.PLP.ligand.torsion>
0.8267

> <Gold.PLP.Chemscore.Hbond>
1.5525

> <Gold.PLP.Chemscore.CHOScore>
0.0000

> <Gold.PLP.Chemscore.Metal>
0.0000

> <Gold.Chemscore.Hbonds>
donor molecule, donor type, donor heavy atom, donor atom, acceptor molecule, acceptor atom, score
      P1  H  6896  6909       L1     6  0.86
      P1  H  7997  8009       L1    10  0.49

> <Gold.PLP.Chemscore.Internal.Correction>
0.2102

> <Gold.Rescore>
     Score         DG    S(hbond)    S(metal)    S(lipo)     H(rot)  DE(clash)    DE(int)     intcor
     14.06     -17.46       1.71        0.00      92.70       1.79       0.10       3.30       ----

> <Gold.Chemscore.Fitness>
14.0566

> <Gold.Chemscore.DG>
-17.4562

> <Gold.Chemscore.ZeroCoef>
-5.4800

> <Gold.Chemscore.Hbond>
1.7072

> <Gold.Chemscore.Metal>
0.0000

> <Gold.Chemscore.Lipo>
92.7033

> <Gold.Chemscore.Internal_Hbond>
0.0000

> <Gold.Chemscore.DEClash>
0.1009

> <Gold.Chemscore.DEInternal>
3.2986

> <Gold.Chemscore.Rot>
1.7860

> <Gold.Chemscore.Internal.Correction>
   9.000000E+99

> <Gold.Chemscore.Hbonds>
donor molecule, donor type, donor heavy atom, donor atom, acceptor molecule, acceptor atom, score
      P1  H  6896  6909       L1     6  0.45
      P1  H  7997  8009       L1    10  0.21

> <Gold.Chemscore.Hbond.Weighted>
-5.7019

> <Gold.Chemscore.Metal.Weighted>
-0.0000

> <Gold.Chemscore.Lipo.Weighted>
-10.8463

> <Gold.Chemscore.Internal_Hbond.Weighted>
0.0000

> <Gold.Chemscore.DEClash.Weighted>
0.1009

> <Gold.Chemscore.DEInternal.Weighted>
3.2986

> <Gold.Chemscore.Rot.Weighted>
4.5721

> <Gold.Chemscore.Internal.Correction.Weighted>
   9.000000E+99

> <Gold.Protein.RotatedTorsions>
[ 6907 6896 6895 6894 ] final  165.72 input  -60.11 | X-H torsion
[ 7974 7965 7964 7962 ] final   -7.45 input  175.53 | X-H torsion
[ 8008 7997 7996 7995 ] final  112.34 input   59.86 | X-H torsion
[ 10167 10162 10161 10158 ] final   42.01 input  -65.29 | X-H torsion
[ 10718 10713 10712 10709 ] final   -4.64 input   66.30 | X-H torsion
[ 10763 10752 10751 10750 ] final   82.37 input  -60.55 | X-H torsion
[ 11005 11000 10999 10996 ] final  123.75 input  -57.11 | X-H torsion

> <Gold.Protein.ActiveResidues>
 VAL166  LYS551  ARG553  GLY616  TRP617  ASP618  TYR619  PRO620  LYS621  CYS622 
 ASP623  PHE694  ASN695  SER759  ASP760  ASP761  ALA762  ILE779  LEU786  VAL792 
 PHE793  MET794  SER795  GLU796  ALA797  LYS798  CYS799  TRP800  GLU811  SER814 

> <Gold.Protein.RotatedAtoms>
  151.8901  133.3514  159.3794 H   0  0  0  0  0  0  0  0  0  0  0  0  # atno 6907 bound_to 6896
  150.7105  134.4933  159.5535 H   0  0  0  0  0  0  0  0  0  0  0  0  # atno 6908 bound_to 6896
  152.2501  134.8141  160.0498 H   0  0  0  0  0  0  0  0  0  0  0  0  # atno 6909 bound_to 6896
  146.2306  140.2321  142.8340 H   0  0  0  0  0  0  0  0  0  0  0  0  # atno 7974 bound_to 7965
  156.2185  140.3001  155.9897 H   0  0  0  0  0  0  0  0  0  0  0  0  # atno 8008 bound_to 7997
  155.2542  140.0427  157.3007 H   0  0  0  0  0  0  0  0  0  0  0  0  # atno 8009 bound_to 7997
  154.5805  140.2374  155.8069 H   0  0  0  0  0  0  0  0  0  0  0  0  # atno 8010 bound_to 7997
  140.3586  144.2257  150.6140 H   0  0  0  0  0  0  0  0  0  0  0  0  # atno 10167 bound_to 10162
  156.7583  130.5261  149.5790 H   0  0  0  0  0  0  0  0  0  0  0  0  # atno 10718 bound_to 10713
  153.1197  135.4730  154.9175 H   0  0  0  0  0  0  0  0  0  0  0  0  # atno 10763 bound_to 10752
  154.7563  135.3119  154.8465 H   0  0  0  0  0  0  0  0  0  0  0  0  # atno 10764 bound_to 10752
  153.9033  135.6873  153.4808 H   0  0  0  0  0  0  0  0  0  0  0  0  # atno 10765 bound_to 10752
  139.9327  134.9641  156.8307 H   0  0  0  0  0  0  0  0  0  0  0  0  # atno 11005 bound_to 11000
  144.9550  140.8217  143.5548 LP  0  0  0  0  0  0  0  0  0  0  0  0  # atno 17320 bound_to 7965
  145.2285  139.2126  143.5055 LP  0  0  0  0  0  0  0  0  0  0  0  0  # atno 17321 bound_to 7965
  140.5149  143.2281  151.8479 LP  0  0  0  0  0  0  0  0  0  0  0  0  # atno 17342 bound_to 10162
  139.4817  144.4906  151.9190 LP  0  0  0  0  0  0  0  0  0  0  0  0  # atno 17343 bound_to 10162
  156.1356  130.6209  151.0395 LP  0  0  0  0  0  0  0  0  0  0  0  0  # atno 17370 bound_to 10713
  157.6746  131.0853  150.7526 LP  0  0  0  0  0  0  0  0  0  0  0  0  # atno 17371 bound_to 10713
  140.6159  134.0039  155.7597 LP  0  0  0  0  0  0  0  0  0  0  0  0  # atno 17394 bound_to 11000
  141.0924  133.9895  157.3215 LP  0  0  0  0  0  0  0  0  0  0  0  0  # atno 17395 bound_to 11000

$$$$
