AV-unprocessed.smi:1433|AV-procd|sdf|5840|dock1
  -GOLD-   22720 5503D 1   1.00000     0.00000
 Structure written by MMmdl.
 44 45  0  0  0  0  0  0  0  0  1 V2000
  153.9737  141.3552  160.4373 C   0  0  0  0  0  0  0  0  0  0  0  0
  153.1162  142.1849  159.4761 C   0  0  1  0  0  0  0  0  0  0  0  0
  152.2334  141.2995  158.5780 C   0  0  0  0  0  0  0  0  0  0  0  0
  151.3434  142.0756  157.7094 N   0  0  0  0  0  0  0  0  0  0  0  0
  150.5043  141.2226  156.8350 C   0  0  1  0  0  0  0  0  0  0  0  0
  151.3436  140.2486  155.9666 C   0  0  0  0  0  0  0  0  0  0  0  0
  149.4356  140.4056  157.6129 C   0  0  0  0  0  0  0  0  0  0  0  0
  149.9996  139.2132  158.2336 N   0  0  0  0  0  0  0  0  0  0  0  0
  149.5693  137.9596  158.0300 C   0  0  0  0  0  0  0  0  0  0  0  0
  148.6716  137.6689  157.2401 O   0  0  0  0  0  0  0  0  0  0  0  0
  150.2567  136.8640  158.8474 C   0  0  0  0  0  0  0  0  0  0  0  0
  149.3100  136.1824  159.7137 N   0  0  0  0  0  0  0  0  0  0  0  0
  148.8078  134.9032  159.5942 C   0  0  0  0  0  0  0  0  0  0  0  0
  147.9396  134.7089  160.6301 C   0  0  0  0  0  0  0  0  0  0  0  0
  147.9780  135.9417  161.3395 C   0  0  0  0  0  0  0  0  0  0  0  0
  148.7983  136.8221  160.7890 N   0  0  0  0  0  0  0  0  0  0  0  0
  150.5435  142.9634  158.5613 C   0  0  0  0  0  0  0  0  0  0  0  0
  151.3873  143.8476  159.5007 C   0  0  2  0  0  0  0  0  0  0  0  0
  152.1048  144.9984  158.7742 C   0  0  0  0  0  0  0  0  0  0  0  0
  152.2933  143.0464  160.2549 O   0  0  0  0  0  0  0  0  0  0  0  0
  154.6365  140.6827  159.8925 H   0  0  0  0  0  0  0  0  0  0  0  0
  153.3526  140.7501  161.0983 H   0  0  0  0  0  0  0  0  0  0  0  0
  154.5942  141.9995  161.0608 H   0  0  0  0  0  0  0  0  0  0  0  0
  153.7832  142.7827  158.8543 H   0  0  0  0  0  0  0  0  0  0  0  0
  152.9097  140.6863  157.9862 H   0  0  0  0  0  0  0  0  0  0  0  0
  151.6449  140.6191  159.1956 H   0  0  0  0  0  0  0  0  0  0  0  0
  149.9643  141.8761  156.1477 H   0  0  0  0  0  0  0  0  0  0  0  0
  150.7264  139.5823  155.3645 H   0  0  0  0  0  0  0  0  0  0  0  0
  151.9873  139.6240  156.5870 H   0  0  0  0  0  0  0  0  0  0  0  0
  151.9725  140.7719  155.2481 H   0  0  0  0  0  0  0  0  0  0  0  0
  148.9663  141.0387  158.3684 H   0  0  0  0  0  0  0  0  0  0  0  0
  148.6442  140.0453  156.9579 H   0  0  0  0  0  0  0  0  0  0  0  0
  150.7449  139.3546  158.9005 H   0  0  0  0  0  0  0  0  0  0  0  0
  150.7132  136.1298  158.1821 H   0  0  0  0  0  0  0  0  0  0  0  0
  151.0583  137.2969  159.4480 H   0  0  0  0  0  0  0  0  0  0  0  0
  149.1049  134.2476  158.7886 H   0  0  0  0  0  0  0  0  0  0  0  0
  147.3642  133.8215  160.8474 H   0  0  0  0  0  0  0  0  0  0  0  0
  147.4370  136.2214  162.2316 H   0  0  0  0  0  0  0  0  0  0  0  0
  149.9276  143.6294  157.9596 H   0  0  0  0  0  0  0  0  0  0  0  0
  149.8579  142.3642  159.1628 H   0  0  0  0  0  0  0  0  0  0  0  0
  150.7116  144.3041  160.2244 H   0  0  0  0  0  0  0  0  0  0  0  0
  151.3838  145.6703  158.3081 H   0  0  0  0  0  0  0  0  0  0  0  0
  152.7675  144.6383  157.9875 H   0  0  0  0  0  0  0  0  0  0  0  0
  152.7011  145.5868  159.4716 H   0  0  0  0  0  0  0  0  0  0  0  0
  1  2  1  0  0  0  0
  1 21  1  0  0  0  0
  1 22  1  0  0  0  0
  1 23  1  0  0  0  0
  2 20  1  0  0  0  0
  2  3  1  0  0  0  0
  2 24  1  0  0  0  0
  3  4  1  0  0  0  0
  3 25  1  0  0  0  0
  3 26  1  0  0  0  0
  4  5  1  0  0  0  0
  4 17  1  0  0  0  0
  5  6  1  0  0  0  0
  5  7  1  0  0  0  0
  5 27  1  0  0  0  0
  6 28  1  0  0  0  0
  6 29  1  0  0  0  0
  6 30  1  0  0  0  0
  7  8  1  0  0  0  0
  7 31  1  0  0  0  0
  7 32  1  0  0  0  0
  8  9  1  0  0  0  0
  8 33  1  0  0  0  0
  9 10  2  0  0  0  0
  9 11  1  0  0  0  0
 11 12  1  0  0  0  0
 11 34  1  0  0  0  0
 11 35  1  0  0  0  0
 12 16  1  0  0  0  0
 12 13  1  0  0  0  0
 13 14  2  0  0  0  0
 13 36  1  0  0  0  0
 14 15  1  0  0  0  0
 14 37  1  0  0  0  0
 15 16  2  0  0  0  0
 15 38  1  0  0  0  0
 17 18  1  0  0  0  0
 17 39  1  0  0  0  0
 17 40  1  0  0  0  0
 18 19  1  0  0  0  0
 18 20  1  0  0  0  0
 18 41  1  0  0  0  0
 19 42  1  0  0  0  0
 19 43  1  0  0  0  0
 19 44  1  0  0  0  0
M  END
> <s_m_source_file>
AV-unprocessed.smi

> <i_m_source_file_index>
1433

> <i_lp_mmshare_version>
43012

> <i_f3d_flags>
0

> <s_epik_input>
W0NIM11bQ0BASF0xW0NIMl1OKFtDSDJdW0NASF0oTzEpW0NIM10pW0NASF0oW0NIM10pW0NIMl1bTkhdQyg9TylbQ0gyXW4yW2NIXVtjSF1bY0hdbjI=

> <s_epik_cmdline>
J2VwaWtfcHl0aG9uJywgJy1waCcsICc3LjAnLCAnLXRuJywgJzgnLCAnLW1hJywgJzIwMCcsICctbWV0YWxfYmluZGluZycsICctaW1hZScsICc8aW5maWxlLm1hZT4nLCAnLW9tYWUnLCAnPG91dGZpbGUubWFlPic=

> <r_lp_tautomer_probability>
1

> <r_epik_Ionization_Penalty>
0.196927

> <r_epik_Ionization_Penalty_Charging>
0

> <r_epik_Ionization_Penalty_Neutral>
0.196927

> <r_epik_State_Penalty>
0.186684

> <r_epik_Charging_Adjusted_Penalty>
0.186684

> <i_epik_Tot_Q>
0

> <i_epik_Tot_abs_Q>
0

> <r_epik_Metal_State_Penalty>
0.186682

> <b_epik_Metal_Only>
0

> <s_lp_Force_Field>
OPLS_2005

> <r_lp_Energy>
30.3055

> <b_lp_Chiralities_Consistent>
1

> <s_lp_Variant>
AV-unprocessed.smi:1433-6

> <Gold.Version>
5.8.1

> <Gold.Id.Protein>
6NUR|6NUR_protein|mol2

> <Gold.PLP.Fitness>
41.9324

> <Gold.PLP.PLP>
-37.9460

> <Gold.PLP.part.hbond>
-2.0000

> <Gold.PLP.part.metal>
0.0000

> <Gold.PLP.part.buried>
-5.4270

> <Gold.PLP.part.nonpolar>
-31.4778

> <Gold.PLP.part.repulsive>
0.2580

> <Gold.PLP.ligand.clash>
0.0000

> <Gold.PLP.ligand.torsion>
0.2990

> <Gold.PLP.Chemscore.Hbond>
1.5048

> <Gold.PLP.Chemscore.CHOScore>
0.0000

> <Gold.PLP.Chemscore.Metal>
0.0000

> <Gold.Chemscore.Hbonds>
donor molecule, donor type, donor heavy atom, donor atom, acceptor molecule, acceptor atom, score
      P1  H  6931  6943       L1    16  0.93

> <Gold.PLP.Chemscore.Internal.Correction>
0.0701

> <Gold.Rescore>
     Score         DG    S(hbond)    S(metal)    S(lipo)     H(rot)  DE(clash)    DE(int)     intcor
     16.13     -16.52       1.36        0.00      95.05       1.80       0.01       0.38       ----

> <Gold.Chemscore.Fitness>
16.1325

> <Gold.Chemscore.DG>
-16.5238

> <Gold.Chemscore.ZeroCoef>
-5.4800

> <Gold.Chemscore.Hbond>
1.3595

> <Gold.Chemscore.Metal>
0.0000

> <Gold.Chemscore.Lipo>
95.0504

> <Gold.Chemscore.Internal_Hbond>
0.0000

> <Gold.Chemscore.DEClash>
0.0102

> <Gold.Chemscore.DEInternal>
0.3810

> <Gold.Chemscore.Rot>
1.8038

> <Gold.Chemscore.Internal.Correction>
   9.000000E+99

> <Gold.Chemscore.Hbonds>
donor molecule, donor type, donor heavy atom, donor atom, acceptor molecule, acceptor atom, score
      P1  H  6931  6943       L1    16  0.71

> <Gold.Chemscore.Hbond.Weighted>
-4.5406

> <Gold.Chemscore.Metal.Weighted>
-0.0000

> <Gold.Chemscore.Lipo.Weighted>
-11.1209

> <Gold.Chemscore.Internal_Hbond.Weighted>
0.0000

> <Gold.Chemscore.DEClash.Weighted>
0.0102

> <Gold.Chemscore.DEInternal.Weighted>
0.3810

> <Gold.Chemscore.Rot.Weighted>
4.6178

> <Gold.Chemscore.Internal.Correction.Weighted>
   9.000000E+99

> <Gold.Protein.RotatedTorsions>
[ 6907 6896 6895 6894 ] final  -15.15 input  -60.11 | X-H torsion
[ 7974 7965 7964 7962 ] final  -38.21 input  175.53 | X-H torsion
[ 8008 7997 7996 7995 ] final -113.88 input   59.86 | X-H torsion
[ 10167 10162 10161 10158 ] final -138.81 input  -65.29 | X-H torsion
[ 10718 10713 10712 10709 ] final  104.47 input   66.30 | X-H torsion
[ 10763 10752 10751 10750 ] final  -55.93 input  -60.55 | X-H torsion
[ 11005 11000 10999 10996 ] final   12.82 input  -57.11 | X-H torsion

> <Gold.Protein.ActiveResidues>
 VAL166  LYS551  ARG553  GLY616  TRP617  ASP618  TYR619  PRO620  LYS621  CYS622 
 ASP623  PHE694  ASN695  SER759  ASP760  ASP761  ALA762  ILE779  LEU786  VAL792 
 PHE793  MET794  SER795  GLU796  ALA797  LYS798  CYS799  TRP800  GLU811  SER814 

> <Gold.Protein.RotatedAtoms>
  151.3284  135.0836  159.9329 H   0  0  0  0  0  0  0  0  0  0  0  0  # atno 6907 bound_to 6896
  152.5240  133.9567  159.7708 H   0  0  0  0  0  0  0  0  0  0  0  0  # atno 6908 bound_to 6896
  150.9901  133.6105  159.2739 H   0  0  0  0  0  0  0  0  0  0  0  0  # atno 6909 bound_to 6896
  146.0507  140.6485  142.9043 H   0  0  0  0  0  0  0  0  0  0  0  0  # atno 7974 bound_to 7965
  155.0276  140.0393  157.2461 H   0  0  0  0  0  0  0  0  0  0  0  0  # atno 8008 bound_to 7997
  154.7324  140.2733  155.6420 H   0  0  0  0  0  0  0  0  0  0  0  0  # atno 8009 bound_to 7997
  156.2845  140.2681  156.2028 H   0  0  0  0  0  0  0  0  0  0  0  0  # atno 8010 bound_to 7997
  139.8441  143.7283  152.2661 H   0  0  0  0  0  0  0  0  0  0  0  0  # atno 10167 bound_to 10162
  157.6739  131.0804  150.5711 H   0  0  0  0  0  0  0  0  0  0  0  0  # atno 10718 bound_to 10713
  154.1986  135.6415  153.5080 H   0  0  0  0  0  0  0  0  0  0  0  0  # atno 10763 bound_to 10752
  153.0017  135.5446  154.6340 H   0  0  0  0  0  0  0  0  0  0  0  0  # atno 10764 bound_to 10752
  154.5747  135.2920  155.0766 H   0  0  0  0  0  0  0  0  0  0  0  0  # atno 10765 bound_to 10752
  140.4877  134.0872  155.7764 H   0  0  0  0  0  0  0  0  0  0  0  0  # atno 11005 bound_to 11000
  144.7121  140.4076  143.7072 LP  0  0  0  0  0  0  0  0  0  0  0  0  # atno 17320 bound_to 7965
  145.6730  139.1603  143.2744 LP  0  0  0  0  0  0  0  0  0  0  0  0  # atno 17321 bound_to 7965
  139.7529  144.7529  151.0479 LP  0  0  0  0  0  0  0  0  0  0  0  0  # atno 17342 bound_to 10162
  140.7795  143.4839  150.9982 LP  0  0  0  0  0  0  0  0  0  0  0  0  # atno 17343 bound_to 10162
  156.6012  130.4355  149.5896 LP  0  0  0  0  0  0  0  0  0  0  0  0  # atno 17370 bound_to 10713
  156.2504  130.6904  151.1640 LP  0  0  0  0  0  0  0  0  0  0  0  0  # atno 17371 bound_to 10713
  141.1500  133.8986  157.2122 LP  0  0  0  0  0  0  0  0  0  0  0  0  # atno 17394 bound_to 11000
  139.9788  135.0105  156.9698 LP  0  0  0  0  0  0  0  0  0  0  0  0  # atno 17395 bound_to 11000

$$$$
