AV-unprocessed.smi:232|AV-procd|sdf|1779|dock6
  -GOLD-   2262020323D 1   1.00000     0.00000
 Structure written by MMmdl.
 52 55  0  0  0  0  0  0  0  0  1 V2000
  150.7556  141.4831  156.1059 C   0  0  0  0  0  0  0  0  0  0  0  0
  150.4055  140.3026  155.1898 C   0  0  0  0  0  0  0  0  0  0  0  0
  149.0213  140.4326  154.5284 C   0  0  2  0  0  0  0  0  0  0  0  0
  148.6843  141.8750  154.1094 C   0  0  0  0  0  0  0  0  0  0  0  0
  147.1891  141.9999  154.3840 C   0  0  0  0  0  0  0  0  0  0  0  0
  147.0437  141.1398  155.6350 C   0  0  1  0  0  0  0  0  0  0  0  0
  145.5894  140.8125  156.0294 C   0  0  0  0  0  0  0  0  0  0  0  0
  147.9380  139.9998  155.4199 N   0  0  0  0  0  0  0  0  0  0  0  0
  147.3759  138.7992  155.1394 C   0  0  0  0  0  0  0  0  0  0  0  0
  147.3111  137.8266  156.0874 N   0  0  0  0  0  0  0  0  0  0  0  0
  146.7588  136.6449  155.7946 C   0  0  0  0  0  0  0  0  0  0  0  0
  146.2270  136.2340  154.6407 N   0  0  0  0  0  0  0  0  0  0  0  0
  146.3025  137.2067  153.6875 C   0  0  0  0  0  0  0  0  0  0  0  0
  146.8602  138.5048  153.8508 C   0  0  0  0  0  0  0  0  0  0  0  0
  146.7661  139.2194  152.6635 N   0  0  0  0  0  0  0  0  0  0  0  0
  146.1787  138.3907  151.8434 C   0  0  0  0  0  0  0  0  0  0  0  0
  145.8614  137.1620  152.3777 N   0  0  0  0  0  0  0  0  0  0  0  0
  145.1973  136.0622  151.7020 C   0  0  0  0  0  0  0  0  0  0  0  0
  146.1872  134.9664  151.2621 C   0  0  1  0  0  0  0  0  0  0  0  0
  147.0865  134.6571  152.3102 O   0  0  0  0  0  0  0  0  0  0  0  0
  145.4834  133.6893  150.7616 C   0  0  1  0  0  0  0  0  0  0  0  0
  144.3163  133.8910  149.7911 C   0  0  0  0  0  0  0  0  0  0  0  0
  144.2848  132.5537  149.0859 C   0  0  0  0  0  0  0  0  0  0  0  0
  145.7720  132.2323  148.9628 C   0  0  0  0  0  0  0  0  0  0  0  0
  146.3913  132.8008  150.1137 O   0  0  0  0  0  0  0  0  0  0  0  0
  151.7137  141.3190  156.5993 H   0  0  0  0  0  0  0  0  0  0  0  0
  150.0010  141.6169  156.8813 H   0  0  0  0  0  0  0  0  0  0  0  0
  150.8300  142.4151  155.5456 H   0  0  0  0  0  0  0  0  0  0  0  0
  151.1758  140.1887  154.4260 H   0  0  0  0  0  0  0  0  0  0  0  0
  150.4282  139.3892  155.7851 H   0  0  0  0  0  0  0  0  0  0  0  0
  149.0309  139.8290  153.6203 H   0  0  0  0  0  0  0  0  0  0  0  0
  149.2241  142.5889  154.7335 H   0  0  0  0  0  0  0  0  0  0  0  0
  148.9414  142.0823  153.0703 H   0  0  0  0  0  0  0  0  0  0  0  0
  146.8699  143.0311  154.5361 H   0  0  0  0  0  0  0  0  0  0  0  0
  146.6143  141.5785  153.5580 H   0  0  0  0  0  0  0  0  0  0  0  0
  147.4777  141.6922  156.4697 H   0  0  0  0  0  0  0  0  0  0  0  0
  145.0329  141.7277  156.2317 H   0  0  0  0  0  0  0  0  0  0  0  0
  145.5523  140.2020  156.9321 H   0  0  0  0  0  0  0  0  0  0  0  0
  145.0607  140.2802  155.2381 H   0  0  0  0  0  0  0  0  0  0  0  0
  146.7391  135.9265  156.6007 H   0  0  0  0  0  0  0  0  0  0  0  0
  145.9528  138.6569  150.8211 H   0  0  0  0  0  0  0  0  0  0  0  0
  144.4387  135.6509  152.3692 H   0  0  0  0  0  0  0  0  0  0  0  0
  144.6685  136.4633  150.8364 H   0  0  0  0  0  0  0  0  0  0  0  0
  146.7909  135.3572  150.4418 H   0  0  0  0  0  0  0  0  0  0  0  0
  147.9210  135.0540  152.1122 H   0  0  0  0  0  0  0  0  0  0  0  0
  145.1030  133.1460  151.6284 H   0  0  0  0  0  0  0  0  0  0  0  0
  143.3805  134.1319  150.2961 H   0  0  0  0  0  0  0  0  0  0  0  0
  144.5248  134.6791  149.0669 H   0  0  0  0  0  0  0  0  0  0  0  0
  143.7892  131.8107  149.7124 H   0  0  0  0  0  0  0  0  0  0  0  0
  143.7740  132.5870  148.1232 H   0  0  0  0  0  0  0  0  0  0  0  0
  145.9638  131.1615  148.8938 H   0  0  0  0  0  0  0  0  0  0  0  0
  146.1897  132.7095  148.0755 H   0  0  0  0  0  0  0  0  0  0  0  0
  1  2  1  0  0  0  0
  1 26  1  0  0  0  0
  1 27  1  0  0  0  0
  1 28  1  0  0  0  0
  2  3  1  0  0  0  0
  2 29  1  0  0  0  0
  2 30  1  0  0  0  0
  3  8  1  0  0  0  0
  3  4  1  0  0  0  0
  3 31  1  0  0  0  0
  4  5  1  0  0  0  0
  4 32  1  0  0  0  0
  4 33  1  0  0  0  0
  5  6  1  0  0  0  0
  5 34  1  0  0  0  0
  5 35  1  0  0  0  0
  6  7  1  0  0  0  0
  6  8  1  0  0  0  0
  6 36  1  0  0  0  0
  7 37  1  0  0  0  0
  7 38  1  0  0  0  0
  7 39  1  0  0  0  0
  8  9  1  0  0  0  0
  9 14  1  0  0  0  0
  9 10  2  0  0  0  0
 10 11  1  0  0  0  0
 11 12  2  0  0  0  0
 11 40  1  0  0  0  0
 12 13  1  0  0  0  0
 13 17  1  0  0  0  0
 13 14  2  0  0  0  0
 14 15  1  0  0  0  0
 15 16  2  0  0  0  0
 16 17  1  0  0  0  0
 16 41  1  0  0  0  0
 17 18  1  0  0  0  0
 18 19  1  0  0  0  0
 18 42  1  0  0  0  0
 18 43  1  0  0  0  0
 19 20  1  0  0  0  0
 19 21  1  0  0  0  0
 19 44  1  0  0  0  0
 20 45  1  0  0  0  0
 21 25  1  0  0  0  0
 21 22  1  0  0  0  0
 21 46  1  0  0  0  0
 22 23  1  0  0  0  0
 22 47  1  0  0  0  0
 22 48  1  0  0  0  0
 23 24  1  0  0  0  0
 23 49  1  0  0  0  0
 23 50  1  0  0  0  0
 24 25  1  0  0  0  0
 24 51  1  0  0  0  0
 24 52  1  0  0  0  0
M  END
> <s_m_source_file>
AV-unprocessed.smi

> <i_m_source_file_index>
232

> <i_lp_mmshare_version>
43012

> <i_f3d_flags>
0

> <s_epik_input>
W0NIM11bQ0gyXVtDQEBIXTFbQ0gyXVtDSDJdW0NAQEhdKFtDSDNdKU4xYyhuW2NIXW4yKWMoYzIzKW5bY0hdbjNbQ0gyXVtDQEhdKFtPSF0pW0NAQEhdNFtDSDJdW0NIMl1bQ0gyXU80

> <s_epik_cmdline>
J2VwaWtfcHl0aG9uJywgJy1waCcsICc3LjAnLCAnLXRuJywgJzgnLCAnLW1hJywgJzIwMCcsICctbWV0YWxfYmluZGluZycsICctaW1hZScsICc8aW5maWxlLm1hZT4nLCAnLW9tYWUnLCAnPG91dGZpbGUubWFlPic=

> <r_lp_tautomer_probability>
1

> <r_epik_Ionization_Penalty>
0.00258048

> <r_epik_Ionization_Penalty_Charging>
0

> <r_epik_Ionization_Penalty_Neutral>
0.00258048

> <r_epik_State_Penalty>
0.00168551

> <r_epik_Charging_Adjusted_Penalty>
0.00168551

> <i_epik_Tot_Q>
0

> <i_epik_Tot_abs_Q>
0

> <r_epik_Metal_State_Penalty>
-0

> <b_epik_Metal_Only>
0

> <s_lp_Force_Field>
OPLS_2005

> <r_lp_Energy>
58.3384

> <b_lp_Chiralities_Consistent>
1

> <s_lp_Variant>
AV-unprocessed.smi:232-13

> <Gold.Version>
5.8.1

> <Gold.Id.Protein>
6NUR|6NUR_protein|mol2

> <Gold.PLP.Fitness>
41.0836

> <Gold.PLP.PLP>
-37.4029

> <Gold.PLP.part.hbond>
-1.0000

> <Gold.PLP.part.metal>
0.0000

> <Gold.PLP.part.buried>
-0.4375

> <Gold.PLP.part.nonpolar>
-37.6422

> <Gold.PLP.part.repulsive>
0.5584

> <Gold.PLP.ligand.clash>
0.0000

> <Gold.PLP.ligand.torsion>
0.9206

> <Gold.PLP.Chemscore.Hbond>
1.0000

> <Gold.PLP.Chemscore.CHOScore>
0.7687

> <Gold.PLP.Chemscore.Metal>
0.0000

> <Gold.Chemscore.Hbonds>
donor molecule, donor type, donor heavy atom, donor atom, acceptor molecule, acceptor atom, score
      L1  H    20    45       P1  7948  1.00
      L1  C    16    41       P1 10171  0.95

> <Gold.PLP.Chemscore.Internal.Correction>
0.2160

> <Gold.Rescore>
     Score         DG    S(hbond)    S(metal)    S(lipo)     H(rot)  DE(clash)    DE(int)     intcor
     11.28     -13.56       0.94        0.00      95.37       2.43       1.42       0.86       ----

> <Gold.Chemscore.Fitness>
11.2821

> <Gold.Chemscore.DG>
-13.5600

> <Gold.Chemscore.ZeroCoef>
-5.4800

> <Gold.Chemscore.Hbond>
0.9377

> <Gold.Chemscore.Metal>
0.0000

> <Gold.Chemscore.Lipo>
95.3744

> <Gold.Chemscore.Internal_Hbond>
0.0000

> <Gold.Chemscore.DEClash>
1.4187

> <Gold.Chemscore.DEInternal>
0.8592

> <Gold.Chemscore.Rot>
2.4260

> <Gold.Chemscore.Internal.Correction>
   9.000000E+99

> <Gold.Chemscore.Hbonds>
donor molecule, donor type, donor heavy atom, donor atom, acceptor molecule, acceptor atom, score
      L1  H    20    45       P1  7948  0.74

> <Gold.Chemscore.Hbond.Weighted>
-3.1319

> <Gold.Chemscore.Metal.Weighted>
-0.0000

> <Gold.Chemscore.Lipo.Weighted>
-11.1588

> <Gold.Chemscore.Internal_Hbond.Weighted>
0.0000

> <Gold.Chemscore.DEClash.Weighted>
1.4187

> <Gold.Chemscore.DEInternal.Weighted>
0.8592

> <Gold.Chemscore.Rot.Weighted>
6.2107

> <Gold.Chemscore.Internal.Correction.Weighted>
   9.000000E+99

> <Gold.Protein.RotatedTorsions>
[ 6907 6896 6895 6894 ] final  149.65 input  -60.11 | X-H torsion
[ 7974 7965 7964 7962 ] final  -24.07 input  175.53 | X-H torsion
[ 8008 7997 7996 7995 ] final  -41.85 input   59.86 | X-H torsion
[ 10167 10162 10161 10158 ] final   -2.18 input  -65.29 | X-H torsion
[ 10718 10713 10712 10709 ] final  118.08 input   66.30 | X-H torsion
[ 10763 10752 10751 10750 ] final  -14.54 input  -60.55 | X-H torsion
[ 11005 11000 10999 10996 ] final   46.19 input  -57.11 | X-H torsion

> <Gold.Protein.ActiveResidues>
 VAL166  LYS551  ARG553  GLY616  TRP617  ASP618  TYR619  PRO620  LYS621  CYS622 
 ASP623  PHE694  ASN695  SER759  ASP760  ASP761  ALA762  ILE779  LEU786  VAL792 
 PHE793  MET794  SER795  GLU796  ALA797  LYS798  CYS799  TRP800  GLU811  SER814 

> <Gold.Protein.RotatedAtoms>
  152.1252  133.4376  159.4694 H   0  0  0  0  0  0  0  0  0  0  0  0  # atno 6907 bound_to 6896
  150.6874  134.2487  159.4511 H   0  0  0  0  0  0  0  0  0  0  0  0  # atno 6908 bound_to 6896
  152.0367  134.9735  160.0624 H   0  0  0  0  0  0  0  0  0  0  0  0  # atno 6909 bound_to 6896
  146.1578  140.4701  142.8584 H   0  0  0  0  0  0  0  0  0  0  0  0  # atno 7974 bound_to 7965
  154.4002  140.1489  156.3258 H   0  0  0  0  0  0  0  0  0  0  0  0  # atno 8008 bound_to 7997
  155.8488  140.3459  155.5658 H   0  0  0  0  0  0  0  0  0  0  0  0  # atno 8009 bound_to 7997
  155.8007  140.0870  157.1949 H   0  0  0  0  0  0  0  0  0  0  0  0  # atno 8010 bound_to 7997
  140.6840  143.6688  150.8203 H   0  0  0  0  0  0  0  0  0  0  0  0  # atno 10167 bound_to 10162
  157.6054  131.1044  150.7706 H   0  0  0  0  0  0  0  0  0  0  0  0  # atno 10718 bound_to 10713
  153.5298  135.7015  153.5689 H   0  0  0  0  0  0  0  0  0  0  0  0  # atno 10763 bound_to 10752
  153.3701  135.3947  155.1782 H   0  0  0  0  0  0  0  0  0  0  0  0  # atno 10764 bound_to 10752
  154.8686  135.3810  154.4794 H   0  0  0  0  0  0  0  0  0  0  0  0  # atno 10765 bound_to 10752
  140.1391  134.4606  155.8463 H   0  0  0  0  0  0  0  0  0  0  0  0  # atno 11005 bound_to 11000
  144.7986  140.6170  143.6493 LP  0  0  0  0  0  0  0  0  0  0  0  0  # atno 17320 bound_to 7965
  145.4666  139.1507  143.3837 LP  0  0  0  0  0  0  0  0  0  0  0  0  # atno 17321 bound_to 7965
  140.0392  143.5363  152.2725 LP  0  0  0  0  0  0  0  0  0  0  0  0  # atno 17342 bound_to 10162
  139.6184  144.7624  151.2794 LP  0  0  0  0  0  0  0  0  0  0  0  0  # atno 17343 bound_to 10162
  156.8095  130.4947  149.5358 LP  0  0  0  0  0  0  0  0  0  0  0  0  # atno 17370 bound_to 10713
  156.1139  130.6060  151.0090 LP  0  0  0  0  0  0  0  0  0  0  0  0  # atno 17371 bound_to 10713
  141.2183  133.6826  156.7213 LP  0  0  0  0  0  0  0  0  0  0  0  0  # atno 17394 bound_to 11000
  140.2745  134.8366  157.3877 LP  0  0  0  0  0  0  0  0  0  0  0  0  # atno 17395 bound_to 11000

$$$$
