#       Name:                AV-unprocessed.smi:2931
#       Creating user name   scv26
#       Creation time:       Fri Mar 27 16:14:14 2020


#       File generated by GOLD software.
#

@<TRIPOS>MOLECULE
AV-unprocessed.smi:2931
    45    46     1
SMALL
NO_CHARGES


@<TRIPOS>ATOM
      1 ****        -3.0567   0.3102   1.6644 C.3            1 S1                 0.0000
      2 ****        -2.5493   0.4648   0.2843 N.4            1 S1                 1.0000
      3 ****        -3.5614   0.0912  -0.7352 C.3            1 S1                 0.0000
      4 ****        -2.9601   0.1325  -2.1502 C.3            1 S1                 0.0000
      5 ****        -2.3363   1.5058  -2.4505 C.3            1 S1                 0.0000
      6 ****        -1.3284   1.9074  -1.3582 C.3            1 S1                 0.0000
      7 ****        -0.1325   1.0694  -1.4497 N.am           1 S1                 0.0000
      8 ****         1.0635   1.3741  -0.9272 C.2            1 S1                 0.0000
      9 ****         1.2857   2.3834  -0.2596 O.2            1 S1                 0.0000
     10 ****         1.9869   0.4479  -1.2192 N.am           1 S1                 0.0000
     11 ****         3.3956   0.5201  -0.8396 C.3            1 S1                 0.0000
     12 ****         3.6382   0.2837   0.6650 C.3            1 S1                 0.0000
     13 ****         2.9820  -0.9778   1.1996 C.ar           1 S1                 0.0000
     14 ****         1.8571  -0.8979   2.0509 C.ar           1 S1                 0.0000
     15 ****         1.2739  -2.0874   2.5332 C.ar           1 S1                 0.0000
     16 ****         1.7914  -3.2834   2.1765 N.pl3          1 S1                 1.0000
     17 ****         2.8643  -3.4039   1.3642 C.ar           1 S1                 0.0000
     18 ****         3.4907  -2.2490   0.8531 C.ar           1 S1                 0.0000
     19 ****        -1.9898   1.8174   0.0352 C.3            1 S1                 0.0000
     20 ****        -3.8920   0.9860   1.8522 H              1 S1                 0.0000
     21 ****        -2.2715   0.5258   2.3898 H              1 S1                 0.0000
     22 ****        -3.3970  -0.7112   1.8370 H              1 S1                 0.0000
     23 ****        -3.9381  -0.9116  -0.5292 H              1 S1                 0.0000
     24 ****        -4.4139   0.7693  -0.6691 H              1 S1                 0.0000
     25 ****        -2.2044  -0.6477  -2.2488 H              1 S1                 0.0000
     26 ****        -3.7307  -0.0935  -2.8878 H              1 S1                 0.0000
     27 ****        -1.8585   1.4991  -3.4311 H              1 S1                 0.0000
     28 ****        -3.1278   2.2547  -2.5023 H              1 S1                 0.0000
     29 ****        -1.0290   2.9415  -1.5389 H              1 S1                 0.0000
     30 ****        -0.2115   0.2207  -1.9909 H              1 S1                 0.0000
     31 ****         1.7077  -0.3450  -1.7786 H              1 S1                 0.0000
     32 ****         3.9249  -0.2392  -1.4158 H              1 S1                 0.0000
     33 ****         3.8150   1.4804  -1.1434 H              1 S1                 0.0000
     34 ****         4.7103   0.2264   0.8565 H              1 S1                 0.0000
     35 ****         3.2811   1.1420   1.2353 H              1 S1                 0.0000
     36 ****         1.4477   0.0613   2.3335 H              1 S1                 0.0000
     37 ****         0.4173  -2.1182   3.1907 H              1 S1                 0.0000
     38 ****         3.1881  -4.4122   1.1507 H              1 S1                 0.0000
     39 ****         4.3504  -2.3389   0.2049 H              1 S1                 0.0000
     40 ****        -2.7891   2.5561   0.1147 H              1 S1                 0.0000
     41 ****        -1.2653   2.0640   0.8124 H              1 S1                 0.0000
     42 ****        -1.7836  -0.1858   0.1845 H              1 S1                 0.0000
     43 ****         1.3563  -4.1325   2.5387 H              1 S1                 0.0000
     44 ****         0.5493   3.0353  -0.0786 LP             1 S1                 0.0000
     45 ****         2.2027   2.5519   0.1019 LP             1 S1                 0.0000
@<TRIPOS>BOND
    1    1    2 1     
    2    1   20 1     
    3    1   21 1     
    4    1   22 1     
    5    2   19 1     
    6    2    3 1     
    7    2   42 1     
    8    3    4 1     
    9    3   23 1     
   10    3   24 1     
   11    4    5 1     
   12    4   25 1     
   13    4   26 1     
   14    5    6 1     
   15    5   27 1     
   16    5   28 1     
   17    6    7 1     
   18    6   19 1     
   19    6   29 1     
   20    7    8 am    
   21    7   30 1     
   22    8    9 2     
   23    8   10 am    
   24   10   11 1     
   25   10   31 1     
   26   11   12 1     
   27   11   32 1     
   28   11   33 1     
   29   12   13 1     
   30   12   34 1     
   31   12   35 1     
   32   13   18 ar    
   33   13   14 ar    
   34   14   15 ar    
   35   14   36 1     
   36   15   16 ar    
   37   15   37 1     
   38   16   17 ar    
   39   16   43 1     
   40   17   18 ar    
   41   17   38 1     
   42   18   39 1     
   43   19   40 1     
   44   19   41 1     
   45    9   44 1     
   46    9   45 1     
@<TRIPOS>SUBSTRUCTURE
      1 S1             1
@<TRIPOS>SET
LONE_PAIRS      STATIC     ATOMS    <user>   **** ""
2 44 45
DONOR_HYDROGENS      STATIC     ATOMS    <user>   **** ""
4 42 30 31 43
ATOM$BLUE        STATIC     ATOMS    COLORGROUP SYSTEM
2 44 45
ATOM$RED        STATIC     ATOMS    COLORGROUP SYSTEM
4 42 30 31 43
