#       Name:                AV-unprocessed.smi:516
#       Creating user name   scv26
#       Creation time:       Thu Mar 26 23:26:07 2020


#       File generated by GOLD software.
#

@<TRIPOS>MOLECULE
AV-unprocessed.smi:516
    54    56     1
SMALL
NO_CHARGES


@<TRIPOS>ATOM
      1 ****        -3.9841   1.8185  -0.6808 C.3            1 S1                 0.0000
      2 ****        -3.3499   0.6089  -1.0567 O.3            1 S1                 0.0000
      3 ****        -1.9364   0.7024  -1.0091 C.3            1 S1                 0.0000
      4 ****        -1.3353  -0.6531  -1.4065 C.3            1 S1                 0.0000
      5 ****         0.1202  -0.6531  -1.3064 N.pl3          1 S1                 0.0000
      6 ****         0.8767  -1.1250  -0.2805 C.2            1 S1                 0.0000
      7 ****         0.2942  -1.7396   0.9584 C.3            1 S1                 0.0000
      8 ****        -0.4626  -0.8005   1.7837 N.3            1 S1                 0.0000
      9 ****        -1.1659  -1.4816   2.8630 C.3            1 S1                 0.0000
     10 ****        -1.9840  -0.4975   3.7169 C.3            1 S1                 0.0000
     11 ****        -1.1261   0.5175   4.2292 O.3            1 S1                 0.0000
     12 ****        -0.4478   1.2349   3.2024 C.3            1 S1                 0.0000
     13 ****         0.3738   0.2576   2.3444 C.3            1 S1                 0.0000
     14 ****         2.1931  -0.9914  -0.4619 N.2            1 S1                 0.0000
     15 ****         2.2772  -0.3798  -1.7037 C.2            1 S1                 0.0000
     16 ****         1.0446  -0.1642  -2.2324 C.2            1 S1                 0.0000
     17 ****         0.8114   0.4775  -3.5432 C.2            1 S1                 0.0000
     18 ****        -0.3283   0.6501  -3.9709 O.2            1 S1                 0.0000
     19 ****         1.9844   0.8271  -4.1609 N.pl3          1 S1                -1.0000
     20 ****         3.2552   0.6282  -3.6628 C.2            1 S1                 0.0000
     21 ****         4.2546   0.9797  -4.2901 O.2            1 S1                 0.0000
     22 ****         3.4209   0.0265  -2.4404 N.am           1 S1                 0.0000
     23 ****         4.7361  -0.2209  -1.8416 C.3            1 S1                 0.0000
     24 ****        -5.0658   1.6980  -0.7371 H              1 S1                 0.0000
     25 ****        -3.7013   2.6355  -1.3458 H              1 S1                 0.0000
     26 ****        -3.7291   2.0953   0.3430 H              1 S1                 0.0000
     27 ****        -1.5901   1.4857  -1.6846 H              1 S1                 0.0000
     28 ****        -1.6191   0.9777  -0.0028 H              1 S1                 0.0000
     29 ****        -1.7414  -1.4383  -0.7700 H              1 S1                 0.0000
     30 ****        -1.6244  -0.9208  -2.4224 H              1 S1                 0.0000
     31 ****        -0.3472  -2.5664   0.6517 H              1 S1                 0.0000
     32 ****         1.1002  -2.1840   1.5444 H              1 S1                 0.0000
     33 ****        -1.8317  -2.2401   2.4499 H              1 S1                 0.0000
     34 ****        -0.4507  -2.0056   3.4989 H              1 S1                 0.0000
     35 ****        -2.7814  -0.0447   3.1253 H              1 S1                 0.0000
     36 ****        -2.4579  -1.0184   4.5489 H              1 S1                 0.0000
     37 ****        -1.1707   1.7729   2.5869 H              1 S1                 0.0000
     38 ****         0.2042   1.9804   3.6575 H              1 S1                 0.0000
     39 ****         1.1671  -0.1799   2.9524 H              1 S1                 0.0000
     40 ****         0.8640   0.8152   1.5458 H              1 S1                 0.0000
     41 ****         5.5789   0.0800  -2.4642 H              1 S1                 0.0000
     42 ****         4.8536  -1.2844  -1.6314 H              1 S1                 0.0000
     43 ****         4.8200   0.3177  -0.8973 H              1 S1                 0.0000
     44 ****        -3.6252   0.3785  -1.9900 LP             1 S1                 0.0000
     45 ****        -3.6450  -0.1155  -0.4337 LP             1 S1                 0.0000
     46 ****        -1.1291  -0.3776   1.1698 LP             1 S1                 0.0000
     47 ****        -0.4452   0.0905   4.8242 LP             1 S1                 0.0000
     48 ****        -1.6754   1.1625   4.7605 LP             1 S1                 0.0000
     49 ****         2.9364  -1.2653   0.1485 LP             1 S1                 0.0000
     50 ****        -1.1155   0.3546  -3.4297 LP             1 S1                 0.0000
     51 ****        -0.4680   1.0860  -4.8600 LP             1 S1                 0.0000
     52 ****         1.9119   1.2673  -5.0559 LP             1 S1                 0.0000
     53 ****         4.1556   1.4206  -5.1822 LP             1 S1                 0.0000
     54 ****         5.1654   0.8244  -3.9075 LP             1 S1                 0.0000
@<TRIPOS>BOND
    1    1    2 1     
    2    1   24 1     
    3    1   25 1     
    4    1   26 1     
    5    2    3 1     
    6    3    4 1     
    7    3   27 1     
    8    3   28 1     
    9    4    5 1     
   10    4   29 1     
   11    4   30 1     
   12    5   16 1     
   13    5    6 1     
   14    6    7 1     
   15    6   14 2     
   16    7    8 1     
   17    7   31 1     
   18    7   32 1     
   19    8   13 1     
   20    8    9 1     
   21    9   10 1     
   22    9   33 1     
   23    9   34 1     
   24   10   11 1     
   25   10   35 1     
   26   10   36 1     
   27   11   12 1     
   28   12   13 1     
   29   12   37 1     
   30   12   38 1     
   31   13   39 1     
   32   13   40 1     
   33   14   15 1     
   34   15   22 1     
   35   15   16 2     
   36   16   17 1     
   37   17   18 2     
   38   17   19 1     
   39   19   20 1     
   40   20   21 2     
   41   20   22 am    
   42   22   23 1     
   43   23   41 1     
   44   23   42 1     
   45   23   43 1     
   46    2   44 1     
   47    2   45 1     
   48    8   46 1     
   49   11   47 1     
   50   11   48 1     
   51   14   49 1     
   52   18   50 1     
   53   18   51 1     
   54   19   52 1     
   55   21   53 1     
   56   21   54 1     
@<TRIPOS>SUBSTRUCTURE
      1 S1             1
@<TRIPOS>SET
LONE_PAIRS      STATIC     ATOMS    <user>   **** ""
11 44 45 46 47 48 49 50 51 52 53 54
ATOM$BLUE        STATIC     ATOMS    COLORGROUP SYSTEM
11 44 45 46 47 48 49 50 51 52 53 54
