AV-unprocessed.smi:970|AV-procd|sdf|4292|dock6
  -GOLD-   22720 2193D 1   1.00000     0.00000
 Structure written by MMmdl.
 31 31  0  0  0  0  0  0  0  0  1 V2000
  142.0207  137.5127  153.0973 C   0  0  0  0  0  0  0  0  0  0  0  0
  143.2431  137.5816  152.3120 N   0  0  0  0  0  0  0  0  0  0  0  0
  144.4515  137.2175  152.7641 C   0  0  0  0  0  0  0  0  0  0  0  0
  144.6435  136.7956  153.9061 O   0  0  0  0  0  0  0  0  0  0  0  0
  145.6210  137.3694  151.7771 C   0  0  1  0  0  0  0  0  0  0  0  0
  146.6109  138.3886  152.3652 C   0  0  0  0  0  0  0  0  0  0  0  0
  146.3221  136.0966  151.6219 N   0  0  0  0  0  0  0  0  0  0  0  0
  145.7564  134.9398  151.2400 C   0  0  0  0  0  0  0  0  0  0  0  0
  144.5706  134.8453  150.9206 O   0  0  0  0  0  0  0  0  0  0  0  0
  146.6749  133.7083  151.2326 C   0  0  2  0  0  0  0  0  0  0  0  0
  145.9497  132.4236  150.7823 C   0  0  0  0  0  0  0  0  0  0  0  0
  147.3130  133.5570  152.5349 N   0  0  0  0  0  0  0  0  0  0  0  0
  148.2467  132.6914  152.9362 C   0  0  0  0  0  0  0  0  0  0  0  0
  148.6468  132.8708  154.1870 N   0  0  0  0  0  0  0  0  0  0  0  0
  147.8773  133.9491  154.5194 C   0  0  0  0  0  0  0  0  0  0  0  0
  147.0681  134.4061  153.5640 N   0  0  0  0  0  0  0  0  0  0  0  0
  141.1762  137.8602  152.5020 H   0  0  0  0  0  0  0  0  0  0  0  0
  142.0939  138.1413  153.9858 H   0  0  0  0  0  0  0  0  0  0  0  0
  141.8179  136.4877  153.4108 H   0  0  0  0  0  0  0  0  0  0  0  0
  143.1661  137.9202  151.3638 H   0  0  0  0  0  0  0  0  0  0  0  0
  145.2598  137.7226  150.8090 H   0  0  0  0  0  0  0  0  0  0  0  0
  146.1404  139.3627  152.5049 H   0  0  0  0  0  0  0  0  0  0  0  0
  147.4611  138.5336  151.6981 H   0  0  0  0  0  0  0  0  0  0  0  0
  147.0022  138.0661  153.3315 H   0  0  0  0  0  0  0  0  0  0  0  0
  147.3003  136.0859  151.8712 H   0  0  0  0  0  0  0  0  0  0  0  0
  147.4686  133.8999  150.5087 H   0  0  0  0  0  0  0  0  0  0  0  0
  145.5315  132.5393  149.7820 H   0  0  0  0  0  0  0  0  0  0  0  0
  145.1317  132.1566  151.4527 H   0  0  0  0  0  0  0  0  0  0  0  0
  146.6391  131.5795  150.7514 H   0  0  0  0  0  0  0  0  0  0  0  0
  148.6462  131.9169  152.2980 H   0  0  0  0  0  0  0  0  0  0  0  0
  147.9182  134.4144  155.4932 H   0  0  0  0  0  0  0  0  0  0  0  0
  1  2  1  0  0  0  0
  1 17  1  0  0  0  0
  1 18  1  0  0  0  0
  1 19  1  0  0  0  0
  2  3  1  0  0  0  0
  2 20  1  0  0  0  0
  3  4  2  0  0  0  0
  3  5  1  0  0  0  0
  5  6  1  0  0  0  0
  5  7  1  0  0  0  0
  5 21  1  0  0  0  0
  6 22  1  0  0  0  0
  6 23  1  0  0  0  0
  6 24  1  0  0  0  0
  7  8  1  0  0  0  0
  7 25  1  0  0  0  0
  8  9  2  0  0  0  0
  8 10  1  0  0  0  0
 10 11  1  0  0  0  0
 10 12  1  0  0  0  0
 10 26  1  0  0  0  0
 11 27  1  0  0  0  0
 11 28  1  0  0  0  0
 11 29  1  0  0  0  0
 12 16  1  0  0  0  0
 12 13  1  0  0  0  0
 13 14  2  0  0  0  0
 13 30  1  0  0  0  0
 14 15  1  0  0  0  0
 15 16  2  0  0  0  0
 15 31  1  0  0  0  0
M  END
> <s_m_source_file>
AV-unprocessed.smi

> <i_m_source_file_index>
970

> <i_lp_mmshare_version>
43012

> <i_f3d_flags>
0

> <s_epik_input>
W0NIM11bTkhdQyg9TylbQ0BIXShbQ0gzXSlbTkhdQyg9TylbQ0BIXShbQ0gzXSluMVtjSF1uW2NIXW4x

> <s_epik_cmdline>
J2VwaWtfcHl0aG9uJywgJy1waCcsICc3LjAnLCAnLXRuJywgJzgnLCAnLW1hJywgJzIwMCcsICctbWV0YWxfYmluZGluZycsICctaW1hZScsICc8aW5maWxlLm1hZT4nLCAnLW9tYWUnLCAnPG91dGZpbGUubWFlPic=

> <r_lp_tautomer_probability>
1

> <r_epik_Ionization_Penalty>
1.07271e-05

> <r_epik_Ionization_Penalty_Charging>
0

> <r_epik_Ionization_Penalty_Neutral>
1.07271e-05

> <r_epik_State_Penalty>
-0

> <r_epik_Charging_Adjusted_Penalty>
0

> <i_epik_Tot_Q>
0

> <i_epik_Tot_abs_Q>
0

> <r_epik_Metal_State_Penalty>
-0

> <b_epik_Metal_Only>
0

> <s_lp_Force_Field>
OPLS_2005

> <r_lp_Energy>
8.21171

> <b_lp_Chiralities_Consistent>
1

> <s_lp_Variant>
AV-unprocessed.smi:970-2

> <Gold.Version>
5.8.1

> <Gold.Id.Protein>
6NUR|6NUR_protein|mol2

> <Gold.PLP.Fitness>
33.7279

> <Gold.PLP.PLP>
-24.8366

> <Gold.PLP.part.hbond>
-3.0000

> <Gold.PLP.part.metal>
0.0000

> <Gold.PLP.part.buried>
-1.3924

> <Gold.PLP.part.nonpolar>
-21.7748

> <Gold.PLP.part.repulsive>
0.9685

> <Gold.PLP.ligand.clash>
0.0000

> <Gold.PLP.ligand.torsion>
0.1142

> <Gold.PLP.Chemscore.Hbond>
2.0000

> <Gold.PLP.Chemscore.CHOScore>
1.0000

> <Gold.PLP.Chemscore.Metal>
0.0000

> <Gold.Chemscore.Hbonds>
donor molecule, donor type, donor heavy atom, donor atom, acceptor molecule, acceptor atom, score
      L1  H     2    20       P1 10171  1.00
      L1  H     7    25       P1  7948  1.00
      L1  C    13    30       P1 10747  1.00

> <Gold.PLP.Chemscore.Internal.Correction>
0.1196

> <Gold.Rescore>
     Score         DG    S(hbond)    S(metal)    S(lipo)     H(rot)  DE(clash)    DE(int)     intcor
      5.88      -8.65       1.76        0.00      33.58       2.59       0.14       2.64       ----

> <Gold.Chemscore.Fitness>
5.8781

> <Gold.Chemscore.DG>
-8.6526

> <Gold.Chemscore.ZeroCoef>
-5.4800

> <Gold.Chemscore.Hbond>
1.7551

> <Gold.Chemscore.Metal>
0.0000

> <Gold.Chemscore.Lipo>
33.5806

> <Gold.Chemscore.Internal_Hbond>
0.0000

> <Gold.Chemscore.DEClash>
0.1387

> <Gold.Chemscore.DEInternal>
2.6358

> <Gold.Chemscore.Rot>
2.5852

> <Gold.Chemscore.Internal.Correction>
   9.000000E+99

> <Gold.Chemscore.Hbonds>
donor molecule, donor type, donor heavy atom, donor atom, acceptor molecule, acceptor atom, score
      L1  H     2    20       P1 10171  0.54
      L1  H     7    25       P1  7948  0.99

> <Gold.Chemscore.Hbond.Weighted>
-5.8619

> <Gold.Chemscore.Metal.Weighted>
-0.0000

> <Gold.Chemscore.Lipo.Weighted>
-3.9289

> <Gold.Chemscore.Internal_Hbond.Weighted>
0.0000

> <Gold.Chemscore.DEClash.Weighted>
0.1387

> <Gold.Chemscore.DEInternal.Weighted>
2.6358

> <Gold.Chemscore.Rot.Weighted>
6.6182

> <Gold.Chemscore.Internal.Correction.Weighted>
   9.000000E+99

> <Gold.Protein.RotatedTorsions>
[ 6907 6896 6895 6894 ] final  123.30 input  -60.11 | X-H torsion
[ 7974 7965 7964 7962 ] final  -21.91 input  175.53 | X-H torsion
[ 8008 7997 7996 7995 ] final   98.96 input   59.86 | X-H torsion
[ 10167 10162 10161 10158 ] final  115.04 input  -65.29 | X-H torsion
[ 10718 10713 10712 10709 ] final  -42.40 input   66.30 | X-H torsion
[ 10763 10752 10751 10750 ] final   47.08 input  -60.55 | X-H torsion
[ 11005 11000 10999 10996 ] final -144.09 input  -57.11 | X-H torsion

> <Gold.Protein.ActiveResidues>
 VAL166  LYS551  ARG553  GLY616  TRP617  ASP618  TYR619  PRO620  LYS621  CYS622 
 ASP623  PHE694  ASN695  SER759  ASP760  ASP761  ALA762  ILE779  LEU786  VAL792 
 PHE793  MET794  SER795  GLU796  ALA797  LYS798  CYS799  TRP800  GLU811  SER814 

> <Gold.Protein.RotatedAtoms>
  152.4173  133.7059  159.6450 H   0  0  0  0  0  0  0  0  0  0  0  0  # atno 6907 bound_to 6896
  150.8050  133.8517  159.3216 H   0  0  0  0  0  0  0  0  0  0  0  0  # atno 6908 bound_to 6896
  151.6243  135.1031  160.0160 H   0  0  0  0  0  0  0  0  0  0  0  0  # atno 6909 bound_to 6896
  146.1706  140.4406  142.8534 H   0  0  0  0  0  0  0  0  0  0  0  0  # atno 7974 bound_to 7965
  156.1057  140.3236  155.8003 H   0  0  0  0  0  0  0  0  0  0  0  0  # atno 8008 bound_to 7997
  155.4759  140.0550  157.2991 H   0  0  0  0  0  0  0  0  0  0  0  0  # atno 8009 bound_to 7997
  154.4726  140.2018  155.9971 H   0  0  0  0  0  0  0  0  0  0  0  0  # atno 8010 bound_to 7997
  139.6346  144.7118  151.2362 H   0  0  0  0  0  0  0  0  0  0  0  0  # atno 10167 bound_to 10162
  156.2600  130.4196  149.8552 H   0  0  0  0  0  0  0  0  0  0  0  0  # atno 10718 bound_to 10713
  152.9803  135.5987  154.3705 H   0  0  0  0  0  0  0  0  0  0  0  0  # atno 10763 bound_to 10752
  154.3378  135.2768  155.2440 H   0  0  0  0  0  0  0  0  0  0  0  0  # atno 10764 bound_to 10752
  154.4535  135.5984  153.6263 H   0  0  0  0  0  0  0  0  0  0  0  0  # atno 10765 bound_to 10752
  140.8060  134.2801  157.4960 H   0  0  0  0  0  0  0  0  0  0  0  0  # atno 11005 bound_to 11000
  144.8158  140.6465  143.6385 LP  0  0  0  0  0  0  0  0  0  0  0  0  # atno 17320 bound_to 7965
  145.4350  139.1543  143.4002 LP  0  0  0  0  0  0  0  0  0  0  0  0  # atno 17321 bound_to 7965
  140.7458  143.6420  150.8326 LP  0  0  0  0  0  0  0  0  0  0  0  0  # atno 17342 bound_to 10162
  140.0049  143.5704  152.2861 LP  0  0  0  0  0  0  0  0  0  0  0  0  # atno 17343 bound_to 10162
  156.6071  130.8571  151.3445 LP  0  0  0  0  0  0  0  0  0  0  0  0  # atno 17370 bound_to 10713
  157.7247  130.9606  150.1584 LP  0  0  0  0  0  0  0  0  0  0  0  0  # atno 17371 bound_to 10713
  139.8718  134.9456  156.3915 LP  0  0  0  0  0  0  0  0  0  0  0  0  # atno 17394 bound_to 11000
  140.9247  133.7621  155.9949 LP  0  0  0  0  0  0  0  0  0  0  0  0  # atno 17395 bound_to 11000

$$$$
