#       Name:                AV-unprocessed.smi:2709
#       Creating user name   scv26
#       Creation time:       Fri Mar 27 14:50:10 2020


#       File generated by GOLD software.
#

@<TRIPOS>MOLECULE
AV-unprocessed.smi:2709
    46    48     1
SMALL
NO_CHARGES


@<TRIPOS>ATOM
      1 ****        -1.8331  -2.2461  -2.4143 C.3            1 S1                 0.0000
      2 ****        -2.4699  -2.7285  -1.2409 O.3            1 S1                 0.0000
      3 ****        -3.5192  -1.8862  -0.7712 C.3            1 S1                 0.0000
      4 ****        -4.5736  -2.7983  -0.1350 C.3            1 S1                 0.0000
      5 ****        -4.1584  -2.9106   1.3275 C.3            1 S1                 0.0000
      6 ****        -3.6569  -1.5100   1.6727 C.3            1 S1                 0.0000
      7 ****        -3.0569  -0.9438   0.3717 C.3            1 S1                 0.0000
      8 ****        -1.6006  -0.8629   0.4834 N.am           1 S1                 0.0000
      9 ****        -0.8650   0.2529   0.3881 C.2            1 S1                 0.0000
     10 ****        -1.3432   1.3714   0.2055 O.2            1 S1                 0.0000
     11 ****         0.4428  -0.0243   0.5240 N.am           1 S1                 0.0000
     12 ****         1.5558   0.8584   0.4764 C.ar           1 S1                 0.0000
     13 ****         1.5130   2.2225   0.0940 C.ar           1 S1                 0.0000
     14 ****         2.6260   2.9875   0.0684 N.ar           1 S1                 0.0000
     15 ****         3.7758   2.3979   0.4065 C.ar           1 S1                 0.0000
     16 ****         4.9998   3.2602   0.4113 C.3            1 S1                 0.0000
     17 ****         5.3842   4.0748  -0.8073 C.3            1 S1                 0.0000
     18 ****         6.2120   2.8828  -0.4154 C.3            1 S1                 0.0000
     19 ****         3.9364   1.1286   0.7894 N.ar           1 S1                 0.0000
     20 ****         2.8291   0.3570   0.8189 C.ar           1 S1                 0.0000
     21 ****        -1.0134  -2.9113  -2.6849 H              1 S1                 0.0000
     22 ****        -1.4221  -1.2468  -2.2690 H              1 S1                 0.0000
     23 ****        -2.5305  -2.2158  -3.2523 H              1 S1                 0.0000
     24 ****        -3.9682  -1.3287  -1.5957 H              1 S1                 0.0000
     25 ****        -5.5520  -2.3195  -0.1942 H              1 S1                 0.0000
     26 ****        -4.6530  -3.7675  -0.6286 H              1 S1                 0.0000
     27 ****        -4.9734  -3.2369   1.9741 H              1 S1                 0.0000
     28 ****        -3.3440  -3.6298   1.4250 H              1 S1                 0.0000
     29 ****        -4.5026  -0.8919   1.9775 H              1 S1                 0.0000
     30 ****        -2.9545  -1.5219   2.5074 H              1 S1                 0.0000
     31 ****        -3.4859   0.0457   0.2045 H              1 S1                 0.0000
     32 ****        -1.1156  -1.7366   0.6270 H              1 S1                 0.0000
     33 ****         0.6700  -0.9912   0.7052 H              1 S1                 0.0000
     34 ****         0.6064   2.7238  -0.2042 H              1 S1                 0.0000
     35 ****         5.1700   3.7007   1.3919 H              1 S1                 0.0000
     36 ****         4.7637   3.9832  -1.6967 H              1 S1                 0.0000
     37 ****         5.8091   5.0616  -0.6352 H              1 S1                 0.0000
     38 ****         7.1927   3.0717   0.0161 H              1 S1                 0.0000
     39 ****         6.1424   1.9980  -1.0452 H              1 S1                 0.0000
     40 ****         2.9628  -0.6711   1.1223 H              1 S1                 0.0000
     41 ****        -1.7826  -2.8090  -0.5190 LP             1 S1                 0.0000
     42 ****        -2.8535  -3.6307  -1.4380 LP             1 S1                 0.0000
     43 ****        -2.3331   1.4841   0.1197 LP             1 S1                 0.0000
     44 ****        -0.7420   2.1681   0.1429 LP             1 S1                 0.0000
     45 ****         2.5907   3.9524  -0.1921 LP             1 S1                 0.0000
     46 ****         4.8339   0.7671   1.0422 LP             1 S1                 0.0000
@<TRIPOS>BOND
    1    1    2 1     
    2    1   21 1     
    3    1   22 1     
    4    1   23 1     
    5    2    3 1     
    6    3    7 1     
    7    3    4 1     
    8    3   24 1     
    9    4    5 1     
   10    4   25 1     
   11    4   26 1     
   12    5    6 1     
   13    5   27 1     
   14    5   28 1     
   15    6    7 1     
   16    6   29 1     
   17    6   30 1     
   18    7    8 1     
   19    7   31 1     
   20    8    9 am    
   21    8   32 1     
   22    9   10 2     
   23    9   11 am    
   24   11   12 1     
   25   11   33 1     
   26   12   20 ar    
   27   12   13 ar    
   28   13   14 ar    
   29   13   34 1     
   30   14   15 ar    
   31   15   16 1     
   32   15   19 ar    
   33   16   18 1     
   34   16   17 1     
   35   16   35 1     
   36   17   18 1     
   37   17   36 1     
   38   17   37 1     
   39   18   38 1     
   40   18   39 1     
   41   19   20 ar    
   42   20   40 1     
   43    2   41 1     
   44    2   42 1     
   45   10   43 1     
   46   10   44 1     
   47   14   45 1     
   48   19   46 1     
@<TRIPOS>SUBSTRUCTURE
      1 S1             1
@<TRIPOS>SET
LONE_PAIRS      STATIC     ATOMS    <user>   **** ""
6 41 42 43 44 45 46
DONOR_HYDROGENS      STATIC     ATOMS    <user>   **** ""
2 32 33
ATOM$BLUE        STATIC     ATOMS    COLORGROUP SYSTEM
6 41 42 43 44 45 46
ATOM$RED        STATIC     ATOMS    COLORGROUP SYSTEM
2 32 33
