AV-unprocessed.smi:35|AV-procd|sdf|261|dock8
  -GOLD-   2262016 23D 1   1.00000     0.00000
 Structure written by MMmdl.
 29 30  0  0  0  0  0  0  0  0  1 V2000
  153.1277  139.2742  156.9501 O   0  0  0  0  0  0  0  0  0  0  0  0
  151.9975  139.5618  156.5620 C   0  0  0  0  0  0  0  0  0  0  0  0
  151.3097  140.6392  157.1280 N   0  0  0  0  0  0  0  0  0  0  0  0
  150.0279  141.0624  156.7700 C   0  0  0  0  0  0  0  0  0  0  0  0
  149.5262  142.0382  157.3262 O   0  0  0  0  0  0  0  0  0  0  0  0
  149.3686  140.3336  155.7545 N   0  0  0  0  0  0  0  0  0  0  0  0
  147.9812  140.7512  155.3144 C   0  0  2  0  0  0  0  0  0  0  0  0
  147.1173  139.6684  155.4858 O   0  0  0  0  0  0  0  0  0  0  0  0
  146.2274  139.5877  154.3775 C   0  0  2  0  0  0  0  0  0  0  0  0
  145.6326  138.1750  154.2414 C   0  0  0  0  0  0  0  0  0  0  0  0
  144.7453  138.1247  153.1446 O   0  0  0  0  0  0  0  0  0  0  0  0
  147.0880  140.0596  153.1972 C   0  0  2  0  0  0  0  0  0  0  0  0
  147.8835  138.9999  152.6909 O   0  0  0  0  0  0  0  0  0  0  0  0
  147.9225  141.1695  153.8288 C   0  0  2  0  0  0  0  0  0  0  0  0
  149.1738  141.3600  153.1896 O   0  0  0  0  0  0  0  0  0  0  0  0
  150.0151  139.2591  155.1584 C   0  0  0  0  0  0  0  0  0  0  0  0
  151.2594  138.8637  155.5152 C   0  0  0  0  0  0  0  0  0  0  0  0
  152.0069  137.3093  154.5412 Br  0  0  0  0  0  0  0  0  0  0  0  0
  151.7819  141.1578  157.8543 H   0  0  0  0  0  0  0  0  0  0  0  0
  147.6570  141.5458  155.9886 H   0  0  0  0  0  0  0  0  0  0  0  0
  145.4294  140.3184  154.5251 H   0  0  0  0  0  0  0  0  0  0  0  0
  146.4251  137.4505  154.0518 H   0  0  0  0  0  0  0  0  0  0  0  0
  145.1227  137.8680  155.1551 H   0  0  0  0  0  0  0  0  0  0  0  0
  144.3958  138.9911  153.0012 H   0  0  0  0  0  0  0  0  0  0  0  0
  146.4733  140.4383  152.3800 H   0  0  0  0  0  0  0  0  0  0  0  0
  148.4267  139.3408  151.9966 H   0  0  0  0  0  0  0  0  0  0  0  0
  147.3640  142.1051  153.7797 H   0  0  0  0  0  0  0  0  0  0  0  0
  149.3663  140.5857  152.6826 H   0  0  0  0  0  0  0  0  0  0  0  0
  149.5156  138.7097  154.3742 H   0  0  0  0  0  0  0  0  0  0  0  0
  1  2  2  0  0  0  0
  2 17  1  0  0  0  0
  2  3  1  0  0  0  0
  3 19  1  0  0  0  0
  3  4  1  0  0  0  0
  4  5  2  0  0  0  0
  4  6  1  0  0  0  0
  6  7  1  0  0  0  0
  6 16  1  0  0  0  0
  7 14  1  0  0  0  0
  7  8  1  0  0  0  0
  7 20  1  0  0  0  0
  8  9  1  0  0  0  0
  9 10  1  0  0  0  0
  9 12  1  0  0  0  0
  9 21  1  0  0  0  0
 10 11  1  0  0  0  0
 10 22  1  0  0  0  0
 10 23  1  0  0  0  0
 11 24  1  0  0  0  0
 12 13  1  0  0  0  0
 12 14  1  0  0  0  0
 12 25  1  0  0  0  0
 13 26  1  0  0  0  0
 14 15  1  0  0  0  0
 14 27  1  0  0  0  0
 15 28  1  0  0  0  0
 16 17  2  0  0  0  0
 16 29  1  0  0  0  0
 17 18  1  0  0  0  0
M  END
> <s_m_source_file>
AV-unprocessed.smi

> <i_m_source_file_index>
35

> <i_lp_mmshare_version>
43012

> <i_f3d_flags>
0

> <s_epik_input>
Tz1jMVtuSF1jKD1PKW4oW2NIXWMxQnIpW0NAQEhdMk9bQ0BASF0oW0NIMl1bT0hdKVtDQEBIXShbT0hdKVtDQEhdMltPSF0=

> <s_epik_cmdline>
J2VwaWtfcHl0aG9uJywgJy1waCcsICc3LjAnLCAnLXRuJywgJzgnLCAnLW1hJywgJzIwMCcsICctbWV0YWxfYmluZGluZycsICctaW1hZScsICc8aW5maWxlLm1hZT4nLCAnLW9tYWUnLCAnPG91dGZpbGUubWFlPic=

> <r_lp_tautomer_probability>
0.999537

> <r_epik_Ionization_Penalty>
0.10812

> <r_epik_Ionization_Penalty_Charging>
0.108119

> <r_epik_Ionization_Penalty_Neutral>
4.93006e-07

> <r_epik_State_Penalty>
0.0979238

> <r_epik_Charging_Adjusted_Penalty>
0.206043

> <i_epik_Tot_Q>
0

> <i_epik_Tot_abs_Q>
0

> <r_epik_Metal_State_Penalty>
3.07911

> <b_epik_Metal_Only>
0

> <s_epik_Chemistry_Notes>
This compound contains an acetal/aminal-like group ( X-CH(R)-Y where X, Y are N, S, or O) that may be acid/base labile, releasing an aldehyde.

> <s_lp_Force_Field>
OPLS_2005

> <r_lp_Energy>
38.5572

> <b_lp_Chiralities_Consistent>
1

> <s_lp_Variant>
AV-unprocessed.smi:35-15

> <Gold.Version>
5.8.1

> <Gold.Id.Protein>
6NUR|6NUR_protein|mol2

> <Gold.PLP.Fitness>
37.3436

> <Gold.PLP.PLP>
-23.0370

> <Gold.PLP.part.hbond>
-6.2260

> <Gold.PLP.part.metal>
0.0000

> <Gold.PLP.part.buried>
-0.7568

> <Gold.PLP.part.nonpolar>
-16.8873

> <Gold.PLP.part.repulsive>
0.2280

> <Gold.PLP.ligand.clash>
0.0115

> <Gold.PLP.ligand.torsion>
0.0088

> <Gold.PLP.Chemscore.Hbond>
4.7740

> <Gold.PLP.Chemscore.CHOScore>
0.0000

> <Gold.PLP.Chemscore.Metal>
0.0000

> <Gold.Chemscore.Hbonds>
donor molecule, donor type, donor heavy atom, donor atom, acceptor molecule, acceptor atom, score
      L1  H    11    24       P1 10175  1.00
      L1  H    13    26       P1  7957  1.00
      L1  H    15    28       P1  7957  0.85
      P1  H  7997  8010       L1     1  0.99
      P1  H  8011  8017       L1    15  0.91

> <Gold.PLP.Chemscore.Internal.Correction>
0.0138

> <Gold.Rescore>
     Score         DG    S(hbond)    S(metal)    S(lipo)     H(rot)  DE(clash)    DE(int)     intcor
     13.38     -14.87       4.29        0.00      38.03       3.67       1.34       0.14       ----

> <Gold.Chemscore.Fitness>
13.3794

> <Gold.Chemscore.DG>
-14.8657

> <Gold.Chemscore.ZeroCoef>
-5.4800

> <Gold.Chemscore.Hbond>
4.2909

> <Gold.Chemscore.Metal>
0.0000

> <Gold.Chemscore.Lipo>
38.0306

> <Gold.Chemscore.Internal_Hbond>
0.0000

> <Gold.Chemscore.DEClash>
1.3430

> <Gold.Chemscore.DEInternal>
0.1433

> <Gold.Chemscore.Rot>
3.6701

> <Gold.Chemscore.Internal.Correction>
   9.000000E+99

> <Gold.Chemscore.Hbonds>
donor molecule, donor type, donor heavy atom, donor atom, acceptor molecule, acceptor atom, score
      L1  H    11    24       P1 10175  1.00
      L1  H    13    26       P1  7957  0.98
      L1  H    15    28       P1  7957  0.84
      P1  H  7997  8010       L1     1  0.91
      P1  H  8011  8017       L1    15  0.25

> <Gold.Chemscore.Hbond.Weighted>
-14.3316

> <Gold.Chemscore.Metal.Weighted>
-0.0000

> <Gold.Chemscore.Lipo.Weighted>
-4.4496

> <Gold.Chemscore.Internal_Hbond.Weighted>
0.0000

> <Gold.Chemscore.DEClash.Weighted>
1.3430

> <Gold.Chemscore.DEInternal.Weighted>
0.1433

> <Gold.Chemscore.Rot.Weighted>
9.3955

> <Gold.Chemscore.Internal.Correction.Weighted>
   9.000000E+99

> <Gold.Protein.RotatedTorsions>
[ 6907 6896 6895 6894 ] final   14.09 input  -60.11 | X-H torsion
[ 7974 7965 7964 7962 ] final -159.66 input  175.53 | X-H torsion
[ 8008 7997 7996 7995 ] final   66.33 input   59.86 | X-H torsion
[ 10167 10162 10161 10158 ] final   30.88 input  -65.29 | X-H torsion
[ 10718 10713 10712 10709 ] final -126.93 input   66.30 | X-H torsion
[ 10763 10752 10751 10750 ] final  -61.58 input  -60.55 | X-H torsion
[ 11005 11000 10999 10996 ] final -137.48 input  -57.11 | X-H torsion

> <Gold.Protein.ActiveResidues>
 VAL166  LYS551  ARG553  GLY616  TRP617  ASP618  TYR619  PRO620  LYS621  CYS622 
 ASP623  PHE694  ASN695  SER759  ASP760  ASP761  ALA762  ILE779  LEU786  VAL792 
 PHE793  MET794  SER795  GLU796  ALA797  LYS798  CYS799  TRP800  GLU811  SER814 

> <Gold.Protein.RotatedAtoms>
  151.7966  135.0720  160.0394 H   0  0  0  0  0  0  0  0  0  0  0  0  # atno 6907 bound_to 6896
  152.3118  133.5757  159.5694 H   0  0  0  0  0  0  0  0  0  0  0  0  # atno 6908 bound_to 6896
  150.7324  134.0056  159.3695 H   0  0  0  0  0  0  0  0  0  0  0  0  # atno 6909 bound_to 6896
  144.7456  140.3653  143.6087 H   0  0  0  0  0  0  0  0  0  0  0  0  # atno 7974 bound_to 7965
  155.6757  140.3497  155.4835 H   0  0  0  0  0  0  0  0  0  0  0  0  # atno 8008 bound_to 7997
  155.9650  140.1144  157.0885 H   0  0  0  0  0  0  0  0  0  0  0  0  # atno 8009 bound_to 7997
  154.4152  140.1168  156.5216 H   0  0  0  0  0  0  0  0  0  0  0  0  # atno 8010 bound_to 7997
  140.4638  144.0866  150.6219 H   0  0  0  0  0  0  0  0  0  0  0  0  # atno 10167 bound_to 10162
  156.1810  130.6732  151.0304 H   0  0  0  0  0  0  0  0  0  0  0  0  # atno 10718 bound_to 10713
  154.2867  135.6261  153.5369 H   0  0  0  0  0  0  0  0  0  0  0  0  # atno 10763 bound_to 10752
  152.9858  135.5646  154.5435 H   0  0  0  0  0  0  0  0  0  0  0  0  # atno 10764 bound_to 10752
  154.5037  135.2873  155.1375 H   0  0  0  0  0  0  0  0  0  0  0  0  # atno 10765 bound_to 10752
  140.8707  134.2054  157.4652 H   0  0  0  0  0  0  0  0  0  0  0  0  # atno 11005 bound_to 11000
  145.7135  139.1691  143.2525 LP  0  0  0  0  0  0  0  0  0  0  0  0  # atno 17320 bound_to 7965
  146.1330  140.7160  142.9403 LP  0  0  0  0  0  0  0  0  0  0  0  0  # atno 17321 bound_to 7965
  140.4061  143.2679  151.9889 LP  0  0  0  0  0  0  0  0  0  0  0  0  # atno 17342 bound_to 10162
  139.4809  144.5956  151.7696 LP  0  0  0  0  0  0  0  0  0  0  0  0  # atno 17343 bound_to 10162
  157.6868  131.0822  150.7220 LP  0  0  0  0  0  0  0  0  0  0  0  0  # atno 17370 bound_to 10713
  156.7278  130.4700  149.5507 LP  0  0  0  0  0  0  0  0  0  0  0  0  # atno 17371 bound_to 10713
  139.8712  134.9773  156.4953 LP  0  0  0  0  0  0  0  0  0  0  0  0  # atno 17394 bound_to 11000
  140.8576  133.8084  155.9232 LP  0  0  0  0  0  0  0  0  0  0  0  0  # atno 17395 bound_to 11000

$$$$
