#       Name:                AV-unprocessed.smi:1965
#       Creating user name   scv26
#       Creation time:       Fri Mar 27 10:11:09 2020


#       File generated by GOLD software.
#

@<TRIPOS>MOLECULE
AV-unprocessed.smi:1965
    40    42     1
SMALL
NO_CHARGES


@<TRIPOS>ATOM
      1 ****        -3.1973  -2.3361   0.5180 O.2            1 S1                 0.0000
      2 ****        -1.9921  -2.4469   0.2977 C.2            1 S1                 0.0000
      3 ****        -1.3434  -3.6395   0.2473 N.pl3          1 S1                -1.0000
      4 ****        -0.0276  -3.7354  -0.0204 C.2            1 S1                 0.0000
      5 ****         0.9088  -3.8145   0.9320 N.2            1 S1                 0.0000
      6 ****         2.2080  -3.8975   0.4280 C.2            1 S1                 0.0000
      7 ****         2.2621  -3.8813  -0.9404 C.2            1 S1                 0.0000
      8 ****         0.6729  -3.7677  -1.6412 S.3            1 S1                 0.0000
      9 ****        -1.2628  -1.3345   0.0958 N.am           1 S1                 0.0000
     10 ****        -1.7534   0.0392   0.0935 C.3            1 S1                 0.0000
     11 ****        -2.0977   0.5750   1.5002 C.3            1 S1                 0.0000
     12 ****        -1.4511   1.9624   1.5661 C.3            1 S1                 0.0000
     13 ****        -0.2792   1.8269   0.6924 N.4            1 S1                 1.0000
     14 ****         0.4479   3.0525   0.3023 C.3            1 S1                 0.0000
     15 ****         1.7147   2.6473  -0.4818 C.3            1 S1                 0.0000
     16 ****         1.3949   1.6994  -1.6596 C.3            1 S1                 0.0000
     17 ****         0.5370   0.5000  -1.2055 C.3            1 S1                 0.0000
     18 ****        -0.7078   1.0260  -0.4664 C.3            1 S1                 0.0000
     19 ****         3.0364  -3.9654   1.1173 H              1 S1                 0.0000
     20 ****         3.1333  -3.9345  -1.5758 H              1 S1                 0.0000
     21 ****        -0.2769  -1.4625  -0.0795 H              1 S1                 0.0000
     22 ****        -2.6394   0.0829  -0.5427 H              1 S1                 0.0000
     23 ****        -3.1721   0.6096   1.6823 H              1 S1                 0.0000
     24 ****        -1.6571  -0.0637   2.2676 H              1 S1                 0.0000
     25 ****        -2.1260   2.7192   1.1629 H              1 S1                 0.0000
     26 ****        -1.1737   2.2496   2.5808 H              1 S1                 0.0000
     27 ****        -0.1951   3.6935  -0.3028 H              1 S1                 0.0000
     28 ****         0.7219   3.6168   1.1943 H              1 S1                 0.0000
     29 ****         2.2290   3.5367  -0.8470 H              1 S1                 0.0000
     30 ****         2.4092   2.1487   0.1958 H              1 S1                 0.0000
     31 ****         0.8600   2.2535  -2.4320 H              1 S1                 0.0000
     32 ****         2.3187   1.3465  -2.1188 H              1 S1                 0.0000
     33 ****         0.2442  -0.0999  -2.0680 H              1 S1                 0.0000
     34 ****         1.1247  -0.1481  -0.5535 H              1 S1                 0.0000
     35 ****        -1.2452   1.6935  -1.1438 H              1 S1                 0.0000
     36 ****         0.3740   1.2500   1.2032 H              1 S1                 0.0000
     37 ****        -3.7545  -3.1521   0.6721 LP             1 S1                 0.0000
     38 ****        -3.6198  -1.4301   0.5431 LP             1 S1                 0.0000
     39 ****        -1.8627  -4.4774   0.4154 LP             1 S1                 0.0000
     40 ****         0.6985  -3.8142   1.9097 LP             1 S1                 0.0000
@<TRIPOS>BOND
    1    1    2 2     
    2    2    3 1     
    3    2    9 am    
    4    3    4 1     
    5    4    8 1     
    6    4    5 2     
    7    5    6 1     
    8    6    7 2     
    9    6   19 1     
   10    7    8 1     
   11    7   20 1     
   12    9   10 1     
   13    9   21 1     
   14   10   18 1     
   15   10   11 1     
   16   10   22 1     
   17   11   12 1     
   18   11   23 1     
   19   11   24 1     
   20   12   13 1     
   21   12   25 1     
   22   12   26 1     
   23   13   18 1     
   24   13   14 1     
   25   13   36 1     
   26   14   15 1     
   27   14   27 1     
   28   14   28 1     
   29   15   16 1     
   30   15   29 1     
   31   15   30 1     
   32   16   17 1     
   33   16   31 1     
   34   16   32 1     
   35   17   18 1     
   36   17   33 1     
   37   17   34 1     
   38   18   35 1     
   39    1   37 1     
   40    1   38 1     
   41    3   39 1     
   42    5   40 1     
@<TRIPOS>SUBSTRUCTURE
      1 S1             1
@<TRIPOS>SET
LONE_PAIRS      STATIC     ATOMS    <user>   **** ""
4 37 38 39 40
DONOR_HYDROGENS      STATIC     ATOMS    <user>   **** ""
2 21 36
ATOM$BLUE        STATIC     ATOMS    COLORGROUP SYSTEM
4 37 38 39 40
ATOM$RED        STATIC     ATOMS    COLORGROUP SYSTEM
2 21 36
