AV-unprocessed.smi:1033|AV-procd|sdf|4493|dock8
  -GOLD-   22720 2483D 1   1.00000     0.00000
 Structure written by MMmdl.
 56 58  0  0  0  0  0  0  0  0  2 V2000
  152.3192  144.1174  160.1650 C   0  0  0  0  0  0  0  0  0  0  0  0
  152.6755  142.6414  160.1869 C   0  0  0  0  0  0  0  0  0  0  0  0
  153.4940  142.1474  161.2278 C   0  0  0  0  0  0  0  0  0  0  0  0
  153.8480  140.7817  161.2847 C   0  0  0  0  0  0  0  0  0  0  0  0
  154.6264  140.0907  162.1975 N   0  0  0  0  0  0  0  0  0  0  0  0
  154.5799  138.8545  161.7094 C   0  0  0  0  0  0  0  0  0  0  0  0
  153.8681  138.6643  160.5817 N   0  0  0  0  0  0  0  0  0  0  0  0
  153.6770  137.4189  159.8609 C   0  0  0  0  0  0  0  0  0  0  0  0
  153.5431  137.6402  158.3425 C   0  0  1  0  0  0  0  0  0  0  0  0
  154.1659  136.5682  157.6606 O   0  0  0  0  0  0  0  0  0  0  0  0
  152.0681  137.7199  157.9030 C   0  0  0  0  0  0  0  0  0  0  0  0
  151.9037  138.2980  156.5446 N   0  3  0  0  0  0  0  0  0  0  0  0
  152.7162  139.5219  156.3102 C   0  0  0  0  0  0  0  0  0  0  0  0
  152.5315  140.0137  154.8606 C   0  0  0  0  0  0  0  0  0  0  0  0
  151.1340  140.2807  154.5117 N   0  0  0  0  0  0  0  0  0  0  0  0
  150.5553  141.4654  155.1566 C   0  0  0  0  0  0  0  0  0  0  0  0
  149.3440  142.0901  154.4354 C   0  0  1  0  0  0  0  0  0  0  0  0
  148.5330  143.0384  155.3302 C   0  0  0  0  0  0  0  0  0  0  0  0
  149.8247  142.8292  153.3329 O   0  0  0  0  0  0  0  0  0  0  0  0
  150.3551  139.0665  154.7552 C   0  0  0  0  0  0  0  0  0  0  0  0
  150.4789  138.5422  156.2010 C   0  0  0  0  0  0  0  0  0  0  0  0
  153.3573  139.9173  160.2630 C   0  0  0  0  0  0  0  0  0  0  0  0
  152.5415  140.3959  159.2227 C   0  0  0  0  0  0  0  0  0  0  0  0
  152.1968  141.7632  159.1814 C   0  0  0  0  0  0  0  0  0  0  0  0
  151.3141  142.2711  158.0551 C   0  0  0  0  0  0  0  0  0  0  0  0
  152.7915  144.6533  160.9889 H   0  0  0  0  0  0  0  0  0  0  0  0
  151.2407  144.2505  160.2534 H   0  0  0  0  0  0  0  0  0  0  0  0
  152.6506  144.5779  159.2343 H   0  0  0  0  0  0  0  0  0  0  0  0
  153.8577  142.8157  161.9945 H   0  0  0  0  0  0  0  0  0  0  0  0
  155.0980  138.0410  162.1962 H   0  0  0  0  0  0  0  0  0  0  0  0
  154.5119  136.7520  160.0816 H   0  0  0  0  0  0  0  0  0  0  0  0
  152.7805  136.9370  160.2529 H   0  0  0  0  0  0  0  0  0  0  0  0
  154.0665  138.5593  158.0818 H   0  0  0  0  0  0  0  0  0  0  0  0
  154.6365  136.9170  156.9180 H   0  0  0  0  0  0  0  0  0  0  0  0
  151.6463  136.7135  157.9250 H   0  0  0  0  0  0  0  0  0  0  0  0
  151.4874  138.3084  158.6148 H   0  0  0  0  0  0  0  0  0  0  0  0
  152.4399  140.2991  157.0238 H   0  0  0  0  0  0  0  0  0  0  0  0
  153.7723  139.3120  156.4733 H   0  0  0  0  0  0  0  0  0  0  0  0
  153.1469  140.8945  154.6830 H   0  0  0  0  0  0  0  0  0  0  0  0
  152.9221  139.2523  154.1839 H   0  0  0  0  0  0  0  0  0  0  0  0
  150.2389  141.1944  156.1650 H   0  0  0  0  0  0  0  0  0  0  0  0
  151.3199  142.2308  155.2878 H   0  0  0  0  0  0  0  0  0  0  0  0
  148.6913  141.3148  154.0354 H   0  0  0  0  0  0  0  0  0  0  0  0
  148.0995  142.5052  156.1767 H   0  0  0  0  0  0  0  0  0  0  0  0
  147.7114  143.4945  154.7769 H   0  0  0  0  0  0  0  0  0  0  0  0
  149.1549  143.8414  155.7274 H   0  0  0  0  0  0  0  0  0  0  0  0
  150.1878  142.2275  152.7010 H   0  0  0  0  0  0  0  0  0  0  0  0
  149.3064  139.2435  154.5131 H   0  0  0  0  0  0  0  0  0  0  0  0
  150.6893  138.2872  154.0688 H   0  0  0  0  0  0  0  0  0  0  0  0
  149.9175  137.6117  156.2920 H   0  0  0  0  0  0  0  0  0  0  0  0
  150.0393  139.2443  156.9107 H   0  0  0  0  0  0  0  0  0  0  0  0
  152.1833  139.7163  158.4637 H   0  0  0  0  0  0  0  0  0  0  0  0
  151.0304  141.4658  157.3768 H   0  0  0  0  0  0  0  0  0  0  0  0
  151.8372  143.0300  157.4729 H   0  0  0  0  0  0  0  0  0  0  0  0
  150.3995  142.7099  158.4547 H   0  0  0  0  0  0  0  0  0  0  0  0
  152.2329  137.5972  155.8956 H   0  0  0  0  0  0  0  0  0  0  0  0
  1  2  1  0  0  0  0
  1 26  1  0  0  0  0
  1 27  1  0  0  0  0
  1 28  1  0  0  0  0
  2 24  1  0  0  0  0
  2  3  2  0  0  0  0
  3  4  1  0  0  0  0
  3 29  1  0  0  0  0
  4 22  2  0  0  0  0
  4  5  1  0  0  0  0
  5  6  2  0  0  0  0
  6  7  1  0  0  0  0
  6 30  1  0  0  0  0
  7  8  1  0  0  0  0
  7 22  1  0  0  0  0
  8  9  1  0  0  0  0
  8 31  1  0  0  0  0
  8 32  1  0  0  0  0
  9 10  1  0  0  0  0
  9 11  1  0  0  0  0
  9 33  1  0  0  0  0
 10 34  1  0  0  0  0
 11 12  1  0  0  0  0
 11 35  1  0  0  0  0
 11 36  1  0  0  0  0
 12 21  1  0  0  0  0
 12 13  1  0  0  0  0
 12 56  1  0  0  0  0
 13 14  1  0  0  0  0
 13 37  1  0  0  0  0
 13 38  1  0  0  0  0
 14 15  1  0  0  0  0
 14 39  1  0  0  0  0
 14 40  1  0  0  0  0
 15 16  1  0  0  0  0
 15 20  1  0  0  0  0
 16 17  1  0  0  0  0
 16 41  1  0  0  0  0
 16 42  1  0  0  0  0
 17 18  1  0  0  0  0
 17 19  1  0  0  0  0
 17 43  1  0  0  0  0
 18 44  1  0  0  0  0
 18 45  1  0  0  0  0
 18 46  1  0  0  0  0
 19 47  1  0  0  0  0
 20 21  1  0  0  0  0
 20 48  1  0  0  0  0
 20 49  1  0  0  0  0
 21 50  1  0  0  0  0
 21 51  1  0  0  0  0
 22 23  1  0  0  0  0
 23 24  2  0  0  0  0
 23 52  1  0  0  0  0
 24 25  1  0  0  0  0
 25 53  1  0  0  0  0
 25 54  1  0  0  0  0
 25 55  1  0  0  0  0
M  CHG  1  12   1
M  END
> <s_m_source_file>
AV-unprocessed.smi

> <i_m_source_file_index>
1033

> <i_lp_mmshare_version>
43012

> <i_f3d_flags>
0

> <s_epik_input>
W0NIM11jKFtjSF0xKWMoW0NIM10pW2NIXWMoYzEyKW4oW2NIXW4yKVtDSDJdW0NASF0oW09IXSlbQ0gyXU4zW0NIMl1bQ0gyXU4oW0NIMl1bQ0gyXTMpW0NIMl1bQ0BIXShbQ0gzXSlbT0hd

> <s_epik_cmdline>
J2VwaWtfcHl0aG9uJywgJy1waCcsICc3LjAnLCAnLXRuJywgJzgnLCAnLW1hJywgJzIwMCcsICctbWV0YWxfYmluZGluZycsICctaW1hZScsICc8aW5maWxlLm1hZT4nLCAnLW9tYWUnLCAnPG91dGZpbGUubWFlPic=

> <r_epik_Ionization_Penalty>
0.131893

> <r_epik_Ionization_Penalty_Charging>
0.00208556

> <r_epik_Ionization_Penalty_Neutral>
0.129808

> <r_epik_State_Penalty>
0.452125

> <r_epik_Charging_Adjusted_Penalty>
0.454211

> <i_epik_Tot_Q>
1

> <i_epik_Tot_abs_Q>
1

> <r_epik_Metal_State_Penalty>
0.376389

> <b_epik_Metal_Only>
0

> <s_lp_Force_Field>
OPLS_2005

> <r_lp_Energy>
31.8043

> <b_lp_Chiralities_Consistent>
1

> <s_lp_Variant>
AV-unprocessed.smi:1033-4

> <Gold.Version>
5.8.1

> <Gold.Id.Protein>
6NUR|6NUR_protein|mol2

> <Gold.PLP.Fitness>
48.2558

> <Gold.PLP.PLP>
-45.6823

> <Gold.PLP.part.hbond>
-2.2613

> <Gold.PLP.part.metal>
0.0000

> <Gold.PLP.part.buried>
-4.7539

> <Gold.PLP.part.nonpolar>
-39.0504

> <Gold.PLP.part.repulsive>
0.2156

> <Gold.PLP.ligand.clash>
0.0000

> <Gold.PLP.ligand.torsion>
1.3813

> <Gold.PLP.Chemscore.Hbond>
1.7454

> <Gold.PLP.Chemscore.CHOScore>
0.0000

> <Gold.PLP.Chemscore.Metal>
0.0000

> <Gold.Chemscore.Hbonds>
donor molecule, donor type, donor heavy atom, donor atom, acceptor molecule, acceptor atom, score
      P1  H  7989  7998       L1    15  0.06
      P1  H  8022  8030       L1    19  0.25

> <Gold.PLP.Chemscore.Internal.Correction>
0.1000

> <Gold.Rescore>
     Score         DG    S(hbond)    S(metal)    S(lipo)     H(rot)  DE(clash)    DE(int)     intcor
     14.95     -17.29       1.26        0.00     132.21       3.07       0.04       2.30       ----

> <Gold.Chemscore.Fitness>
14.9542

> <Gold.Chemscore.DG>
-17.2945

> <Gold.Chemscore.ZeroCoef>
-5.4800

> <Gold.Chemscore.Hbond>
1.2552

> <Gold.Chemscore.Metal>
0.0000

> <Gold.Chemscore.Lipo>
132.2116

> <Gold.Chemscore.Internal_Hbond>
0.0000

> <Gold.Chemscore.DEClash>
0.0410

> <Gold.Chemscore.DEInternal>
2.2993

> <Gold.Chemscore.Rot>
3.0650

> <Gold.Chemscore.Internal.Correction>
   9.000000E+99

> <Gold.Chemscore.Hbonds>
donor molecule, donor type, donor heavy atom, donor atom, acceptor molecule, acceptor atom, score
      P1  H  8022  8030       L1    19  0.06

> <Gold.Chemscore.Hbond.Weighted>
-4.1923

> <Gold.Chemscore.Metal.Weighted>
-0.0000

> <Gold.Chemscore.Lipo.Weighted>
-15.4688

> <Gold.Chemscore.Internal_Hbond.Weighted>
0.0000

> <Gold.Chemscore.DEClash.Weighted>
0.0410

> <Gold.Chemscore.DEInternal.Weighted>
2.2993

> <Gold.Chemscore.Rot.Weighted>
7.8465

> <Gold.Chemscore.Internal.Correction.Weighted>
   9.000000E+99

> <Gold.Protein.RotatedTorsions>
[ 6907 6896 6895 6894 ] final   47.37 input  -60.11 | X-H torsion
[ 7974 7965 7964 7962 ] final -130.86 input  175.53 | X-H torsion
[ 8008 7997 7996 7995 ] final  147.58 input   59.86 | X-H torsion
[ 10167 10162 10161 10158 ] final   96.22 input  -65.29 | X-H torsion
[ 10718 10713 10712 10709 ] final -126.48 input   66.30 | X-H torsion
[ 10763 10752 10751 10750 ] final  -90.93 input  -60.55 | X-H torsion
[ 11005 11000 10999 10996 ] final  -46.87 input  -57.11 | X-H torsion

> <Gold.Protein.ActiveResidues>
 VAL166  LYS551  ARG553  GLY616  TRP617  ASP618  TYR619  PRO620  LYS621  CYS622 
 ASP623  PHE694  ASN695  SER759  ASP760  ASP761  ALA762  ILE779  LEU786  VAL792 
 PHE793  MET794  SER795  GLU796  ALA797  LYS798  CYS799  TRP800  GLU811  SER814 

> <Gold.Protein.RotatedAtoms>
  152.2672  134.7971  160.0420 H   0  0  0  0  0  0  0  0  0  0  0  0  # atno 6907 bound_to 6896
  151.8596  133.3449  159.3708 H   0  0  0  0  0  0  0  0  0  0  0  0  # atno 6908 bound_to 6896
  150.7138  134.5146  159.5668 H   0  0  0  0  0  0  0  0  0  0  0  0  # atno 6909 bound_to 6896
  144.9435  140.7265  143.4832 H   0  0  0  0  0  0  0  0  0  0  0  0  # atno 7974 bound_to 7965
  156.2820  140.2151  156.5561 H   0  0  0  0  0  0  0  0  0  0  0  0  # atno 8008 bound_to 7997
  154.7251  140.0500  157.0698 H   0  0  0  0  0  0  0  0  0  0  0  0  # atno 8009 bound_to 7997
  155.0427  140.3147  155.4722 H   0  0  0  0  0  0  0  0  0  0  0  0  # atno 8010 bound_to 7997
  139.7915  144.6850  150.9886 H   0  0  0  0  0  0  0  0  0  0  0  0  # atno 10167 bound_to 10162
  156.1769  130.6705  151.0254 H   0  0  0  0  0  0  0  0  0  0  0  0  # atno 10718 bound_to 10713
  154.6709  135.5286  153.8137 H   0  0  0  0  0  0  0  0  0  0  0  0  # atno 10763 bound_to 10752
  153.0501  135.6529  154.0726 H   0  0  0  0  0  0  0  0  0  0  0  0  # atno 10764 bound_to 10752
  154.0625  135.2960  155.3302 H   0  0  0  0  0  0  0  0  0  0  0  0  # atno 10765 bound_to 10752
  141.0605  133.6710  156.3216 H   0  0  0  0  0  0  0  0  0  0  0  0  # atno 11005 bound_to 11000
  145.2955  139.1869  143.4718 LP  0  0  0  0  0  0  0  0  0  0  0  0  # atno 17320 bound_to 7965
  146.3294  140.2938  142.8617 LP  0  0  0  0  0  0  0  0  0  0  0  0  # atno 17321 bound_to 7965
  140.7820  143.4376  151.0600 LP  0  0  0  0  0  0  0  0  0  0  0  0  # atno 17342 bound_to 10162
  139.8052  143.8027  152.3166 LP  0  0  0  0  0  0  0  0  0  0  0  0  # atno 17343 bound_to 10162
  157.6842  131.0829  150.7289 LP  0  0  0  0  0  0  0  0  0  0  0  0  # atno 17370 bound_to 10713
  156.7346  130.4720  149.5491 LP  0  0  0  0  0  0  0  0  0  0  0  0  # atno 17371 bound_to 10713
  140.5877  134.5682  157.5493 LP  0  0  0  0  0  0  0  0  0  0  0  0  # atno 17394 bound_to 11000
  139.9429  134.7755  156.0634 LP  0  0  0  0  0  0  0  0  0  0  0  0  # atno 17395 bound_to 11000

$$$$
