#       Name:                AV-unprocessed.smi:996
#       Creating user name   scv26
#       Creation time:       Fri Mar 27 02:24:45 2020


#       File generated by GOLD software.
#

@<TRIPOS>MOLECULE
AV-unprocessed.smi:996
    28    29     1
SMALL
NO_CHARGES


@<TRIPOS>ATOM
      1 ****        -0.3596  -0.0364  -3.2313 O.2            1 S1                 0.0000
      2 ****        -0.5043   0.3245  -2.0647 C.2            1 S1                 0.0000
      3 ****        -0.9467   1.5616  -1.6711 O.3            1 S1                 0.0000
      4 ****        -0.9663   1.6107  -0.3079 C.ar           1 S1                 0.0000
      5 ****        -1.3365   2.6681   0.5400 C.ar           1 S1                 0.0000
      6 ****        -1.2538   2.4505   1.9356 C.ar           1 S1                 0.0000
      7 ****        -0.8114   1.2049   2.4509 C.ar           1 S1                 0.0000
      8 ****        -0.4441   0.1531   1.5802 C.ar           1 S1                 0.0000
      9 ****        -0.5396   0.4020   0.2004 C.ar           1 S1                 0.0000
     10 ****        -0.2577  -0.4049  -0.8987 N.am           1 S1                 0.0000
     11 ****         0.2424  -1.7749  -0.8503 C.3            1 S1                 0.0000
     12 ****         1.7770  -1.8035  -0.8674 C.3            1 S1                 0.0000
     13 ****         2.2295  -3.1373  -0.7876 O.3            1 S1                 0.0000
     14 ****        -1.6708   3.6139   0.1401 H              1 S1                 0.0000
     15 ****        -1.5300   3.2422   2.6165 H              1 S1                 0.0000
     16 ****        -0.7542   1.0582   3.5194 H              1 S1                 0.0000
     17 ****        -0.1046  -0.7980   1.9628 H              1 S1                 0.0000
     18 ****        -0.1356  -2.2667   0.0469 H              1 S1                 0.0000
     19 ****        -0.1535  -2.3388  -1.6965 H              1 S1                 0.0000
     20 ****         2.1628  -1.3507  -1.7814 H              1 S1                 0.0000
     21 ****         2.1828  -1.2412  -0.0258 H              1 S1                 0.0000
     22 ****         3.1743  -3.1363  -0.8103 H              1 S1                 0.0000
     23 ****        -0.0264  -0.9577  -3.4320 LP             1 S1                 0.0000
     24 ****        -0.5752   0.5913  -3.9793 LP             1 S1                 0.0000
     25 ****        -1.8686   1.7169  -2.0259 LP             1 S1                 0.0000
     26 ****        -0.3308   2.2661  -2.0236 LP             1 S1                 0.0000
     27 ****         1.8743  -3.6607  -1.5621 LP             1 S1                 0.0000
     28 ****         1.9133  -3.5500   0.0666 LP             1 S1                 0.0000
@<TRIPOS>BOND
    1    1    2 2     
    2    2   10 am    
    3    2    3 1     
    4    3    4 1     
    5    4    9 ar    
    6    4    5 ar    
    7    5    6 ar    
    8    5   14 1     
    9    6    7 ar    
   10    6   15 1     
   11    7    8 ar    
   12    7   16 1     
   13    8    9 ar    
   14    8   17 1     
   15    9   10 1     
   16   10   11 1     
   17   11   12 1     
   18   11   18 1     
   19   11   19 1     
   20   12   13 1     
   21   12   20 1     
   22   12   21 1     
   23   13   22 1     
   24    1   23 1     
   25    1   24 1     
   26    3   25 1     
   27    3   26 1     
   28   13   27 1     
   29   13   28 1     
@<TRIPOS>SUBSTRUCTURE
      1 S1             1
@<TRIPOS>SET
LONE_PAIRS      STATIC     ATOMS    <user>   **** ""
6 23 24 25 26 27 28
DONOR_HYDROGENS      STATIC     ATOMS    <user>   **** ""
1 22
ATOM$BLUE        STATIC     ATOMS    COLORGROUP SYSTEM
6 23 24 25 26 27 28
ATOM$RED        STATIC     ATOMS    COLORGROUP SYSTEM
1 22
