AV-unprocessed.smi:1880|AV-procd|sdf|7638|dock10
  -GOLD-   22720 9363D 1   1.00000     0.00000
 Structure written by MMmdl.
 37 39  0  0  0  0  0  0  0  0  2 V2000
  153.6304  138.2860  156.2840 O   0  0  0  0  0  0  0  0  0  0  0  0
  152.6320  139.1940  155.8611 C   0  0  1  0  0  0  0  0  0  0  0  0
  151.7844  138.5140  154.7752 C   0  0  0  0  0  0  0  0  0  0  0  0
  150.8316  139.4465  154.2938 O   0  0  0  0  0  0  0  0  0  0  0  0
  149.5797  138.8514  153.9914 C   0  0  0  0  0  0  0  0  0  0  0  0
  148.5133  139.8539  154.2978 C   0  0  0  0  0  0  0  0  0  0  0  0
  147.2904  139.7574  154.9034 C   0  0  0  0  0  0  0  0  0  0  0  0
  146.7407  141.0691  154.9146 C   0  0  0  0  0  0  0  0  0  0  0  0
  147.6726  141.8727  154.3223 C   0  0  0  0  0  0  0  0  0  0  0  0
  148.7607  141.1488  153.9435 O   0  0  0  0  0  0  0  0  0  0  0  0
  151.7863  139.6065  157.0822 C   0  0  0  0  0  0  0  0  0  0  0  0
  151.3147  140.9956  157.0030 N   0  0  0  0  0  0  0  0  0  0  0  0
  150.5074  141.5940  156.0855 C   0  0  0  0  0  0  0  0  0  0  0  0
  150.3568  142.8955  156.4578 N   0  3  0  0  0  0  0  0  0  0  0  0
  151.0785  143.1315  157.6304 C   0  0  0  0  0  0  0  0  0  0  0  0
  151.2337  144.2866  158.3900 C   0  0  0  0  0  0  0  0  0  0  0  0
  152.0426  144.1861  159.5411 C   0  0  0  0  0  0  0  0  0  0  0  0
  152.2271  145.2809  160.3161 F   0  0  0  0  0  0  0  0  0  0  0  0
  152.6615  142.9696  159.8996 C   0  0  0  0  0  0  0  0  0  0  0  0
  153.4294  142.9166  161.0135 F   0  0  0  0  0  0  0  0  0  0  0  0
  152.4967  141.8045  159.1215 C   0  0  0  0  0  0  0  0  0  0  0  0
  151.6963  141.9144  157.9857 C   0  0  0  0  0  0  0  0  0  0  0  0
  153.6630  138.2989  157.2289 H   0  0  0  0  0  0  0  0  0  0  0  0
  153.1147  140.0789  155.4447 H   0  0  0  0  0  0  0  0  0  0  0  0
  152.4107  138.1273  153.9690 H   0  0  0  0  0  0  0  0  0  0  0  0
  151.2465  137.6664  155.2031 H   0  0  0  0  0  0  0  0  0  0  0  0
  149.5372  138.5673  152.9390 H   0  0  0  0  0  0  0  0  0  0  0  0
  149.4287  137.9521  154.5898 H   0  0  0  0  0  0  0  0  0  0  0  0
  146.8449  138.8521  155.2888 H   0  0  0  0  0  0  0  0  0  0  0  0
  145.7862  141.3853  155.3088 H   0  0  0  0  0  0  0  0  0  0  0  0
  147.7221  142.9289  154.1021 H   0  0  0  0  0  0  0  0  0  0  0  0
  150.9197  138.9544  157.1983 H   0  0  0  0  0  0  0  0  0  0  0  0
  152.3707  139.5108  157.9986 H   0  0  0  0  0  0  0  0  0  0  0  0
  150.0618  141.1197  155.2228 H   0  0  0  0  0  0  0  0  0  0  0  0
  150.7612  145.2194  158.1200 H   0  0  0  0  0  0  0  0  0  0  0  0
  152.9731  140.8778  159.4050 H   0  0  0  0  0  0  0  0  0  0  0  0
  149.7991  143.5689  155.9481 H   0  0  0  0  0  0  0  0  0  0  0  0
  1  2  1  0  0  0  0
  1 23  1  0  0  0  0
  2  3  1  0  0  0  0
  2 11  1  0  0  0  0
  2 24  1  0  0  0  0
  3  4  1  0  0  0  0
  3 25  1  0  0  0  0
  3 26  1  0  0  0  0
  4  5  1  0  0  0  0
  5  6  1  0  0  0  0
  5 27  1  0  0  0  0
  5 28  1  0  0  0  0
  6 10  1  0  0  0  0
  6  7  2  0  0  0  0
  7  8  1  0  0  0  0
  7 29  1  0  0  0  0
  8  9  2  0  0  0  0
  8 30  1  0  0  0  0
  9 10  1  0  0  0  0
  9 31  1  0  0  0  0
 11 12  1  0  0  0  0
 11 32  1  0  0  0  0
 11 33  1  0  0  0  0
 12 22  1  0  0  0  0
 12 13  1  0  0  0  0
 13 14  2  0  0  0  0
 13 34  1  0  0  0  0
 14 15  1  0  0  0  0
 14 37  1  0  0  0  0
 15 22  2  0  0  0  0
 15 16  1  0  0  0  0
 16 17  2  0  0  0  0
 16 35  1  0  0  0  0
 17 18  1  0  0  0  0
 17 19  1  0  0  0  0
 19 20  1  0  0  0  0
 19 21  2  0  0  0  0
 21 22  1  0  0  0  0
 21 36  1  0  0  0  0
M  CHG  1  14   1
M  END
> <s_m_source_file>
AV-unprocessed.smi

> <i_m_source_file_index>
1880

> <i_lp_mmshare_version>
43012

> <i_f3d_flags>
0

> <s_epik_input>
W2NIXTFjKEYpYyhGKVtjSF1jKGMxMiluKFtjSF1uMilbQ0gyXVtDQEhdKFtPSF0pW0NIMl1PW0NIMl1jM1tjSF1bY0hdW2NIXW8z

> <s_epik_cmdline>
J2VwaWtfcHl0aG9uJywgJy1waCcsICc3LjAnLCAnLXRuJywgJzgnLCAnLW1hJywgJzIwMCcsICctbWV0YWxfYmluZGluZycsICctaW1hZScsICc8aW5maWxlLm1hZT4nLCAnLW9tYWUnLCAnPG91dGZpbGUubWFlPic=

> <r_epik_Ionization_Penalty>
2.17656

> <r_epik_Ionization_Penalty_Charging>
2.17656

> <r_epik_Ionization_Penalty_Neutral>
9.34185e-07

> <r_epik_State_Penalty>
2.31826

> <r_epik_Charging_Adjusted_Penalty>
4.49482

> <i_epik_Tot_Q>
1

> <i_epik_Tot_abs_Q>
1

> <r_epik_Metal_State_Penalty>
6.39906

> <b_epik_Metal_Only>
0

> <s_lp_Force_Field>
OPLS_2005

> <r_lp_Energy>
11.8532

> <b_lp_Chiralities_Consistent>
1

> <s_lp_Variant>
AV-unprocessed.smi:1880-4

> <Gold.Version>
5.8.1

> <Gold.Id.Protein>
6NUR|6NUR_protein|mol2

> <Gold.PLP.Fitness>
61.0893

> <Gold.PLP.PLP>
-49.2915

> <Gold.PLP.part.hbond>
-4.2980

> <Gold.PLP.part.metal>
0.0000

> <Gold.PLP.part.buried>
-1.8538

> <Gold.PLP.part.nonpolar>
-43.8988

> <Gold.PLP.part.repulsive>
1.2558

> <Gold.PLP.ligand.clash>
0.0000

> <Gold.PLP.ligand.torsion>
1.1851

> <Gold.PLP.Chemscore.Hbond>
3.8320

> <Gold.PLP.Chemscore.CHOScore>
0.8710

> <Gold.PLP.Chemscore.Metal>
0.0000

> <Gold.Chemscore.Hbonds>
donor molecule, donor type, donor heavy atom, donor atom, acceptor molecule, acceptor atom, score
      L1  H    14    37       P1  8028  1.82
      P1  H  7989  7998       L1     4  1.00
      P1  H  8011  8017       L1    10  0.28
      L1  C     9    31       P1  8028  0.76

> <Gold.PLP.Chemscore.Internal.Correction>
0.0591

> <Gold.Rescore>
     Score         DG    S(hbond)    S(metal)    S(lipo)     H(rot)  DE(clash)    DE(int)     intcor
     13.68     -16.38       1.87        0.00     103.96       2.94       0.41       2.29       ----

> <Gold.Chemscore.Fitness>
13.6842

> <Gold.Chemscore.DG>
-16.3803

> <Gold.Chemscore.ZeroCoef>
-5.4800

> <Gold.Chemscore.Hbond>
1.8727

> <Gold.Chemscore.Metal>
0.0000

> <Gold.Chemscore.Lipo>
103.9649

> <Gold.Chemscore.Internal_Hbond>
0.0000

> <Gold.Chemscore.DEClash>
0.4077

> <Gold.Chemscore.DEInternal>
2.2884

> <Gold.Chemscore.Rot>
2.9369

> <Gold.Chemscore.Internal.Correction>
   9.000000E+99

> <Gold.Chemscore.Hbonds>
donor molecule, donor type, donor heavy atom, donor atom, acceptor molecule, acceptor atom, score
      L1  H    14    37       P1  8028  0.87
      P1  H  7989  7998       L1     4  0.78
      P1  H  8011  8017       L1    10  0.15

> <Gold.Chemscore.Hbond.Weighted>
-6.2550

> <Gold.Chemscore.Metal.Weighted>
-0.0000

> <Gold.Chemscore.Lipo.Weighted>
-12.1639

> <Gold.Chemscore.Internal_Hbond.Weighted>
0.0000

> <Gold.Chemscore.DEClash.Weighted>
0.4077

> <Gold.Chemscore.DEInternal.Weighted>
2.2884

> <Gold.Chemscore.Rot.Weighted>
7.5185

> <Gold.Chemscore.Internal.Correction.Weighted>
   9.000000E+99

> <Gold.Protein.RotatedTorsions>
[ 6907 6896 6895 6894 ] final   70.18 input  -60.11 | X-H torsion
[ 7974 7965 7964 7962 ] final -175.24 input  175.53 | X-H torsion
[ 8008 7997 7996 7995 ] final   19.67 input   59.86 | X-H torsion
[ 10167 10162 10161 10158 ] final  136.51 input  -65.29 | X-H torsion
[ 10718 10713 10712 10709 ] final  160.10 input   66.30 | X-H torsion
[ 10763 10752 10751 10750 ] final  115.37 input  -60.55 | X-H torsion
[ 11005 11000 10999 10996 ] final  -59.93 input  -57.11 | X-H torsion

> <Gold.Protein.ActiveResidues>
 VAL166  LYS551  ARG553  GLY616  TRP617  ASP618  TYR619  PRO620  LYS621  CYS622 
 ASP623  PHE694  ASN695  SER759  ASP760  ASP761  ALA762  ILE779  LEU786  VAL792 
 PHE793  MET794  SER795  GLU796  ALA797  LYS798  CYS799  TRP800  GLU811  SER814 

> <Gold.Protein.RotatedAtoms>
  152.4733  134.4906  159.9693 H   0  0  0  0  0  0  0  0  0  0  0  0  # atno 6907 bound_to 6896
  151.4928  133.3515  159.2864 H   0  0  0  0  0  0  0  0  0  0  0  0  # atno 6908 bound_to 6896
  150.8756  134.8165  159.7249 H   0  0  0  0  0  0  0  0  0  0  0  0  # atno 6909 bound_to 6896
  144.7129  140.1350  143.6396 H   0  0  0  0  0  0  0  0  0  0  0  0  # atno 7974 bound_to 7965
  154.9242  140.3031  155.5200 H   0  0  0  0  0  0  0  0  0  0  0  0  # atno 8008 bound_to 7997
  156.3008  140.2366  156.4232 H   0  0  0  0  0  0  0  0  0  0  0  0  # atno 8009 bound_to 7997
  154.8301  140.0419  157.1459 H   0  0  0  0  0  0  0  0  0  0  0  0  # atno 8010 bound_to 7997
  139.5177  144.6461  151.5436 H   0  0  0  0  0  0  0  0  0  0  0  0  # atno 10167 bound_to 10162
  157.1550  131.0573  151.2261 H   0  0  0  0  0  0  0  0  0  0  0  0  # atno 10718 bound_to 10713
  153.5212  135.3597  155.2633 H   0  0  0  0  0  0  0  0  0  0  0  0  # atno 10763 bound_to 10752
  154.8735  135.4046  154.3257 H   0  0  0  0  0  0  0  0  0  0  0  0  # atno 10764 bound_to 10752
  153.3928  135.7072  153.6549 H   0  0  0  0  0  0  0  0  0  0  0  0  # atno 10765 bound_to 10752
  141.1267  133.6619  156.5146 H   0  0  0  0  0  0  0  0  0  0  0  0  # atno 11005 bound_to 11000
  145.9253  139.2571  143.1357 LP  0  0  0  0  0  0  0  0  0  0  0  0  # atno 17320 bound_to 7965
  145.9579  140.8858  143.0226 LP  0  0  0  0  0  0  0  0  0  0  0  0  # atno 17321 bound_to 7965
  140.6246  143.9193  150.6554 LP  0  0  0  0  0  0  0  0  0  0  0  0  # atno 17342 bound_to 10162
  140.2478  143.3616  152.1432 LP  0  0  0  0  0  0  0  0  0  0  0  0  # atno 17343 bound_to 10162
  157.4185  130.7424  149.6895 LP  0  0  0  0  0  0  0  0  0  0  0  0  # atno 17370 bound_to 10713
  155.9764  130.4076  150.3784 LP  0  0  0  0  0  0  0  0  0  0  0  0  # atno 17371 bound_to 10713
  140.4341  134.7075  157.4957 LP  0  0  0  0  0  0  0  0  0  0  0  0  # atno 17394 bound_to 11000
  140.0274  134.6457  155.9154 LP  0  0  0  0  0  0  0  0  0  0  0  0  # atno 17395 bound_to 11000

$$$$
