#       Name:                AV-unprocessed.smi:3075
#       Creating user name   scv26
#       Creation time:       Fri Mar 27 17:12:15 2020


#       File generated by GOLD software.
#

@<TRIPOS>MOLECULE
AV-unprocessed.smi:3075
    34    35     1
SMALL
NO_CHARGES


@<TRIPOS>ATOM
      1 ****        -1.8586   1.6541  -1.7932 N.3            1 S1                 0.0000
      2 ****        -1.5345   0.2492  -1.6412 C.3            1 S1                 0.0000
      3 ****        -0.0366  -0.0152  -1.6815 C.ar           1 S1                 0.0000
      4 ****         0.6301   0.0255  -2.9245 C.ar           1 S1                 0.0000
      5 ****         2.0103  -0.2397  -2.9752 C.ar           1 S1                 0.0000
      6 ****         2.6740  -0.5403  -1.7724 C.ar           1 S1                 0.0000
      7 ****         2.0520  -0.5817  -0.5762 N.ar           1 S1                 0.0000
      8 ****         0.7220  -0.3230  -0.5193 C.ar           1 S1                 0.0000
      9 ****         0.1132  -0.3457   0.7494 N.3            1 S1                 0.0000
     10 ****         0.6087  -1.3345   1.7020 C.3            1 S1                 0.0000
     11 ****        -0.2916  -1.3554   2.9490 C.3            1 S1                 0.0000
     12 ****        -0.3562  -0.0478   3.5119 O.3            1 S1                 0.0000
     13 ****        -0.9067   0.9007   2.6022 C.3            1 S1                 0.0000
     14 ****        -0.0306   0.9790   1.3400 C.3            1 S1                 0.0000
     15 ****        -2.4865   1.7688  -2.5760 H              1 S1                 0.0000
     16 ****        -2.3693   1.9680  -0.9804 H              1 S1                 0.0000
     17 ****        -1.9824  -0.1258  -0.7213 H              1 S1                 0.0000
     18 ****        -2.0058  -0.3014  -2.4559 H              1 S1                 0.0000
     19 ****         0.0885   0.2548  -3.8306 H              1 S1                 0.0000
     20 ****         2.5457  -0.2159  -3.9127 H              1 S1                 0.0000
     21 ****         3.7332  -0.7513  -1.7698 H              1 S1                 0.0000
     22 ****         0.6285  -2.3205   1.2362 H              1 S1                 0.0000
     23 ****         1.6314  -1.0900   1.9929 H              1 S1                 0.0000
     24 ****        -1.2945  -1.7058   2.6995 H              1 S1                 0.0000
     25 ****         0.1113  -2.0433   3.6925 H              1 S1                 0.0000
     26 ****        -1.9309   0.6232   2.3470 H              1 S1                 0.0000
     27 ****        -0.9524   1.8752   3.0888 H              1 S1                 0.0000
     28 ****         0.9572   1.3659   1.5943 H              1 S1                 0.0000
     29 ****        -0.4700   1.6743   0.6254 H              1 S1                 0.0000
     30 ****        -1.0090   2.1661  -1.9198 LP             1 S1                 0.0000
     31 ****         2.5633  -0.7997   0.2551 LP             1 S1                 0.0000
     32 ****        -0.8038  -0.6830   0.5364 LP             1 S1                 0.0000
     33 ****         0.5680   0.2423   3.7602 LP             1 S1                 0.0000
     34 ****        -0.9278  -0.0776   4.3318 LP             1 S1                 0.0000
@<TRIPOS>BOND
    1    1    2 1     
    2    1   15 1     
    3    1   16 1     
    4    2    3 1     
    5    2   17 1     
    6    2   18 1     
    7    3    8 ar    
    8    3    4 ar    
    9    4    5 ar    
   10    4   19 1     
   11    5    6 ar    
   12    5   20 1     
   13    6    7 ar    
   14    6   21 1     
   15    7    8 ar    
   16    8    9 1     
   17    9   14 1     
   18    9   10 1     
   19   10   11 1     
   20   10   22 1     
   21   10   23 1     
   22   11   12 1     
   23   11   24 1     
   24   11   25 1     
   25   12   13 1     
   26   13   14 1     
   27   13   26 1     
   28   13   27 1     
   29   14   28 1     
   30   14   29 1     
   31    1   30 1     
   32    7   31 1     
   33    9   32 1     
   34   12   33 1     
   35   12   34 1     
@<TRIPOS>SUBSTRUCTURE
      1 S1             1
@<TRIPOS>SET
LONE_PAIRS      STATIC     ATOMS    <user>   **** ""
5 30 31 32 33 34
DONOR_HYDROGENS      STATIC     ATOMS    <user>   **** ""
2 15 16
ATOM$BLUE        STATIC     ATOMS    COLORGROUP SYSTEM
5 30 31 32 33 34
ATOM$RED        STATIC     ATOMS    COLORGROUP SYSTEM
2 15 16
