AV-unprocessed.smi:1651|AV-procd|sdf|6637|dock2
  -GOLD-   22720 7343D 1   1.00000     0.00000
 Structure written by MMmdl.
 42 44  0  0  0  0  0  0  0  0  1 V2000
  146.1908  138.5394  154.4783 O   0  0  0  0  0  0  0  0  0  0  0  0
  147.0388  137.9754  153.7877 C   0  0  0  0  0  0  0  0  0  0  0  0
  146.7371  137.1463  152.7789 N   0  0  0  0  0  0  0  0  0  0  0  0
  145.3855  136.8203  152.3428 C   0  0  0  0  0  0  0  0  0  0  0  0
  145.3051  135.9981  151.0706 C   0  0  0  0  0  0  0  0  0  0  0  0
  144.1295  135.0874  150.7979 C   0  0  0  0  0  0  0  0  0  0  0  0
  145.4803  134.4982  151.1228 C   0  0  0  0  0  0  0  0  0  0  0  0
  148.3696  138.0846  153.9425 N   0  0  0  0  0  0  0  0  0  0  0  0
  149.0997  138.8921  154.8569 C   0  0  0  0  0  0  0  0  0  0  0  0
  148.7049  139.1526  156.1913 C   0  0  0  0  0  0  0  0  0  0  0  0
  149.5086  139.9908  156.9876 C   0  0  0  0  0  0  0  0  0  0  0  0
  150.6756  140.5488  156.4270 C   0  0  0  0  0  0  0  0  0  0  0  0
  151.4759  141.3889  157.2143 N   0  0  0  0  0  0  0  0  0  0  0  0
  150.8895  142.7110  157.4199 C   0  0  0  0  0  0  0  0  0  0  0  0
  151.8923  143.6532  158.1085 C   0  0  0  0  0  0  0  0  0  0  0  0
  152.4200  143.0357  159.4137 C   0  0  0  0  0  0  0  0  0  0  0  0
  152.9974  141.6369  159.1435 C   0  0  0  0  0  0  0  0  0  0  0  0
  151.9646  140.7460  158.4320 C   0  0  0  0  0  0  0  0  0  0  0  0
  151.0558  140.3107  155.1496 N   0  0  0  0  0  0  0  0  0  0  0  0
  150.2812  139.5061  154.3920 C   0  0  0  0  0  0  0  0  0  0  0  0
  147.4958  136.7185  152.2687 H   0  0  0  0  0  0  0  0  0  0  0  0
  144.9111  136.2521  153.1430 H   0  0  0  0  0  0  0  0  0  0  0  0
  144.7989  137.7336  152.2289 H   0  0  0  0  0  0  0  0  0  0  0  0
  145.7467  136.4874  150.2044 H   0  0  0  0  0  0  0  0  0  0  0  0
  143.3544  135.0177  151.5588 H   0  0  0  0  0  0  0  0  0  0  0  0
  143.7810  135.0135  149.7700 H   0  0  0  0  0  0  0  0  0  0  0  0
  146.0327  134.0282  150.3115 H   0  0  0  0  0  0  0  0  0  0  0  0
  145.6027  134.0351  152.1000 H   0  0  0  0  0  0  0  0  0  0  0  0
  148.9326  137.4945  153.3476 H   0  0  0  0  0  0  0  0  0  0  0  0
  147.8023  138.7443  156.6173 H   0  0  0  0  0  0  0  0  0  0  0  0
  149.2279  140.2055  158.0085 H   0  0  0  0  0  0  0  0  0  0  0  0
  150.5838  143.1317  156.4611 H   0  0  0  0  0  0  0  0  0  0  0  0
  149.9899  142.6189  158.0301 H   0  0  0  0  0  0  0  0  0  0  0  0
  152.7273  143.8516  157.4352 H   0  0  0  0  0  0  0  0  0  0  0  0
  151.4219  144.6155  158.3115 H   0  0  0  0  0  0  0  0  0  0  0  0
  153.1805  143.6797  159.8563 H   0  0  0  0  0  0  0  0  0  0  0  0
  151.6092  142.9636  160.1396 H   0  0  0  0  0  0  0  0  0  0  0  0
  153.8913  141.7244  158.5244 H   0  0  0  0  0  0  0  0  0  0  0  0
  153.3115  141.1725  160.0785 H   0  0  0  0  0  0  0  0  0  0  0  0
  151.1260  140.5468  159.1009 H   0  0  0  0  0  0  0  0  0  0  0  0
  152.4125  139.7823  158.1852 H   0  0  0  0  0  0  0  0  0  0  0  0
  150.6186  139.3472  153.3780 H   0  0  0  0  0  0  0  0  0  0  0  0
  1  2  2  0  0  0  0
  2  3  1  0  0  0  0
  2  8  1  0  0  0  0
  3  4  1  0  0  0  0
  3 21  1  0  0  0  0
  4  5  1  0  0  0  0
  4 22  1  0  0  0  0
  4 23  1  0  0  0  0
  5  7  1  0  0  0  0
  5  6  1  0  0  0  0
  5 24  1  0  0  0  0
  6  7  1  0  0  0  0
  6 25  1  0  0  0  0
  6 26  1  0  0  0  0
  7 27  1  0  0  0  0
  7 28  1  0  0  0  0
  8  9  1  0  0  0  0
  8 29  1  0  0  0  0
  9 20  1  0  0  0  0
  9 10  2  0  0  0  0
 10 11  1  0  0  0  0
 10 30  1  0  0  0  0
 11 12  2  0  0  0  0
 11 31  1  0  0  0  0
 12 13  1  0  0  0  0
 12 19  1  0  0  0  0
 13 18  1  0  0  0  0
 13 14  1  0  0  0  0
 14 15  1  0  0  0  0
 14 32  1  0  0  0  0
 14 33  1  0  0  0  0
 15 16  1  0  0  0  0
 15 34  1  0  0  0  0
 15 35  1  0  0  0  0
 16 17  1  0  0  0  0
 16 36  1  0  0  0  0
 16 37  1  0  0  0  0
 17 18  1  0  0  0  0
 17 38  1  0  0  0  0
 17 39  1  0  0  0  0
 18 40  1  0  0  0  0
 18 41  1  0  0  0  0
 19 20  2  0  0  0  0
 20 42  1  0  0  0  0
M  END
> <s_m_source_file>
AV-unprocessed.smi

> <i_m_source_file_index>
1651

> <i_lp_mmshare_version>
43012

> <i_f3d_flags>
0

> <s_epik_input>
W0NIMl0xW0NIMl1bQ0hdMVtDSDJdW05IXUMoPU8pW05IXWMyW2NIXVtjSF1jKG5bY0hdMilOM1tDSDJdW0NIMl1bQ0gyXVtDSDJdW0NIMl0z

> <s_epik_cmdline>
J2VwaWtfcHl0aG9uJywgJy1waCcsICc3LjAnLCAnLXRuJywgJzgnLCAnLW1hJywgJzIwMCcsICctbWV0YWxfYmluZGluZycsICctaW1hZScsICc8aW5maWxlLm1hZT4nLCAnLW9tYWUnLCAnPG91dGZpbGUubWFlPic=

> <r_lp_tautomer_probability>
1

> <r_epik_Ionization_Penalty>
0.1086

> <r_epik_Ionization_Penalty_Charging>
0

> <r_epik_Ionization_Penalty_Neutral>
0.1086

> <r_epik_State_Penalty>
0.0922233

> <r_epik_Charging_Adjusted_Penalty>
0.0922233

> <i_epik_Tot_Q>
0

> <i_epik_Tot_abs_Q>
0

> <r_epik_Metal_State_Penalty>
0.0785278

> <b_epik_Metal_Only>
0

> <s_lp_Force_Field>
OPLS_2005

> <r_lp_Energy>
29.7099

> <b_lp_Chiralities_Consistent>
1

> <s_lp_Variant>
AV-unprocessed.smi:1651-1

> <Gold.Version>
5.8.1

> <Gold.Id.Protein>
6NUR|6NUR_protein|mol2

> <Gold.PLP.Fitness>
43.2600

> <Gold.PLP.PLP>
-34.7599

> <Gold.PLP.part.hbond>
-3.0000

> <Gold.PLP.part.metal>
0.0000

> <Gold.PLP.part.buried>
-3.7816

> <Gold.PLP.part.nonpolar>
-28.8831

> <Gold.PLP.part.repulsive>
0.1951

> <Gold.PLP.ligand.clash>
0.0000

> <Gold.PLP.ligand.torsion>
0.7610

> <Gold.PLP.Chemscore.Hbond>
2.1100

> <Gold.PLP.Chemscore.CHOScore>
1.0000

> <Gold.PLP.Chemscore.Metal>
0.0000

> <Gold.Chemscore.Hbonds>
donor molecule, donor type, donor heavy atom, donor atom, acceptor molecule, acceptor atom, score
      L1  H     3    21       P1  7948  1.00
      L1  H     8    29       P1  7948  0.94
      P1  H  7989  7998       L1    19  0.10
      L1  C    20    42       P1  7957  1.00

> <Gold.PLP.Chemscore.Internal.Correction>
0.6920

> <Gold.Rescore>
     Score         DG    S(hbond)    S(metal)    S(lipo)     H(rot)  DE(clash)    DE(int)     intcor
     18.20     -18.96       1.92        0.00      88.94       1.31       0.05       0.71       ----

> <Gold.Chemscore.Fitness>
18.1960

> <Gold.Chemscore.DG>
-18.9613

> <Gold.Chemscore.ZeroCoef>
-5.4800

> <Gold.Chemscore.Hbond>
1.9237

> <Gold.Chemscore.Metal>
0.0000

> <Gold.Chemscore.Lipo>
88.9381

> <Gold.Chemscore.Internal_Hbond>
0.0000

> <Gold.Chemscore.DEClash>
0.0519

> <Gold.Chemscore.DEInternal>
0.7134

> <Gold.Chemscore.Rot>
1.3084

> <Gold.Chemscore.Internal.Correction>
   9.000000E+99

> <Gold.Chemscore.Hbonds>
donor molecule, donor type, donor heavy atom, donor atom, acceptor molecule, acceptor atom, score
      L1  H     3    21       P1  7948  0.97
      L1  H     8    29       P1  7948  0.92

> <Gold.Chemscore.Hbond.Weighted>
-6.4251

> <Gold.Chemscore.Metal.Weighted>
-0.0000

> <Gold.Chemscore.Lipo.Weighted>
-10.4058

> <Gold.Chemscore.Internal_Hbond.Weighted>
0.0000

> <Gold.Chemscore.DEClash.Weighted>
0.0519

> <Gold.Chemscore.DEInternal.Weighted>
0.7134

> <Gold.Chemscore.Rot.Weighted>
3.3495

> <Gold.Chemscore.Internal.Correction.Weighted>
   9.000000E+99

> <Gold.Protein.RotatedTorsions>
[ 6907 6896 6895 6894 ] final -126.99 input  -60.11 | X-H torsion
[ 7974 7965 7964 7962 ] final  153.50 input  175.53 | X-H torsion
[ 8008 7997 7996 7995 ] final -163.53 input   59.86 | X-H torsion
[ 10167 10162 10161 10158 ] final   84.54 input  -65.29 | X-H torsion
[ 10718 10713 10712 10709 ] final  -32.92 input   66.30 | X-H torsion
[ 10763 10752 10751 10750 ] final  -88.01 input  -60.55 | X-H torsion
[ 11005 11000 10999 10996 ] final  -53.44 input  -57.11 | X-H torsion

> <Gold.Protein.ActiveResidues>
 VAL166  LYS551  ARG553  GLY616  TRP617  ASP618  TYR619  PRO620  LYS621  CYS622 
 ASP623  PHE694  ASN695  SER759  ASP760  ASP761  ALA762  ILE779  LEU786  VAL792 
 PHE793  MET794  SER795  GLU796  ALA797  LYS798  CYS799  TRP800  GLU811  SER814 

> <Gold.Protein.RotatedAtoms>
  150.9026  133.7098  159.2874 H   0  0  0  0  0  0  0  0  0  0  0  0  # atno 6907 bound_to 6896
  151.4612  135.1037  159.9735 H   0  0  0  0  0  0  0  0  0  0  0  0  # atno 6908 bound_to 6896
  152.4885  133.8389  159.7197 H   0  0  0  0  0  0  0  0  0  0  0  0  # atno 6909 bound_to 6896
  144.8150  139.6809  143.6125 H   0  0  0  0  0  0  0  0  0  0  0  0  # atno 7974 bound_to 7965
  155.8226  140.0922  157.1840 H   0  0  0  0  0  0  0  0  0  0  0  0  # atno 8008 bound_to 7997
  154.3979  140.1434  156.3578 H   0  0  0  0  0  0  0  0  0  0  0  0  # atno 8009 bound_to 7997
  155.8250  140.3445  155.5540 H   0  0  0  0  0  0  0  0  0  0  0  0  # atno 8010 bound_to 7997
  139.9070  144.6295  150.8577 H   0  0  0  0  0  0  0  0  0  0  0  0  # atno 10167 bound_to 10162
  156.3690  130.4336  149.7561 H   0  0  0  0  0  0  0  0  0  0  0  0  # atno 10718 bound_to 10713
  154.6399  135.5392  153.7777 H   0  0  0  0  0  0  0  0  0  0  0  0  # atno 10763 bound_to 10752
  153.0328  135.6456  154.1176 H   0  0  0  0  0  0  0  0  0  0  0  0  # atno 10764 bound_to 10752
  154.1100  135.2927  155.3212 H   0  0  0  0  0  0  0  0  0  0  0  0  # atno 10765 bound_to 10752
  141.0976  133.6622  156.4172 H   0  0  0  0  0  0  0  0  0  0  0  0  # atno 11005 bound_to 11000
  146.2452  139.6084  142.9464 LP  0  0  0  0  0  0  0  0  0  0  0  0  # atno 17320 bound_to 7965
  145.5235  141.0431  143.2422 LP  0  0  0  0  0  0  0  0  0  0  0  0  # atno 17321 bound_to 7965
  140.7694  143.3394  151.2240 LP  0  0  0  0  0  0  0  0  0  0  0  0  # atno 17342 bound_to 10162
  139.6975  143.9588  152.2890 LP  0  0  0  0  0  0  0  0  0  0  0  0  # atno 17343 bound_to 10162
  156.4695  130.7990  151.3008 LP  0  0  0  0  0  0  0  0  0  0  0  0  # atno 17370 bound_to 10713
  157.7482  131.0040  150.3060 LP  0  0  0  0  0  0  0  0  0  0  0  0  # atno 17371 bound_to 10713
  140.5102  134.6402  157.5281 LP  0  0  0  0  0  0  0  0  0  0  0  0  # atno 17394 bound_to 11000
  139.9817  134.7127  155.9848 LP  0  0  0  0  0  0  0  0  0  0  0  0  # atno 17395 bound_to 11000

$$$$
