AV-unprocessed.smi:2457|AV-procd|sdf|9706|dock10
  -GOLD-   2272013343D 1   1.00000     0.00000
 Structure written by MMmdl.
 40 41  0  0  0  0  0  0  0  0  1 V2000
  144.9161  144.9676  153.0940 C   0  0  0  0  0  0  0  0  0  0  0  0
  145.3184  143.7602  153.8804 C   0  0  0  0  0  0  0  0  0  0  0  0
  144.9432  143.4463  155.1627 C   0  0  0  0  0  0  0  0  0  0  0  0
  145.6461  141.9442  155.6957 S   0  0  0  0  0  0  0  0  0  0  0  0
  146.4400  141.7953  154.1312 C   0  0  0  0  0  0  0  0  0  0  0  0
  147.3109  140.6326  153.7623 C   0  0  2  0  0  0  0  0  0  0  0  0
  146.9031  139.3474  154.4963 C   0  0  0  0  0  0  0  0  0  0  0  0
  148.8205  140.9410  153.8820 C   0  0  0  0  0  0  0  0  0  0  0  0
  149.1468  141.7456  155.0565 N   0  0  0  0  0  0  0  0  0  0  0  0
  150.2966  141.6748  155.7403 C   0  0  0  0  0  0  0  0  0  0  0  0
  151.2054  140.8859  155.4811 O   0  0  0  0  0  0  0  0  0  0  0  0
  150.3462  142.5829  156.7243 N   0  0  0  0  0  0  0  0  0  0  0  0
  151.4853  142.7999  157.6110 C   0  0  1  0  0  0  0  0  0  0  0  0
  151.2810  144.0917  158.4301 C   0  0  0  0  0  0  0  0  0  0  0  0
  152.4766  144.4060  159.3435 C   0  0  0  0  0  0  0  0  0  0  0  0
  152.7307  143.2985  160.3757 C   0  0  0  0  0  0  0  0  0  0  0  0
  153.1373  141.7274  159.5665 S   0  0  0  0  0  0  0  0  0  0  0  0
  151.6649  141.5706  158.5180 C   0  0  0  0  0  0  0  0  0  0  0  0
  146.1652  142.8092  153.3047 N   0  0  0  0  0  0  0  0  0  0  0  0
  144.2877  145.6364  153.6827 H   0  0  0  0  0  0  0  0  0  0  0  0
  144.3546  144.6873  152.2025 H   0  0  0  0  0  0  0  0  0  0  0  0
  145.7888  145.5359  152.7711 H   0  0  0  0  0  0  0  0  0  0  0  0
  144.2992  144.0057  155.8249 H   0  0  0  0  0  0  0  0  0  0  0  0
  147.1169  140.4402  152.7065 H   0  0  0  0  0  0  0  0  0  0  0  0
  145.8568  139.1041  154.3090 H   0  0  0  0  0  0  0  0  0  0  0  0
  147.0351  139.4470  155.5740 H   0  0  0  0  0  0  0  0  0  0  0  0
  147.5035  138.4998  154.1652 H   0  0  0  0  0  0  0  0  0  0  0  0
  149.3764  140.0069  153.9678 H   0  0  0  0  0  0  0  0  0  0  0  0
  149.1843  141.4345  152.9792 H   0  0  0  0  0  0  0  0  0  0  0  0
  148.4610  142.4279  155.3452 H   0  0  0  0  0  0  0  0  0  0  0  0
  149.5472  143.1858  156.8555 H   0  0  0  0  0  0  0  0  0  0  0  0
  152.3865  142.9043  157.0035 H   0  0  0  0  0  0  0  0  0  0  0  0
  151.1255  144.9345  157.7554 H   0  0  0  0  0  0  0  0  0  0  0  0
  150.3732  144.0121  159.0298 H   0  0  0  0  0  0  0  0  0  0  0  0
  153.3720  144.5602  158.7400 H   0  0  0  0  0  0  0  0  0  0  0  0
  152.2933  145.3466  159.8637 H   0  0  0  0  0  0  0  0  0  0  0  0
  153.5556  143.5769  161.0320 H   0  0  0  0  0  0  0  0  0  0  0  0
  151.8529  143.1575  161.0071 H   0  0  0  0  0  0  0  0  0  0  0  0
  150.7907  141.4319  159.1554 H   0  0  0  0  0  0  0  0  0  0  0  0
  151.7694  140.6669  157.9168 H   0  0  0  0  0  0  0  0  0  0  0  0
  1  2  1  0  0  0  0
  1 20  1  0  0  0  0
  1 21  1  0  0  0  0
  1 22  1  0  0  0  0
  2 19  1  0  0  0  0
  2  3  2  0  0  0  0
  3  4  1  0  0  0  0
  3 23  1  0  0  0  0
  4  5  1  0  0  0  0
  5  6  1  0  0  0  0
  5 19  2  0  0  0  0
  6  7  1  0  0  0  0
  6  8  1  0  0  0  0
  6 24  1  0  0  0  0
  7 25  1  0  0  0  0
  7 26  1  0  0  0  0
  7 27  1  0  0  0  0
  8  9  1  0  0  0  0
  8 28  1  0  0  0  0
  8 29  1  0  0  0  0
  9 10  1  0  0  0  0
  9 30  1  0  0  0  0
 10 11  2  0  0  0  0
 10 12  1  0  0  0  0
 12 13  1  0  0  0  0
 12 31  1  0  0  0  0
 13 18  1  0  0  0  0
 13 14  1  0  0  0  0
 13 32  1  0  0  0  0
 14 15  1  0  0  0  0
 14 33  1  0  0  0  0
 14 34  1  0  0  0  0
 15 16  1  0  0  0  0
 15 35  1  0  0  0  0
 15 36  1  0  0  0  0
 16 17  1  0  0  0  0
 16 37  1  0  0  0  0
 16 38  1  0  0  0  0
 17 18  1  0  0  0  0
 18 39  1  0  0  0  0
 18 40  1  0  0  0  0
M  END
> <s_m_source_file>
AV-unprocessed.smi

> <i_m_source_file_index>
2457

> <i_lp_mmshare_version>
43012

> <i_f3d_flags>
0

> <s_epik_input>
W0NIM11jMVtjSF1zYyhuMSlbQ0BIXShbQ0gzXSlbQ0gyXVtOSF1DKD1PKVtOSF1bQ0BASF0yW0NIMl1bQ0gyXVtDSDJdU1tDSDJdMg==

> <s_epik_cmdline>
J2VwaWtfcHl0aG9uJywgJy1waCcsICc3LjAnLCAnLXRuJywgJzgnLCAnLW1hJywgJzIwMCcsICctbWV0YWxfYmluZGluZycsICctaW1hZScsICc8aW5maWxlLm1hZT4nLCAnLW9tYWUnLCAnPG91dGZpbGUubWFlPic=

> <r_epik_Ionization_Penalty>
0.00154805

> <r_epik_Ionization_Penalty_Charging>
0

> <r_epik_Ionization_Penalty_Neutral>
0.00154805

> <r_epik_State_Penalty>
0.00100357

> <r_epik_Charging_Adjusted_Penalty>
0.00100357

> <i_epik_Tot_Q>
0

> <i_epik_Tot_abs_Q>
0

> <r_epik_Metal_State_Penalty>
-0

> <b_epik_Metal_Only>
0

> <s_lp_Force_Field>
OPLS_2005

> <r_lp_Energy>
-7.39809

> <b_lp_Chiralities_Consistent>
1

> <s_lp_Variant>
AV-unprocessed.smi:2457-3

> <Gold.Version>
5.8.1

> <Gold.Id.Protein>
6NUR|6NUR_protein|mol2

> <Gold.PLP.Fitness>
45.0021

> <Gold.PLP.PLP>
-42.7867

> <Gold.PLP.part.hbond>
-2.9969

> <Gold.PLP.part.metal>
0.0000

> <Gold.PLP.part.buried>
-2.0812

> <Gold.PLP.part.nonpolar>
-37.2676

> <Gold.PLP.part.repulsive>
0.4868

> <Gold.PLP.ligand.clash>
0.0000

> <Gold.PLP.ligand.torsion>
1.1976

> <Gold.PLP.Chemscore.Hbond>
1.4968

> <Gold.PLP.Chemscore.CHOScore>
0.0000

> <Gold.PLP.Chemscore.Metal>
0.0000

> <Gold.Chemscore.Hbonds>
donor molecule, donor type, donor heavy atom, donor atom, acceptor molecule, acceptor atom, score
      L1  H     9    30       P1  8028  0.12
      L1  H    12    31       P1  8028  0.55
      P1  H  7989  7998       L1    11  0.70

> <Gold.PLP.Chemscore.Internal.Correction>
0.1201

> <Gold.Rescore>
     Score         DG    S(hbond)    S(metal)    S(lipo)     H(rot)  DE(clash)    DE(int)     intcor
     18.83     -20.21       1.60        0.00     112.24       1.46       0.09       1.29       ----

> <Gold.Chemscore.Fitness>
18.8252

> <Gold.Chemscore.DG>
-20.2104

> <Gold.Chemscore.ZeroCoef>
-5.4800

> <Gold.Chemscore.Hbond>
1.5989

> <Gold.Chemscore.Metal>
0.0000

> <Gold.Chemscore.Lipo>
112.2375

> <Gold.Chemscore.Internal_Hbond>
0.0000

> <Gold.Chemscore.DEClash>
0.0917

> <Gold.Chemscore.DEInternal>
1.2935

> <Gold.Chemscore.Rot>
1.4616

> <Gold.Chemscore.Internal.Correction>
   9.000000E+99

> <Gold.Chemscore.Hbonds>
donor molecule, donor type, donor heavy atom, donor atom, acceptor molecule, acceptor atom, score
      L1  H     9    30       P1  8028  0.12
      L1  H    12    31       P1  8028  0.52
      P1  H  7989  7998       L1    11  0.52

> <Gold.Chemscore.Hbond.Weighted>
-5.3402

> <Gold.Chemscore.Metal.Weighted>
-0.0000

> <Gold.Chemscore.Lipo.Weighted>
-13.1318

> <Gold.Chemscore.Internal_Hbond.Weighted>
0.0000

> <Gold.Chemscore.DEClash.Weighted>
0.0917

> <Gold.Chemscore.DEInternal.Weighted>
1.2935

> <Gold.Chemscore.Rot.Weighted>
3.7416

> <Gold.Chemscore.Internal.Correction.Weighted>
   9.000000E+99

> <Gold.Protein.RotatedTorsions>
[ 6907 6896 6895 6894 ] final  -82.92 input  -60.11 | X-H torsion
[ 7974 7965 7964 7962 ] final  103.80 input  175.53 | X-H torsion
[ 8008 7997 7996 7995 ] final  -20.09 input   59.86 | X-H torsion
[ 10167 10162 10161 10158 ] final -158.99 input  -65.29 | X-H torsion
[ 10718 10713 10712 10709 ] final  148.92 input   66.30 | X-H torsion
[ 10763 10752 10751 10750 ] final -125.22 input  -60.55 | X-H torsion
[ 11005 11000 10999 10996 ] final   78.81 input  -57.11 | X-H torsion

> <Gold.Protein.ActiveResidues>
 VAL166  LYS551  ARG553  GLY616  TRP617  ASP618  TYR619  PRO620  LYS621  CYS622 
 ASP623  PHE694  ASN695  SER759  ASP760  ASP761  ALA762  ILE779  LEU786  VAL792 
 PHE793  MET794  SER795  GLU796  ALA797  LYS798  CYS799  TRP800  GLU811  SER814 

> <Gold.Protein.RotatedAtoms>
  150.6891  134.3591  159.4942 H   0  0  0  0  0  0  0  0  0  0  0  0  # atno 6907 bound_to 6896
  152.1422  134.9051  160.0562 H   0  0  0  0  0  0  0  0  0  0  0  0  # atno 6908 bound_to 6896
  152.0180  133.3853  159.4284 H   0  0  0  0  0  0  0  0  0  0  0  0  # atno 6909 bound_to 6896
  145.3411  139.2462  143.3609 H   0  0  0  0  0  0  0  0  0  0  0  0  # atno 7974 bound_to 7965
  154.4793  140.2071  155.9803 H   0  0  0  0  0  0  0  0  0  0  0  0  # atno 8008 bound_to 7997
  156.1139  140.3224  155.8081 H   0  0  0  0  0  0  0  0  0  0  0  0  # atno 8009 bound_to 7997
  155.4587  140.0522  157.2984 H   0  0  0  0  0  0  0  0  0  0  0  0  # atno 8010 bound_to 7997
  139.6650  143.9846  152.2249 H   0  0  0  0  0  0  0  0  0  0  0  0  # atno 10167 bound_to 10162
  157.3026  131.0873  151.1378 H   0  0  0  0  0  0  0  0  0  0  0  0  # atno 10718 bound_to 10713
  154.8733  135.4037  154.3232 H   0  0  0  0  0  0  0  0  0  0  0  0  # atno 10763 bound_to 10752
  153.4057  135.7019  153.6399 H   0  0  0  0  0  0  0  0  0  0  0  0  # atno 10764 bound_to 10752
  153.5123  135.3704  155.2563 H   0  0  0  0  0  0  0  0  0  0  0  0  # atno 10765 bound_to 10752
  139.9198  134.7793  156.1697 H   0  0  0  0  0  0  0  0  0  0  0  0  # atno 11005 bound_to 11000
  146.3007  140.4009  142.8705 LP  0  0  0  0  0  0  0  0  0  0  0  0  # atno 17320 bound_to 7965
  144.8789  140.7374  143.5999 LP  0  0  0  0  0  0  0  0  0  0  0  0  # atno 17321 bound_to 7965
  139.9595  144.6567  150.8093 LP  0  0  0  0  0  0  0  0  0  0  0  0  # atno 17342 bound_to 10162
  140.7595  143.3131  151.2797 LP  0  0  0  0  0  0  0  0  0  0  0  0  # atno 17343 bound_to 10162
  157.2731  130.6714  149.6029 LP  0  0  0  0  0  0  0  0  0  0  0  0  # atno 17370 bound_to 10713
  155.9672  130.4473  150.5574 LP  0  0  0  0  0  0  0  0  0  0  0  0  # atno 17371 bound_to 10713
  141.0708  133.6798  156.2136 LP  0  0  0  0  0  0  0  0  0  0  0  0  # atno 17394 bound_to 11000
  140.6510  134.5067  157.5577 LP  0  0  0  0  0  0  0  0  0  0  0  0  # atno 17395 bound_to 11000

$$$$
