AV-unprocessed.smi:2797|AV-procd|sdf|10783|dock3
  -GOLD-   2272015213D 1   1.00000     0.00000
 Structure written by MMmdl.
 37 38  0  0  0  0  0  0  0  0  1 V2000
  145.3816  139.5109  155.1124 C   0  0  0  0  0  0  0  0  0  0  0  0
  146.6175  138.8700  154.8184 O   0  0  0  0  0  0  0  0  0  0  0  0
  147.3013  139.2799  153.6288 C   0  0  0  0  0  0  0  0  0  0  0  0
  146.5410  138.8582  152.3644 C   0  0  0  0  0  0  0  0  0  0  0  0
  146.7392  137.4403  152.0801 N   0  0  0  0  0  0  0  0  0  0  0  0
  145.7679  136.5425  151.8634 C   0  0  0  0  0  0  0  0  0  0  0  0
  144.5680  136.8081  151.9245 O   0  0  0  0  0  0  0  0  0  0  0  0
  146.2833  135.3310  151.5934 N   0  0  0  0  0  0  0  0  0  0  0  0
  145.6027  134.1161  151.2992 C   0  0  0  0  0  0  0  0  0  0  0  0
  144.3971  134.0562  150.5593 C   0  0  0  0  0  0  0  0  0  0  0  0
  143.8187  132.7974  150.3087 C   0  0  0  0  0  0  0  0  0  0  0  0
  144.3582  131.6355  150.7302 N   0  0  0  0  0  0  0  0  0  0  0  0
  145.5165  131.6874  151.4234 C   0  0  0  0  0  0  0  0  0  0  0  0
  146.0794  130.3485  151.8620 C   0  0  0  0  0  0  0  0  0  0  0  0
  146.1809  132.8985  151.7294 C   0  0  0  0  0  0  0  0  0  0  0  0
  147.6686  132.8892  152.6169 Cl  0  0  0  0  0  0  0  0  0  0  0  0
  147.6293  140.7752  153.8055 C   0  0  0  0  0  0  0  0  0  0  0  0
  148.9676  140.3791  154.4319 C   0  0  0  0  0  0  0  0  0  0  0  0
  148.8239  139.0339  153.7182 C   0  0  0  0  0  0  0  0  0  0  0  0
  144.9941  139.1122  156.0496 H   0  0  0  0  0  0  0  0  0  0  0  0
  144.6275  139.3272  154.3489 H   0  0  0  0  0  0  0  0  0  0  0  0
  145.4886  140.5863  155.2421 H   0  0  0  0  0  0  0  0  0  0  0  0
  145.4709  139.0049  152.5123 H   0  0  0  0  0  0  0  0  0  0  0  0
  146.7966  139.4834  151.5089 H   0  0  0  0  0  0  0  0  0  0  0  0
  147.6959  137.1252  152.0161 H   0  0  0  0  0  0  0  0  0  0  0  0
  147.2871  135.2522  151.6647 H   0  0  0  0  0  0  0  0  0  0  0  0
  143.9150  134.9395  150.1702 H   0  0  0  0  0  0  0  0  0  0  0  0
  142.8994  132.7216  149.7470 H   0  0  0  0  0  0  0  0  0  0  0  0
  146.1786  130.3156  152.9472 H   0  0  0  0  0  0  0  0  0  0  0  0
  147.0631  130.1890  151.4201 H   0  0  0  0  0  0  0  0  0  0  0  0
  145.4347  129.5226  151.5579 H   0  0  0  0  0  0  0  0  0  0  0  0
  147.7539  141.2962  152.8548 H   0  0  0  0  0  0  0  0  0  0  0  0
  146.9574  141.3198  154.4699 H   0  0  0  0  0  0  0  0  0  0  0  0
  149.8195  140.9793  154.1115 H   0  0  0  0  0  0  0  0  0  0  0  0
  148.9171  140.2894  155.5182 H   0  0  0  0  0  0  0  0  0  0  0  0
  149.1501  138.1781  154.3069 H   0  0  0  0  0  0  0  0  0  0  0  0
  149.3048  139.0354  152.7387 H   0  0  0  0  0  0  0  0  0  0  0  0
  1  2  1  0  0  0  0
  1 20  1  0  0  0  0
  1 21  1  0  0  0  0
  1 22  1  0  0  0  0
  2  3  1  0  0  0  0
  3 19  1  0  0  0  0
  3  4  1  0  0  0  0
  3 17  1  0  0  0  0
  4  5  1  0  0  0  0
  4 23  1  0  0  0  0
  4 24  1  0  0  0  0
  5  6  1  0  0  0  0
  5 25  1  0  0  0  0
  6  7  2  0  0  0  0
  6  8  1  0  0  0  0
  8  9  1  0  0  0  0
  8 26  1  0  0  0  0
  9 15  1  0  0  0  0
  9 10  2  0  0  0  0
 10 11  1  0  0  0  0
 10 27  1  0  0  0  0
 11 12  2  0  0  0  0
 11 28  1  0  0  0  0
 12 13  1  0  0  0  0
 13 14  1  0  0  0  0
 13 15  2  0  0  0  0
 14 29  1  0  0  0  0
 14 30  1  0  0  0  0
 14 31  1  0  0  0  0
 15 16  1  0  0  0  0
 17 18  1  0  0  0  0
 17 32  1  0  0  0  0
 17 33  1  0  0  0  0
 18 19  1  0  0  0  0
 18 34  1  0  0  0  0
 18 35  1  0  0  0  0
 19 36  1  0  0  0  0
 19 37  1  0  0  0  0
M  END
> <s_m_source_file>
AV-unprocessed.smi

> <i_m_source_file_index>
2797

> <i_lp_mmshare_version>
43012

> <i_f3d_flags>
0

> <s_epik_input>
W0NIMl0xW0NIMl1bQ0gyXUMxKE9bQ0gzXSlbQ0gyXVtOSF1DKD1PKVtOSF1jMltjSF1bY0hdbmMoW0NIM10pYzJDbA==

> <s_epik_cmdline>
J2VwaWtfcHl0aG9uJywgJy1waCcsICc3LjAnLCAnLXRuJywgJzgnLCAnLW1hJywgJzIwMCcsICctbWV0YWxfYmluZGluZycsICctaW1hZScsICc8aW5maWxlLm1hZT4nLCAnLW9tYWUnLCAnPG91dGZpbGUubWFlPic=

> <r_epik_Ionization_Penalty>
0.0099818

> <r_epik_Ionization_Penalty_Charging>
0

> <r_epik_Ionization_Penalty_Neutral>
0.0099818

> <r_epik_State_Penalty>
0.00758124

> <r_epik_Charging_Adjusted_Penalty>
0.00758124

> <i_epik_Tot_Q>
0

> <i_epik_Tot_abs_Q>
0

> <r_epik_Metal_State_Penalty>
0.00745574

> <b_epik_Metal_Only>
0

> <s_lp_Force_Field>
OPLS_2005

> <r_lp_Energy>
22.2651

> <b_lp_Chiralities_Consistent>
1

> <s_lp_Variant>
AV-unprocessed.smi:2797-1

> <Gold.Version>
5.8.1

> <Gold.Id.Protein>
6NUR|6NUR_protein|mol2

> <Gold.PLP.Fitness>
39.4084

> <Gold.PLP.PLP>
-31.5773

> <Gold.PLP.part.hbond>
-1.9498

> <Gold.PLP.part.metal>
0.0000

> <Gold.PLP.part.buried>
-3.8313

> <Gold.PLP.part.nonpolar>
-28.6817

> <Gold.PLP.part.repulsive>
1.8267

> <Gold.PLP.ligand.clash>
0.0000

> <Gold.PLP.ligand.torsion>
0.6162

> <Gold.PLP.Chemscore.Hbond>
1.9280

> <Gold.PLP.Chemscore.CHOScore>
1.0000

> <Gold.PLP.Chemscore.Metal>
0.0000

> <Gold.Chemscore.Hbonds>
donor molecule, donor type, donor heavy atom, donor atom, acceptor molecule, acceptor atom, score
      L1  H     5    25       P1  7948  1.00
      L1  H     8    26       P1  7948  0.93
      L1  C    11    28       P1 10186  0.94

> <Gold.PLP.Chemscore.Internal.Correction>
0.2795

> <Gold.Rescore>
     Score         DG    S(hbond)    S(metal)    S(lipo)     H(rot)  DE(clash)    DE(int)     intcor
     16.11     -18.36       1.89        0.00      86.97       1.41       1.65       0.60       ----

> <Gold.Chemscore.Fitness>
16.1065

> <Gold.Chemscore.DG>
-18.3610

> <Gold.Chemscore.ZeroCoef>
-5.4800

> <Gold.Chemscore.Hbond>
1.8900

> <Gold.Chemscore.Metal>
0.0000

> <Gold.Chemscore.Lipo>
86.9745

> <Gold.Chemscore.Internal_Hbond>
0.0000

> <Gold.Chemscore.DEClash>
1.6526

> <Gold.Chemscore.DEInternal>
0.6019

> <Gold.Chemscore.Rot>
1.4092

> <Gold.Chemscore.Internal.Correction>
   9.000000E+99

> <Gold.Chemscore.Hbonds>
donor molecule, donor type, donor heavy atom, donor atom, acceptor molecule, acceptor atom, score
      L1  H     5    25       P1  7948  0.93
      L1  H     8    26       P1  7948  0.84

> <Gold.Chemscore.Hbond.Weighted>
-6.3125

> <Gold.Chemscore.Metal.Weighted>
-0.0000

> <Gold.Chemscore.Lipo.Weighted>
-10.1760

> <Gold.Chemscore.Internal_Hbond.Weighted>
0.0000

> <Gold.Chemscore.DEClash.Weighted>
1.6526

> <Gold.Chemscore.DEInternal.Weighted>
0.6019

> <Gold.Chemscore.Rot.Weighted>
3.6075

> <Gold.Chemscore.Internal.Correction.Weighted>
   9.000000E+99

> <Gold.Protein.RotatedTorsions>
[ 6907 6896 6895 6894 ] final  144.61 input  -60.11 | X-H torsion
[ 7974 7965 7964 7962 ] final  -67.88 input  175.53 | X-H torsion
[ 8008 7997 7996 7995 ] final  -66.90 input   59.86 | X-H torsion
[ 10167 10162 10161 10158 ] final   73.89 input  -65.29 | X-H torsion
[ 10718 10713 10712 10709 ] final  -82.57 input   66.30 | X-H torsion
[ 10763 10752 10751 10750 ] final  -33.26 input  -60.55 | X-H torsion
[ 11005 11000 10999 10996 ] final  -26.35 input  -57.11 | X-H torsion

> <Gold.Protein.ActiveResidues>
 VAL166  LYS551  ARG553  GLY616  TRP617  ASP618  TYR619  PRO620  LYS621  CYS622 
 ASP623  PHE694  ASN695  SER759  ASP760  ASP761  ALA762  ILE779  LEU786  VAL792 
 PHE793  MET794  SER795  GLU796  ALA797  LYS798  CYS799  TRP800  GLU811  SER814 

> <Gold.Protein.RotatedAtoms>
  152.1914  133.4776  159.5009 H   0  0  0  0  0  0  0  0  0  0  0  0  # atno 6907 bound_to 6896
  150.6952  134.1707  159.4220 H   0  0  0  0  0  0  0  0  0  0  0  0  # atno 6908 bound_to 6896
  151.9622  135.0118  160.0599 H   0  0  0  0  0  0  0  0  0  0  0  0  # atno 6909 bound_to 6896
  145.7236  140.9028  143.0617 H   0  0  0  0  0  0  0  0  0  0  0  0  # atno 7974 bound_to 7965
  154.4764  140.0903  156.7272 H   0  0  0  0  0  0  0  0  0  0  0  0  # atno 8008 bound_to 7997
  155.4585  140.3460  155.4291 H   0  0  0  0  0  0  0  0  0  0  0  0  # atno 8009 bound_to 7997
  156.1123  140.1451  156.9309 H   0  0  0  0  0  0  0  0  0  0  0  0  # atno 8010 bound_to 7997
  140.0197  144.5550  150.7592 H   0  0  0  0  0  0  0  0  0  0  0  0  # atno 10167 bound_to 10162
  156.0031  130.4638  150.4125 H   0  0  0  0  0  0  0  0  0  0  0  0  # atno 10718 bound_to 10713
  153.8272  135.6869  153.4819 H   0  0  0  0  0  0  0  0  0  0  0  0  # atno 10763 bound_to 10752
  153.1533  135.4609  154.9666 H   0  0  0  0  0  0  0  0  0  0  0  0  # atno 10764 bound_to 10752
  154.7902  135.3299  154.7739 H   0  0  0  0  0  0  0  0  0  0  0  0  # atno 10765 bound_to 10752
  140.9021  133.7517  156.0558 H   0  0  0  0  0  0  0  0  0  0  0  0  # atno 11005 bound_to 11000
  144.6910  139.9235  143.7469 LP  0  0  0  0  0  0  0  0  0  0  0  0  # atno 17320 bound_to 7965
  146.0603  139.3597  143.0585 LP  0  0  0  0  0  0  0  0  0  0  0  0  # atno 17321 bound_to 7965
  140.7348  143.2733  151.3821 LP  0  0  0  0  0  0  0  0  0  0  0  0  # atno 17342 bound_to 10162
  139.6148  144.1024  152.2335 LP  0  0  0  0  0  0  0  0  0  0  0  0  # atno 17343 bound_to 10162
  157.2186  131.0477  151.2559 LP  0  0  0  0  0  0  0  0  0  0  0  0  # atno 17370 bound_to 10713
  157.3821  130.7237  149.6637 LP  0  0  0  0  0  0  0  0  0  0  0  0  # atno 17371 bound_to 10713
  140.8217  134.3282  157.5379 LP  0  0  0  0  0  0  0  0  0  0  0  0  # atno 17394 bound_to 11000
  139.8744  134.9313  156.3524 LP  0  0  0  0  0  0  0  0  0  0  0  0  # atno 17395 bound_to 11000

$$$$
