AV-unprocessed.smi:1287|AV-procd|sdf|5379|dock9
  -GOLD-   22720 4523D 1   1.00000     0.00000
 Structure written by MMmdl.
 44 45  0  0  0  0  0  0  0  0  1 V2000
  150.3675  135.2582  155.1143 C   0  0  0  0  0  0  0  0  0  0  0  0
  149.8362  136.6019  155.6013 C   0  0  0  0  0  0  0  0  0  0  0  0
  150.0236  136.9561  156.7650 O   0  0  0  0  0  0  0  0  0  0  0  0
  149.1750  137.3423  154.6972 N   0  0  0  0  0  0  0  0  0  0  0  0
  148.6067  138.6664  154.9446 C   0  0  2  0  0  0  0  0  0  0  0  0
  147.6064  138.9765  153.8186 C   0  0  0  0  0  0  0  0  0  0  0  0
  149.7122  139.7338  154.9203 C   0  0  0  0  0  0  0  0  0  0  0  0
  150.6705  139.6260  154.1530 O   0  0  0  0  0  0  0  0  0  0  0  0
  149.5645  140.7602  155.7714 N   0  0  0  0  0  0  0  0  0  0  0  0
  150.5263  141.8438  155.9449 C   0  0  0  0  0  0  0  0  0  0  0  0
  151.2292  141.8456  157.2959 C   0  0  0  0  0  0  0  0  0  0  0  0
  151.3263  143.0072  158.0912 C   0  0  0  0  0  0  0  0  0  0  0  0
  151.9925  142.9347  159.3292 C   0  0  0  0  0  0  0  0  0  0  0  0
  152.5488  141.7014  159.7444 C   0  0  0  0  0  0  0  0  0  0  0  0
  153.2157  141.6035  160.9855 N   0  0  0  0  0  0  0  0  0  0  0  0
  153.1916  142.7679  161.8695 C   0  0  0  0  0  0  0  0  0  0  0  0
  153.7091  142.3918  163.2680 C   0  0  0  0  0  0  0  0  0  0  0  0
  155.0044  141.8115  163.1599 O   0  0  0  0  0  0  0  0  0  0  0  0
  154.9847  140.6155  162.3878 C   0  0  0  0  0  0  0  0  0  0  0  0
  154.5091  140.9247  160.9576 C   0  0  0  0  0  0  0  0  0  0  0  0
  152.4666  140.5915  158.9692 N   0  0  0  0  0  0  0  0  0  0  0  0
  151.8256  140.6661  157.7840 C   0  0  0  0  0  0  0  0  0  0  0  0
  150.9763  135.3898  154.2190 H   0  0  0  0  0  0  0  0  0  0  0  0
  149.5420  134.5867  154.8767 H   0  0  0  0  0  0  0  0  0  0  0  0
  150.9845  134.7852  155.8791 H   0  0  0  0  0  0  0  0  0  0  0  0
  149.0771  136.9735  153.7624 H   0  0  0  0  0  0  0  0  0  0  0  0
  148.0889  138.6755  155.9062 H   0  0  0  0  0  0  0  0  0  0  0  0
  147.1531  139.9597  153.9514 H   0  0  0  0  0  0  0  0  0  0  0  0
  146.7967  138.2464  153.8069 H   0  0  0  0  0  0  0  0  0  0  0  0
  148.0803  138.9581  152.8359 H   0  0  0  0  0  0  0  0  0  0  0  0
  148.7462  140.7744  156.3630 H   0  0  0  0  0  0  0  0  0  0  0  0
  151.2660  141.8097  155.1432 H   0  0  0  0  0  0  0  0  0  0  0  0
  149.9965  142.7901  155.8350 H   0  0  0  0  0  0  0  0  0  0  0  0
  150.9024  143.9454  157.7647 H   0  0  0  0  0  0  0  0  0  0  0  0
  152.0792  143.8247  159.9343 H   0  0  0  0  0  0  0  0  0  0  0  0
  153.8108  143.5581  161.4424 H   0  0  0  0  0  0  0  0  0  0  0  0
  152.1762  143.1573  161.9544 H   0  0  0  0  0  0  0  0  0  0  0  0
  153.7692  143.2801  163.8970 H   0  0  0  0  0  0  0  0  0  0  0  0
  153.0271  141.6977  163.7619 H   0  0  0  0  0  0  0  0  0  0  0  0
  155.9888  140.1919  162.3648 H   0  0  0  0  0  0  0  0  0  0  0  0
  154.3376  139.8750  162.8608 H   0  0  0  0  0  0  0  0  0  0  0  0
  154.4668  139.9950  160.3920 H   0  0  0  0  0  0  0  0  0  0  0  0
  155.2327  141.5679  160.4554 H   0  0  0  0  0  0  0  0  0  0  0  0
  151.7863  139.7525  157.2090 H   0  0  0  0  0  0  0  0  0  0  0  0
  1  2  1  0  0  0  0
  1 23  1  0  0  0  0
  1 24  1  0  0  0  0
  1 25  1  0  0  0  0
  2  3  2  0  0  0  0
  2  4  1  0  0  0  0
  4  5  1  0  0  0  0
  4 26  1  0  0  0  0
  5  6  1  0  0  0  0
  5  7  1  0  0  0  0
  5 27  1  0  0  0  0
  6 28  1  0  0  0  0
  6 29  1  0  0  0  0
  6 30  1  0  0  0  0
  7  8  2  0  0  0  0
  7  9  1  0  0  0  0
  9 10  1  0  0  0  0
  9 31  1  0  0  0  0
 10 11  1  0  0  0  0
 10 32  1  0  0  0  0
 10 33  1  0  0  0  0
 11 22  1  0  0  0  0
 11 12  2  0  0  0  0
 12 13  1  0  0  0  0
 12 34  1  0  0  0  0
 13 14  2  0  0  0  0
 13 35  1  0  0  0  0
 14 15  1  0  0  0  0
 14 21  1  0  0  0  0
 15 20  1  0  0  0  0
 15 16  1  0  0  0  0
 16 17  1  0  0  0  0
 16 36  1  0  0  0  0
 16 37  1  0  0  0  0
 17 18  1  0  0  0  0
 17 38  1  0  0  0  0
 17 39  1  0  0  0  0
 18 19  1  0  0  0  0
 19 20  1  0  0  0  0
 19 40  1  0  0  0  0
 19 41  1  0  0  0  0
 20 42  1  0  0  0  0
 20 43  1  0  0  0  0
 21 22  2  0  0  0  0
 22 44  1  0  0  0  0
M  END
> <s_m_source_file>
AV-unprocessed.smi

> <i_m_source_file_index>
1287

> <i_lp_mmshare_version>
43012

> <i_f3d_flags>
0

> <s_epik_input>
W0NIM11DKD1PKVtOSF1bQ0BIXShbQ0gzXSlDKD1PKVtOSF1bQ0gyXWMxW2NIXVtjSF1jKG5bY0hdMSlOMltDSDJdW0NIMl1PW0NIMl1bQ0gyXTI=

> <s_epik_cmdline>
J2VwaWtfcHl0aG9uJywgJy1waCcsICc3LjAnLCAnLXRuJywgJzgnLCAnLW1hJywgJzIwMCcsICctbWV0YWxfYmluZGluZycsICctaW1hZScsICc8aW5maWxlLm1hZT4nLCAnLW9tYWUnLCAnPG91dGZpbGUubWFlPic=

> <r_lp_tautomer_probability>
1

> <r_epik_Ionization_Penalty>
0.00481935

> <r_epik_Ionization_Penalty_Charging>
0

> <r_epik_Ionization_Penalty_Neutral>
0.00481935

> <r_epik_State_Penalty>
0.00349439

> <r_epik_Charging_Adjusted_Penalty>
0.00349439

> <i_epik_Tot_Q>
0

> <i_epik_Tot_abs_Q>
0

> <r_epik_Metal_State_Penalty>
-0

> <b_epik_Metal_Only>
0

> <s_lp_Force_Field>
OPLS_2005

> <r_lp_Energy>
14.7746

> <b_lp_Chiralities_Consistent>
1

> <s_lp_Variant>
AV-unprocessed.smi:1287-1

> <Gold.Version>
5.8.1

> <Gold.Id.Protein>
6NUR|6NUR_protein|mol2

> <Gold.PLP.Fitness>
42.6907

> <Gold.PLP.PLP>
-38.7575

> <Gold.PLP.part.hbond>
-3.0000

> <Gold.PLP.part.metal>
0.0000

> <Gold.PLP.part.buried>
-4.8262

> <Gold.PLP.part.nonpolar>
-30.9786

> <Gold.PLP.part.repulsive>
0.2647

> <Gold.PLP.ligand.clash>
0.0000

> <Gold.PLP.ligand.torsion>
1.2281

> <Gold.PLP.Chemscore.Hbond>
2.0000

> <Gold.PLP.Chemscore.CHOScore>
0.0000

> <Gold.PLP.Chemscore.Metal>
0.0000

> <Gold.Chemscore.Hbonds>
donor molecule, donor type, donor heavy atom, donor atom, acceptor molecule, acceptor atom, score
      L1  H     4    26       P1  7948  1.00
      P1  H  7989  7998       L1     8  1.00

> <Gold.PLP.Chemscore.Internal.Correction>
0.3895

> <Gold.Rescore>
     Score         DG    S(hbond)    S(metal)    S(lipo)     H(rot)  DE(clash)    DE(int)     intcor
     14.22     -17.52       1.96        0.00      94.16       2.16       2.10       1.20       ----

> <Gold.Chemscore.Fitness>
14.2248

> <Gold.Chemscore.DG>
-17.5183

> <Gold.Chemscore.ZeroCoef>
-5.4800

> <Gold.Chemscore.Hbond>
1.9627

> <Gold.Chemscore.Metal>
0.0000

> <Gold.Chemscore.Lipo>
94.1565

> <Gold.Chemscore.Internal_Hbond>
0.0000

> <Gold.Chemscore.DEClash>
2.0952

> <Gold.Chemscore.DEInternal>
1.1982

> <Gold.Chemscore.Rot>
2.1616

> <Gold.Chemscore.Internal.Correction>
   9.000000E+99

> <Gold.Chemscore.Hbonds>
donor molecule, donor type, donor heavy atom, donor atom, acceptor molecule, acceptor atom, score
      L1  H     4    26       P1  7948  0.93
      P1  H  7989  7998       L1     8  1.00

> <Gold.Chemscore.Hbond.Weighted>
-6.5556

> <Gold.Chemscore.Metal.Weighted>
-0.0000

> <Gold.Chemscore.Lipo.Weighted>
-11.0163

> <Gold.Chemscore.Internal_Hbond.Weighted>
0.0000

> <Gold.Chemscore.DEClash.Weighted>
2.0952

> <Gold.Chemscore.DEInternal.Weighted>
1.1982

> <Gold.Chemscore.Rot.Weighted>
5.5336

> <Gold.Chemscore.Internal.Correction.Weighted>
   9.000000E+99

> <Gold.Protein.RotatedTorsions>
[ 6907 6896 6895 6894 ] final  -51.46 input  -60.11 | X-H torsion
[ 7974 7965 7964 7962 ] final   43.02 input  175.53 | X-H torsion
[ 8008 7997 7996 7995 ] final  150.31 input   59.86 | X-H torsion
[ 10167 10162 10161 10158 ] final   34.54 input  -65.29 | X-H torsion
[ 10718 10713 10712 10709 ] final   57.91 input   66.30 | X-H torsion
[ 10763 10752 10751 10750 ] final  175.87 input  -60.55 | X-H torsion
[ 11005 11000 10999 10996 ] final   74.40 input  -57.11 | X-H torsion

> <Gold.Protein.ActiveResidues>
 VAL166  LYS551  ARG553  GLY616  TRP617  ASP618  TYR619  PRO620  LYS621  CYS622 
 ASP623  PHE694  ASN695  SER759  ASP760  ASP761  ALA762  ILE779  LEU786  VAL792 
 PHE793  MET794  SER795  GLU796  ALA797  LYS798  CYS799  TRP800  GLU811  SER814 

> <Gold.Protein.RotatedAtoms>
  150.8610  134.7961  159.7082 H   0  0  0  0  0  0  0  0  0  0  0  0  # atno 6907 bound_to 6896
  152.4647  134.5101  159.9761 H   0  0  0  0  0  0  0  0  0  0  0  0  # atno 6908 bound_to 6896
  151.5205  133.3429  159.2936 H   0  0  0  0  0  0  0  0  0  0  0  0  # atno 6909 bound_to 6896
  146.0690  139.5233  142.9609 H   0  0  0  0  0  0  0  0  0  0  0  0  # atno 7974 bound_to 7965
  156.2721  140.2078  156.5996 H   0  0  0  0  0  0  0  0  0  0  0  0  # atno 8008 bound_to 7997
  154.6917  140.0529  157.0393 H   0  0  0  0  0  0  0  0  0  0  0  0  # atno 8009 bound_to 7997
  155.0857  140.3191  155.4591 H   0  0  0  0  0  0  0  0  0  0  0  0  # atno 8010 bound_to 7997
  140.4305  144.1331  150.6159 H   0  0  0  0  0  0  0  0  0  0  0  0  # atno 10167 bound_to 10162
  157.5553  130.8795  149.9026 H   0  0  0  0  0  0  0  0  0  0  0  0  # atno 10718 bound_to 10713
  154.4734  135.2772  155.1625 H   0  0  0  0  0  0  0  0  0  0  0  0  # atno 10763 bound_to 10752
  154.3365  135.6179  153.5579 H   0  0  0  0  0  0  0  0  0  0  0  0  # atno 10764 bound_to 10752
  152.9867  135.5778  154.5120 H   0  0  0  0  0  0  0  0  0  0  0  0  # atno 10765 bound_to 10752
  139.9393  134.7429  156.1143 H   0  0  0  0  0  0  0  0  0  0  0  0  # atno 11005 bound_to 11000
  145.6425  141.0281  143.1804 LP  0  0  0  0  0  0  0  0  0  0  0  0  # atno 17320 bound_to 7965
  144.7220  139.7998  143.7378 LP  0  0  0  0  0  0  0  0  0  0  0  0  # atno 17321 bound_to 7965
  140.4432  143.2517  151.9445 LP  0  0  0  0  0  0  0  0  0  0  0  0  # atno 17342 bound_to 10162
  139.4785  144.5634  151.8203 LP  0  0  0  0  0  0  0  0  0  0  0  0  # atno 17343 bound_to 10162
  156.0613  130.3699  150.0976 LP  0  0  0  0  0  0  0  0  0  0  0  0  # atno 17370 bound_to 10713
  156.9146  130.9663  151.3558 LP  0  0  0  0  0  0  0  0  0  0  0  0  # atno 17371 bound_to 10713
  141.1021  133.6673  156.2778 LP  0  0  0  0  0  0  0  0  0  0  0  0  # atno 17394 bound_to 11000
  140.5993  134.5571  157.5514 LP  0  0  0  0  0  0  0  0  0  0  0  0  # atno 17395 bound_to 11000

$$$$
