#       Name:                AV-unprocessed.smi:2439
#       Creating user name   scv26
#       Creation time:       Fri Mar 27 13:23:59 2020


#       File generated by GOLD software.
#

@<TRIPOS>MOLECULE
AV-unprocessed.smi:2439
    45    47     1
SMALL
NO_CHARGES


@<TRIPOS>ATOM
      1 ****        -2.1937  -5.3087   1.8366 N.1            1 S1                 0.0000
      2 ****        -2.6635  -4.2541   1.7612 C.1            1 S1                 0.0000
      3 ****        -3.2544  -2.9245   1.6661 C.ar           1 S1                 0.0000
      4 ****        -4.6525  -2.8080   1.5184 C.ar           1 S1                 0.0000
      5 ****        -5.2278  -1.5278   1.4234 C.ar           1 S1                 0.0000
      6 ****        -4.3771  -0.4094   1.4824 C.ar           1 S1                 0.0000
      7 ****        -3.0387  -0.5065   1.6234 N.ar           1 S1                 0.0000
      8 ****        -2.4759  -1.7368   1.7140 C.ar           1 S1                 0.0000
      9 ****        -1.0777  -1.8070   1.8596 N.pl3          1 S1                 0.0000
     10 ****        -0.2302  -0.6227   1.7859 C.3            1 S1                 0.0000
     11 ****        -0.0234  -0.1348   0.3417 C.3            1 S1                 0.0000
     12 ****         0.7215   1.2113   0.3028 C.3            1 S1                 0.0000
     13 ****         0.9892   1.6201  -1.0984 N.4            1 S1                 1.0000
     14 ****         1.6586   2.9415  -1.2219 C.3            1 S1                 0.0000
     15 ****         3.1527   2.8745  -0.8513 C.3            1 S1                 0.0000
     16 ****         3.8766   1.7947  -1.6670 C.3            1 S1                 0.0000
     17 ****         3.1666   0.4420  -1.5149 C.3            1 S1                 0.0000
     18 ****         1.6704   0.5532  -1.8827 C.3            1 S1                 0.0000
     19 ****         0.9196  -0.7838  -1.7259 C.3            1 S1                 0.0000
     20 ****         0.7616  -1.1016  -0.3484 O.3            1 S1                 0.0000
     21 ****        -5.2814  -3.6860   1.4770 H              1 S1                 0.0000
     22 ****        -6.2949  -1.4065   1.3089 H              1 S1                 0.0000
     23 ****        -4.7810   0.5898   1.4131 H              1 S1                 0.0000
     24 ****        -0.6320  -2.7119   1.9152 H              1 S1                 0.0000
     25 ****        -0.6632   0.1702   2.3969 H              1 S1                 0.0000
     26 ****         0.7332  -0.8597   2.2382 H              1 S1                 0.0000
     27 ****        -0.9899  -0.0241  -0.1533 H              1 S1                 0.0000
     28 ****         0.1216   1.9792   0.7930 H              1 S1                 0.0000
     29 ****         1.6534   1.1341   0.8630 H              1 S1                 0.0000
     30 ****         1.5575   3.2804  -2.2538 H              1 S1                 0.0000
     31 ****         1.1443   3.6796  -0.6054 H              1 S1                 0.0000
     32 ****         3.6201   3.8441  -1.0260 H              1 S1                 0.0000
     33 ****         3.2677   2.6713   0.2135 H              1 S1                 0.0000
     34 ****         3.8975   2.0820  -2.7190 H              1 S1                 0.0000
     35 ****         4.9154   1.7131  -1.3457 H              1 S1                 0.0000
     36 ****         3.6519  -0.2968  -2.1534 H              1 S1                 0.0000
     37 ****         3.2816   0.0802  -0.4926 H              1 S1                 0.0000
     38 ****         1.6128   0.8405  -2.9337 H              1 S1                 0.0000
     39 ****        -0.0589  -0.7341  -2.2063 H              1 S1                 0.0000
     40 ****         1.4670  -1.5885  -2.2171 H              1 S1                 0.0000
     41 ****         0.0772   1.7325  -1.5183 H              1 S1                 0.0000
     42 ****        -1.7877  -6.2202   1.9018 LP             1 S1                 0.0000
     43 ****        -2.4709   0.3158   1.6605 LP             1 S1                 0.0000
     44 ****         0.3139  -1.9927  -0.2730 LP             1 S1                 0.0000
     45 ****         1.6653  -1.1456   0.0774 LP             1 S1                 0.0000
@<TRIPOS>BOND
    1    1    2 3     
    2    2    3 1     
    3    3    8 ar    
    4    3    4 ar    
    5    4    5 ar    
    6    4   21 1     
    7    5    6 ar    
    8    5   22 1     
    9    6    7 ar    
   10    6   23 1     
   11    7    8 ar    
   12    8    9 1     
   13    9   10 1     
   14    9   24 1     
   15   10   11 1     
   16   10   25 1     
   17   10   26 1     
   18   11   20 1     
   19   11   12 1     
   20   11   27 1     
   21   12   13 1     
   22   12   28 1     
   23   12   29 1     
   24   13   18 1     
   25   13   14 1     
   26   13   41 1     
   27   14   15 1     
   28   14   30 1     
   29   14   31 1     
   30   15   16 1     
   31   15   32 1     
   32   15   33 1     
   33   16   17 1     
   34   16   34 1     
   35   16   35 1     
   36   17   18 1     
   37   17   36 1     
   38   17   37 1     
   39   18   19 1     
   40   18   38 1     
   41   19   20 1     
   42   19   39 1     
   43   19   40 1     
   44    1   42 1     
   45    7   43 1     
   46   20   44 1     
   47   20   45 1     
@<TRIPOS>SUBSTRUCTURE
      1 S1             1
@<TRIPOS>SET
LONE_PAIRS      STATIC     ATOMS    <user>   **** ""
4 42 43 44 45
DONOR_HYDROGENS      STATIC     ATOMS    <user>   **** ""
2 24 41
ATOM$BLUE        STATIC     ATOMS    COLORGROUP SYSTEM
4 42 43 44 45
ATOM$RED        STATIC     ATOMS    COLORGROUP SYSTEM
2 24 41
