AV-unprocessed.smi:72|AV-procd|sdf|739|dock4
  -GOLD-   2262017 73D 1   1.00000     0.00000
 Structure written by MMmdl.
 28 29  0  0  0  0  0  0  0  0  2 V2000
  154.3256  138.0778  154.7378 N   0  0  0  0  0  0  0  0  0  0  0  0
  153.1222  138.4287  154.8758 C   0  0  0  0  0  0  0  0  0  0  0  0
  152.0783  137.7267  154.1615 N   0  0  0  0  0  0  0  0  0  0  0  0
  150.8547  138.1201  154.3394 C   0  0  0  0  0  0  0  0  0  0  0  0
  150.5233  139.2262  155.2269 N   0  0  0  0  0  0  0  0  0  0  0  0
  149.0858  139.6751  155.4125 C   0  0  2  0  0  0  0  0  0  0  0  0
  148.2778  138.5501  155.6009 O   0  0  0  0  0  0  0  0  0  0  0  0
  147.0625  138.7049  154.8755 C   0  0  2  0  0  0  0  0  0  0  0  0
  146.3991  137.3432  154.6036 C   0  0  0  0  0  0  0  0  0  0  0  0
  147.3704  136.3994  154.2047 O   0  0  0  0  0  0  0  0  0  0  0  0
  147.4911  139.4923  153.6299 C   0  0  2  0  0  0  0  0  0  0  0  0
  148.0302  138.6287  152.6422 O   0  0  0  0  0  0  0  0  0  0  0  0
  148.5310  140.4520  154.1986 C   0  0  2  0  0  0  0  0  0  0  0  0
  149.4859  140.8724  153.2388 O   0  0  0  0  0  0  0  0  0  0  0  0
  151.5698  139.9082  155.9036 C   0  0  0  0  0  0  0  0  0  0  0  0
  151.2743  140.8612  156.6249 O   0  0  0  0  0  0  0  0  0  0  0  0
  152.8521  139.4867  155.7158 N   0  5  0  0  0  0  0  0  0  0  0  0
  149.0591  140.2587  156.3336 H   0  0  0  0  0  0  0  0  0  0  0  0
  146.3926  139.3387  155.4600 H   0  0  0  0  0  0  0  0  0  0  0  0
  146.6521  140.0287  153.1857 H   0  0  0  0  0  0  0  0  0  0  0  0
  148.0224  141.3348  154.5884 H   0  0  0  0  0  0  0  0  0  0  0  0
  154.4344  137.2974  154.1067 H   0  0  0  0  0  0  0  0  0  0  0  0
  150.0057  137.6544  153.8380 H   0  0  0  0  0  0  0  0  0  0  0  0
  145.9333  136.9639  155.5138 H   0  0  0  0  0  0  0  0  0  0  0  0
  145.6179  137.4260  153.8472 H   0  0  0  0  0  0  0  0  0  0  0  0
  147.7660  136.6973  153.3999 H   0  0  0  0  0  0  0  0  0  0  0  0
  148.7699  139.0609  152.2427 H   0  0  0  0  0  0  0  0  0  0  0  0
  149.4856  140.2493  152.5279 H   0  0  0  0  0  0  0  0  0  0  0  0
  1  2  2  0  0  0  0
  1 22  1  0  0  0  0
  2 17  1  0  0  0  0
  2  3  1  0  0  0  0
  3  4  2  0  0  0  0
  4  5  1  0  0  0  0
  4 23  1  0  0  0  0
  5  6  1  0  0  0  0
  5 15  1  0  0  0  0
  6 18  1  0  0  0  0
  6 13  1  0  0  0  0
  6  7  1  0  0  0  0
  7  8  1  0  0  0  0
  8 19  1  0  0  0  0
  8  9  1  0  0  0  0
  8 11  1  0  0  0  0
  9 10  1  0  0  0  0
  9 24  1  0  0  0  0
  9 25  1  0  0  0  0
 10 26  1  0  0  0  0
 11 20  1  0  0  0  0
 11 12  1  0  0  0  0
 11 13  1  0  0  0  0
 12 27  1  0  0  0  0
 13 21  1  0  0  0  0
 13 14  1  0  0  0  0
 14 28  1  0  0  0  0
 15 16  2  0  0  0  0
 15 17  1  0  0  0  0
M  CHG  1  17  -1
M  END
> <s_m_source_file>
AV-unprocessed.smi

> <i_m_source_file_index>
72

> <i_lp_mmshare_version>
43012

> <i_f3d_flags>
0

> <s_epik_input>
W05IMl1jMW5bY0hdbihjKD1PKW4xKVtDQEBIXTJPW0NASF0oW0NIMl1bT0hdKVtDQEBIXShbT0hdKVtDQEhdMltPSF0=

> <s_epik_cmdline>
J2VwaWtfcHl0aG9uJywgJy1waCcsICc3LjAnLCAnLXRuJywgJzgnLCAnLW1hJywgJzIwMCcsICctbWV0YWxfYmluZGluZycsICctaW1hZScsICc8aW5maWxlLm1hZT4nLCAnLW9tYWUnLCAnPG91dGZpbGUubWFlPic=

> <r_lp_tautomer_probability>
7.17554e-07

> <r_epik_Ionization_Penalty>
12.8705

> <r_epik_Ionization_Penalty_Charging>
5.64144

> <r_epik_Ionization_Penalty_Neutral>
7.22905

> <r_epik_State_Penalty>
3.30104

> <r_epik_Charging_Adjusted_Penalty>
8.94249

> <i_epik_Tot_Q>
-1

> <i_epik_Tot_abs_Q>
1

> <r_epik_Metal_State_Penalty>
0.529074

> <b_epik_Metal_Only>
1

> <s_epik_Chemistry_Notes>
This compound contains an acetal/aminal-like group ( X-CH(R)-Y where X, Y are N, S, or O) that may be acid/base labile, releasing an aldehyde.

> <s_lp_Force_Field>
OPLS_2005

> <r_lp_Energy>
43.5674

> <b_lp_Chiralities_Consistent>
1

> <s_lp_Variant>
AV-unprocessed.smi:72-77

> <Gold.Version>
5.8.1

> <Gold.Id.Protein>
6NUR|6NUR_protein|mol2

> <Gold.PLP.Fitness>
47.8899

> <Gold.PLP.PLP>
-28.2036

> <Gold.PLP.part.hbond>
-8.7573

> <Gold.PLP.part.metal>
0.0000

> <Gold.PLP.part.buried>
-6.1093

> <Gold.PLP.part.nonpolar>
-15.6462

> <Gold.PLP.part.repulsive>
0.2079

> <Gold.PLP.ligand.clash>
0.0000

> <Gold.PLP.ligand.torsion>
0.4849

> <Gold.PLP.Chemscore.Hbond>
6.0942

> <Gold.PLP.Chemscore.CHOScore>
0.7893

> <Gold.PLP.Chemscore.Metal>
0.0000

> <Gold.Chemscore.Hbonds>
donor molecule, donor type, donor heavy atom, donor atom, acceptor molecule, acceptor atom, score
      L1  H    10    26       P1  7948  0.93
      L1  H    12    27       P1  7957  1.00
      L1  H    14    28       P1  7957  0.60
      P1  H  7989  7998       L1    14  0.13
      P1  H  7997  8009       L1    17  2.00
      P1  H  8011  8017       L1    14  1.00
      P1  H 10752 10765       L1     3  0.43
      L1  C     4    23       P1  7948  0.79

> <Gold.PLP.Chemscore.Internal.Correction>
0.0054

> <Gold.Rescore>
     Score         DG    S(hbond)    S(metal)    S(lipo)     H(rot)  DE(clash)    DE(int)     intcor
      9.91     -11.00       4.23        0.00      14.86       4.04       0.27       0.81       ----

> <Gold.Chemscore.Fitness>
9.9087

> <Gold.Chemscore.DG>
-10.9969

> <Gold.Chemscore.ZeroCoef>
-5.4800

> <Gold.Chemscore.Hbond>
4.2278

> <Gold.Chemscore.Metal>
0.0000

> <Gold.Chemscore.Lipo>
14.8643

> <Gold.Chemscore.Internal_Hbond>
0.0000

> <Gold.Chemscore.DEClash>
0.2744

> <Gold.Chemscore.DEInternal>
0.8138

> <Gold.Chemscore.Rot>
4.0403

> <Gold.Chemscore.Internal.Correction>
   9.000000E+99

> <Gold.Chemscore.Hbonds>
donor molecule, donor type, donor heavy atom, donor atom, acceptor molecule, acceptor atom, score
      L1  H    10    26       P1  7948  0.86
      L1  H    12    27       P1  7957  0.98
      L1  H    14    28       P1  7957  0.59
      P1  H  7989  7998       L1    14  0.02
      P1  H  7997  8009       L1    17  0.34
      P1  H  8011  8017       L1    14  0.26
      P1  H 10752 10765       L1     3  0.10

> <Gold.Chemscore.Hbond.Weighted>
-14.1208

> <Gold.Chemscore.Metal.Weighted>
-0.0000

> <Gold.Chemscore.Lipo.Weighted>
-1.7391

> <Gold.Chemscore.Internal_Hbond.Weighted>
0.0000

> <Gold.Chemscore.DEClash.Weighted>
0.2744

> <Gold.Chemscore.DEInternal.Weighted>
0.8138

> <Gold.Chemscore.Rot.Weighted>
10.3431

> <Gold.Chemscore.Internal.Correction.Weighted>
   9.000000E+99

> <Gold.Protein.RotatedTorsions>
[ 6907 6896 6895 6894 ] final   16.36 input  -60.11 | X-H torsion
[ 7974 7965 7964 7962 ] final   -2.32 input  175.53 | X-H torsion
[ 8008 7997 7996 7995 ] final -137.05 input   59.86 | X-H torsion
[ 10167 10162 10161 10158 ] final  121.84 input  -65.29 | X-H torsion
[ 10718 10713 10712 10709 ] final  -35.76 input   66.30 | X-H torsion
[ 10763 10752 10751 10750 ] final  150.35 input  -60.55 | X-H torsion
[ 11005 11000 10999 10996 ] final -150.77 input  -57.11 | X-H torsion

> <Gold.Protein.ActiveResidues>
 VAL166  LYS551  ARG553  GLY616  TRP617  ASP618  TYR619  PRO620  LYS621  CYS622 
 ASP623  PHE694  ASN695  SER759  ASP760  ASP761  ALA762  ILE779  LEU786  VAL792 
 PHE793  MET794  SER795  GLU796  ALA797  LYS798  CYS799  TRP800  GLU811  SER814 

> <Gold.Protein.RotatedAtoms>
  151.8326  135.0616  160.0438 H   0  0  0  0  0  0  0  0  0  0  0  0  # atno 6907 bound_to 6896
  152.2869  133.5519  159.5541 H   0  0  0  0  0  0  0  0  0  0  0  0  # atno 6908 bound_to 6896
  150.7213  134.0401  159.3805 H   0  0  0  0  0  0  0  0  0  0  0  0  # atno 6909 bound_to 6896
  146.2406  140.1554  142.8333 H   0  0  0  0  0  0  0  0  0  0  0  0  # atno 7974 bound_to 7965
  155.4054  140.0508  157.3034 H   0  0  0  0  0  0  0  0  0  0  0  0  # atno 8008 bound_to 7997
  154.4971  140.2142  155.9384 H   0  0  0  0  0  0  0  0  0  0  0  0  # atno 8009 bound_to 7997
  156.1419  140.3152  155.8515 H   0  0  0  0  0  0  0  0  0  0  0  0  # atno 8010 bound_to 7997
  139.5895  144.7019  151.3326 H   0  0  0  0  0  0  0  0  0  0  0  0  # atno 10167 bound_to 10162
  156.3348  130.4284  149.7840 H   0  0  0  0  0  0  0  0  0  0  0  0  # atno 10718 bound_to 10713
  154.0861  135.2856  155.3281 H   0  0  0  0  0  0  0  0  0  0  0  0  # atno 10763 bound_to 10752
  154.6651  135.5320  153.8070 H   0  0  0  0  0  0  0  0  0  0  0  0  # atno 10764 bound_to 10752
  153.0431  135.6543  154.1033 H   0  0  0  0  0  0  0  0  0  0  0  0  # atno 10765 bound_to 10752
  140.7367  134.3560  157.5156 H   0  0  0  0  0  0  0  0  0  0  0  0  # atno 11005 bound_to 11000
  145.0133  140.8733  143.5211 LP  0  0  0  0  0  0  0  0  0  0  0  0  # atno 17320 bound_to 7965
  145.1591  139.2469  143.5401 LP  0  0  0  0  0  0  0  0  0  0  0  0  # atno 17321 bound_to 7965
  140.7160  143.7264  150.7657 LP  0  0  0  0  0  0  0  0  0  0  0  0  # atno 17342 bound_to 10162
  140.0816  143.4963  152.2527 LP  0  0  0  0  0  0  0  0  0  0  0  0  # atno 17343 bound_to 10162
  156.5098  130.8167  151.3164 LP  0  0  0  0  0  0  0  0  0  0  0  0  # atno 17370 bound_to 10713
  157.7437  130.9917  150.2612 LP  0  0  0  0  0  0  0  0  0  0  0  0  # atno 17371 bound_to 10713
  139.8814  134.9054  156.2898 LP  0  0  0  0  0  0  0  0  0  0  0  0  # atno 17394 bound_to 11000
  140.9873  133.7230  156.0761 LP  0  0  0  0  0  0  0  0  0  0  0  0  # atno 17395 bound_to 11000

$$$$
