AV-unprocessed.smi:3338|AV-procd|sdf|12869|dock4
  -GOLD-   2272019273D 1   1.00000     0.00000
 Structure written by MMmdl.
 44 45  0  0  0  0  0  0  0  0  2 V2000
  151.4862  134.0005  148.0122 C   0  0  0  0  0  0  0  0  0  0  0  0
  150.6263  135.0661  148.7063 C   0  0  2  0  0  0  0  0  0  0  0  0
  149.3635  135.3883  147.8902 C   0  0  0  0  0  0  0  0  0  0  0  0
  148.5383  136.4719  148.5947 C   0  0  0  0  0  0  0  0  0  0  0  0
  149.3901  137.7214  148.8681 C   0  0  0  0  0  0  0  0  0  0  0  0
  150.6007  137.3823  149.6602 N   0  3  2  0  0  0  0  0  0  0  0  0
  151.3693  138.5906  150.0515 C   0  0  0  0  0  0  0  0  0  0  0  0
  150.6341  139.4420  151.1051 C   0  0  0  0  0  0  0  0  0  0  0  0
  150.4381  138.6978  152.3431 N   0  0  0  0  0  0  0  0  0  0  0  0
  151.0310  138.9829  153.5140 C   0  0  0  0  0  0  0  0  0  0  0  0
  151.7857  139.9452  153.6621 O   0  0  0  0  0  0  0  0  0  0  0  0
  150.7235  138.0315  154.6839 C   0  0  2  0  0  0  0  0  0  0  0  0
  150.0303  138.7338  155.8688 C   0  0  0  0  0  0  0  0  0  0  0  0
  151.9292  137.3287  155.1093 N   0  0  0  0  0  0  0  0  0  0  0  0
  152.7800  136.5597  154.3414 C   0  0  0  0  0  0  0  0  0  0  0  0
  153.7834  136.1192  155.1558 C   0  0  0  0  0  0  0  0  0  0  0  0
  153.4603  136.6790  156.4229 C   0  0  0  0  0  0  0  0  0  0  0  0
  152.3550  137.4049  156.3920 N   0  0  0  0  0  0  0  0  0  0  0  0
  151.4307  136.3540  148.9762 C   0  0  0  0  0  0  0  0  0  0  0  0
  151.8364  134.3447  147.0386 H   0  0  0  0  0  0  0  0  0  0  0  0
  150.9217  133.0808  147.8563 H   0  0  0  0  0  0  0  0  0  0  0  0
  152.3622  133.7505  148.6116 H   0  0  0  0  0  0  0  0  0  0  0  0
  150.3119  134.6578  149.6681 H   0  0  0  0  0  0  0  0  0  0  0  0
  149.6411  135.7299  146.8919 H   0  0  0  0  0  0  0  0  0  0  0  0
  148.7589  134.4906  147.7559 H   0  0  0  0  0  0  0  0  0  0  0  0
  147.6737  136.7363  147.9852 H   0  0  0  0  0  0  0  0  0  0  0  0
  148.1463  136.0818  149.5350 H   0  0  0  0  0  0  0  0  0  0  0  0
  149.6876  138.1892  147.9282 H   0  0  0  0  0  0  0  0  0  0  0  0
  148.7859  138.4512  149.4087 H   0  0  0  0  0  0  0  0  0  0  0  0
  152.3599  138.3020  150.4066 H   0  0  0  0  0  0  0  0  0  0  0  0
  151.5306  139.2073  149.1660 H   0  0  0  0  0  0  0  0  0  0  0  0
  151.1842  140.3630  151.3061 H   0  0  0  0  0  0  0  0  0  0  0  0
  149.6487  139.7396  150.7489 H   0  0  0  0  0  0  0  0  0  0  0  0
  149.8281  137.8937  152.3039 H   0  0  0  0  0  0  0  0  0  0  0  0
  150.0298  137.2803  154.3026 H   0  0  0  0  0  0  0  0  0  0  0  0
  149.0973  139.2049  155.5577 H   0  0  0  0  0  0  0  0  0  0  0  0
  150.6611  139.5062  156.3107 H   0  0  0  0  0  0  0  0  0  0  0  0
  149.7866  138.0183  156.6547 H   0  0  0  0  0  0  0  0  0  0  0  0
  152.6029  136.3911  153.2894 H   0  0  0  0  0  0  0  0  0  0  0  0
  154.6208  135.4919  154.8876 H   0  0  0  0  0  0  0  0  0  0  0  0
  153.9936  136.5820  157.3571 H   0  0  0  0  0  0  0  0  0  0  0  0
  152.2969  136.1053  149.5884 H   0  0  0  0  0  0  0  0  0  0  0  0
  151.8150  136.7623  148.0398 H   0  0  0  0  0  0  0  0  0  0  0  0
  150.2650  136.9686  150.5183 H   0  0  0  0  0  0  0  0  0  0  0  0
  1  2  1  0  0  0  0
  1 20  1  0  0  0  0
  1 21  1  0  0  0  0
  1 22  1  0  0  0  0
  2 19  1  0  0  0  0
  2  3  1  0  0  0  0
  2 23  1  0  0  0  0
  3  4  1  0  0  0  0
  3 24  1  0  0  0  0
  3 25  1  0  0  0  0
  4  5  1  0  0  0  0
  4 26  1  0  0  0  0
  4 27  1  0  0  0  0
  5  6  1  0  0  0  0
  5 28  1  0  0  0  0
  5 29  1  0  0  0  0
  6  7  1  0  0  0  0
  6 19  1  0  0  0  0
  6 44  1  0  0  0  0
  7  8  1  0  0  0  0
  7 30  1  0  0  0  0
  7 31  1  0  0  0  0
  8  9  1  0  0  0  0
  8 32  1  0  0  0  0
  8 33  1  0  0  0  0
  9 10  1  0  0  0  0
  9 34  1  0  0  0  0
 10 11  2  0  0  0  0
 10 12  1  0  0  0  0
 12 13  1  0  0  0  0
 12 14  1  0  0  0  0
 12 35  1  0  0  0  0
 13 36  1  0  0  0  0
 13 37  1  0  0  0  0
 13 38  1  0  0  0  0
 14 18  1  0  0  0  0
 14 15  1  0  0  0  0
 15 16  2  0  0  0  0
 15 39  1  0  0  0  0
 16 17  1  0  0  0  0
 16 40  1  0  0  0  0
 17 18  2  0  0  0  0
 17 41  1  0  0  0  0
 19 42  1  0  0  0  0
 19 43  1  0  0  0  0
M  CHG  1   6   1
M  END
> <s_m_source_file>
AV-unprocessed.smi

> <i_m_source_file_index>
3338

> <i_lp_mmshare_version>
43012

> <i_f3d_flags>
0

> <s_epik_input>
W0NIM11bQ0BASF0xW0NIMl1bQ0gyXVtDSDJdTihbQ0gyXTEpW0NIMl1bQ0gyXVtOSF1DKD1PKVtDQEhdKFtDSDNdKW4yW2NIXVtjSF1bY0hdbjI=

> <s_epik_cmdline>
J2VwaWtfcHl0aG9uJywgJy1waCcsICc3LjAnLCAnLXRuJywgJzgnLCAnLW1hJywgJzIwMCcsICctbWV0YWxfYmluZGluZycsICctaW1hZScsICc8aW5maWxlLm1hZT4nLCAnLW9tYWUnLCAnPG91dGZpbGUubWFlPic=

> <r_lp_tautomer_probability>
1

> <r_epik_Ionization_Penalty>
0.00225707

> <r_epik_Ionization_Penalty_Charging>
0.00223709

> <r_epik_Ionization_Penalty_Neutral>
1.99775e-05

> <r_epik_State_Penalty>
0.00153978

> <r_epik_Charging_Adjusted_Penalty>
0.00377687

> <i_epik_Tot_Q>
1

> <i_epik_Tot_abs_Q>
1

> <r_epik_Metal_State_Penalty>
-0

> <b_epik_Metal_Only>
0

> <s_lp_Force_Field>
OPLS_2005

> <r_lp_Energy>
19.7834

> <b_lp_Chiralities_Consistent>
1

> <s_lp_Variant>
AV-unprocessed.smi:3338-1

> <Gold.Version>
5.8.1

> <Gold.Id.Protein>
6NUR|6NUR_protein|mol2

> <Gold.PLP.Fitness>
47.9359

> <Gold.PLP.PLP>
-33.1498

> <Gold.PLP.part.hbond>
-3.0000

> <Gold.PLP.part.metal>
0.0000

> <Gold.PLP.part.buried>
-2.6380

> <Gold.PLP.part.nonpolar>
-28.1685

> <Gold.PLP.part.repulsive>
0.1176

> <Gold.PLP.ligand.clash>
0.0000

> <Gold.PLP.ligand.torsion>
0.1725

> <Gold.PLP.Chemscore.Hbond>
4.0000

> <Gold.PLP.Chemscore.CHOScore>
1.0000

> <Gold.PLP.Chemscore.Metal>
0.0000

> <Gold.Chemscore.Hbonds>
donor molecule, donor type, donor heavy atom, donor atom, acceptor molecule, acceptor atom, score
      L1  H     9    34       P1  7948  0.85
      L1  C    15    39       P1  7949  1.00

> <Gold.PLP.Chemscore.Internal.Correction>
0.1310

> <Gold.Rescore>
     Score         DG    S(hbond)    S(metal)    S(lipo)     H(rot)  DE(clash)    DE(int)     intcor
     17.05     -17.68       2.38        0.00      74.77       1.76       0.37       0.26       ----

> <Gold.Chemscore.Fitness>
17.0486

> <Gold.Chemscore.DG>
-17.6831

> <Gold.Chemscore.ZeroCoef>
-5.4800

> <Gold.Chemscore.Hbond>
2.3809

> <Gold.Chemscore.Metal>
0.0000

> <Gold.Chemscore.Lipo>
74.7749

> <Gold.Chemscore.Internal_Hbond>
0.0000

> <Gold.Chemscore.DEClash>
0.3727

> <Gold.Chemscore.DEInternal>
0.2618

> <Gold.Chemscore.Rot>
1.7570

> <Gold.Chemscore.Internal.Correction>
   9.000000E+99

> <Gold.Chemscore.Hbonds>
donor molecule, donor type, donor heavy atom, donor atom, acceptor molecule, acceptor atom, score
      L1  H     9    34       P1  7948  0.15

> <Gold.Chemscore.Hbond.Weighted>
-7.9523

> <Gold.Chemscore.Metal.Weighted>
-0.0000

> <Gold.Chemscore.Lipo.Weighted>
-8.7487

> <Gold.Chemscore.Internal_Hbond.Weighted>
0.0000

> <Gold.Chemscore.DEClash.Weighted>
0.3727

> <Gold.Chemscore.DEInternal.Weighted>
0.2618

> <Gold.Chemscore.Rot.Weighted>
4.4979

> <Gold.Chemscore.Internal.Correction.Weighted>
   9.000000E+99

> <Gold.Protein.RotatedTorsions>
[ 6907 6896 6895 6894 ] final  126.24 input  -60.11 | X-H torsion
[ 7974 7965 7964 7962 ] final   -9.42 input  175.53 | X-H torsion
[ 8008 7997 7996 7995 ] final  -36.49 input   59.86 | X-H torsion
[ 10167 10162 10161 10158 ] final  165.56 input  -65.29 | X-H torsion
[ 10718 10713 10712 10709 ] final   77.47 input   66.30 | X-H torsion
[ 10763 10752 10751 10750 ] final  -44.88 input  -60.55 | X-H torsion
[ 11005 11000 10999 10996 ] final  -94.10 input  -57.11 | X-H torsion

> <Gold.Protein.ActiveResidues>
 VAL166  LYS551  ARG553  GLY616  TRP617  ASP618  TYR619  PRO620  LYS621  CYS622 
 ASP623  PHE694  ASN695  SER759  ASP760  ASP761  ALA762  ILE779  LEU786  VAL792 
 PHE793  MET794  SER795  GLU796  ALA797  LYS798  CYS799  TRP800  GLU811  SER814 

> <Gold.Protein.RotatedAtoms>
  152.3921  133.6694  159.6246 H   0  0  0  0  0  0  0  0  0  0  0  0  # atno 6907 bound_to 6896
  150.7827  133.8936  159.3329 H   0  0  0  0  0  0  0  0  0  0  0  0  # atno 6908 bound_to 6896
  151.6720  135.0976  160.0251 H   0  0  0  0  0  0  0  0  0  0  0  0  # atno 6909 bound_to 6896
  146.2252  140.2614  142.8352 H   0  0  0  0  0  0  0  0  0  0  0  0  # atno 7974 bound_to 7965
  154.4072  140.1629  156.2382 H   0  0  0  0  0  0  0  0  0  0  0  0  # atno 8008 bound_to 7997
  155.9224  140.3420  155.6160 H   0  0  0  0  0  0  0  0  0  0  0  0  # atno 8009 bound_to 7997
  155.7206  140.0768  157.2323 H   0  0  0  0  0  0  0  0  0  0  0  0  # atno 8010 bound_to 7997
  139.4908  144.4119  151.9289 H   0  0  0  0  0  0  0  0  0  0  0  0  # atno 10167 bound_to 10162
  157.6711  130.9823  150.1645 H   0  0  0  0  0  0  0  0  0  0  0  0  # atno 10718 bound_to 10713
  154.0193  135.6671  153.4771 H   0  0  0  0  0  0  0  0  0  0  0  0  # atno 10763 bound_to 10752
  153.0587  135.5040  154.8038 H   0  0  0  0  0  0  0  0  0  0  0  0  # atno 10764 bound_to 10752
  154.6947  135.3068  154.9393 H   0  0  0  0  0  0  0  0  0  0  0  0  # atno 10765 bound_to 10752
  141.1479  133.7933  157.0251 H   0  0  0  0  0  0  0  0  0  0  0  0  # atno 11005 bound_to 11000
  144.9337  140.8003  143.5673 LP  0  0  0  0  0  0  0  0  0  0  0  0  # atno 17320 bound_to 7965
  145.2559  139.2012  143.4917 LP  0  0  0  0  0  0  0  0  0  0  0  0  # atno 17321 bound_to 7965
  140.3561  144.3030  150.5941 LP  0  0  0  0  0  0  0  0  0  0  0  0  # atno 17342 bound_to 10162
  140.5443  143.2217  151.8033 LP  0  0  0  0  0  0  0  0  0  0  0  0  # atno 17343 bound_to 10162
  156.2414  130.3691  149.8333 LP  0  0  0  0  0  0  0  0  0  0  0  0  # atno 17370 bound_to 10713
  156.6132  130.8595  151.3459 LP  0  0  0  0  0  0  0  0  0  0  0  0  # atno 17371 bound_to 10713
  140.0790  134.9659  157.1593 LP  0  0  0  0  0  0  0  0  0  0  0  0  # atno 17394 bound_to 11000
  140.3603  134.2502  155.7188 LP  0  0  0  0  0  0  0  0  0  0  0  0  # atno 17395 bound_to 11000

$$$$
