AV-unprocessed.smi:1491|AV-procd|sdf|6035|dock9
  -GOLD-   22720 6143D 1   1.00000     0.00000
 Structure written by MMmdl.
 38 39  0  0  0  0  0  0  0  0  1 V2000
  145.0984  135.7862  153.8390 O   0  0  0  0  0  0  0  0  0  0  0  0
  146.1307  135.9123  153.1799 C   0  0  0  0  0  0  0  0  0  0  0  0
  147.0192  136.9008  153.3551 N   0  0  0  0  0  0  0  0  0  0  0  0
  146.9304  137.9408  154.3761 C   0  0  0  0  0  0  0  0  0  0  0  0
  147.5828  139.2561  153.9121 C   0  0  0  0  0  0  0  0  0  0  0  0
  148.9792  139.3529  154.2947 N   0  0  0  0  0  0  0  0  0  0  0  0
  149.9152  138.3269  154.3190 C   0  0  0  0  0  0  0  0  0  0  0  0
  151.0976  138.8837  154.7508 C   0  0  0  0  0  0  0  0  0  0  0  0
  150.9151  140.2434  154.9916 N   0  0  0  0  0  0  0  0  0  0  0  0
  149.6371  140.4479  154.6994 C   0  0  0  0  0  0  0  0  0  0  0  0
  146.5114  135.0697  152.2098 N   0  0  0  0  0  0  0  0  0  0  0  0
  145.7807  133.8760  151.7960 C   0  0  2  0  0  0  0  0  0  0  0  0
  146.4115  133.3024  150.5146 C   0  0  0  0  0  0  0  0  0  0  0  0
  145.6413  132.0696  150.0102 C   0  0  0  0  0  0  0  0  0  0  0  0
  144.1426  132.3611  149.8072 C   0  0  2  0  0  0  0  0  0  0  0  0
  143.9628  133.2220  148.7001 O   0  0  0  0  0  0  0  0  0  0  0  0
  143.5102  132.9806  151.0680 C   0  0  0  0  0  0  0  0  0  0  0  0
  144.2919  134.2063  151.5725 C   0  0  0  0  0  0  0  0  0  0  0  0
  147.8333  136.9178  152.7587 H   0  0  0  0  0  0  0  0  0  0  0  0
  145.8730  138.1158  154.5743 H   0  0  0  0  0  0  0  0  0  0  0  0
  147.3636  137.6083  155.3210 H   0  0  0  0  0  0  0  0  0  0  0  0
  147.5049  139.3608  152.8291 H   0  0  0  0  0  0  0  0  0  0  0  0
  147.0539  140.1052  154.3464 H   0  0  0  0  0  0  0  0  0  0  0  0
  149.6676  137.3129  154.0416 H   0  0  0  0  0  0  0  0  0  0  0  0
  152.0579  138.4142  154.9055 H   0  0  0  0  0  0  0  0  0  0  0  0
  149.1671  141.4166  154.7850 H   0  0  0  0  0  0  0  0  0  0  0  0
  147.3777  135.2602  151.7276 H   0  0  0  0  0  0  0  0  0  0  0  0
  145.8591  133.1167  152.5769 H   0  0  0  0  0  0  0  0  0  0  0  0
  146.4280  134.0654  149.7349 H   0  0  0  0  0  0  0  0  0  0  0  0
  147.4514  133.0309  150.7003 H   0  0  0  0  0  0  0  0  0  0  0  0
  146.0845  131.7034  149.0835 H   0  0  0  0  0  0  0  0  0  0  0  0
  145.7508  131.2643  150.7375 H   0  0  0  0  0  0  0  0  0  0  0  0
  143.6280  131.4291  149.5709 H   0  0  0  0  0  0  0  0  0  0  0  0
  144.7570  133.7182  148.5732 H   0  0  0  0  0  0  0  0  0  0  0  0
  142.4712  133.2516  150.8770 H   0  0  0  0  0  0  0  0  0  0  0  0
  143.4868  132.2290  151.8582 H   0  0  0  0  0  0  0  0  0  0  0  0
  143.8444  134.5660  152.4999 H   0  0  0  0  0  0  0  0  0  0  0  0
  144.1982  135.0195  150.8514 H   0  0  0  0  0  0  0  0  0  0  0  0
  1  2  2  0  0  0  0
  2  3  1  0  0  0  0
  2 11  1  0  0  0  0
  3  4  1  0  0  0  0
  3 19  1  0  0  0  0
  4  5  1  0  0  0  0
  4 20  1  0  0  0  0
  4 21  1  0  0  0  0
  5  6  1  0  0  0  0
  5 22  1  0  0  0  0
  5 23  1  0  0  0  0
  6 10  1  0  0  0  0
  6  7  1  0  0  0  0
  7  8  2  0  0  0  0
  7 24  1  0  0  0  0
  8  9  1  0  0  0  0
  8 25  1  0  0  0  0
  9 10  2  0  0  0  0
 10 26  1  0  0  0  0
 11 12  1  0  0  0  0
 11 27  1  0  0  0  0
 12 18  1  0  0  0  0
 12 13  1  0  0  0  0
 12 28  1  0  0  0  0
 13 14  1  0  0  0  0
 13 29  1  0  0  0  0
 13 30  1  0  0  0  0
 14 15  1  0  0  0  0
 14 31  1  0  0  0  0
 14 32  1  0  0  0  0
 15 16  1  0  0  0  0
 15 17  1  0  0  0  0
 15 33  1  0  0  0  0
 16 34  1  0  0  0  0
 17 18  1  0  0  0  0
 17 35  1  0  0  0  0
 17 36  1  0  0  0  0
 18 37  1  0  0  0  0
 18 38  1  0  0  0  0
M  END
> <s_m_source_file>
AV-unprocessed.smi

> <i_m_source_file_index>
1491

> <i_lp_mmshare_version>
43012

> <i_f3d_flags>
0

> <s_epik_input>
W0NIMl0xW0NIMl1bQ0BIXShbT0hdKVtDSDJdW0NIMl1bQ0BIXTFbTkhdQyg9TylbTkhdW0NIMl1bQ0gyXW4yW2NIXVtjSF1uW2NIXTI=

> <s_epik_cmdline>
J2VwaWtfcHl0aG9uJywgJy1waCcsICc3LjAnLCAnLXRuJywgJzgnLCAnLW1hJywgJzIwMCcsICctbWV0YWxfYmluZGluZycsICctaW1hZScsICc8aW5maWxlLm1hZT4nLCAnLW9tYWUnLCAnPG91dGZpbGUubWFlPic=

> <r_lp_tautomer_probability>
1

> <r_epik_Ionization_Penalty>
0.623245

> <r_epik_Ionization_Penalty_Charging>
0.623187

> <r_epik_Ionization_Penalty_Neutral>
5.75214e-05

> <r_epik_State_Penalty>
0.639392

> <r_epik_Charging_Adjusted_Penalty>
1.26258

> <i_epik_Tot_Q>
0

> <i_epik_Tot_abs_Q>
0

> <r_epik_Metal_State_Penalty>
0.307266

> <b_epik_Metal_Only>
0

> <s_lp_Force_Field>
OPLS_2005

> <r_lp_Energy>
9.71392

> <b_lp_Chiralities_Consistent>
1

> <s_lp_Variant>
AV-unprocessed.smi:1491-4

> <Gold.Version>
5.8.1

> <Gold.Id.Protein>
6NUR|6NUR_protein|mol2

> <Gold.PLP.Fitness>
47.6961

> <Gold.PLP.PLP>
-34.8140

> <Gold.PLP.part.hbond>
-4.1896

> <Gold.PLP.part.metal>
0.0000

> <Gold.PLP.part.buried>
-3.9098

> <Gold.PLP.part.nonpolar>
-26.5771

> <Gold.PLP.part.repulsive>
0.1306

> <Gold.PLP.ligand.clash>
0.0000

> <Gold.PLP.ligand.torsion>
0.8136

> <Gold.PLP.Chemscore.Hbond>
3.8300

> <Gold.PLP.Chemscore.CHOScore>
1.0000

> <Gold.PLP.Chemscore.Metal>
0.0000

> <Gold.Chemscore.Hbonds>
donor molecule, donor type, donor heavy atom, donor atom, acceptor molecule, acceptor atom, score
      L1  H     3    19       P1  7948  1.00
      L1  H    11    27       P1  7948  0.90
      L1  H    16    34       P1  7921  1.00
      P1  H  7989  7998       L1     9  0.90
      L1  C     7    24       P1  7948  1.00

> <Gold.PLP.Chemscore.Internal.Correction>
0.0194

> <Gold.Rescore>
     Score         DG    S(hbond)    S(metal)    S(lipo)     H(rot)  DE(clash)    DE(int)     intcor
     14.53     -16.37       2.80        0.00      69.34       2.57       0.07       1.77       ----

> <Gold.Chemscore.Fitness>
14.5275

> <Gold.Chemscore.DG>
-16.3695

> <Gold.Chemscore.ZeroCoef>
-5.4800

> <Gold.Chemscore.Hbond>
2.8041

> <Gold.Chemscore.Metal>
0.0000

> <Gold.Chemscore.Lipo>
69.3402

> <Gold.Chemscore.Internal_Hbond>
0.0000

> <Gold.Chemscore.DEClash>
0.0710

> <Gold.Chemscore.DEInternal>
1.7710

> <Gold.Chemscore.Rot>
2.5738

> <Gold.Chemscore.Internal.Correction>
   9.000000E+99

> <Gold.Chemscore.Hbonds>
donor molecule, donor type, donor heavy atom, donor atom, acceptor molecule, acceptor atom, score
      L1  H     3    19       P1  7948  0.95
      L1  H    11    27       P1  7948  0.82
      L1  H    16    34       P1  7921  0.94
      P1  H  7989  7998       L1     9  0.05

> <Gold.Chemscore.Hbond.Weighted>
-9.3657

> <Gold.Chemscore.Metal.Weighted>
-0.0000

> <Gold.Chemscore.Lipo.Weighted>
-8.1128

> <Gold.Chemscore.Internal_Hbond.Weighted>
0.0000

> <Gold.Chemscore.DEClash.Weighted>
0.0710

> <Gold.Chemscore.DEInternal.Weighted>
1.7710

> <Gold.Chemscore.Rot.Weighted>
6.5890

> <Gold.Chemscore.Internal.Correction.Weighted>
   9.000000E+99

> <Gold.Protein.RotatedTorsions>
[ 6907 6896 6895 6894 ] final  -91.83 input  -60.11 | X-H torsion
[ 7974 7965 7964 7962 ] final  162.56 input  175.53 | X-H torsion
[ 8008 7997 7996 7995 ] final -169.93 input   59.86 | X-H torsion
[ 10167 10162 10161 10158 ] final  161.99 input  -65.29 | X-H torsion
[ 10718 10713 10712 10709 ] final  154.06 input   66.30 | X-H torsion
[ 10763 10752 10751 10750 ] final  132.79 input  -60.55 | X-H torsion
[ 11005 11000 10999 10996 ] final  165.84 input  -57.11 | X-H torsion

> <Gold.Protein.ActiveResidues>
 VAL166  LYS551  ARG553  GLY616  TRP617  ASP618  TYR619  PRO620  LYS621  CYS622 
 ASP623  PHE694  ASN695  SER759  ASP760  ASP761  ALA762  ILE779  LEU786  VAL792 
 PHE793  MET794  SER795  GLU796  ALA797  LYS798  CYS799  TRP800  GLU811  SER814 

> <Gold.Protein.RotatedAtoms>
  150.6898  134.2216  159.4398 H   0  0  0  0  0  0  0  0  0  0  0  0  # atno 6907 bound_to 6896
  152.0172  134.9841  160.0579 H   0  0  0  0  0  0  0  0  0  0  0  0  # atno 6908 bound_to 6896
  152.1432  133.4442  159.4814 H   0  0  0  0  0  0  0  0  0  0  0  0  # atno 6909 bound_to 6896
  144.7631  139.8056  143.6325 H   0  0  0  0  0  0  0  0  0  0  0  0  # atno 7974 bound_to 7965
  155.9115  140.1058  157.1275 H   0  0  0  0  0  0  0  0  0  0  0  0  # atno 8008 bound_to 7997
  154.4040  140.1273  156.4629 H   0  0  0  0  0  0  0  0  0  0  0  0  # atno 8009 bound_to 7997
  155.7304  140.3468  155.5059 H   0  0  0  0  0  0  0  0  0  0  0  0  # atno 8010 bound_to 7997
  139.4855  144.4482  151.8864 H   0  0  0  0  0  0  0  0  0  0  0  0  # atno 10167 bound_to 10162
  157.2366  131.0750  151.1819 H   0  0  0  0  0  0  0  0  0  0  0  0  # atno 10718 bound_to 10713
  153.7966  135.3148  155.3385 H   0  0  0  0  0  0  0  0  0  0  0  0  # atno 10763 bound_to 10752
  154.8105  135.4670  154.0508 H   0  0  0  0  0  0  0  0  0  0  0  0  # atno 10764 bound_to 10752
  153.1842  135.6898  153.8524 H   0  0  0  0  0  0  0  0  0  0  0  0  # atno 10765 bound_to 10752
  140.2603  134.7907  157.3583 H   0  0  0  0  0  0  0  0  0  0  0  0  # atno 11005 bound_to 11000
  146.1713  139.4865  142.9925 LP  0  0  0  0  0  0  0  0  0  0  0  0  # atno 17320 bound_to 7965
  145.6556  141.0253  143.1737 LP  0  0  0  0  0  0  0  0  0  0  0  0  # atno 17321 bound_to 7965
  140.3937  144.2582  150.5897 LP  0  0  0  0  0  0  0  0  0  0  0  0  # atno 17342 bound_to 10162
  140.5122  143.2287  151.8518 LP  0  0  0  0  0  0  0  0  0  0  0  0  # atno 17343 bound_to 10162
  157.3422  130.7039  149.6389 LP  0  0  0  0  0  0  0  0  0  0  0  0  # atno 17370 bound_to 10713
  155.9672  130.4276  150.4753 LP  0  0  0  0  0  0  0  0  0  0  0  0  # atno 17371 bound_to 10713
  140.1471  134.4897  155.7988 LP  0  0  0  0  0  0  0  0  0  0  0  0  # atno 17394 bound_to 11000
  141.2191  133.6848  156.7313 LP  0  0  0  0  0  0  0  0  0  0  0  0  # atno 17395 bound_to 11000

$$$$
