AV-unprocessed.smi:160|AV-procd|sdf|1356|dock2
  -GOLD-   2262019 63D 1   1.00000     0.00000
 Structure written by MMmdl.
 29 30  0  0  0  0  0  0  0  0  1 V2000
  140.3703  139.0683  153.5754 N   0  0  0  0  0  0  0  0  0  0  0  0
  139.9644  137.8964  154.0753 C   0  0  0  0  0  0  0  0  0  0  0  0
  138.9313  137.7843  154.7333 O   0  0  0  0  0  0  0  0  0  0  0  0
  140.8453  136.7111  153.7896 C   0  0  0  0  0  0  0  0  0  0  0  0
  140.4055  135.4367  154.0091 N   0  0  0  0  0  0  0  0  0  0  0  0
  141.4900  134.7731  153.6293 C   0  0  0  0  0  0  0  0  0  0  0  0
  142.4896  135.5555  153.2045 N   0  0  0  0  0  0  0  0  0  0  0  0
  143.8686  135.2258  152.7243 C   0  0  1  0  0  0  0  0  0  0  0  0
  143.9580  133.8393  152.5876 O   0  0  0  0  0  0  0  0  0  0  0  0
  143.6712  133.4782  151.2409 C   0  0  2  0  0  0  0  0  0  0  0  0
  144.1361  132.0438  150.9332 C   0  0  0  0  0  0  0  0  0  0  0  0
  143.8280  131.7116  149.5961 O   0  0  0  0  0  0  0  0  0  0  0  0
  144.3866  134.5910  150.4650 C   0  0  2  0  0  0  0  0  0  0  0  0
  145.7730  134.3089  150.3570 O   0  0  0  0  0  0  0  0  0  0  0  0
  144.1011  135.8252  151.3226 C   0  0  2  0  0  0  0  0  0  0  0  0
  145.1498  136.7752  151.2853 O   0  0  0  0  0  0  0  0  0  0  0  0
  142.0858  136.8451  153.3160 N   0  0  0  0  0  0  0  0  0  0  0  0
  144.5345  135.5968  153.5045 H   0  0  0  0  0  0  0  0  0  0  0  0
  142.5978  133.5699  151.0623 H   0  0  0  0  0  0  0  0  0  0  0  0
  143.9847  134.7028  149.4575 H   0  0  0  0  0  0  0  0  0  0  0  0
  143.1842  136.3008  150.9704 H   0  0  0  0  0  0  0  0  0  0  0  0
  139.8223  139.9008  153.7354 H   0  0  0  0  0  0  0  0  0  0  0  0
  141.2263  139.1120  153.0416 H   0  0  0  0  0  0  0  0  0  0  0  0
  141.5539  133.6951  153.6615 H   0  0  0  0  0  0  0  0  0  0  0  0
  145.2177  131.9671  151.0476 H   0  0  0  0  0  0  0  0  0  0  0  0
  143.6837  131.3226  151.6147 H   0  0  0  0  0  0  0  0  0  0  0  0
  143.2440  132.3695  149.2507 H   0  0  0  0  0  0  0  0  0  0  0  0
  146.0909  134.6887  149.5517 H   0  0  0  0  0  0  0  0  0  0  0  0
  144.8506  137.5318  150.8044 H   0  0  0  0  0  0  0  0  0  0  0  0
  1  2  1  0  0  0  0
  1 22  1  0  0  0  0
  1 23  1  0  0  0  0
  2  3  2  0  0  0  0
  2  4  1  0  0  0  0
  4 17  2  0  0  0  0
  4  5  1  0  0  0  0
  5  6  2  0  0  0  0
  6  7  1  0  0  0  0
  6 24  1  0  0  0  0
  7  8  1  0  0  0  0
  7 17  1  0  0  0  0
  8 18  1  0  0  0  0
  8 15  1  0  0  0  0
  8  9  1  0  0  0  0
  9 10  1  0  0  0  0
 10 19  1  0  0  0  0
 10 11  1  0  0  0  0
 10 13  1  0  0  0  0
 11 12  1  0  0  0  0
 11 25  1  0  0  0  0
 11 26  1  0  0  0  0
 12 27  1  0  0  0  0
 13 20  1  0  0  0  0
 13 14  1  0  0  0  0
 13 15  1  0  0  0  0
 14 28  1  0  0  0  0
 15 21  1  0  0  0  0
 15 16  1  0  0  0  0
 16 29  1  0  0  0  0
M  END
> <s_m_source_file>
AV-unprocessed.smi

> <i_m_source_file_index>
160

> <i_lp_mmshare_version>
43012

> <i_f3d_flags>
0

> <s_epik_input>
W05IMl1DKD1PKWMxbltjSF1uKG4xKVtDQEBIXTJPW0NASF0oW0NIMl1bT0hdKVtDQEBIXShbT0hdKVtDQEhdMltPSF0=

> <s_epik_cmdline>
J2VwaWtfcHl0aG9uJywgJy1waCcsICc3LjAnLCAnLXRuJywgJzgnLCAnLW1hJywgJzIwMCcsICctbWV0YWxfYmluZGluZycsICctaW1hZScsICc8aW5maWxlLm1hZT4nLCAnLW9tYWUnLCAnPG91dGZpbGUubWFlPic=

> <r_lp_tautomer_probability>
1

> <r_epik_Ionization_Penalty>
1.06932e-05

> <r_epik_Ionization_Penalty_Charging>
0

> <r_epik_Ionization_Penalty_Neutral>
1.06932e-05

> <r_epik_State_Penalty>
-0

> <r_epik_Charging_Adjusted_Penalty>
0

> <i_epik_Tot_Q>
0

> <i_epik_Tot_abs_Q>
0

> <r_epik_Metal_State_Penalty>
0.0142097

> <b_epik_Metal_Only>
0

> <s_epik_Chemistry_Notes>
This compound contains an acetal/aminal-like group ( X-CH(R)-Y where X, Y are N, S, or O) that may be acid/base labile, releasing an aldehyde.

> <s_lp_Force_Field>
OPLS_2005

> <r_lp_Energy>
42.1222

> <b_lp_Chiralities_Consistent>
1

> <s_lp_Variant>
AV-unprocessed.smi:160-14

> <Gold.Version>
5.8.1

> <Gold.Id.Protein>
6NUR|6NUR_protein|mol2

> <Gold.PLP.Fitness>
42.8799

> <Gold.PLP.PLP>
-28.7339

> <Gold.PLP.part.hbond>
-5.3101

> <Gold.PLP.part.metal>
0.0000

> <Gold.PLP.part.buried>
-6.7818

> <Gold.PLP.part.nonpolar>
-17.7728

> <Gold.PLP.part.repulsive>
0.4715

> <Gold.PLP.ligand.clash>
0.0000

> <Gold.PLP.ligand.torsion>
0.1530

> <Gold.PLP.Chemscore.Hbond>
3.8070

> <Gold.PLP.Chemscore.CHOScore>
1.0000

> <Gold.PLP.Chemscore.Metal>
0.0000

> <Gold.Chemscore.Hbonds>
donor molecule, donor type, donor heavy atom, donor atom, acceptor molecule, acceptor atom, score
      L1  H    14    28       P1  7921  1.00
      L1  H    16    29       P1 10171  1.00
      P1  H 10785 10796       L1    12  0.82
      P1  H 11000 11005       L1     5  0.96
      L1  C     6    24       P1 10957  1.00

> <Gold.PLP.Chemscore.Internal.Correction>
0.0310

> <Gold.Rescore>
     Score         DG    S(hbond)    S(metal)    S(lipo)     H(rot)  DE(clash)    DE(int)     intcor
     12.24     -13.82       4.61        0.00      28.64       4.06       1.50       0.08       ----

> <Gold.Chemscore.Fitness>
12.2395

> <Gold.Chemscore.DG>
-13.8208

> <Gold.Chemscore.ZeroCoef>
-5.4800

> <Gold.Chemscore.Hbond>
4.6057

> <Gold.Chemscore.Metal>
0.0000

> <Gold.Chemscore.Lipo>
28.6427

> <Gold.Chemscore.Internal_Hbond>
0.0000

> <Gold.Chemscore.DEClash>
1.4992

> <Gold.Chemscore.DEInternal>
0.0821

> <Gold.Chemscore.Rot>
4.0600

> <Gold.Chemscore.Internal.Correction>
   9.000000E+99

> <Gold.Chemscore.Hbonds>
donor molecule, donor type, donor heavy atom, donor atom, acceptor molecule, acceptor atom, score
      L1  H    14    28       P1  7921  0.48
      L1  H    16    29       P1 10171  1.00
      P1  H 10785 10796       L1    12  0.32
      P1  H 11000 11005       L1     5  0.23

> <Gold.Chemscore.Hbond.Weighted>
-15.3832

> <Gold.Chemscore.Metal.Weighted>
-0.0000

> <Gold.Chemscore.Lipo.Weighted>
-3.3512

> <Gold.Chemscore.Internal_Hbond.Weighted>
0.0000

> <Gold.Chemscore.DEClash.Weighted>
1.4992

> <Gold.Chemscore.DEInternal.Weighted>
0.0821

> <Gold.Chemscore.Rot.Weighted>
10.3936

> <Gold.Chemscore.Internal.Correction.Weighted>
   9.000000E+99

> <Gold.Protein.RotatedTorsions>
[ 6907 6896 6895 6894 ] final -112.99 input  -60.11 | X-H torsion
[ 7974 7965 7964 7962 ] final -127.68 input  175.53 | X-H torsion
[ 8008 7997 7996 7995 ] final -158.14 input   59.86 | X-H torsion
[ 10167 10162 10161 10158 ] final  136.72 input  -65.29 | X-H torsion
[ 10718 10713 10712 10709 ] final   79.58 input   66.30 | X-H torsion
[ 10763 10752 10751 10750 ] final  -89.30 input  -60.55 | X-H torsion
[ 11005 11000 10999 10996 ] final   53.63 input  -57.11 | X-H torsion

> <Gold.Protein.ActiveResidues>
 VAL166  LYS551  ARG553  GLY616  TRP617  ASP618  TYR619  PRO620  LYS621  CYS622 
 ASP623  PHE694  ASN695  SER759  ASP760  ASP761  ALA762  ILE779  LEU786  VAL792 
 PHE793  MET794  SER795  GLU796  ALA797  LYS798  CYS799  TRP800  GLU811  SER814 

> <Gold.Protein.RotatedAtoms>
  150.7797  133.9009  159.3340 H   0  0  0  0  0  0  0  0  0  0  0  0  # atno 6907 bound_to 6896
  151.6875  135.0950  160.0237 H   0  0  0  0  0  0  0  0  0  0  0  0  # atno 6908 bound_to 6896
  152.3845  133.6553  159.6223 H   0  0  0  0  0  0  0  0  0  0  0  0  # atno 6909 bound_to 6896
  144.9746  140.7580  143.4649 H   0  0  0  0  0  0  0  0  0  0  0  0  # atno 7974 bound_to 7965
  155.7430  140.0816  157.2237 H   0  0  0  0  0  0  0  0  0  0  0  0  # atno 8008 bound_to 7997
  154.4020  140.1574  156.2693 H   0  0  0  0  0  0  0  0  0  0  0  0  # atno 8009 bound_to 7997
  155.9002  140.3410  155.6024 H   0  0  0  0  0  0  0  0  0  0  0  0  # atno 8010 bound_to 7997
  139.5170  144.6449  151.5467 H   0  0  0  0  0  0  0  0  0  0  0  0  # atno 10167 bound_to 10162
  157.6781  130.9920  150.1953 H   0  0  0  0  0  0  0  0  0  0  0  0  # atno 10718 bound_to 10713
  154.6538  135.5345  153.7934 H   0  0  0  0  0  0  0  0  0  0  0  0  # atno 10763 bound_to 10752
  153.0402  135.6489  154.0976 H   0  0  0  0  0  0  0  0  0  0  0  0  # atno 10764 bound_to 10752
  154.0890  135.2941  155.3255 H   0  0  0  0  0  0  0  0  0  0  0  0  # atno 10765 bound_to 10752
  140.0752  134.5415  155.9004 H   0  0  0  0  0  0  0  0  0  0  0  0  # atno 11005 bound_to 11000
  145.2509  139.2032  143.4943 LP  0  0  0  0  0  0  0  0  0  0  0  0  # atno 17320 bound_to 7965
  146.3391  140.2422  142.8596 LP  0  0  0  0  0  0  0  0  0  0  0  0  # atno 17321 bound_to 7965
  140.6230  143.9222  150.6542 LP  0  0  0  0  0  0  0  0  0  0  0  0  # atno 17342 bound_to 10162
  140.2501  143.3599  152.1412 LP  0  0  0  0  0  0  0  0  0  0  0  0  # atno 17343 bound_to 10162
  156.2656  130.3716  149.8085 LP  0  0  0  0  0  0  0  0  0  0  0  0  # atno 17370 bound_to 10713
  156.5817  130.8469  151.3385 LP  0  0  0  0  0  0  0  0  0  0  0  0  # atno 17371 bound_to 10713
  141.2027  133.6626  156.6019 LP  0  0  0  0  0  0  0  0  0  0  0  0  # atno 17394 bound_to 11000
  140.3569  134.7721  157.4506 LP  0  0  0  0  0  0  0  0  0  0  0  0  # atno 17395 bound_to 11000

$$$$
