AV-unprocessed.smi:527|AV-procd|sdf|2821|dock4
  -GOLD-   2262023303D 1   1.00000     0.00000
 Structure written by MMmdl.
 42 43  0  0  0  0  0  0  0  0  1 V2000
  146.3262  142.4357  153.7536 C   0  0  0  0  0  0  0  0  0  0  0  0
  147.1804  141.2599  154.2562 C   0  0  2  0  0  0  0  0  0  0  0  0
  148.6824  141.6094  154.2748 C   0  0  0  0  0  0  0  0  0  0  0  0
  149.5187  140.4675  154.8735 C   0  0  0  0  0  0  0  0  0  0  0  0
  149.2572  139.1358  154.1534 C   0  0  0  0  0  0  0  0  0  0  0  0
  147.7551  138.7920  154.1417 C   0  0  2  0  0  0  0  0  0  0  0  0
  147.5470  137.5066  153.4787 N   0  0  0  0  0  0  0  0  0  0  0  0
  146.4138  136.7896  153.5099 C   0  0  0  0  0  0  0  0  0  0  0  0
  145.3483  137.2232  153.9534 O   0  0  0  0  0  0  0  0  0  0  0  0
  146.6083  135.5627  152.9910 N   0  0  0  0  0  0  0  0  0  0  0  0
  145.7429  134.5276  152.9740 C   0  0  0  0  0  0  0  0  0  0  0  0
  144.6118  134.5391  153.4631 O   0  0  0  0  0  0  0  0  0  0  0  0
  146.2461  133.2543  152.2893 C   0  0  0  0  0  0  0  0  0  0  0  0
  145.3234  132.8005  151.2639 N   0  0  0  0  0  0  0  0  0  0  0  0
  143.9662  133.0830  151.1715 C   0  0  0  0  0  0  0  0  0  0  0  0
  143.5052  132.4346  150.0481 C   0  0  0  0  0  0  0  0  0  0  0  0
  144.5547  131.7529  149.4366 N   0  0  0  0  0  0  0  0  0  0  0  0
  145.5987  132.0170  150.2112 C   0  0  0  0  0  0  0  0  0  0  0  0
  146.9122  139.9300  153.5019 C   0  0  2  0  0  0  0  0  0  0  0  0
  147.0992  140.0391  151.9707 C   0  0  0  0  0  0  0  0  0  0  0  0
  146.6192  142.7522  152.7527 H   0  0  0  0  0  0  0  0  0  0  0  0
  146.4325  143.2999  154.4099 H   0  0  0  0  0  0  0  0  0  0  0  0
  145.2686  142.1723  153.7282 H   0  0  0  0  0  0  0  0  0  0  0  0
  146.8821  141.0955  155.2930 H   0  0  0  0  0  0  0  0  0  0  0  0
  149.0305  141.8314  153.2656 H   0  0  0  0  0  0  0  0  0  0  0  0
  148.8444  142.5168  154.8578 H   0  0  0  0  0  0  0  0  0  0  0  0
  150.5790  140.7163  154.8221 H   0  0  0  0  0  0  0  0  0  0  0  0
  149.2791  140.3594  155.9321 H   0  0  0  0  0  0  0  0  0  0  0  0
  149.6420  139.1888  153.1344 H   0  0  0  0  0  0  0  0  0  0  0  0
  149.8170  138.3416  154.6491 H   0  0  0  0  0  0  0  0  0  0  0  0
  147.4439  138.6827  155.1827 H   0  0  0  0  0  0  0  0  0  0  0  0
  148.3222  137.1452  152.9426 H   0  0  0  0  0  0  0  0  0  0  0  0
  147.5010  135.4010  152.5486 H   0  0  0  0  0  0  0  0  0  0  0  0
  147.2215  133.4404  151.8381 H   0  0  0  0  0  0  0  0  0  0  0  0
  146.3757  132.4566  153.0223 H   0  0  0  0  0  0  0  0  0  0  0  0
  143.4540  133.7023  151.8933 H   0  0  0  0  0  0  0  0  0  0  0  0
  142.5070  132.4059  149.6366 H   0  0  0  0  0  0  0  0  0  0  0  0
  146.5863  131.6274  150.0117 H   0  0  0  0  0  0  0  0  0  0  0  0
  145.8619  139.6822  153.6625 H   0  0  0  0  0  0  0  0  0  0  0  0
  148.1191  140.3094  151.7000 H   0  0  0  0  0  0  0  0  0  0  0  0
  146.4350  140.7874  151.5398 H   0  0  0  0  0  0  0  0  0  0  0  0
  146.8655  139.0995  151.4701 H   0  0  0  0  0  0  0  0  0  0  0  0
  1  2  1  0  0  0  0
  1 21  1  0  0  0  0
  1 22  1  0  0  0  0
  1 23  1  0  0  0  0
  2 19  1  0  0  0  0
  2  3  1  0  0  0  0
  2 24  1  0  0  0  0
  3  4  1  0  0  0  0
  3 25  1  0  0  0  0
  3 26  1  0  0  0  0
  4  5  1  0  0  0  0
  4 27  1  0  0  0  0
  4 28  1  0  0  0  0
  5  6  1  0  0  0  0
  5 29  1  0  0  0  0
  5 30  1  0  0  0  0
  6  7  1  0  0  0  0
  6 19  1  0  0  0  0
  6 31  1  0  0  0  0
  7  8  1  0  0  0  0
  7 32  1  0  0  0  0
  8  9  2  0  0  0  0
  8 10  1  0  0  0  0
 10 11  1  0  0  0  0
 10 33  1  0  0  0  0
 11 12  2  0  0  0  0
 11 13  1  0  0  0  0
 13 14  1  0  0  0  0
 13 34  1  0  0  0  0
 13 35  1  0  0  0  0
 14 18  1  0  0  0  0
 14 15  1  0  0  0  0
 15 16  2  0  0  0  0
 15 36  1  0  0  0  0
 16 17  1  0  0  0  0
 16 37  1  0  0  0  0
 17 18  2  0  0  0  0
 18 38  1  0  0  0  0
 19 20  1  0  0  0  0
 19 39  1  0  0  0  0
 20 40  1  0  0  0  0
 20 41  1  0  0  0  0
 20 42  1  0  0  0  0
M  END
> <s_m_source_file>
AV-unprocessed.smi

> <i_m_source_file_index>
527

> <i_lp_mmshare_version>
43012

> <i_f3d_flags>
0

> <s_epik_input>
W0NIM11bQ0BASF0xW0NIMl1bQ0gyXVtDSDJdW0NASF0oW0NASF0xW0NIM10pW05IXUMoPU8pW05IXUMoPU8pW0NIMl1uMltjSF1bY0hdbltjSF0y

> <s_epik_cmdline>
J2VwaWtfcHl0aG9uJywgJy1waCcsICc3LjAnLCAnLXRuJywgJzgnLCAnLW1hJywgJzIwMCcsICctbWV0YWxfYmluZGluZycsICctaW1hZScsICc8aW5maWxlLm1hZT4nLCAnLW9tYWUnLCAnPG91dGZpbGUubWFlPic=

> <r_lp_tautomer_probability>
1

> <r_epik_Ionization_Penalty>
0.172132

> <r_epik_Ionization_Penalty_Charging>
0.172105

> <r_epik_Ionization_Penalty_Neutral>
2.71747e-05

> <r_epik_State_Penalty>
0.161503

> <r_epik_Charging_Adjusted_Penalty>
0.333607

> <i_epik_Tot_Q>
0

> <i_epik_Tot_abs_Q>
0

> <r_epik_Metal_State_Penalty>
0.124763

> <b_epik_Metal_Only>
0

> <s_lp_Force_Field>
OPLS_2005

> <r_lp_Energy>
16.867

> <b_lp_Chiralities_Consistent>
1

> <s_lp_Variant>
AV-unprocessed.smi:527-7

> <Gold.Version>
5.8.1

> <Gold.Id.Protein>
6NUR|6NUR_protein|mol2

> <Gold.PLP.Fitness>
46.8349

> <Gold.PLP.PLP>
-33.3408

> <Gold.PLP.part.hbond>
-2.8978

> <Gold.PLP.part.metal>
0.0000

> <Gold.PLP.part.buried>
1.3972

> <Gold.PLP.part.nonpolar>
-32.5882

> <Gold.PLP.part.repulsive>
0.3515

> <Gold.PLP.ligand.clash>
0.0000

> <Gold.PLP.ligand.torsion>
0.5101

> <Gold.PLP.Chemscore.Hbond>
2.1285

> <Gold.PLP.Chemscore.CHOScore>
2.6983

> <Gold.PLP.Chemscore.Metal>
0.0000

> <Gold.Chemscore.Hbonds>
donor molecule, donor type, donor heavy atom, donor atom, acceptor molecule, acceptor atom, score
      L1  H     7    32       P1  7948  1.00
      L1  H    10    33       P1  7948  0.90
      P1  H 10785 10796       L1    17  0.17
      L1  C    16    37       P1 10186  0.87
      L1  C    16    37       P1 10952  0.68
      L1  C    18    38       P1 10747  1.00

> <Gold.PLP.Chemscore.Internal.Correction>
0.0340

> <Gold.Rescore>
     Score         DG    S(hbond)    S(metal)    S(lipo)     H(rot)  DE(clash)    DE(int)     intcor
     12.33     -16.73       1.94        0.00      77.16       1.66       1.24       3.15       ----

> <Gold.Chemscore.Fitness>
12.3340

> <Gold.Chemscore.DG>
-16.7251

> <Gold.Chemscore.ZeroCoef>
-5.4800

> <Gold.Chemscore.Hbond>
1.9385

> <Gold.Chemscore.Metal>
0.0000

> <Gold.Chemscore.Lipo>
77.1563

> <Gold.Chemscore.Internal_Hbond>
0.0000

> <Gold.Chemscore.DEClash>
1.2396

> <Gold.Chemscore.DEInternal>
3.1515

> <Gold.Chemscore.Rot>
1.6629

> <Gold.Chemscore.Internal.Correction>
   9.000000E+99

> <Gold.Chemscore.Hbonds>
donor molecule, donor type, donor heavy atom, donor atom, acceptor molecule, acceptor atom, score
      L1  H     7    32       P1  7948  0.92
      L1  H    10    33       P1  7948  0.88
      P1  H 10785 10796       L1    17  0.01

> <Gold.Chemscore.Hbond.Weighted>
-6.4747

> <Gold.Chemscore.Metal.Weighted>
-0.0000

> <Gold.Chemscore.Lipo.Weighted>
-9.0273

> <Gold.Chemscore.Internal_Hbond.Weighted>
0.0000

> <Gold.Chemscore.DEClash.Weighted>
1.2396

> <Gold.Chemscore.DEInternal.Weighted>
3.1515

> <Gold.Chemscore.Rot.Weighted>
4.2569

> <Gold.Chemscore.Internal.Correction.Weighted>
   9.000000E+99

> <Gold.Protein.RotatedTorsions>
[ 6907 6896 6895 6894 ] final   54.87 input  -60.11 | X-H torsion
[ 7974 7965 7964 7962 ] final  -63.74 input  175.53 | X-H torsion
[ 8008 7997 7996 7995 ] final  -12.54 input   59.86 | X-H torsion
[ 10167 10162 10161 10158 ] final   54.97 input  -65.29 | X-H torsion
[ 10718 10713 10712 10709 ] final -109.10 input   66.30 | X-H torsion
[ 10763 10752 10751 10750 ] final  130.36 input  -60.55 | X-H torsion
[ 11005 11000 10999 10996 ] final  100.12 input  -57.11 | X-H torsion

> <Gold.Protein.ActiveResidues>
 VAL166  LYS551  ARG553  GLY616  TRP617  ASP618  TYR619  PRO620  LYS621  CYS622 
 ASP623  PHE694  ASN695  SER759  ASP760  ASP761  ALA762  ILE779  LEU786  VAL792 
 PHE793  MET794  SER795  GLU796  ALA797  LYS798  CYS799  TRP800  GLU811  SER814 

> <Gold.Protein.RotatedAtoms>
  152.3482  134.7042  160.0243 H   0  0  0  0  0  0  0  0  0  0  0  0  # atno 6907 bound_to 6896
  151.7405  133.3316  159.3372 H   0  0  0  0  0  0  0  0  0  0  0  0  # atno 6908 bound_to 6896
  150.7523  134.6215  159.6183 H   0  0  0  0  0  0  0  0  0  0  0  0  # atno 6909 bound_to 6896
  145.7753  140.8791  143.0359 H   0  0  0  0  0  0  0  0  0  0  0  0  # atno 7974 bound_to 7965
  154.5368  140.2273  155.8709 H   0  0  0  0  0  0  0  0  0  0  0  0  # atno 8008 bound_to 7997
  156.1819  140.3098  155.9128 H   0  0  0  0  0  0  0  0  0  0  0  0  # atno 8009 bound_to 7997
  155.3338  140.0447  157.3034 H   0  0  0  0  0  0  0  0  0  0  0  0  # atno 8010 bound_to 7997
  140.2245  144.3753  150.6438 H   0  0  0  0  0  0  0  0  0  0  0  0  # atno 10167 bound_to 10162
  156.0519  130.5747  150.8053 H   0  0  0  0  0  0  0  0  0  0  0  0  # atno 10718 bound_to 10713
  153.7567  135.3202  155.3330 H   0  0  0  0  0  0  0  0  0  0  0  0  # atno 10763 bound_to 10752
  154.8244  135.4580  154.0878 H   0  0  0  0  0  0  0  0  0  0  0  0  # atno 10764 bound_to 10752
  153.2097  135.6934  153.8212 H   0  0  0  0  0  0  0  0  0  0  0  0  # atno 10765 bound_to 10752
  139.8771  134.9126  156.4707 H   0  0  0  0  0  0  0  0  0  0  0  0  # atno 11005 bound_to 11000
  144.6805  139.9913  143.7484 LP  0  0  0  0  0  0  0  0  0  0  0  0  # atno 17320 bound_to 7965
  146.0129  139.3185  143.0859 LP  0  0  0  0  0  0  0  0  0  0  0  0  # atno 17321 bound_to 7965
  140.6231  143.2178  151.6653 LP  0  0  0  0  0  0  0  0  0  0  0  0  # atno 17342 bound_to 10162
  139.5132  144.3450  152.0705 LP  0  0  0  0  0  0  0  0  0  0  0  0  # atno 17343 bound_to 10162
  157.5454  131.0942  150.9770 LP  0  0  0  0  0  0  0  0  0  0  0  0  # atno 17370 bound_to 10713
  157.0042  130.5612  149.5314 LP  0  0  0  0  0  0  0  0  0  0  0  0  # atno 17371 bound_to 10713
  140.8797  133.7927  155.9453 LP  0  0  0  0  0  0  0  0  0  0  0  0  # atno 17394 bound_to 11000
  140.8866  134.2546  157.5116 LP  0  0  0  0  0  0  0  0  0  0  0  0  # atno 17395 bound_to 11000

$$$$
