AV-unprocessed.smi:1016|AV-procd|sdf|4437|dock3
  -GOLD-   22720 2393D 1   1.00000     0.00000
 Structure written by MMmdl.
 39 40  0  0  0  0  0  0  0  0  2 V2000
  151.7221  143.8815  157.9012 C   0  0  0  0  0  0  0  0  0  0  0  0
  152.3144  143.0817  159.0234 C   0  0  0  0  0  0  0  0  0  0  0  0
  152.5223  143.6222  160.3532 C   0  0  0  0  0  0  0  0  0  0  0  0
  153.0588  142.8358  161.3106 C   0  0  0  0  0  0  0  0  0  0  0  0
  153.4425  141.4516  161.0423 C   0  0  0  0  0  0  0  0  0  0  0  0
  153.9382  140.7119  161.8917 O   0  0  0  0  0  0  0  0  0  0  0  0
  153.2079  141.0563  159.7555 N   0  0  0  0  0  0  0  0  0  0  0  0
  153.5816  139.7102  159.2903 C   0  0  0  0  0  0  0  0  0  0  0  0
  152.7324  139.1719  158.1245 C   0  0  0  0  0  0  0  0  0  0  0  0
  153.1864  139.2570  156.9849 O   0  0  0  0  0  0  0  0  0  0  0  0
  151.5334  138.6378  158.4329 N   0  0  0  0  0  0  0  0  0  0  0  0
  150.4629  138.0469  157.6163 C   0  0  0  0  0  0  0  0  0  0  0  0
  149.4390  137.4986  158.6436 C   0  0  0  0  0  0  0  0  0  0  0  0
  149.8148  136.5973  159.4259 O   0  0  0  0  0  0  0  0  0  0  0  0
  148.2735  137.9543  158.6045 O   0  5  0  0  0  0  0  0  0  0  0  0
  149.7876  139.0316  156.6087 C   0  0  0  0  0  0  0  0  0  0  0  0
  148.7947  138.3395  155.6543 C   0  0  0  0  0  0  0  0  0  0  0  0
  149.4718  137.1984  154.8820 C   0  0  0  0  0  0  0  0  0  0  0  0
  150.1245  136.1925  155.8406 C   0  0  0  0  0  0  0  0  0  0  0  0
  151.1092  136.8924  156.7978 C   0  0  0  0  0  0  0  0  0  0  0  0
  152.6474  141.8581  158.7742 N   0  0  0  0  0  0  0  0  0  0  0  0
  151.4863  144.8966  158.2214 H   0  0  0  0  0  0  0  0  0  0  0  0
  150.8011  143.4223  157.5410 H   0  0  0  0  0  0  0  0  0  0  0  0
  152.4175  143.9487  157.0640 H   0  0  0  0  0  0  0  0  0  0  0  0
  152.2480  144.6446  160.5672 H   0  0  0  0  0  0  0  0  0  0  0  0
  153.2142  143.2396  162.3003 H   0  0  0  0  0  0  0  0  0  0  0  0
  154.6326  139.6860  158.9974 H   0  0  0  0  0  0  0  0  0  0  0  0
  153.4995  139.0020  160.1166 H   0  0  0  0  0  0  0  0  0  0  0  0
  151.3083  138.6635  159.4170 H   0  0  0  0  0  0  0  0  0  0  0  0
  149.2819  139.8463  157.1289 H   0  0  0  0  0  0  0  0  0  0  0  0
  150.5545  139.4999  155.9906 H   0  0  0  0  0  0  0  0  0  0  0  0
  147.9412  137.9517  156.2113 H   0  0  0  0  0  0  0  0  0  0  0  0
  148.3916  139.0692  154.9517 H   0  0  0  0  0  0  0  0  0  0  0  0
  148.7431  136.6918  154.2488 H   0  0  0  0  0  0  0  0  0  0  0  0
  150.2298  137.6096  154.2144 H   0  0  0  0  0  0  0  0  0  0  0  0
  149.3529  135.6723  156.4090 H   0  0  0  0  0  0  0  0  0  0  0  0
  150.6488  135.4266  155.2688 H   0  0  0  0  0  0  0  0  0  0  0  0
  151.9347  137.2952  156.2087 H   0  0  0  0  0  0  0  0  0  0  0  0
  151.5646  136.1508  157.4560 H   0  0  0  0  0  0  0  0  0  0  0  0
  1  2  1  0  0  0  0
  1 22  1  0  0  0  0
  1 23  1  0  0  0  0
  1 24  1  0  0  0  0
  2 21  2  0  0  0  0
  2  3  1  0  0  0  0
  3  4  2  0  0  0  0
  3 25  1  0  0  0  0
  4  5  1  0  0  0  0
  4 26  1  0  0  0  0
  5  6  2  0  0  0  0
  5  7  1  0  0  0  0
  7  8  1  0  0  0  0
  7 21  1  0  0  0  0
  8  9  1  0  0  0  0
  8 27  1  0  0  0  0
  8 28  1  0  0  0  0
  9 10  2  0  0  0  0
  9 11  1  0  0  0  0
 11 12  1  0  0  0  0
 11 29  1  0  0  0  0
 12 20  1  0  0  0  0
 12 13  1  0  0  0  0
 12 16  1  0  0  0  0
 13 14  2  0  0  0  0
 13 15  1  0  0  0  0
 16 17  1  0  0  0  0
 16 30  1  0  0  0  0
 16 31  1  0  0  0  0
 17 18  1  0  0  0  0
 17 32  1  0  0  0  0
 17 33  1  0  0  0  0
 18 19  1  0  0  0  0
 18 34  1  0  0  0  0
 18 35  1  0  0  0  0
 19 20  1  0  0  0  0
 19 36  1  0  0  0  0
 19 37  1  0  0  0  0
 20 38  1  0  0  0  0
 20 39  1  0  0  0  0
M  CHG  1  15  -1
M  END
> <s_m_source_file>
AV-unprocessed.smi

> <i_m_source_file_index>
1016

> <i_lp_mmshare_version>
43012

> <i_f3d_flags>
0

> <s_epik_input>
W0NIM11jMVtjSF1bY0hdYyg9TyluKG4xKVtDSDJdQyg9TylbTkhdQzIoQyg9TylbT0hdKVtDSDJdW0NIMl1bQ0gyXVtDSDJdW0NIMl0y

> <s_epik_cmdline>
J2VwaWtfcHl0aG9uJywgJy1waCcsICc3LjAnLCAnLXRuJywgJzgnLCAnLW1hJywgJzIwMCcsICctbWV0YWxfYmluZGluZycsICctaW1hZScsICc8aW5maWxlLm1hZT4nLCAnLW9tYWUnLCAnPG91dGZpbGUubWFlPic=

> <r_lp_tautomer_probability>
1

> <r_epik_Ionization_Penalty>
0.000398047

> <r_epik_Ionization_Penalty_Charging>
0.000398029

> <r_epik_Ionization_Penalty_Neutral>
1.87077e-08

> <r_epik_State_Penalty>
0.000243291

> <r_epik_Charging_Adjusted_Penalty>
0.00064132

> <i_epik_Tot_Q>
-1

> <i_epik_Tot_abs_Q>
1

> <r_epik_Metal_State_Penalty>
-0

> <b_epik_Metal_Only>
0

> <s_lp_Force_Field>
OPLS_2005

> <r_lp_Energy>
18.8649

> <b_lp_Chiralities_Consistent>
1

> <s_lp_Variant>
AV-unprocessed.smi:1016-1

> <Gold.Version>
5.8.1

> <Gold.Id.Protein>
6NUR|6NUR_protein|mol2

> <Gold.PLP.Fitness>
40.5455

> <Gold.PLP.PLP>
-33.0362

> <Gold.PLP.part.hbond>
-2.5239

> <Gold.PLP.part.metal>
0.0000

> <Gold.PLP.part.buried>
-5.7767

> <Gold.PLP.part.nonpolar>
-24.7711

> <Gold.PLP.part.repulsive>
0.0787

> <Gold.PLP.ligand.clash>
0.0000

> <Gold.PLP.ligand.torsion>
0.7739

> <Gold.PLP.Chemscore.Hbond>
3.0000

> <Gold.PLP.Chemscore.CHOScore>
0.0000

> <Gold.PLP.Chemscore.Metal>
0.0000

> <Gold.Chemscore.Hbonds>
donor molecule, donor type, donor heavy atom, donor atom, acceptor molecule, acceptor atom, score
      P1  H  6896  6908       L1    14  2.00
      P1  H  7997  8010       L1    10  1.00

> <Gold.PLP.Chemscore.Internal.Correction>
0.0570

> <Gold.Rescore>
     Score         DG    S(hbond)    S(metal)    S(lipo)     H(rot)  DE(clash)    DE(int)     intcor
     13.55     -15.30       1.95        0.00      74.15       2.09       0.01       1.73       ----

> <Gold.Chemscore.Fitness>
13.5512

> <Gold.Chemscore.DG>
-15.2978

> <Gold.Chemscore.ZeroCoef>
-5.4800

> <Gold.Chemscore.Hbond>
1.9454

> <Gold.Chemscore.Metal>
0.0000

> <Gold.Chemscore.Lipo>
74.1463

> <Gold.Chemscore.Internal_Hbond>
0.0000

> <Gold.Chemscore.DEClash>
0.0124

> <Gold.Chemscore.DEInternal>
1.7342

> <Gold.Chemscore.Rot>
2.0918

> <Gold.Chemscore.Internal.Correction>
   9.000000E+99

> <Gold.Chemscore.Hbonds>
donor molecule, donor type, donor heavy atom, donor atom, acceptor molecule, acceptor atom, score
      P1  H  6896  6908       L1    14  0.94
      P1  H  7997  8010       L1    10  0.92

> <Gold.Chemscore.Hbond.Weighted>
-6.4976

> <Gold.Chemscore.Metal.Weighted>
-0.0000

> <Gold.Chemscore.Lipo.Weighted>
-8.6751

> <Gold.Chemscore.Internal_Hbond.Weighted>
0.0000

> <Gold.Chemscore.DEClash.Weighted>
0.0124

> <Gold.Chemscore.DEInternal.Weighted>
1.7342

> <Gold.Chemscore.Rot.Weighted>
5.3549

> <Gold.Chemscore.Internal.Correction.Weighted>
   9.000000E+99

> <Gold.Protein.RotatedTorsions>
[ 6907 6896 6895 6894 ] final -168.18 input  -60.11 | X-H torsion
[ 7974 7965 7964 7962 ] final  -32.27 input  175.53 | X-H torsion
[ 8008 7997 7996 7995 ] final   75.14 input   59.86 | X-H torsion
[ 10167 10162 10161 10158 ] final   53.43 input  -65.29 | X-H torsion
[ 10718 10713 10712 10709 ] final   61.31 input   66.30 | X-H torsion
[ 10763 10752 10751 10750 ] final -143.10 input  -60.55 | X-H torsion
[ 11005 11000 10999 10996 ] final   83.91 input  -57.11 | X-H torsion

> <Gold.Protein.ActiveResidues>
 VAL166  LYS551  ARG553  GLY616  TRP617  ASP618  TYR619  PRO620  LYS621  CYS622 
 ASP623  PHE694  ASN695  SER759  ASP760  ASP761  ALA762  ILE779  LEU786  VAL792 
 PHE793  MET794  SER795  GLU796  ALA797  LYS798  CYS799  TRP800  GLU811  SER814 

> <Gold.Protein.RotatedAtoms>
  151.4714  133.3568  159.2823 H   0  0  0  0  0  0  0  0  0  0  0  0  # atno 6907 bound_to 6896
  150.8958  134.8368  159.7336 H   0  0  0  0  0  0  0  0  0  0  0  0  # atno 6908 bound_to 6896
  152.4850  134.4629  159.9663 H   0  0  0  0  0  0  0  0  0  0  0  0  # atno 6909 bound_to 6896
  146.1003  140.5771  142.8824 H   0  0  0  0  0  0  0  0  0  0  0  0  # atno 7974 bound_to 7965
  155.8085  140.3474  155.5444 H   0  0  0  0  0  0  0  0  0  0  0  0  # atno 8008 bound_to 7997
  155.8465  140.0949  157.1722 H   0  0  0  0  0  0  0  0  0  0  0  0  # atno 8009 bound_to 7997
  154.4006  140.1384  156.3779 H   0  0  0  0  0  0  0  0  0  0  0  0  # atno 8010 bound_to 7997
  140.2409  144.3585  150.6381 H   0  0  0  0  0  0  0  0  0  0  0  0  # atno 10167 bound_to 10162
  157.5818  130.8987  149.9445 H   0  0  0  0  0  0  0  0  0  0  0  0  # atno 10718 bound_to 10713
  154.8483  135.3477  154.6133 H   0  0  0  0  0  0  0  0  0  0  0  0  # atno 10763 bound_to 10752
  153.6742  135.6983  153.5142 H   0  0  0  0  0  0  0  0  0  0  0  0  # atno 10764 bound_to 10752
  153.2719  135.4290  155.0952 H   0  0  0  0  0  0  0  0  0  0  0  0  # atno 10765 bound_to 10752
  139.9016  134.8178  156.2373 H   0  0  0  0  0  0  0  0  0  0  0  0  # atno 11005 bound_to 11000
  144.7428  140.4987  143.6857 LP  0  0  0  0  0  0  0  0  0  0  0  0  # atno 17320 bound_to 7965
  145.5867  139.1492  143.3205 LP  0  0  0  0  0  0  0  0  0  0  0  0  # atno 17321 bound_to 7965
  140.6115  143.2170  151.6877 LP  0  0  0  0  0  0  0  0  0  0  0  0  # atno 17342 bound_to 10162
  139.5078  144.3634  152.0540 LP  0  0  0  0  0  0  0  0  0  0  0  0  # atno 17343 bound_to 10162
  156.0865  130.3667  150.0478 LP  0  0  0  0  0  0  0  0  0  0  0  0  # atno 17370 bound_to 10713
  156.8616  130.9493  151.3617 LP  0  0  0  0  0  0  0  0  0  0  0  0  # atno 17371 bound_to 10713
  141.0307  133.6990  156.1426 LP  0  0  0  0  0  0  0  0  0  0  0  0  # atno 17394 bound_to 11000
  140.7100  134.4472  157.5582 LP  0  0  0  0  0  0  0  0  0  0  0  0  # atno 17395 bound_to 11000

$$$$
