AV-unprocessed.smi:1035|AV-procd|sdf|4515|dock2
  -GOLD-   22720 2523D 1   1.00000     0.00000
 Structure written by MMmdl.
 42 43  0  0  0  0  0  0  0  0  1 V2000
  152.9235  142.9444  161.8047 C   0  0  0  0  0  0  0  0  0  0  0  0
  152.3069  143.5018  160.5336 C   0  0  0  0  0  0  0  0  0  0  0  0
  151.7642  144.7382  160.4969 C   0  0  0  0  0  0  0  0  0  0  0  0
  151.1758  145.2584  159.2867 C   0  0  0  0  0  0  0  0  0  0  0  0
  151.1824  144.4814  158.1945 C   0  0  0  0  0  0  0  0  0  0  0  0
  151.7437  143.1909  158.2050 N   0  0  0  0  0  0  0  0  0  0  0  0
  151.6875  142.4291  156.9453 C   0  0  0  0  0  0  0  0  0  0  0  0
  150.5389  141.4108  156.8946 C   0  0  0  0  0  0  0  0  0  0  0  0
  150.7408  140.2122  157.0963 O   0  0  0  0  0  0  0  0  0  0  0  0
  149.3243  141.9131  156.6332 N   0  0  0  0  0  0  0  0  0  0  0  0
  148.1058  141.1186  156.5380 C   0  0  0  0  0  0  0  0  0  0  0  0
  147.4400  141.2721  155.1598 C   0  0  0  0  0  0  0  0  0  0  0  0
  146.2605  142.2338  155.1539 C   0  0  0  0  0  0  0  0  0  0  0  0
  145.8674  142.8749  154.0359 C   0  0  0  0  0  0  0  0  0  0  0  0
  144.6868  143.8281  153.9693 C   0  0  0  0  0  0  0  0  0  0  0  0
  143.7809  143.7262  155.2080 C   0  0  0  0  0  0  0  0  0  0  0  0
  144.6105  143.6477  156.4955 C   0  0  0  0  0  0  0  0  0  0  0  0
  145.5447  142.4245  156.4863 C   0  0  0  0  0  0  0  0  0  0  0  0
  152.3125  142.6518  159.3281 C   0  0  0  0  0  0  0  0  0  0  0  0
  152.7986  141.5191  159.3222 O   0  0  0  0  0  0  0  0  0  0  0  0
  152.8683  143.6633  162.6228 H   0  0  0  0  0  0  0  0  0  0  0  0
  153.9735  142.6981  161.6435 H   0  0  0  0  0  0  0  0  0  0  0  0
  152.4009  142.0395  162.1163 H   0  0  0  0  0  0  0  0  0  0  0  0
  151.7639  145.3533  161.3852 H   0  0  0  0  0  0  0  0  0  0  0  0
  150.7380  146.2455  159.2628 H   0  0  0  0  0  0  0  0  0  0  0  0
  150.7561  144.7922  157.2515 H   0  0  0  0  0  0  0  0  0  0  0  0
  151.5803  143.1047  156.0954 H   0  0  0  0  0  0  0  0  0  0  0  0
  152.6332  141.9100  156.7771 H   0  0  0  0  0  0  0  0  0  0  0  0
  149.2382  142.9074  156.4793 H   0  0  0  0  0  0  0  0  0  0  0  0
  148.3434  140.0708  156.7279 H   0  0  0  0  0  0  0  0  0  0  0  0
  147.4083  141.4291  157.3175 H   0  0  0  0  0  0  0  0  0  0  0  0
  148.1750  141.6191  154.4330 H   0  0  0  0  0  0  0  0  0  0  0  0
  147.1100  140.2924  154.8111 H   0  0  0  0  0  0  0  0  0  0  0  0
  146.4096  142.7283  153.1132 H   0  0  0  0  0  0  0  0  0  0  0  0
  145.0775  144.8413  153.8704 H   0  0  0  0  0  0  0  0  0  0  0  0
  144.1078  143.6219  153.0687 H   0  0  0  0  0  0  0  0  0  0  0  0
  143.1016  144.5785  155.2444 H   0  0  0  0  0  0  0  0  0  0  0  0
  143.1558  142.8355  155.1309 H   0  0  0  0  0  0  0  0  0  0  0  0
  145.2036  144.5579  156.5947 H   0  0  0  0  0  0  0  0  0  0  0  0
  143.9564  143.6095  157.3670 H   0  0  0  0  0  0  0  0  0  0  0  0
  144.9701  141.5215  156.6952 H   0  0  0  0  0  0  0  0  0  0  0  0
  146.2800  142.5231  157.2856 H   0  0  0  0  0  0  0  0  0  0  0  0
  1  2  1  0  0  0  0
  1 21  1  0  0  0  0
  1 22  1  0  0  0  0
  1 23  1  0  0  0  0
  2 19  1  0  0  0  0
  2  3  2  0  0  0  0
  3  4  1  0  0  0  0
  3 24  1  0  0  0  0
  4  5  2  0  0  0  0
  4 25  1  0  0  0  0
  5  6  1  0  0  0  0
  5 26  1  0  0  0  0
  6  7  1  0  0  0  0
  6 19  1  0  0  0  0
  7  8  1  0  0  0  0
  7 27  1  0  0  0  0
  7 28  1  0  0  0  0
  8  9  2  0  0  0  0
  8 10  1  0  0  0  0
 10 11  1  0  0  0  0
 10 29  1  0  0  0  0
 11 12  1  0  0  0  0
 11 30  1  0  0  0  0
 11 31  1  0  0  0  0
 12 13  1  0  0  0  0
 12 32  1  0  0  0  0
 12 33  1  0  0  0  0
 13 18  1  0  0  0  0
 13 14  2  0  0  0  0
 14 15  1  0  0  0  0
 14 34  1  0  0  0  0
 15 16  1  0  0  0  0
 15 35  1  0  0  0  0
 15 36  1  0  0  0  0
 16 17  1  0  0  0  0
 16 37  1  0  0  0  0
 16 38  1  0  0  0  0
 17 18  1  0  0  0  0
 17 39  1  0  0  0  0
 17 40  1  0  0  0  0
 18 41  1  0  0  0  0
 18 42  1  0  0  0  0
 19 20  2  0  0  0  0
M  END
> <s_m_source_file>
AV-unprocessed.smi

> <i_m_source_file_index>
1035

> <i_lp_mmshare_version>
43012

> <i_f3d_flags>
0

> <s_epik_input>
W0NIM11jMVtjSF1bY0hdW2NIXW4oYzE9TylbQ0gyXUMoPU8pW05IXVtDSDJdW0NIMl1DMj1bQ0hdW0NIMl1bQ0gyXVtDSDJdW0NIMl0y

> <s_epik_cmdline>
J2VwaWtfcHl0aG9uJywgJy1waCcsICc3LjAnLCAnLXRuJywgJzgnLCAnLW1hJywgJzIwMCcsICctbWV0YWxfYmluZGluZycsICctaW1hZScsICc8aW5maWxlLm1hZT4nLCAnLW9tYWUnLCAnPG91dGZpbGUubWFlPic=

> <r_lp_tautomer_probability>
1

> <r_epik_Ionization_Penalty>
7.80073e-07

> <r_epik_Ionization_Penalty_Charging>
7.6197e-07

> <r_epik_Ionization_Penalty_Neutral>
1.81035e-08

> <r_epik_State_Penalty>
-0

> <r_epik_Charging_Adjusted_Penalty>
7.6197e-07

> <i_epik_Tot_Q>
0

> <i_epik_Tot_abs_Q>
0

> <r_epik_Metal_State_Penalty>
-0

> <b_epik_Metal_Only>
0

> <s_lp_Force_Field>
OPLS_2005

> <r_lp_Energy>
17.5966

> <b_lp_Chiralities_Consistent>
1

> <s_lp_Variant>
AV-unprocessed.smi:1035-1

> <Gold.Version>
5.8.1

> <Gold.Id.Protein>
6NUR|6NUR_protein|mol2

> <Gold.PLP.Fitness>
50.0869

> <Gold.PLP.PLP>
-46.3533

> <Gold.PLP.part.hbond>
-1.0000

> <Gold.PLP.part.metal>
0.0000

> <Gold.PLP.part.buried>
-7.9252

> <Gold.PLP.part.nonpolar>
-38.1137

> <Gold.PLP.part.repulsive>
0.0362

> <Gold.PLP.ligand.clash>
0.0000

> <Gold.PLP.ligand.torsion>
1.1912

> <Gold.PLP.Chemscore.Hbond>
1.0000

> <Gold.PLP.Chemscore.CHOScore>
1.0000

> <Gold.PLP.Chemscore.Metal>
0.0000

> <Gold.Chemscore.Hbonds>
donor molecule, donor type, donor heavy atom, donor atom, acceptor molecule, acceptor atom, score
      L1  H    10    29       P1  8028  1.00
      L1  C     5    26       P1  8028  1.00

> <Gold.PLP.Chemscore.Internal.Correction>
0.1161

> <Gold.Rescore>
     Score         DG    S(hbond)    S(metal)    S(lipo)     H(rot)  DE(clash)    DE(int)     intcor
     15.08     -17.69       1.00        0.00     111.62       1.63       1.49       1.12       ----

> <Gold.Chemscore.Fitness>
15.0784

> <Gold.Chemscore.DG>
-17.6921

> <Gold.Chemscore.ZeroCoef>
-5.4800

> <Gold.Chemscore.Hbond>
0.9963

> <Gold.Chemscore.Metal>
0.0000

> <Gold.Chemscore.Lipo>
111.6248

> <Gold.Chemscore.Internal_Hbond>
0.0000

> <Gold.Chemscore.DEClash>
1.4941

> <Gold.Chemscore.DEInternal>
1.1197

> <Gold.Chemscore.Rot>
1.6311

> <Gold.Chemscore.Internal.Correction>
   9.000000E+99

> <Gold.Chemscore.Hbonds>
donor molecule, donor type, donor heavy atom, donor atom, acceptor molecule, acceptor atom, score
      L1  H    10    29       P1  8028  0.94

> <Gold.Chemscore.Hbond.Weighted>
-3.3278

> <Gold.Chemscore.Metal.Weighted>
-0.0000

> <Gold.Chemscore.Lipo.Weighted>
-13.0601

> <Gold.Chemscore.Internal_Hbond.Weighted>
0.0000

> <Gold.Chemscore.DEClash.Weighted>
1.4941

> <Gold.Chemscore.DEInternal.Weighted>
1.1197

> <Gold.Chemscore.Rot.Weighted>
4.1757

> <Gold.Chemscore.Internal.Correction.Weighted>
   9.000000E+99

> <Gold.Protein.RotatedTorsions>
[ 6907 6896 6895 6894 ] final   59.15 input  -60.11 | X-H torsion
[ 7974 7965 7964 7962 ] final   18.14 input  175.53 | X-H torsion
[ 8008 7997 7996 7995 ] final  146.09 input   59.86 | X-H torsion
[ 10167 10162 10161 10158 ] final  136.81 input  -65.29 | X-H torsion
[ 10718 10713 10712 10709 ] final  -12.66 input   66.30 | X-H torsion
[ 10763 10752 10751 10750 ] final  -40.99 input  -60.55 | X-H torsion
[ 11005 11000 10999 10996 ] final  -12.88 input  -57.11 | X-H torsion

> <Gold.Protein.ActiveResidues>
 VAL166  LYS551  ARG553  GLY616  TRP617  ASP618  TYR619  PRO620  LYS621  CYS622 
 ASP623  PHE694  ASN695  SER759  ASP760  ASP761  ALA762  ILE779  LEU786  VAL792 
 PHE793  MET794  SER795  GLU796  ALA797  LYS798  CYS799  TRP800  GLU811  SER814 

> <Gold.Protein.RotatedAtoms>
  152.3889  134.6473  160.0114 H   0  0  0  0  0  0  0  0  0  0  0  0  # atno 6907 bound_to 6896
  151.6713  133.3308  159.3205 H   0  0  0  0  0  0  0  0  0  0  0  0  # atno 6908 bound_to 6896
  150.7809  134.6797  159.6482 H   0  0  0  0  0  0  0  0  0  0  0  0  # atno 6909 bound_to 6896
  146.2195  139.8501  142.8624 H   0  0  0  0  0  0  0  0  0  0  0  0  # atno 7974 bound_to 7965
  156.2865  140.2191  156.5321 H   0  0  0  0  0  0  0  0  0  0  0  0  # atno 8008 bound_to 7997
  154.7440  140.0485  157.0858 H   0  0  0  0  0  0  0  0  0  0  0  0  # atno 8009 bound_to 7997
  155.0194  140.3122  155.4802 H   0  0  0  0  0  0  0  0  0  0  0  0  # atno 8010 bound_to 7997
  139.5167  144.6444  151.5479 H   0  0  0  0  0  0  0  0  0  0  0  0  # atno 10167 bound_to 10162
  156.6414  130.4929  149.6093 H   0  0  0  0  0  0  0  0  0  0  0  0  # atno 10718 bound_to 10713
  153.9551  135.6746  153.4744 H   0  0  0  0  0  0  0  0  0  0  0  0  # atno 10763 bound_to 10752
  153.0865  135.4896  154.8604 H   0  0  0  0  0  0  0  0  0  0  0  0  # atno 10764 bound_to 10752
  154.7303  135.3137  154.8861 H   0  0  0  0  0  0  0  0  0  0  0  0  # atno 10765 bound_to 10752
  140.7704  133.8443  155.9201 H   0  0  0  0  0  0  0  0  0  0  0  0  # atno 11005 bound_to 11000
  145.2810  141.0139  143.3717 LP  0  0  0  0  0  0  0  0  0  0  0  0  # atno 17320 bound_to 7965
  144.9149  139.4482  143.6569 LP  0  0  0  0  0  0  0  0  0  0  0  0  # atno 17321 bound_to 7965
  140.6224  143.9233  150.6537 LP  0  0  0  0  0  0  0  0  0  0  0  0  # atno 17342 bound_to 10162
  140.2511  143.3592  152.1405 LP  0  0  0  0  0  0  0  0  0  0  0  0  # atno 17343 bound_to 10162
  156.2156  130.6705  151.1315 LP  0  0  0  0  0  0  0  0  0  0  0  0  # atno 17370 bound_to 10713
  157.7169  131.0704  150.6289 LP  0  0  0  0  0  0  0  0  0  0  0  0  # atno 17371 bound_to 10713
  140.9579  134.1693  157.4677 LP  0  0  0  0  0  0  0  0  0  0  0  0  # atno 17394 bound_to 11000
  139.8757  134.9934  156.5642 LP  0  0  0  0  0  0  0  0  0  0  0  0  # atno 17395 bound_to 11000

$$$$
