AV-unprocessed.smi:2999|AV-procd|sdf|11428|dock4
  -GOLD-   2272016353D 1   1.00000     0.00000
 Structure written by MMmdl.
 37 39  0  0  0  0  0  0  0  0  3 V2000
  150.5531  135.0549  156.2179 O   0  0  0  0  0  0  0  0  0  0  0  0
  150.4500  135.4715  155.0620 C   0  0  0  0  0  0  0  0  0  0  0  0
  149.5043  134.9742  154.2562 N   0  0  0  0  0  0  0  0  0  0  0  0
  148.5475  133.9374  154.6214 C   0  0  0  0  0  0  0  0  0  0  0  0
  148.0898  133.1476  153.3862 C   0  0  1  0  0  0  0  0  0  0  0  0
  147.6440  131.7084  153.7228 C   0  0  0  0  0  0  0  0  0  0  0  0
  147.1451  131.0259  152.5079 N   0  3  1  0  0  0  0  0  0  0  0  0
  146.7458  129.6265  152.7697 C   0  0  0  0  0  0  0  0  0  0  0  0
  147.8778  128.6363  152.6251 C   0  0  0  0  0  0  0  0  0  0  0  0
  146.8172  128.7363  151.5510 C   0  0  0  0  0  0  0  0  0  0  0  0
  146.0648  131.8139  151.8736 C   0  0  0  0  0  0  0  0  0  0  0  0
  146.5475  133.2457  151.5925 C   0  0  0  0  0  0  0  0  0  0  0  0
  146.9920  133.8442  152.8040 O   0  0  0  0  0  0  0  0  0  0  0  0
  151.2167  136.4185  154.4766 N   0  5  0  0  0  0  0  0  0  0  0  0
  151.3739  137.6144  155.0674 C   0  0  0  0  0  0  0  0  0  0  0  0
  150.6753  137.9932  156.1440 N   0  0  0  0  0  0  0  0  0  0  0  0
  150.9970  139.2761  156.5912 C   0  0  0  0  0  0  0  0  0  0  0  0
  151.9556  139.8923  155.8314 C   0  0  0  0  0  0  0  0  0  0  0  0
  152.4863  138.8737  154.5237 S   0  0  0  0  0  0  0  0  0  0  0  0
  149.4489  135.3482  153.3203 H   0  0  0  0  0  0  0  0  0  0  0  0
  148.9920  133.2597  155.3523 H   0  0  0  0  0  0  0  0  0  0  0  0
  147.6887  134.4083  155.1019 H   0  0  0  0  0  0  0  0  0  0  0  0
  148.9104  133.1185  152.6664 H   0  0  0  0  0  0  0  0  0  0  0  0
  148.4775  131.1397  154.1366 H   0  0  0  0  0  0  0  0  0  0  0  0
  146.8599  131.7236  154.4819 H   0  0  0  0  0  0  0  0  0  0  0  0
  145.9712  129.4754  153.5197 H   0  0  0  0  0  0  0  0  0  0  0  0
  148.8699  129.0172  152.3881 H   0  0  0  0  0  0  0  0  0  0  0  0
  147.8585  127.7551  153.2633 H   0  0  0  0  0  0  0  0  0  0  0  0
  146.1003  127.9206  151.4823 H   0  0  0  0  0  0  0  0  0  0  0  0
  147.1049  129.1838  150.6014 H   0  0  0  0  0  0  0  0  0  0  0  0
  145.7558  131.3366  150.9431 H   0  0  0  0  0  0  0  0  0  0  0  0
  145.1927  131.8350  152.5292 H   0  0  0  0  0  0  0  0  0  0  0  0
  147.3506  133.2494  150.8536 H   0  0  0  0  0  0  0  0  0  0  0  0
  145.7335  133.8426  151.1810 H   0  0  0  0  0  0  0  0  0  0  0  0
  150.4925  139.6727  157.4597 H   0  0  0  0  0  0  0  0  0  0  0  0
  152.3792  140.8766  155.9592 H   0  0  0  0  0  0  0  0  0  0  0  0
  147.9131  130.9960  151.8525 H   0  0  0  0  0  0  0  0  0  0  0  0
  1  2  2  0  0  0  0
  2  3  1  0  0  0  0
  2 14  1  0  0  0  0
  3  4  1  0  0  0  0
  3 20  1  0  0  0  0
  4  5  1  0  0  0  0
  4 21  1  0  0  0  0
  4 22  1  0  0  0  0
  5 13  1  0  0  0  0
  5  6  1  0  0  0  0
  5 23  1  0  0  0  0
  6  7  1  0  0  0  0
  6 24  1  0  0  0  0
  6 25  1  0  0  0  0
  7  8  1  0  0  0  0
  7 11  1  0  0  0  0
  7 37  1  0  0  0  0
  8 10  1  0  0  0  0
  8  9  1  0  0  0  0
  8 26  1  0  0  0  0
  9 10  1  0  0  0  0
  9 27  1  0  0  0  0
  9 28  1  0  0  0  0
 10 29  1  0  0  0  0
 10 30  1  0  0  0  0
 11 12  1  0  0  0  0
 11 31  1  0  0  0  0
 11 32  1  0  0  0  0
 12 13  1  0  0  0  0
 12 33  1  0  0  0  0
 12 34  1  0  0  0  0
 14 15  1  0  0  0  0
 15 19  1  0  0  0  0
 15 16  2  0  0  0  0
 16 17  1  0  0  0  0
 17 18  2  0  0  0  0
 17 35  1  0  0  0  0
 18 19  1  0  0  0  0
 18 36  1  0  0  0  0
M  CHG  1   7   1
M  CHG  1  14  -1
M  END
> <s_m_source_file>
AV-unprocessed.smi

> <i_m_source_file_index>
2999

> <i_lp_mmshare_version>
43012

> <i_f3d_flags>
0

> <s_epik_input>
czFbY0hdW2NIXW5jMVtOSF1DKD1PKVtOSF1bQ0gyXVtDQEBIXTJbQ0gyXU4oW0NIMl1bQ0gyXU8yKVtDSF0zW0NIMl1bQ0gyXTM=

> <s_epik_cmdline>
J2VwaWtfcHl0aG9uJywgJy1waCcsICc3LjAnLCAnLXRuJywgJzgnLCAnLW1hJywgJzIwMCcsICctbWV0YWxfYmluZGluZycsICctaW1hZScsICc8aW5maWxlLm1hZT4nLCAnLW9tYWUnLCAnPG91dGZpbGUubWFlPic=

> <r_lp_tautomer_probability>
0.999

> <r_epik_Ionization_Penalty>
7.79196

> <r_epik_Ionization_Penalty_Charging>
6.93299

> <r_epik_Ionization_Penalty_Neutral>
0.858963

> <r_epik_State_Penalty>
7.05108

> <r_epik_Charging_Adjusted_Penalty>
13.9841

> <i_epik_Tot_Q>
0

> <i_epik_Tot_abs_Q>
2

> <r_epik_Metal_State_Penalty>
3.05936

> <b_epik_Metal_Only>
1

> <s_lp_Force_Field>
OPLS_2005

> <r_lp_Energy>
14.293

> <b_lp_Chiralities_Consistent>
1

> <s_lp_Variant>
AV-unprocessed.smi:2999-12

> <Gold.Version>
5.8.1

> <Gold.Id.Protein>
6NUR|6NUR_protein|mol2

> <Gold.PLP.Fitness>
41.7089

> <Gold.PLP.PLP>
-32.4001

> <Gold.PLP.part.hbond>
-3.0000

> <Gold.PLP.part.metal>
0.0000

> <Gold.PLP.part.buried>
-4.2137

> <Gold.PLP.part.nonpolar>
-26.4234

> <Gold.PLP.part.repulsive>
0.6701

> <Gold.PLP.ligand.clash>
0.0000

> <Gold.PLP.ligand.torsion>
1.6179

> <Gold.PLP.Chemscore.Hbond>
3.7500

> <Gold.PLP.Chemscore.CHOScore>
0.0000

> <Gold.PLP.Chemscore.Metal>
0.0000

> <Gold.Chemscore.Hbonds>
donor molecule, donor type, donor heavy atom, donor atom, acceptor molecule, acceptor atom, score
      L1  H     3    20       P1  7948  0.70
      L1  H     7    37       P1 10747  1.00
      P1  H 10752 10764       L1    14  2.00

> <Gold.PLP.Chemscore.Internal.Correction>
1.2945

> <Gold.Rescore>
     Score         DG    S(hbond)    S(metal)    S(lipo)     H(rot)  DE(clash)    DE(int)     intcor
     13.43     -16.15       1.78        0.00      74.20       1.55       0.18       2.54       ----

> <Gold.Chemscore.Fitness>
13.4331

> <Gold.Chemscore.DG>
-16.1528

> <Gold.Chemscore.ZeroCoef>
-5.4800

> <Gold.Chemscore.Hbond>
1.7845

> <Gold.Chemscore.Metal>
0.0000

> <Gold.Chemscore.Lipo>
74.2027

> <Gold.Chemscore.Internal_Hbond>
0.0000

> <Gold.Chemscore.DEClash>
0.1765

> <Gold.Chemscore.DEInternal>
2.5431

> <Gold.Chemscore.Rot>
1.5504

> <Gold.Chemscore.Internal.Correction>
   9.000000E+99

> <Gold.Chemscore.Hbonds>
donor molecule, donor type, donor heavy atom, donor atom, acceptor molecule, acceptor atom, score
      L1  H     3    20       P1  7948  0.07
      L1  H     7    37       P1 10747  1.00
      P1  H 10752 10764       L1    14  0.44

> <Gold.Chemscore.Hbond.Weighted>
-5.9601

> <Gold.Chemscore.Metal.Weighted>
-0.0000

> <Gold.Chemscore.Lipo.Weighted>
-8.6817

> <Gold.Chemscore.Internal_Hbond.Weighted>
0.0000

> <Gold.Chemscore.DEClash.Weighted>
0.1765

> <Gold.Chemscore.DEInternal.Weighted>
2.5431

> <Gold.Chemscore.Rot.Weighted>
3.9690

> <Gold.Chemscore.Internal.Correction.Weighted>
   9.000000E+99

> <Gold.Protein.RotatedTorsions>
[ 6907 6896 6895 6894 ] final   -2.16 input  -60.11 | X-H torsion
[ 7974 7965 7964 7962 ] final  172.33 input  175.53 | X-H torsion
[ 8008 7997 7996 7995 ] final   13.13 input   59.86 | X-H torsion
[ 10167 10162 10161 10158 ] final   60.68 input  -65.29 | X-H torsion
[ 10718 10713 10712 10709 ] final  -87.85 input   66.30 | X-H torsion
[ 10763 10752 10751 10750 ] final  -89.13 input  -60.55 | X-H torsion
[ 11005 11000 10999 10996 ] final    9.85 input  -57.11 | X-H torsion

> <Gold.Protein.ActiveResidues>
 VAL166  LYS551  ARG553  GLY616  TRP617  ASP618  TYR619  PRO620  LYS621  CYS622 
 ASP623  PHE694  ASN695  SER759  ASP760  ASP761  ALA762  ILE779  LEU786  VAL792 
 PHE793  MET794  SER795  GLU796  ALA797  LYS798  CYS799  TRP800  GLU811  SER814 

> <Gold.Protein.RotatedAtoms>
  151.5343  135.1068  159.9910 H   0  0  0  0  0  0  0  0  0  0  0  0  # atno 6907 bound_to 6896
  152.4564  133.7728  159.6819 H   0  0  0  0  0  0  0  0  0  0  0  0  # atno 6908 bound_to 6896
  150.8509  133.7722  159.3050 H   0  0  0  0  0  0  0  0  0  0  0  0  # atno 6909 bound_to 6896
  144.7271  139.9482  143.6431 H   0  0  0  0  0  0  0  0  0  0  0  0  # atno 7974 bound_to 7965
  154.8303  140.2898  155.5727 H   0  0  0  0  0  0  0  0  0  0  0  0  # atno 8008 bound_to 7997
  156.3005  140.2533  156.3157 H   0  0  0  0  0  0  0  0  0  0  0  0  # atno 8009 bound_to 7997
  154.9239  140.0385  157.2002 H   0  0  0  0  0  0  0  0  0  0  0  0  # atno 8010 bound_to 7997
  140.1629  144.4352  150.6700 H   0  0  0  0  0  0  0  0  0  0  0  0  # atno 10167 bound_to 10162
  155.9984  130.4814  150.4929 H   0  0  0  0  0  0  0  0  0  0  0  0  # atno 10718 bound_to 10713
  154.6520  135.5352  153.7913 H   0  0  0  0  0  0  0  0  0  0  0  0  # atno 10763 bound_to 10752
  153.0391  135.6484  154.1003 H   0  0  0  0  0  0  0  0  0  0  0  0  # atno 10764 bound_to 10752
  154.0919  135.2939  155.3249 H   0  0  0  0  0  0  0  0  0  0  0  0  # atno 10765 bound_to 10752
  140.5211  134.0558  155.7845 H   0  0  0  0  0  0  0  0  0  0  0  0  # atno 11005 bound_to 11000
  146.0732  139.3720  143.0510 LP  0  0  0  0  0  0  0  0  0  0  0  0  # atno 17320 bound_to 7965
  145.7940  140.9801  143.1034 LP  0  0  0  0  0  0  0  0  0  0  0  0  # atno 17321 bound_to 7965
  140.6631  143.2259  151.5808 LP  0  0  0  0  0  0  0  0  0  0  0  0  # atno 17342 bound_to 10162
  139.5373  144.2746  152.1277 LP  0  0  0  0  0  0  0  0  0  0  0  0  # atno 17343 bound_to 10162
  157.2922  131.0628  151.2126 LP  0  0  0  0  0  0  0  0  0  0  0  0  # atno 17370 bound_to 10713
  157.3134  130.6901  149.6228 LP  0  0  0  0  0  0  0  0  0  0  0  0  # atno 17371 bound_to 10713
  141.1333  133.9264  157.2488 LP  0  0  0  0  0  0  0  0  0  0  0  0  # atno 17394 bound_to 11000
  139.9605  135.0155  156.9248 LP  0  0  0  0  0  0  0  0  0  0  0  0  # atno 17395 bound_to 11000

$$$$
