AV-unprocessed.smi:2185|AV-procd|sdf|8875|dock5
  -GOLD-   2272012 73D 1   1.00000     0.00000
 Structure written by MMmdl.
 38 39  0  0  0  0  0  0  0  0  1 V2000
  148.1015  133.2900  158.9380 C   0  0  0  0  0  0  0  0  0  0  0  0
  148.8400  134.6003  157.8797 S   0  0  0  0  0  0  0  0  0  0  0  0
  147.7623  135.2059  157.0825 O   0  0  0  0  0  0  0  0  0  0  0  0
  149.6867  135.4530  158.7280 O   0  0  0  0  0  0  0  0  0  0  0  0
  149.8813  133.7294  156.7907 N   0  0  0  0  0  0  0  0  0  0  0  0
  149.8065  132.2565  156.7161 C   0  0  0  0  0  0  0  0  0  0  0  0
  149.0157  131.7891  155.4819 C   0  0  0  0  0  0  0  0  0  0  0  0
  149.5808  132.3989  154.1910 C   0  0  0  0  0  0  0  0  0  0  0  0
  148.7730  131.9778  153.0500 N   0  0  0  0  0  0  0  0  0  0  0  0
  147.5470  132.4356  152.7590 C   0  0  0  0  0  0  0  0  0  0  0  0
  146.9563  133.2725  153.4410 O   0  0  0  0  0  0  0  0  0  0  0  0
  147.0758  131.8728  151.6330 N   0  0  0  0  0  0  0  0  0  0  0  0
  145.8305  132.0883  150.9816 C   0  0  0  0  0  0  0  0  0  0  0  0
  144.6267  132.4327  151.6436 C   0  0  0  0  0  0  0  0  0  0  0  0
  143.4554  132.6017  150.8801 C   0  0  0  0  0  0  0  0  0  0  0  0
  143.5275  132.4148  149.4860 C   0  0  0  0  0  0  0  0  0  0  0  0
  144.6644  132.0754  148.8431 N   0  0  0  0  0  0  0  0  0  0  0  0
  145.7830  131.9149  149.5817 C   0  0  0  0  0  0  0  0  0  0  0  0
  149.5952  133.9315  154.3179 C   0  0  0  0  0  0  0  0  0  0  0  0
  150.3777  134.3846  155.5636 C   0  0  0  0  0  0  0  0  0  0  0  0
  147.4295  133.7537  159.6596 H   0  0  0  0  0  0  0  0  0  0  0  0
  148.8860  132.7604  159.4755 H   0  0  0  0  0  0  0  0  0  0  0  0
  147.5334  132.5938  158.3234 H   0  0  0  0  0  0  0  0  0  0  0  0
  150.8227  131.8631  156.6678 H   0  0  0  0  0  0  0  0  0  0  0  0
  149.3645  131.8510  157.6256 H   0  0  0  0  0  0  0  0  0  0  0  0
  149.0472  130.7006  155.4226 H   0  0  0  0  0  0  0  0  0  0  0  0
  147.9652  132.0572  155.5914 H   0  0  0  0  0  0  0  0  0  0  0  0
  150.6036  132.0399  154.0601 H   0  0  0  0  0  0  0  0  0  0  0  0
  149.1824  131.2920  152.4327 H   0  0  0  0  0  0  0  0  0  0  0  0
  147.7095  131.2517  151.1518 H   0  0  0  0  0  0  0  0  0  0  0  0
  144.5710  132.5564  152.7136 H   0  0  0  0  0  0  0  0  0  0  0  0
  142.5212  132.8645  151.3538 H   0  0  0  0  0  0  0  0  0  0  0  0
  142.6474  132.5351  148.8719 H   0  0  0  0  0  0  0  0  0  0  0  0
  146.6728  131.6407  149.0336 H   0  0  0  0  0  0  0  0  0  0  0  0
  150.0447  134.3769  153.4297 H   0  0  0  0  0  0  0  0  0  0  0  0
  148.5741  134.3091  154.3621 H   0  0  0  0  0  0  0  0  0  0  0  0
  150.3317  135.4682  155.6667 H   0  0  0  0  0  0  0  0  0  0  0  0
  151.4316  134.1321  155.4419 H   0  0  0  0  0  0  0  0  0  0  0  0
  1  2  1  0  0  0  0
  1 21  1  0  0  0  0
  1 22  1  0  0  0  0
  1 23  1  0  0  0  0
  2  3  2  0  0  0  0
  2  4  2  0  0  0  0
  2  5  1  0  0  0  0
  5 20  1  0  0  0  0
  5  6  1  0  0  0  0
  6  7  1  0  0  0  0
  6 24  1  0  0  0  0
  6 25  1  0  0  0  0
  7  8  1  0  0  0  0
  7 26  1  0  0  0  0
  7 27  1  0  0  0  0
  8  9  1  0  0  0  0
  8 19  1  0  0  0  0
  8 28  1  0  0  0  0
  9 10  1  0  0  0  0
  9 29  1  0  0  0  0
 10 11  2  0  0  0  0
 10 12  1  0  0  0  0
 12 13  1  0  0  0  0
 12 30  1  0  0  0  0
 13 18  1  0  0  0  0
 13 14  2  0  0  0  0
 14 15  1  0  0  0  0
 14 31  1  0  0  0  0
 15 16  2  0  0  0  0
 15 32  1  0  0  0  0
 16 17  1  0  0  0  0
 16 33  1  0  0  0  0
 17 18  2  0  0  0  0
 18 34  1  0  0  0  0
 19 20  1  0  0  0  0
 19 35  1  0  0  0  0
 19 36  1  0  0  0  0
 20 37  1  0  0  0  0
 20 38  1  0  0  0  0
M  END
> <s_m_source_file>
AV-unprocessed.smi

> <i_m_source_file_index>
2185

> <i_lp_mmshare_version>
43012

> <i_f3d_flags>
0

> <s_epik_input>
W0NIM11TKD1PKSg9TylOMVtDSDJdW0NIMl1bQ0hdKFtDSDJdW0NIMl0xKVtOSF1DKD1PKVtOSF1jMltjSF1bY0hdW2NIXW5bY0hdMg==

> <s_epik_cmdline>
J2VwaWtfcHl0aG9uJywgJy1waCcsICc3LjAnLCAnLXRuJywgJzgnLCAnLW1hJywgJzIwMCcsICctbWV0YWxfYmluZGluZycsICctaW1hZScsICc8aW5maWxlLm1hZT4nLCAnLW9tYWUnLCAnPG91dGZpbGUubWFlPic=

> <r_epik_Ionization_Penalty>
0.00480481

> <r_epik_Ionization_Penalty_Charging>
0

> <r_epik_Ionization_Penalty_Neutral>
0.00480481

> <r_epik_State_Penalty>
0.00345682

> <r_epik_Charging_Adjusted_Penalty>
0.00345682

> <i_epik_Tot_Q>
0

> <i_epik_Tot_abs_Q>
0

> <r_epik_Metal_State_Penalty>
-0

> <b_epik_Metal_Only>
0

> <s_lp_Force_Field>
OPLS_2005

> <r_lp_Energy>
2.72974

> <b_lp_Chiralities_Consistent>
1

> <s_lp_Variant>
AV-unprocessed.smi:2185-1

> <Gold.Version>
5.8.1

> <Gold.Id.Protein>
6NUR|6NUR_protein|mol2

> <Gold.PLP.Fitness>
43.6989

> <Gold.PLP.PLP>
-33.9340

> <Gold.PLP.part.hbond>
-3.7656

> <Gold.PLP.part.metal>
0.0000

> <Gold.PLP.part.buried>
-5.0112

> <Gold.PLP.part.nonpolar>
-27.4470

> <Gold.PLP.part.repulsive>
0.3260

> <Gold.PLP.ligand.clash>
0.0000

> <Gold.PLP.ligand.torsion>
1.5679

> <Gold.PLP.Chemscore.Hbond>
2.3019

> <Gold.PLP.Chemscore.CHOScore>
1.3145

> <Gold.PLP.Chemscore.Metal>
0.0000

> <Gold.Chemscore.Hbonds>
donor molecule, donor type, donor heavy atom, donor atom, acceptor molecule, acceptor atom, score
      L1  H     9    29       P1 10747  0.45
      L1  H    12    30       P1 10747  1.00
      P1  H  6896  6908       L1     4  1.00
      L1  C    16    33       P1 10186  0.66
      L1  C    16    33       P1 10952  0.01
      L1  C    18    34       P1 10747  0.50

> <Gold.PLP.Chemscore.Internal.Correction>
2.0518

> <Gold.Rescore>
     Score         DG    S(hbond)    S(metal)    S(lipo)     H(rot)  DE(clash)    DE(int)     intcor
     16.83     -20.52       2.50        0.00      79.06       1.00       0.10       3.59       ----

> <Gold.Chemscore.Fitness>
16.8335

> <Gold.Chemscore.DG>
-20.5182

> <Gold.Chemscore.ZeroCoef>
-5.4800

> <Gold.Chemscore.Hbond>
2.4996

> <Gold.Chemscore.Metal>
0.0000

> <Gold.Chemscore.Lipo>
79.0572

> <Gold.Chemscore.Internal_Hbond>
0.0000

> <Gold.Chemscore.DEClash>
0.0962

> <Gold.Chemscore.DEInternal>
3.5885

> <Gold.Chemscore.Rot>
1.0000

> <Gold.Chemscore.Internal.Correction>
   9.000000E+99

> <Gold.Chemscore.Hbonds>
donor molecule, donor type, donor heavy atom, donor atom, acceptor molecule, acceptor atom, score
      L1  H     9    29       P1 10747  0.15
      L1  H    12    30       P1 10747  0.97
      P1  H  6896  6908       L1     4  0.88

> <Gold.Chemscore.Hbond.Weighted>
-8.3485

> <Gold.Chemscore.Metal.Weighted>
-0.0000

> <Gold.Chemscore.Lipo.Weighted>
-9.2497

> <Gold.Chemscore.Internal_Hbond.Weighted>
0.0000

> <Gold.Chemscore.DEClash.Weighted>
0.0962

> <Gold.Chemscore.DEInternal.Weighted>
3.5885

> <Gold.Chemscore.Rot.Weighted>
2.5600

> <Gold.Chemscore.Internal.Correction.Weighted>
   9.000000E+99

> <Gold.Protein.RotatedTorsions>
[ 6907 6896 6895 6894 ] final  178.25 input  -60.11 | X-H torsion
[ 7974 7965 7964 7962 ] final  -25.46 input  175.53 | X-H torsion
[ 8008 7997 7996 7995 ] final  -84.05 input   59.86 | X-H torsion
[ 10167 10162 10161 10158 ] final -100.77 input  -65.29 | X-H torsion
[ 10718 10713 10712 10709 ] final -167.68 input   66.30 | X-H torsion
[ 10763 10752 10751 10750 ] final  -51.61 input  -60.55 | X-H torsion
[ 11005 11000 10999 10996 ] final   64.05 input  -57.11 | X-H torsion

> <Gold.Protein.ActiveResidues>
 VAL166  LYS551  ARG553  GLY616  TRP617  ASP618  TYR619  PRO620  LYS621  CYS622 
 ASP623  PHE694  ASN695  SER759  ASP760  ASP761  ALA762  ILE779  LEU786  VAL792 
 PHE793  MET794  SER795  GLU796  ALA797  LYS798  CYS799  TRP800  GLU811  SER814 

> <Gold.Protein.RotatedAtoms>
  151.6909  133.3311  159.3242 H   0  0  0  0  0  0  0  0  0  0  0  0  # atno 6907 bound_to 6896
  150.7779  134.6699  159.6395 H   0  0  0  0  0  0  0  0  0  0  0  0  # atno 6908 bound_to 6896
  152.3827  134.6568  160.0189 H   0  0  0  0  0  0  0  0  0  0  0  0  # atno 6909 bound_to 6896
  146.1490  140.4889  142.8619 H   0  0  0  0  0  0  0  0  0  0  0  0  # atno 7974 bound_to 7965
  154.6256  140.0610  156.9669 H   0  0  0  0  0  0  0  0  0  0  0  0  # atno 8008 bound_to 7997
  155.1747  140.3294  155.4367 H   0  0  0  0  0  0  0  0  0  0  0  0  # atno 8009 bound_to 7997
  156.2455  140.1908  156.6847 H   0  0  0  0  0  0  0  0  0  0  0  0  # atno 8010 bound_to 7997
  140.2484  143.3490  152.0738 H   0  0  0  0  0  0  0  0  0  0  0  0  # atno 10167 bound_to 10162
  156.6860  130.9140  151.3063 H   0  0  0  0  0  0  0  0  0  0  0  0  # atno 10718 bound_to 10713
  154.1294  135.6522  153.4919 H   0  0  0  0  0  0  0  0  0  0  0  0  # atno 10763 bound_to 10752
  153.0200  135.5289  154.7016 H   0  0  0  0  0  0  0  0  0  0  0  0  # atno 10764 bound_to 10752
  154.6247  135.2969  155.0257 H   0  0  0  0  0  0  0  0  0  0  0  0  # atno 10765 bound_to 10752
  139.9984  134.6480  155.9971 H   0  0  0  0  0  0  0  0  0  0  0  0  # atno 11005 bound_to 11000
  144.7880  140.5976  143.6560 LP  0  0  0  0  0  0  0  0  0  0  0  0  # atno 17320 bound_to 7965
  145.4869  139.1491  143.3731 LP  0  0  0  0  0  0  0  0  0  0  0  0  # atno 17321 bound_to 7965
  139.5054  144.6794  151.6046 LP  0  0  0  0  0  0  0  0  0  0  0  0  # atno 17342 bound_to 10162
  140.6060  143.9524  150.6419 LP  0  0  0  0  0  0  0  0  0  0  0  0  # atno 17343 bound_to 10162
  157.7026  130.9350  150.0833 LP  0  0  0  0  0  0  0  0  0  0  0  0  # atno 17370 bound_to 10713
  156.1833  130.3651  149.9007 LP  0  0  0  0  0  0  0  0  0  0  0  0  # atno 17371 bound_to 10713
  141.1623  133.6538  156.4360 LP  0  0  0  0  0  0  0  0  0  0  0  0  # atno 17394 bound_to 11000
  140.4774  134.6697  157.5156 LP  0  0  0  0  0  0  0  0  0  0  0  0  # atno 17395 bound_to 11000

$$$$
