#       Name:                AV-unprocessed.smi:1878
#       Creating user name   scv26
#       Creation time:       Fri Mar 27 09:35:16 2020


#       File generated by GOLD software.
#

@<TRIPOS>MOLECULE
AV-unprocessed.smi:1878
    39    40     1
SMALL
NO_CHARGES


@<TRIPOS>ATOM
      1 ****         3.3536  -0.7276   0.1113 O.2            1 S1                 0.0000
      2 ****         2.7879  -1.8205   0.0989 C.2            1 S1                 0.0000
      3 ****         3.4398  -2.9907   0.0679 N.am           1 S1                 0.0000
      4 ****         4.8907  -3.1421   0.0189 C.3            1 S1                 0.0000
      5 ****         5.4181  -3.1620  -1.4259 C.3            1 S1                 0.0000
      6 ****         6.7354  -3.3604  -1.4080 F              1 S1                 0.0000
      7 ****         4.8465  -4.1532  -2.1102 F              1 S1                 0.0000
      8 ****         5.1701  -2.0053  -2.0405 F              1 S1                 0.0000
      9 ****         1.4565  -2.0052   0.0924 N.am           1 S1                 0.0000
     10 ****         0.4279  -1.0251   0.1207 C.ar           1 S1                 0.0000
     11 ****         0.5994   0.2904   0.6200 C.ar           1 S1                 0.0000
     12 ****        -0.4934   1.1813   0.6184 C.ar           1 S1                 0.0000
     13 ****        -1.7461   0.7467   0.1261 C.ar           1 S1                 0.0000
     14 ****        -2.8895   1.5564   0.0775 N.3            1 S1                 0.0000
     15 ****        -2.7720   2.7132  -0.7947 C.3            1 S1                 0.0000
     16 ****        -3.9041   3.6581  -0.3831 C.3            1 S1                 0.0000
     17 ****        -4.2858   3.2231   1.0368 C.3            1 S1                 0.0000
     18 ****        -3.3370   2.0669   1.3627 C.3            1 S1                 0.0000
     19 ****        -1.8692  -0.5191  -0.3292 N.pl3          1 S1                 1.0000
     20 ****        -0.8490  -1.4040  -0.3441 C.ar           1 S1                 0.0000
     21 ****         2.8961  -3.8411   0.0556 H              1 S1                 0.0000
     22 ****         5.3798  -2.3527   0.5925 H              1 S1                 0.0000
     23 ****         5.1439  -4.0800   0.5139 H              1 S1                 0.0000
     24 ****         1.1430  -2.9599  -0.0056 H              1 S1                 0.0000
     25 ****         1.5429   0.6318   1.0165 H              1 S1                 0.0000
     26 ****        -0.3641   2.1854   0.9950 H              1 S1                 0.0000
     27 ****        -1.8065   3.2019  -0.6565 H              1 S1                 0.0000
     28 ****        -2.8544   2.4232  -1.8427 H              1 S1                 0.0000
     29 ****        -3.5896   4.7012  -0.4269 H              1 S1                 0.0000
     30 ****        -4.7589   3.5410  -1.0503 H              1 S1                 0.0000
     31 ****        -4.1940   4.0343   1.7597 H              1 S1                 0.0000
     32 ****        -5.3211   2.8795   1.0533 H              1 S1                 0.0000
     33 ****        -3.8382   1.2891   1.9398 H              1 S1                 0.0000
     34 ****        -2.4932   2.4298   1.9504 H              1 S1                 0.0000
     35 ****        -1.0848  -2.3840  -0.7336 H              1 S1                 0.0000
     36 ****        -2.7790  -0.8217  -0.6785 H              1 S1                 0.0000
     37 ****         4.3524  -0.6814   0.0981 LP             1 S1                 0.0000
     38 ****         2.8144   0.1143   0.1346 LP             1 S1                 0.0000
     39 ****        -3.5592   0.9085  -0.2853 LP             1 S1                 0.0000
@<TRIPOS>BOND
    1    1    2 2     
    2    2    3 am    
    3    2    9 am    
    4    3    4 1     
    5    3   21 1     
    6    4    5 1     
    7    4   22 1     
    8    4   23 1     
    9    5    6 1     
   10    5    7 1     
   11    5    8 1     
   12    9   10 1     
   13    9   24 1     
   14   10   20 ar    
   15   10   11 ar    
   16   11   12 ar    
   17   11   25 1     
   18   12   13 ar    
   19   12   26 1     
   20   13   14 1     
   21   13   19 ar    
   22   14   18 1     
   23   14   15 1     
   24   15   16 1     
   25   15   27 1     
   26   15   28 1     
   27   16   17 1     
   28   16   29 1     
   29   16   30 1     
   30   17   18 1     
   31   17   31 1     
   32   17   32 1     
   33   18   33 1     
   34   18   34 1     
   35   19   20 ar    
   36   19   36 1     
   37   20   35 1     
   38    1   37 1     
   39    1   38 1     
   40   14   39 1     
@<TRIPOS>SUBSTRUCTURE
      1 S1             1
@<TRIPOS>SET
LONE_PAIRS      STATIC     ATOMS    <user>   **** ""
3 37 38 39
DONOR_HYDROGENS      STATIC     ATOMS    <user>   **** ""
3 21 24 36
ATOM$BLUE        STATIC     ATOMS    COLORGROUP SYSTEM
3 37 38 39
ATOM$RED        STATIC     ATOMS    COLORGROUP SYSTEM
3 21 24 36
