AV-unprocessed.smi:1617|AV-procd|sdf|6484|dock3
  -GOLD-   22720 7143D 1   1.00000     0.00000
 Structure written by MMmdl.
 47 49  0  0  0  0  0  0  0  0  1 V2000
  149.7308  136.4424  156.7200 O   0  0  0  0  0  0  0  0  0  0  0  0
  149.5532  136.7784  155.5494 C   0  0  0  0  0  0  0  0  0  0  0  0
  149.8032  137.9981  155.0429 N   0  0  0  0  0  0  0  0  0  0  0  0
  150.2721  139.1583  155.7167 C   0  0  0  0  0  0  0  0  0  0  0  0
  150.1047  140.4797  155.2439 C   0  0  0  0  0  0  0  0  0  0  0  0
  150.6324  141.5472  155.9956 C   0  0  0  0  0  0  0  0  0  0  0  0
  151.3229  141.2741  157.2039 C   0  0  0  0  0  0  0  0  0  0  0  0
  151.8825  142.2997  158.0013 N   0  0  0  0  0  0  0  0  0  0  0  0
  151.6085  143.6909  157.6491 C   0  0  0  0  0  0  0  0  0  0  0  0
  152.5514  144.6403  158.4079 C   0  0  0  0  0  0  0  0  0  0  0  0
  152.4637  144.3920  159.8059 O   0  0  0  0  0  0  0  0  0  0  0  0
  152.8731  143.0681  160.1289 C   0  0  0  0  0  0  0  0  0  0  0  0
  151.9437  142.0526  159.4425 C   0  0  0  0  0  0  0  0  0  0  0  0
  151.4908  140.0030  157.6419 N   0  0  0  0  0  0  0  0  0  0  0  0
  150.9852  138.9830  156.9181 C   0  0  0  0  0  0  0  0  0  0  0  0
  149.0930  135.9463  154.6030 N   0  0  0  0  0  0  0  0  0  0  0  0
  148.7061  134.5494  154.8160 C   0  0  2  0  0  0  0  0  0  0  0  0
  149.7697  133.6598  154.1323 C   0  0  0  0  0  0  0  0  0  0  0  0
  149.8314  132.2268  154.6892 C   0  0  0  0  0  0  0  0  0  0  0  0
  148.5704  131.3823  154.4506 C   0  0  0  0  0  0  0  0  0  0  0  0
  147.3113  131.9439  155.1331 C   0  0  0  0  0  0  0  0  0  0  0  0
  146.7467  133.0697  154.4005 N   0  0  0  0  0  0  0  0  0  0  0  0
  147.3224  134.2624  154.1870 C   0  0  0  0  0  0  0  0  0  0  0  0
  146.7574  135.1102  153.4959 O   0  0  0  0  0  0  0  0  0  0  0  0
  149.6850  138.0966  154.0452 H   0  0  0  0  0  0  0  0  0  0  0  0
  149.5963  140.6981  154.3179 H   0  0  0  0  0  0  0  0  0  0  0  0
  150.4888  142.5513  155.6278 H   0  0  0  0  0  0  0  0  0  0  0  0
  151.7479  143.8475  156.5792 H   0  0  0  0  0  0  0  0  0  0  0  0
  150.5696  143.9239  157.8862 H   0  0  0  0  0  0  0  0  0  0  0  0
  153.5815  144.5178  158.0691 H   0  0  0  0  0  0  0  0  0  0  0  0
  152.2751  145.6766  158.2131 H   0  0  0  0  0  0  0  0  0  0  0  0
  153.9100  142.9116  159.8268 H   0  0  0  0  0  0  0  0  0  0  0  0
  152.8348  142.9387  161.2105 H   0  0  0  0  0  0  0  0  0  0  0  0
  150.9367  142.1292  159.8544 H   0  0  0  0  0  0  0  0  0  0  0  0
  152.3043  141.0486  159.6657 H   0  0  0  0  0  0  0  0  0  0  0  0
  151.1523  137.9934  157.3176 H   0  0  0  0  0  0  0  0  0  0  0  0
  148.9775  136.3091  153.6683 H   0  0  0  0  0  0  0  0  0  0  0  0
  148.6800  134.3475  155.8885 H   0  0  0  0  0  0  0  0  0  0  0  0
  149.6259  133.6388  153.0505 H   0  0  0  0  0  0  0  0  0  0  0  0
  150.7551  134.1027  154.2854 H   0  0  0  0  0  0  0  0  0  0  0  0
  150.6804  131.7149  154.2348 H   0  0  0  0  0  0  0  0  0  0  0  0
  150.0462  132.2633  155.7579 H   0  0  0  0  0  0  0  0  0  0  0  0
  148.3955  131.2591  153.3807 H   0  0  0  0  0  0  0  0  0  0  0  0
  148.7558  130.3806  154.8395 H   0  0  0  0  0  0  0  0  0  0  0  0
  146.5462  131.1680  155.1677 H   0  0  0  0  0  0  0  0  0  0  0  0
  147.5128  132.2217  156.1686 H   0  0  0  0  0  0  0  0  0  0  0  0
  145.8384  132.9195  153.9854 H   0  0  0  0  0  0  0  0  0  0  0  0
  1  2  2  0  0  0  0
  2  3  1  0  0  0  0
  2 16  1  0  0  0  0
  3  4  1  0  0  0  0
  3 25  1  0  0  0  0
  4 15  1  0  0  0  0
  4  5  2  0  0  0  0
  5  6  1  0  0  0  0
  5 26  1  0  0  0  0
  6  7  2  0  0  0  0
  6 27  1  0  0  0  0
  7  8  1  0  0  0  0
  7 14  1  0  0  0  0
  8 13  1  0  0  0  0
  8  9  1  0  0  0  0
  9 10  1  0  0  0  0
  9 28  1  0  0  0  0
  9 29  1  0  0  0  0
 10 11  1  0  0  0  0
 10 30  1  0  0  0  0
 10 31  1  0  0  0  0
 11 12  1  0  0  0  0
 12 13  1  0  0  0  0
 12 32  1  0  0  0  0
 12 33  1  0  0  0  0
 13 34  1  0  0  0  0
 13 35  1  0  0  0  0
 14 15  2  0  0  0  0
 15 36  1  0  0  0  0
 16 17  1  0  0  0  0
 16 37  1  0  0  0  0
 17 23  1  0  0  0  0
 17 18  1  0  0  0  0
 17 38  1  0  0  0  0
 18 19  1  0  0  0  0
 18 39  1  0  0  0  0
 18 40  1  0  0  0  0
 19 20  1  0  0  0  0
 19 41  1  0  0  0  0
 19 42  1  0  0  0  0
 20 21  1  0  0  0  0
 20 43  1  0  0  0  0
 20 44  1  0  0  0  0
 21 22  1  0  0  0  0
 21 45  1  0  0  0  0
 21 46  1  0  0  0  0
 22 23  1  0  0  0  0
 22 47  1  0  0  0  0
 23 24  2  0  0  0  0
M  END
> <s_m_source_file>
AV-unprocessed.smi

> <i_m_source_file_index>
1617

> <i_lp_mmshare_version>
43012

> <i_f3d_flags>
0

> <s_epik_input>
Tz1DMVtOSF1bQ0gyXVtDSDJdW0NIMl1bQ0gyXVtDQEhdMVtOSF1DKD1PKVtOSF1jMltjSF1bY0hdYyhuW2NIXTIpTjNbQ0gyXVtDSDJdT1tDSDJdW0NIMl0z

> <s_epik_cmdline>
J2VwaWtfcHl0aG9uJywgJy1waCcsICc3LjAnLCAnLXRuJywgJzgnLCAnLW1hJywgJzIwMCcsICctbWV0YWxfYmluZGluZycsICctaW1hZScsICc8aW5maWxlLm1hZT4nLCAnLW9tYWUnLCAnPG91dGZpbGUubWFlPic=

> <r_lp_tautomer_probability>
1

> <r_epik_Ionization_Penalty>
0.00171733

> <r_epik_Ionization_Penalty_Charging>
0

> <r_epik_Ionization_Penalty_Neutral>
0.00171733

> <r_epik_State_Penalty>
0.00113787

> <r_epik_Charging_Adjusted_Penalty>
0.00113787

> <i_epik_Tot_Q>
0

> <i_epik_Tot_abs_Q>
0

> <r_epik_Metal_State_Penalty>
-0

> <b_epik_Metal_Only>
0

> <s_lp_Force_Field>
OPLS_2005

> <r_lp_Energy>
27.2722

> <b_lp_Chiralities_Consistent>
1

> <s_lp_Variant>
AV-unprocessed.smi:1617-1

> <Gold.Version>
5.8.1

> <Gold.Id.Protein>
6NUR|6NUR_protein|mol2

> <Gold.PLP.Fitness>
38.0692

> <Gold.PLP.PLP>
-35.8783

> <Gold.PLP.part.hbond>
-1.0000

> <Gold.PLP.part.metal>
0.0000

> <Gold.PLP.part.buried>
-4.5188

> <Gold.PLP.part.nonpolar>
-30.1625

> <Gold.PLP.part.repulsive>
1.3562

> <Gold.PLP.ligand.clash>
0.0000

> <Gold.PLP.ligand.torsion>
0.6378

> <Gold.PLP.Chemscore.Hbond>
1.0000

> <Gold.PLP.Chemscore.CHOScore>
0.0000

> <Gold.PLP.Chemscore.Metal>
0.0000

> <Gold.Chemscore.Hbonds>
donor molecule, donor type, donor heavy atom, donor atom, acceptor molecule, acceptor atom, score
      L1  H    16    37       P1  7948  1.00

> <Gold.PLP.Chemscore.Internal.Correction>
0.4664

> <Gold.Rescore>
     Score         DG    S(hbond)    S(metal)    S(lipo)     H(rot)  DE(clash)    DE(int)     intcor
     14.41     -16.43       0.98        0.00      93.28       1.27       0.04       1.98       ----

> <Gold.Chemscore.Fitness>
14.4101

> <Gold.Chemscore.DG>
-16.4282

> <Gold.Chemscore.ZeroCoef>
-5.4800

> <Gold.Chemscore.Hbond>
0.9823

> <Gold.Chemscore.Metal>
0.0000

> <Gold.Chemscore.Lipo>
93.2847

> <Gold.Chemscore.Internal_Hbond>
0.0000

> <Gold.Chemscore.DEClash>
0.0420

> <Gold.Chemscore.DEInternal>
1.9761

> <Gold.Chemscore.Rot>
1.2684

> <Gold.Chemscore.Internal.Correction>
   9.000000E+99

> <Gold.Chemscore.Hbonds>
donor molecule, donor type, donor heavy atom, donor atom, acceptor molecule, acceptor atom, score
      L1  H    16    37       P1  7948  0.97

> <Gold.Chemscore.Hbond.Weighted>
-3.2809

> <Gold.Chemscore.Metal.Weighted>
-0.0000

> <Gold.Chemscore.Lipo.Weighted>
-10.9143

> <Gold.Chemscore.Internal_Hbond.Weighted>
0.0000

> <Gold.Chemscore.DEClash.Weighted>
0.0420

> <Gold.Chemscore.DEInternal.Weighted>
1.9761

> <Gold.Chemscore.Rot.Weighted>
3.2471

> <Gold.Chemscore.Internal.Correction.Weighted>
   9.000000E+99

> <Gold.Protein.RotatedTorsions>
[ 6907 6896 6895 6894 ] final   74.34 input  -60.11 | X-H torsion
[ 7974 7965 7964 7962 ] final -132.05 input  175.53 | X-H torsion
[ 8008 7997 7996 7995 ] final    9.04 input   59.86 | X-H torsion
[ 10167 10162 10161 10158 ] final  -23.06 input  -65.29 | X-H torsion
[ 10718 10713 10712 10709 ] final   74.21 input   66.30 | X-H torsion
[ 10763 10752 10751 10750 ] final   65.79 input  -60.55 | X-H torsion
[ 11005 11000 10999 10996 ] final  175.00 input  -57.11 | X-H torsion

> <Gold.Protein.ActiveResidues>
 VAL166  LYS551  ARG553  GLY616  TRP617  ASP618  TYR619  PRO620  LYS621  CYS622 
 ASP623  PHE694  ASN695  SER759  ASP760  ASP761  ALA762  ILE779  LEU786  VAL792 
 PHE793  MET794  SER795  GLU796  ALA797  LYS798  CYS799  TRP800  GLU811  SER814 

> <Gold.Protein.RotatedAtoms>
  152.4971  134.4286  159.9504 H   0  0  0  0  0  0  0  0  0  0  0  0  # atno 6907 bound_to 6896
  151.4262  133.3677  159.2770 H   0  0  0  0  0  0  0  0  0  0  0  0  # atno 6908 bound_to 6896
  150.9187  134.8627  159.7534 H   0  0  0  0  0  0  0  0  0  0  0  0  # atno 6909 bound_to 6896
  144.9322  140.7142  143.4899 H   0  0  0  0  0  0  0  0  0  0  0  0  # atno 7974 bound_to 7965
  154.7748  140.2808  155.6109 H   0  0  0  0  0  0  0  0  0  0  0  0  # atno 8008 bound_to 7997
  156.2940  140.2634  156.2487 H   0  0  0  0  0  0  0  0  0  0  0  0  # atno 8009 bound_to 7997
  154.9855  140.0374  157.2286 H   0  0  0  0  0  0  0  0  0  0  0  0  # atno 8010 bound_to 7997
  140.7287  143.4477  151.0562 H   0  0  0  0  0  0  0  0  0  0  0  0  # atno 10167 bound_to 10162
  157.6582  130.9667  150.1179 H   0  0  0  0  0  0  0  0  0  0  0  0  # atno 10718 bound_to 10713
  153.0111  135.5344  154.6723 H   0  0  0  0  0  0  0  0  0  0  0  0  # atno 10763 bound_to 10752
  154.5904  135.2858  155.0643 H   0  0  0  0  0  0  0  0  0  0  0  0  # atno 10764 bound_to 10752
  154.1738  135.6527  153.5069 H   0  0  0  0  0  0  0  0  0  0  0  0  # atno 10765 bound_to 10752
  140.3575  134.7142  157.4309 H   0  0  0  0  0  0  0  0  0  0  0  0  # atno 11005 bound_to 11000
  145.3124  139.1814  143.4632 LP  0  0  0  0  0  0  0  0  0  0  0  0  # atno 17320 bound_to 7965
  146.3252  140.3130  142.8628 LP  0  0  0  0  0  0  0  0  0  0  0  0  # atno 17321 bound_to 7965
  139.8150  143.7898  152.3174 LP  0  0  0  0  0  0  0  0  0  0  0  0  # atno 17342 bound_to 10162
  139.7961  144.7392  150.9889 LP  0  0  0  0  0  0  0  0  0  0  0  0  # atno 17343 bound_to 10162
  156.2058  130.3663  149.8731 LP  0  0  0  0  0  0  0  0  0  0  0  0  # atno 17370 bound_to 10713
  156.6623  130.8787  151.3549 LP  0  0  0  0  0  0  0  0  0  0  0  0  # atno 17371 bound_to 10713
  140.0654  134.5937  155.8702 LP  0  0  0  0  0  0  0  0  0  0  0  0  # atno 17394 bound_to 11000
  141.1994  133.6606  156.5842 LP  0  0  0  0  0  0  0  0  0  0  0  0  # atno 17395 bound_to 11000

$$$$
