AV-unprocessed.smi:3149|AV-procd|sdf|12002|dock5
  -GOLD-   2272017403D 1   1.00000     0.00000
 Structure written by MMmdl.
 38 39  0  0  0  0  0  0  0  0  2 V2000
  151.3881  140.8759  157.6342 C   0  0  0  0  0  0  0  0  0  0  0  0
  150.0408  141.4503  157.1551 C   0  0  1  0  0  0  0  0  0  0  0  0
  149.8388  142.8051  157.7209 N   0  3  0  0  0  0  0  0  0  0  0  0
  151.0700  143.5892  157.9509 C   0  0  0  0  0  0  0  0  0  0  0  0
  151.0680  144.2342  159.3398 C   0  0  0  0  0  0  0  0  0  0  0  0
  150.2295  145.0871  159.6334 O   0  0  0  0  0  0  0  0  0  0  0  0
  151.9847  143.7493  160.2747 N   0  0  0  0  0  0  0  0  0  0  0  0
  152.3369  142.3385  160.3338 C   0  0  0  0  0  0  0  0  0  0  0  0
  152.5607  142.5686  161.8319 C   0  0  0  0  0  0  0  0  0  0  0  0
  151.7248  143.8465  161.7033 C   0  0  0  0  0  0  0  0  0  0  0  0
  149.9365  141.5049  155.6058 C   0  0  1  0  0  0  0  0  0  0  0  0
  150.6183  140.3131  154.9081 C   0  0  0  0  0  0  0  0  0  0  0  0
  148.5509  141.5992  155.1570 N   0  0  0  0  0  0  0  0  0  0  0  0
  148.0773  141.6535  153.8620 C   0  0  0  0  0  0  0  0  0  0  0  0
  146.7150  141.7170  153.9270 C   0  0  0  0  0  0  0  0  0  0  0  0
  146.4404  141.6825  155.3221 C   0  0  0  0  0  0  0  0  0  0  0  0
  147.5393  141.6069  156.0549 N   0  0  0  0  0  0  0  0  0  0  0  0
  151.5306  139.8493  157.2985 H   0  0  0  0  0  0  0  0  0  0  0  0
  151.4540  140.8553  158.7217 H   0  0  0  0  0  0  0  0  0  0  0  0
  152.2260  141.4674  157.2634 H   0  0  0  0  0  0  0  0  0  0  0  0
  149.2425  140.8055  157.5264 H   0  0  0  0  0  0  0  0  0  0  0  0
  149.2114  143.3277  157.1270 H   0  0  0  0  0  0  0  0  0  0  0  0
  151.9411  142.9377  157.8720 H   0  0  0  0  0  0  0  0  0  0  0  0
  151.1615  144.3607  157.1864 H   0  0  0  0  0  0  0  0  0  0  0  0
  151.5003  141.6688  160.1237 H   0  0  0  0  0  0  0  0  0  0  0  0
  153.2371  142.0793  159.7755 H   0  0  0  0  0  0  0  0  0  0  0  0
  152.1174  141.8060  162.4731 H   0  0  0  0  0  0  0  0  0  0  0  0
  153.6044  142.7583  162.0897 H   0  0  0  0  0  0  0  0  0  0  0  0
  152.1631  144.7270  162.1747 H   0  0  0  0  0  0  0  0  0  0  0  0
  150.6758  143.7023  161.9705 H   0  0  0  0  0  0  0  0  0  0  0  0
  150.4371  142.4133  155.2667 H   0  0  0  0  0  0  0  0  0  0  0  0
  151.6948  140.3067  155.0749 H   0  0  0  0  0  0  0  0  0  0  0  0
  150.4663  140.3539  153.8289 H   0  0  0  0  0  0  0  0  0  0  0  0
  150.2180  139.3623  155.2618 H   0  0  0  0  0  0  0  0  0  0  0  0
  148.7412  141.6437  153.0100 H   0  0  0  0  0  0  0  0  0  0  0  0
  146.0197  141.7730  153.1023 H   0  0  0  0  0  0  0  0  0  0  0  0
  145.4823  141.7070  155.8201 H   0  0  0  0  0  0  0  0  0  0  0  0
  149.3993  142.6904  158.6236 H   0  0  0  0  0  0  0  0  0  0  0  0
  1  2  1  0  0  0  0
  1 18  1  0  0  0  0
  1 19  1  0  0  0  0
  1 20  1  0  0  0  0
  2  3  1  0  0  0  0
  2 11  1  0  0  0  0
  2 21  1  0  0  0  0
  3  4  1  0  0  0  0
  3 22  1  0  0  0  0
  3 38  1  0  0  0  0
  4  5  1  0  0  0  0
  4 23  1  0  0  0  0
  4 24  1  0  0  0  0
  5  6  2  0  0  0  0
  5  7  1  0  0  0  0
  7 10  1  0  0  0  0
  7  8  1  0  0  0  0
  8  9  1  0  0  0  0
  8 25  1  0  0  0  0
  8 26  1  0  0  0  0
  9 10  1  0  0  0  0
  9 27  1  0  0  0  0
  9 28  1  0  0  0  0
 10 29  1  0  0  0  0
 10 30  1  0  0  0  0
 11 12  1  0  0  0  0
 11 13  1  0  0  0  0
 11 31  1  0  0  0  0
 12 32  1  0  0  0  0
 12 33  1  0  0  0  0
 12 34  1  0  0  0  0
 13 17  1  0  0  0  0
 13 14  1  0  0  0  0
 14 15  2  0  0  0  0
 14 35  1  0  0  0  0
 15 16  1  0  0  0  0
 15 36  1  0  0  0  0
 16 17  2  0  0  0  0
 16 37  1  0  0  0  0
M  CHG  1   3   1
M  END
> <s_m_source_file>
AV-unprocessed.smi

> <i_m_source_file_index>
3149

> <i_lp_mmshare_version>
43012

> <i_f3d_flags>
0

> <s_epik_input>
bjFbY0hdW2NIXVtjSF1uMVtDQEBIXShbQ0gzXSlbQ0BIXShbQ0gzXSlbTkhdW0NIMl1DKD1PKU4yW0NIMl1bQ0gyXVtDSDJdMg==

> <s_epik_cmdline>
J2VwaWtfcHl0aG9uJywgJy1waCcsICc3LjAnLCAnLXRuJywgJzgnLCAnLW1hJywgJzIwMCcsICctbWV0YWxfYmluZGluZycsICctaW1hZScsICc8aW5maWxlLm1hZT4nLCAnLW9tYWUnLCAnPG91dGZpbGUubWFlPic=

> <r_lp_tautomer_probability>
1

> <r_epik_Ionization_Penalty>
0.141739

> <r_epik_Ionization_Penalty_Charging>
0.141731

> <r_epik_Ionization_Penalty_Neutral>
8.82171e-06

> <r_epik_State_Penalty>
0.131043

> <r_epik_Charging_Adjusted_Penalty>
0.272773

> <i_epik_Tot_Q>
1

> <i_epik_Tot_abs_Q>
1

> <r_epik_Metal_State_Penalty>
0.131384

> <b_epik_Metal_Only>
0

> <s_lp_Force_Field>
OPLS_2005

> <r_lp_Energy>
20.424

> <b_lp_Chiralities_Consistent>
1

> <s_lp_Variant>
AV-unprocessed.smi:3149-4

> <Gold.Version>
5.8.1

> <Gold.Id.Protein>
6NUR|6NUR_protein|mol2

> <Gold.PLP.Fitness>
50.5384

> <Gold.PLP.PLP>
-43.7851

> <Gold.PLP.part.hbond>
-1.2355

> <Gold.PLP.part.metal>
0.0000

> <Gold.PLP.part.buried>
-3.2371

> <Gold.PLP.part.nonpolar>
-39.3115

> <Gold.PLP.part.repulsive>
0.9997

> <Gold.PLP.ligand.clash>
0.0000

> <Gold.PLP.ligand.torsion>
1.6182

> <Gold.PLP.Chemscore.Hbond>
2.0000

> <Gold.PLP.Chemscore.CHOScore>
1.0000

> <Gold.PLP.Chemscore.Metal>
0.0000

> <Gold.Chemscore.Hbonds>
donor molecule, donor type, donor heavy atom, donor atom, acceptor molecule, acceptor atom, score
      L1  H     3    22       P1  8028  1.95
      L1  C    14    35       P1  7957  0.87

> <Gold.PLP.Chemscore.Internal.Correction>
0.9897

> <Gold.Rescore>
     Score         DG    S(hbond)    S(metal)    S(lipo)     H(rot)  DE(clash)    DE(int)     intcor
     12.74     -14.54       0.99        0.00      89.79       1.85       0.04       1.76       ----

> <Gold.Chemscore.Fitness>
12.7403

> <Gold.Chemscore.DG>
-14.5398

> <Gold.Chemscore.ZeroCoef>
-5.4800

> <Gold.Chemscore.Hbond>
0.9883

> <Gold.Chemscore.Metal>
0.0000

> <Gold.Chemscore.Lipo>
89.7943

> <Gold.Chemscore.Internal_Hbond>
0.0000

> <Gold.Chemscore.DEClash>
0.0420

> <Gold.Chemscore.DEInternal>
1.7576

> <Gold.Chemscore.Rot>
1.8544

> <Gold.Chemscore.Internal.Correction>
   9.000000E+99

> <Gold.Chemscore.Hbonds>
donor molecule, donor type, donor heavy atom, donor atom, acceptor molecule, acceptor atom, score
      L1  H     3    22       P1  8028  0.72

> <Gold.Chemscore.Hbond.Weighted>
-3.3010

> <Gold.Chemscore.Metal.Weighted>
-0.0000

> <Gold.Chemscore.Lipo.Weighted>
-10.5059

> <Gold.Chemscore.Internal_Hbond.Weighted>
0.0000

> <Gold.Chemscore.DEClash.Weighted>
0.0420

> <Gold.Chemscore.DEInternal.Weighted>
1.7576

> <Gold.Chemscore.Rot.Weighted>
4.7472

> <Gold.Chemscore.Internal.Correction.Weighted>
   9.000000E+99

> <Gold.Protein.RotatedTorsions>
[ 6907 6896 6895 6894 ] final -137.85 input  -60.11 | X-H torsion
[ 7974 7965 7964 7962 ] final   80.19 input  175.53 | X-H torsion
[ 8008 7997 7996 7995 ] final   77.88 input   59.86 | X-H torsion
[ 10167 10162 10161 10158 ] final  -76.54 input  -65.29 | X-H torsion
[ 10718 10713 10712 10709 ] final  144.72 input   66.30 | X-H torsion
[ 10763 10752 10751 10750 ] final  151.85 input  -60.55 | X-H torsion
[ 11005 11000 10999 10996 ] final -179.24 input  -57.11 | X-H torsion

> <Gold.Protein.ActiveResidues>
 VAL166  LYS551  ARG553  GLY616  TRP617  ASP618  TYR619  PRO620  LYS621  CYS622 
 ASP623  PHE694  ASN695  SER759  ASP760  ASP761  ALA762  ILE779  LEU786  VAL792 
 PHE793  MET794  SER795  GLU796  ALA797  LYS798  CYS799  TRP800  GLU811  SER814 

> <Gold.Protein.RotatedAtoms>
  151.0276  133.5819  159.2664 H   0  0  0  0  0  0  0  0  0  0  0  0  # atno 6907 bound_to 6896
  151.2913  135.0742  159.9215 H   0  0  0  0  0  0  0  0  0  0  0  0  # atno 6908 bound_to 6896
  152.5337  133.9974  159.7933 H   0  0  0  0  0  0  0  0  0  0  0  0  # atno 6909 bound_to 6896
  145.6545  139.2456  143.1958 H   0  0  0  0  0  0  0  0  0  0  0  0  # atno 7974 bound_to 7965
  155.8479  140.3459  155.5674 H   0  0  0  0  0  0  0  0  0  0  0  0  # atno 8008 bound_to 7997
  155.8070  140.0893  157.1945 H   0  0  0  0  0  0  0  0  0  0  0  0  # atno 8009 bound_to 7997
  154.4007  140.1455  156.3329 H   0  0  0  0  0  0  0  0  0  0  0  0  # atno 8010 bound_to 7997
  140.4848  143.2393  151.8000 H   0  0  0  0  0  0  0  0  0  0  0  0  # atno 10167 bound_to 10162
  157.3538  131.0955  151.0977 H   0  0  0  0  0  0  0  0  0  0  0  0  # atno 10718 bound_to 10713
  154.1104  135.2839  155.3232 H   0  0  0  0  0  0  0  0  0  0  0  0  # atno 10763 bound_to 10752
  154.6493  135.5374  153.7886 H   0  0  0  0  0  0  0  0  0  0  0  0  # atno 10764 bound_to 10752
  153.0347  135.6506  154.1263 H   0  0  0  0  0  0  0  0  0  0  0  0  # atno 10765 bound_to 10752
  140.4209  134.6607  157.4663 H   0  0  0  0  0  0  0  0  0  0  0  0  # atno 11005 bound_to 11000
  146.1176  140.7349  142.9473 LP  0  0  0  0  0  0  0  0  0  0  0  0  # atno 17320 bound_to 7965
  144.7111  140.4040  143.7080 LP  0  0  0  0  0  0  0  0  0  0  0  0  # atno 17321 bound_to 7965
  139.4840  144.4725  151.9407 LP  0  0  0  0  0  0  0  0  0  0  0  0  # atno 17342 bound_to 10162
  140.3811  144.2734  150.5908 LP  0  0  0  0  0  0  0  0  0  0  0  0  # atno 17343 bound_to 10162
  157.2142  130.6452  149.5786 LP  0  0  0  0  0  0  0  0  0  0  0  0  # atno 17370 bound_to 10713
  155.9726  130.4650  150.6237 LP  0  0  0  0  0  0  0  0  0  0  0  0  # atno 17371 bound_to 10713
  140.0201  134.6560  155.9252 LP  0  0  0  0  0  0  0  0  0  0  0  0  # atno 17394 bound_to 11000
  141.1784  133.6543  156.4922 LP  0  0  0  0  0  0  0  0  0  0  0  0  # atno 17395 bound_to 11000

$$$$
