#       Name:                AV-unprocessed.smi:2849
#       Creating user name   scv26
#       Creation time:       Fri Mar 27 15:41:32 2020


#       File generated by GOLD software.
#

@<TRIPOS>MOLECULE
AV-unprocessed.smi:2849
    59    62     1
SMALL
NO_CHARGES


@<TRIPOS>ATOM
      1 ****        -5.3084  -4.2684  -1.0673 C.3            1 S1                 0.0000
      2 ****        -4.6651  -2.9327  -1.0549 N.4            1 S1                 1.0000
      3 ****        -3.9021  -2.5966  -2.2809 C.3            1 S1                 0.0000
      4 ****        -2.6127  -3.4477  -2.3960 C.3            1 S1                 0.0000
      5 ****        -1.7306  -3.4277  -1.1348 C.3            1 S1                 0.0000
      6 ****        -2.5515  -3.5020   0.1649 C.3            1 S1                 0.0000
      7 ****        -3.8453  -2.6499   0.1473 C.3            1 S1                 0.0000
      8 ****        -3.6297  -1.1234   0.2631 C.3            1 S1                 0.0000
      9 ****        -3.1704  -0.4047  -1.0364 C.3            1 S1                 0.0000
     10 ****        -1.7283  -0.1670  -1.0826 N.am           1 S1                 0.0000
     11 ****        -1.0594   0.7270  -0.3385 C.2            1 S1                 0.0000
     12 ****        -1.6072   1.4840   0.4618 O.2            1 S1                 0.0000
     13 ****         0.2606   0.6827  -0.5914 N.am           1 S1                 0.0000
     14 ****         1.3167   1.3903   0.0479 C.ar           1 S1                 0.0000
     15 ****         2.5958   1.3347  -0.5475 C.ar           1 S1                 0.0000
     16 ****         3.6815   2.0023   0.0560 C.ar           1 S1                 0.0000
     17 ****         3.4739   2.7178   1.2579 C.ar           1 S1                 0.0000
     18 ****         4.4835   3.4077   1.9434 N.3            1 S1                 0.0000
     19 ****         5.1580   4.4450   1.1806 C.3            1 S1                 0.0000
     20 ****         6.4463   4.7490   1.9508 C.3            1 S1                 0.0000
     21 ****         6.6853   3.5119   2.8251 C.3            1 S1                 0.0000
     22 ****         5.5345   2.5623   2.4835 C.3            1 S1                 0.0000
     23 ****         2.2382   2.7404   1.8020 N.pl3          1 S1                 1.0000
     24 ****         1.1720   2.1163   1.2562 C.ar           1 S1                 0.0000
     25 ****        -3.6871  -1.0655  -2.3407 C.3            1 S1                 0.0000
     26 ****        -4.5808  -5.0790  -1.0983 H              1 S1                 0.0000
     27 ****        -5.9613  -4.3682  -1.9348 H              1 S1                 0.0000
     28 ****        -5.9228  -4.4017  -0.1764 H              1 S1                 0.0000
     29 ****        -4.5270  -2.8498  -3.1389 H              1 S1                 0.0000
     30 ****        -2.8931  -4.4811  -2.6016 H              1 S1                 0.0000
     31 ****        -2.0283  -3.1300  -3.2600 H              1 S1                 0.0000
     32 ****        -1.0295  -4.2623  -1.1692 H              1 S1                 0.0000
     33 ****        -1.0981  -2.5469  -1.1298 H              1 S1                 0.0000
     34 ****        -2.8213  -4.5438   0.3400 H              1 S1                 0.0000
     35 ****        -1.9267  -3.2198   1.0130 H              1 S1                 0.0000
     36 ****        -4.4285  -2.9411   1.0221 H              1 S1                 0.0000
     37 ****        -4.5906  -0.6890   0.5431 H              1 S1                 0.0000
     38 ****        -2.9682  -0.8982   1.1004 H              1 S1                 0.0000
     39 ****        -3.6117   0.5941  -1.0157 H              1 S1                 0.0000
     40 ****        -1.1972  -0.7392  -1.7228 H              1 S1                 0.0000
     41 ****         0.5473   0.0598  -1.3323 H              1 S1                 0.0000
     42 ****         2.7496   0.7831  -1.4636 H              1 S1                 0.0000
     43 ****         4.6594   1.9572  -0.4004 H              1 S1                 0.0000
     44 ****         5.3977   4.0928   0.1767 H              1 S1                 0.0000
     45 ****         4.5303   5.3315   1.0846 H              1 S1                 0.0000
     46 ****         7.2790   4.9464   1.2749 H              1 S1                 0.0000
     47 ****         6.3144   5.6294   2.5810 H              1 S1                 0.0000
     48 ****         7.6564   3.0515   2.6403 H              1 S1                 0.0000
     49 ****         6.6451   3.7907   3.8789 H              1 S1                 0.0000
     50 ****         5.1894   2.0170   3.3626 H              1 S1                 0.0000
     51 ****         5.8571   1.8331   1.7391 H              1 S1                 0.0000
     52 ****         0.2583   2.2190   1.8207 H              1 S1                 0.0000
     53 ****        -3.0565  -0.7993  -3.1901 H              1 S1                 0.0000
     54 ****        -4.6582  -0.6194  -2.5618 H              1 S1                 0.0000
     55 ****        -5.4347  -2.2792  -1.0221 H              1 S1                 0.0000
     56 ****         2.1025   3.2540   2.6731 H              1 S1                 0.0000
     57 ****        -2.5994   1.4512   0.5823 LP             1 S1                 0.0000
     58 ****        -1.0603   2.1321   0.9917 LP             1 S1                 0.0000
     59 ****         3.9477   3.8210   2.6797 LP             1 S1                 0.0000
@<TRIPOS>BOND
    1    1    2 1     
    2    1   26 1     
    3    1   27 1     
    4    1   28 1     
    5    2    7 1     
    6    2    3 1     
    7    2   55 1     
    8    3   25 1     
    9    3    4 1     
   10    3   29 1     
   11    4    5 1     
   12    4   30 1     
   13    4   31 1     
   14    5    6 1     
   15    5   32 1     
   16    5   33 1     
   17    6    7 1     
   18    6   34 1     
   19    6   35 1     
   20    7    8 1     
   21    7   36 1     
   22    8    9 1     
   23    8   37 1     
   24    8   38 1     
   25    9   10 1     
   26    9   25 1     
   27    9   39 1     
   28   10   11 am    
   29   10   40 1     
   30   11   12 2     
   31   11   13 am    
   32   13   14 1     
   33   13   41 1     
   34   14   24 ar    
   35   14   15 ar    
   36   15   16 ar    
   37   15   42 1     
   38   16   17 ar    
   39   16   43 1     
   40   17   18 1     
   41   17   23 ar    
   42   18   22 1     
   43   18   19 1     
   44   19   20 1     
   45   19   44 1     
   46   19   45 1     
   47   20   21 1     
   48   20   46 1     
   49   20   47 1     
   50   21   22 1     
   51   21   48 1     
   52   21   49 1     
   53   22   50 1     
   54   22   51 1     
   55   23   24 ar    
   56   23   56 1     
   57   24   52 1     
   58   25   53 1     
   59   25   54 1     
   60   12   57 1     
   61   12   58 1     
   62   18   59 1     
@<TRIPOS>SUBSTRUCTURE
      1 S1             1
@<TRIPOS>SET
LONE_PAIRS      STATIC     ATOMS    <user>   **** ""
3 57 58 59
DONOR_HYDROGENS      STATIC     ATOMS    <user>   **** ""
4 55 40 41 56
ATOM$BLUE        STATIC     ATOMS    COLORGROUP SYSTEM
3 57 58 59
ATOM$RED        STATIC     ATOMS    COLORGROUP SYSTEM
4 55 40 41 56
