AV-unprocessed.smi:1732|AV-procd|sdf|6977|dock3
  -GOLD-   22720 8193D 1   1.00000     0.00000
 Structure written by MMmdl.
 35 36  0  0  0  0  0  0  0  0  2 V2000
  153.1221  139.3472  155.9079 O   0  0  0  0  0  0  0  0  0  0  0  0
  151.9110  139.5632  155.9362 C   0  0  0  0  0  0  0  0  0  0  0  0
  151.0218  138.9689  154.8475 C   0  0  0  0  0  0  0  0  0  0  0  0
  150.3258  140.0281  154.2081 O   0  0  0  0  0  0  0  0  0  0  0  0
  149.0019  140.2121  154.6871 C   0  0  0  0  0  0  0  0  0  0  0  0
  148.0469  139.2336  154.0052 C   0  0  0  0  0  0  0  0  0  0  0  0
  146.6611  139.8733  154.1446 C   0  0  0  0  0  0  0  0  0  0  0  0
  146.8998  141.3793  154.3388 C   0  0  0  0  0  0  0  0  0  0  0  0
  148.4194  141.5808  154.3239 C   0  0  0  0  0  0  0  0  0  0  0  0
  151.2658  140.2790  156.8779 N   0  0  0  0  0  0  0  0  0  0  0  0
  151.7875  140.9681  157.9857 C   0  0  0  0  0  0  0  0  0  0  0  0
  151.4747  142.2515  158.3171 C   0  0  0  0  0  0  0  0  0  0  0  0
  152.0336  142.9127  159.4898 C   0  0  0  0  0  0  0  0  0  0  0  0
  151.7808  144.3681  159.8410 C   0  0  0  0  0  0  0  0  0  0  0  0
  150.4749  144.6115  159.9545 F   0  0  0  0  0  0  0  0  0  0  0  0
  152.3712  144.6942  160.9910 F   0  0  0  0  0  0  0  0  0  0  0  0
  152.2679  145.1570  158.8843 F   0  0  0  0  0  0  0  0  0  0  0  0
  152.8996  142.0953  160.1896 C   0  0  0  0  0  0  0  0  0  0  0  0
  153.2413  140.8109  159.9460 N   0  5  0  0  0  0  0  0  0  0  0  0
  152.7094  140.2010  158.8491 C   0  0  0  0  0  0  0  0  0  0  0  0
  152.9800  139.0332  158.5664 O   0  0  0  0  0  0  0  0  0  0  0  0
  151.6343  138.4262  154.1255 H   0  0  0  0  0  0  0  0  0  0  0  0
  150.3286  138.2558  155.2958 H   0  0  0  0  0  0  0  0  0  0  0  0
  148.9540  140.0565  155.7668 H   0  0  0  0  0  0  0  0  0  0  0  0
  148.3006  139.1493  152.9474 H   0  0  0  0  0  0  0  0  0  0  0  0
  148.0936  138.2330  154.4363 H   0  0  0  0  0  0  0  0  0  0  0  0
  146.0385  139.6670  153.2733 H   0  0  0  0  0  0  0  0  0  0  0  0
  146.1466  139.4667  155.0162 H   0  0  0  0  0  0  0  0  0  0  0  0
  146.4142  141.9722  153.5631 H   0  0  0  0  0  0  0  0  0  0  0  0
  146.4876  141.6969  155.2972 H   0  0  0  0  0  0  0  0  0  0  0  0
  148.7416  142.3711  155.0022 H   0  0  0  0  0  0  0  0  0  0  0  0
  148.7379  141.8581  153.3179 H   0  0  0  0  0  0  0  0  0  0  0  0
  150.2584  140.3004  156.8110 H   0  0  0  0  0  0  0  0  0  0  0  0
  150.7752  142.8185  157.7251 H   0  0  0  0  0  0  0  0  0  0  0  0
  153.3937  142.5424  161.0787 H   0  0  0  0  0  0  0  0  0  0  0  0
  1  2  2  0  0  0  0
  2  3  1  0  0  0  0
  2 10  1  0  0  0  0
  3  4  1  0  0  0  0
  3 22  1  0  0  0  0
  3 23  1  0  0  0  0
  4  5  1  0  0  0  0
  5  9  1  0  0  0  0
  5  6  1  0  0  0  0
  5 24  1  0  0  0  0
  6  7  1  0  0  0  0
  6 25  1  0  0  0  0
  6 26  1  0  0  0  0
  7  8  1  0  0  0  0
  7 27  1  0  0  0  0
  7 28  1  0  0  0  0
  8  9  1  0  0  0  0
  8 29  1  0  0  0  0
  8 30  1  0  0  0  0
  9 31  1  0  0  0  0
  9 32  1  0  0  0  0
 10 11  1  0  0  0  0
 10 33  1  0  0  0  0
 11 20  1  0  0  0  0
 11 12  2  0  0  0  0
 12 13  1  0  0  0  0
 12 34  1  0  0  0  0
 13 14  1  0  0  0  0
 13 18  2  0  0  0  0
 14 15  1  0  0  0  0
 14 16  1  0  0  0  0
 14 17  1  0  0  0  0
 18 19  1  0  0  0  0
 18 35  1  0  0  0  0
 19 20  1  0  0  0  0
 20 21  2  0  0  0  0
M  CHG  1  19  -1
M  END
> <s_m_source_file>
AV-unprocessed.smi

> <i_m_source_file_index>
1732

> <i_lp_mmshare_version>
43012

> <i_f3d_flags>
0

> <s_epik_input>
W0NIMl0xW0NIMl1bQ0gyXVtDSDJdW0NIXTFPW0NIMl1DKD1PKVtOSF1jMltjSF1jKEMoRikoRilGKVtjSF1bbkhdYzI9Tw==

> <s_epik_cmdline>
J2VwaWtfcHl0aG9uJywgJy1waCcsICc3LjAnLCAnLXRuJywgJzgnLCAnLW1hJywgJzIwMCcsICctbWV0YWxfYmluZGluZycsICctaW1hZScsICc8aW5maWxlLm1hZT4nLCAnLW9tYWUnLCAnPG91dGZpbGUubWFlPic=

> <r_epik_Ionization_Penalty>
2.40879

> <r_epik_Ionization_Penalty_Charging>
0.039975

> <r_epik_Ionization_Penalty_Neutral>
2.36882

> <r_epik_State_Penalty>
2.52443

> <r_epik_Charging_Adjusted_Penalty>
2.5644

> <i_epik_Tot_Q>
-1

> <i_epik_Tot_abs_Q>
1

> <r_epik_Metal_State_Penalty>
0.506326

> <b_epik_Metal_Only>
0

> <s_lp_Force_Field>
OPLS_2005

> <r_lp_Energy>
39.1091

> <b_lp_Chiralities_Consistent>
1

> <s_lp_Variant>
AV-unprocessed.smi:1732-2

> <Gold.Version>
5.8.1

> <Gold.Id.Protein>
6NUR|6NUR_protein|mol2

> <Gold.PLP.Fitness>
51.8575

> <Gold.PLP.PLP>
-47.7890

> <Gold.PLP.part.hbond>
-1.9455

> <Gold.PLP.part.metal>
0.0000

> <Gold.PLP.part.buried>
-6.6831

> <Gold.PLP.part.nonpolar>
-39.8792

> <Gold.PLP.part.repulsive>
0.8099

> <Gold.PLP.ligand.clash>
0.0000

> <Gold.PLP.ligand.torsion>
1.0004

> <Gold.PLP.Chemscore.Hbond>
2.0000

> <Gold.PLP.Chemscore.CHOScore>
0.0000

> <Gold.PLP.Chemscore.Metal>
0.0000

> <Gold.Chemscore.Hbonds>
donor molecule, donor type, donor heavy atom, donor atom, acceptor molecule, acceptor atom, score
      P1  H  7989  7998       L1     4  1.00
      P1  H  7997  8008       L1     1  0.99

> <Gold.PLP.Chemscore.Internal.Correction>
0.0693

> <Gold.Rescore>
     Score         DG    S(hbond)    S(metal)    S(lipo)     H(rot)  DE(clash)    DE(int)     intcor
     14.06     -17.95       1.93        0.00      86.14       1.58       0.31       3.58       ----

> <Gold.Chemscore.Fitness>
14.0578

> <Gold.Chemscore.DG>
-17.9500

> <Gold.Chemscore.ZeroCoef>
-5.4800

> <Gold.Chemscore.Hbond>
1.9257

> <Gold.Chemscore.Metal>
0.0000

> <Gold.Chemscore.Lipo>
86.1364

> <Gold.Chemscore.Internal_Hbond>
0.0000

> <Gold.Chemscore.DEClash>
0.3102

> <Gold.Chemscore.DEInternal>
3.5821

> <Gold.Chemscore.Rot>
1.5781

> <Gold.Chemscore.Internal.Correction>
   9.000000E+99

> <Gold.Chemscore.Hbonds>
donor molecule, donor type, donor heavy atom, donor atom, acceptor molecule, acceptor atom, score
      P1  H  7989  7998       L1     4  0.29
      P1  H  7997  8008       L1     1  0.91

> <Gold.Chemscore.Hbond.Weighted>
-6.4320

> <Gold.Chemscore.Metal.Weighted>
-0.0000

> <Gold.Chemscore.Lipo.Weighted>
-10.0780

> <Gold.Chemscore.Internal_Hbond.Weighted>
0.0000

> <Gold.Chemscore.DEClash.Weighted>
0.3102

> <Gold.Chemscore.DEInternal.Weighted>
3.5821

> <Gold.Chemscore.Rot.Weighted>
4.0399

> <Gold.Chemscore.Internal.Correction.Weighted>
   9.000000E+99

> <Gold.Protein.RotatedTorsions>
[ 6907 6896 6895 6894 ] final  141.35 input  -60.11 | X-H torsion
[ 7974 7965 7964 7962 ] final  -63.87 input  175.53 | X-H torsion
[ 8008 7997 7996 7995 ] final  -21.80 input   59.86 | X-H torsion
[ 10167 10162 10161 10158 ] final   99.45 input  -65.29 | X-H torsion
[ 10718 10713 10712 10709 ] final  -53.55 input   66.30 | X-H torsion
[ 10763 10752 10751 10750 ] final  -56.32 input  -60.55 | X-H torsion
[ 11005 11000 10999 10996 ] final -163.55 input  -57.11 | X-H torsion

> <Gold.Protein.ActiveResidues>
 VAL166  LYS551  ARG553  GLY616  TRP617  ASP618  TYR619  PRO620  LYS621  CYS622 
 ASP623  PHE694  ASN695  SER759  ASP760  ASP761  ALA762  ILE779  LEU786  VAL792 
 PHE793  MET794  SER795  GLU796  ALA797  LYS798  CYS799  TRP800  GLU811  SER814 

> <Gold.Protein.RotatedAtoms>
  152.2320  133.5066  159.5221 H   0  0  0  0  0  0  0  0  0  0  0  0  # atno 6907 bound_to 6896
  150.7040  134.1203  159.4041 H   0  0  0  0  0  0  0  0  0  0  0  0  # atno 6908 bound_to 6896
  151.9124  135.0333  160.0566 H   0  0  0  0  0  0  0  0  0  0  0  0  # atno 6909 bound_to 6896
  145.7737  140.8799  143.0366 H   0  0  0  0  0  0  0  0  0  0  0  0  # atno 7974 bound_to 7965
  154.4683  140.2025  156.0060 H   0  0  0  0  0  0  0  0  0  0  0  0  # atno 8008 bound_to 7997
  156.0966  140.3250  155.7857 H   0  0  0  0  0  0  0  0  0  0  0  0  # atno 8009 bound_to 7997
  155.4867  140.0543  157.2950 H   0  0  0  0  0  0  0  0  0  0  0  0  # atno 8010 bound_to 7997
  139.7616  144.6952  151.0284 H   0  0  0  0  0  0  0  0  0  0  0  0  # atno 10167 bound_to 10162
  156.1525  130.4151  149.9921 H   0  0  0  0  0  0  0  0  0  0  0  0  # atno 10718 bound_to 10713
  154.2047  135.6405  153.5097 H   0  0  0  0  0  0  0  0  0  0  0  0  # atno 10763 bound_to 10752
  153.0003  135.5460  154.6278 H   0  0  0  0  0  0  0  0  0  0  0  0  # atno 10764 bound_to 10752
  154.5700  135.2916  155.0810 H   0  0  0  0  0  0  0  0  0  0  0  0  # atno 10765 bound_to 10752
  140.5968  134.4988  157.5200 H   0  0  0  0  0  0  0  0  0  0  0  0  # atno 11005 bound_to 11000
  144.6808  139.9892  143.7484 LP  0  0  0  0  0  0  0  0  0  0  0  0  # atno 17320 bound_to 7965
  146.0144  139.3197  143.0851 LP  0  0  0  0  0  0  0  0  0  0  0  0  # atno 17321 bound_to 7965
  140.7807  143.4690  151.0172 LP  0  0  0  0  0  0  0  0  0  0  0  0  # atno 17342 bound_to 10162
  139.8376  143.7606  152.3180 LP  0  0  0  0  0  0  0  0  0  0  0  0  # atno 17343 bound_to 10162
  156.7775  130.9209  151.3645 LP  0  0  0  0  0  0  0  0  0  0  0  0  # atno 17370 bound_to 10713
  157.6669  130.9015  149.9951 LP  0  0  0  0  0  0  0  0  0  0  0  0  # atno 17371 bound_to 10713
  139.9250  134.8074  156.1097 LP  0  0  0  0  0  0  0  0  0  0  0  0  # atno 17394 bound_to 11000
  141.0898  133.6719  156.2516 LP  0  0  0  0  0  0  0  0  0  0  0  0  # atno 17395 bound_to 11000

$$$$
