#       Name:                AV-unprocessed.smi:2603
#       Creating user name   scv26
#       Creation time:       Fri Mar 27 14:20:08 2020


#       File generated by GOLD software.
#

@<TRIPOS>MOLECULE
AV-unprocessed.smi:2603
    42    43     1
SMALL
NO_CHARGES


@<TRIPOS>ATOM
      1 ****        -1.6927  -3.4809  -0.8251 C.3            1 S1                 0.0000
      2 ****        -2.6487  -2.4159  -0.2828 C.3            1 S1                 0.0000
      3 ****        -1.9264  -1.2172  -0.0657 O.3            1 S1                 0.0000
      4 ****        -2.7471  -0.1824   0.4528 C.3            1 S1                 0.0000
      5 ****        -2.7620  -0.1134   1.9543 C.3            1 S1                 0.0000
      6 ****        -1.9696   0.9086   1.1581 C.3            1 S1                 0.0000
      7 ****        -0.5467   0.8073   1.1777 N.am           1 S1                 0.0000
      8 ****         0.3149   1.8328   1.1262 C.2            1 S1                 0.0000
      9 ****        -0.0286   3.0145   1.1009 O.2            1 S1                 0.0000
     10 ****         1.7978   1.4650   1.0805 C.3            1 S1                 0.0000
     11 ****         2.1820   1.0964  -0.3301 C.2            1 S1                 0.0000
     12 ****         2.1424  -0.1856  -0.9533 C.2            1 S1                 0.0000
     13 ****         1.7115  -1.5051  -0.3797 C.3            1 S1                 0.0000
     14 ****         2.5519  -0.1360  -2.2095 N.2            1 S1                 0.0000
     15 ****         2.8745   1.2017  -2.4560 O.3            1 S1                 0.0000
     16 ****         2.6435   1.9144  -1.3247 C.2            1 S1                 0.0000
     17 ****         2.9243   3.3775  -1.3895 C.3            1 S1                 0.0000
     18 ****        -2.2170  -4.4197  -1.0042 H              1 S1                 0.0000
     19 ****        -0.8850  -3.6782  -0.1199 H              1 S1                 0.0000
     20 ****        -1.2454  -3.1628  -1.7672 H              1 S1                 0.0000
     21 ****        -3.4574  -2.2427  -0.9943 H              1 S1                 0.0000
     22 ****        -3.0971  -2.7583   0.6510 H              1 S1                 0.0000
     23 ****        -3.6274   0.0780  -0.1325 H              1 S1                 0.0000
     24 ****        -3.6793   0.2258   2.4313 H              1 S1                 0.0000
     25 ****        -2.2089  -0.8755   2.5008 H              1 S1                 0.0000
     26 ****        -2.3977   1.9086   1.1047 H              1 S1                 0.0000
     27 ****        -0.1644  -0.1272   1.1888 H              1 S1                 0.0000
     28 ****         2.3846   2.3094   1.4437 H              1 S1                 0.0000
     29 ****         1.9889   0.6467   1.7758 H              1 S1                 0.0000
     30 ****         1.2441  -1.3869   0.5972 H              1 S1                 0.0000
     31 ****         2.5621  -2.1762  -0.2602 H              1 S1                 0.0000
     32 ****         0.9883  -1.9969  -1.0303 H              1 S1                 0.0000
     33 ****         2.3675   3.9163  -0.6227 H              1 S1                 0.0000
     34 ****         2.6390   3.7856  -2.3592 H              1 S1                 0.0000
     35 ****         3.9855   3.5730  -1.2372 H              1 S1                 0.0000
     36 ****        -1.5371  -0.9140  -0.9354 LP             1 S1                 0.0000
     37 ****        -1.1887  -1.3992   0.5844 LP             1 S1                 0.0000
     38 ****        -0.9995   3.2535   1.1188 LP             1 S1                 0.0000
     39 ****         0.6632   3.7356   1.0625 LP             1 S1                 0.0000
     40 ****         2.6174  -0.8995  -2.8520 LP             1 S1                 0.0000
     41 ****         2.3061   1.5546  -3.1992 LP             1 S1                 0.0000
     42 ****         3.8388   1.2750  -2.7102 LP             1 S1                 0.0000
@<TRIPOS>BOND
    1    1    2 1     
    2    1   18 1     
    3    1   19 1     
    4    1   20 1     
    5    2    3 1     
    6    2   21 1     
    7    2   22 1     
    8    3    4 1     
    9    4    6 1     
   10    4    5 1     
   11    4   23 1     
   12    5    6 1     
   13    5   24 1     
   14    5   25 1     
   15    6    7 1     
   16    6   26 1     
   17    7    8 am    
   18    7   27 1     
   19    8    9 2     
   20    8   10 1     
   21   10   11 1     
   22   10   28 1     
   23   10   29 1     
   24   11   16 2     
   25   11   12 1     
   26   12   13 1     
   27   12   14 2     
   28   13   30 1     
   29   13   31 1     
   30   13   32 1     
   31   14   15 1     
   32   15   16 1     
   33   16   17 1     
   34   17   33 1     
   35   17   34 1     
   36   17   35 1     
   37    3   36 1     
   38    3   37 1     
   39    9   38 1     
   40    9   39 1     
   41   14   40 1     
   42   15   41 1     
   43   15   42 1     
@<TRIPOS>SUBSTRUCTURE
      1 S1             1
@<TRIPOS>SET
LONE_PAIRS      STATIC     ATOMS    <user>   **** ""
7 36 37 38 39 40 41 42
DONOR_HYDROGENS      STATIC     ATOMS    <user>   **** ""
1 27
ATOM$BLUE        STATIC     ATOMS    COLORGROUP SYSTEM
7 36 37 38 39 40 41 42
ATOM$RED        STATIC     ATOMS    COLORGROUP SYSTEM
1 27
