AV-unprocessed.smi:1762|AV-procd|sdf|7119|dock4
  -GOLD-   22720 8353D 1   1.00000     0.00000
 Structure written by MMmdl.
 52 53  0  0  0  0  0  0  0  0  3 V2000
  150.5850  134.1946  155.7540 C   0  0  0  0  0  0  0  0  0  0  0  0
  149.4858  135.0404  155.1013 C   0  0  2  0  0  0  0  0  0  0  0  0
  149.8900  136.5220  154.9866 C   0  0  0  0  0  0  0  0  0  0  0  0
  148.7761  137.3376  154.4308 N   0  3  2  0  0  0  0  0  0  0  0  0
  149.1003  138.7839  154.1881 C   0  0  2  0  0  0  0  0  0  0  0  0
  149.6870  139.4332  155.4657 C   0  0  0  0  0  0  0  0  0  0  0  0
  149.5348  138.8543  156.5470 O   0  0  0  0  0  0  0  0  0  0  0  0
  150.3425  140.5888  155.1734 N   0  5  0  0  0  0  0  0  0  0  0  0
  150.3673  141.7638  156.0425 C   0  0  0  0  0  0  0  0  0  0  0  0
  151.3194  141.5269  157.2379 C   0  0  0  0  0  0  0  0  0  0  0  0
  151.4596  142.7014  158.2041 C   0  0  0  0  0  0  0  0  0  0  0  0
  152.4161  142.6667  159.2446 C   0  0  0  0  0  0  0  0  0  0  0  0
  152.5033  143.7662  160.1195 C   0  0  0  0  0  0  0  0  0  0  0  0
  151.6301  144.8542  159.9308 C   0  0  0  0  0  0  0  0  0  0  0  0
  150.7044  144.7932  158.8705 C   0  0  0  0  0  0  0  0  0  0  0  0
  150.6118  143.7440  158.0256 N   0  0  0  0  0  0  0  0  0  0  0  0
  147.9171  139.6361  153.6141 C   0  0  0  0  0  0  0  0  0  0  0  0
  147.0593  140.2886  154.7164 C   0  0  0  0  0  0  0  0  0  0  0  0
  147.0125  138.8863  152.6135 C   0  0  0  0  0  0  0  0  0  0  0  0
  147.5687  137.1474  155.2862 C   0  0  0  0  0  0  0  0  0  0  0  0
  147.1952  135.6609  155.4232 C   0  0  1  0  0  0  0  0  0  0  0  0
  146.5899  135.0600  154.1420 C   0  0  0  0  0  0  0  0  0  0  0  0
  148.3144  134.9185  155.8998 O   0  0  0  0  0  0  0  0  0  0  0  0
  151.5079  134.2335  155.1747 H   0  0  0  0  0  0  0  0  0  0  0  0
  150.2820  133.1495  155.8245 H   0  0  0  0  0  0  0  0  0  0  0  0
  150.8073  134.5454  156.7623 H   0  0  0  0  0  0  0  0  0  0  0  0
  149.2973  134.6355  154.1067 H   0  0  0  0  0  0  0  0  0  0  0  0
  150.1789  136.9181  155.9615 H   0  0  0  0  0  0  0  0  0  0  0  0
  150.7705  136.5635  154.3492 H   0  0  0  0  0  0  0  0  0  0  0  0
  149.8653  138.7766  153.4070 H   0  0  0  0  0  0  0  0  0  0  0  0
  150.6796  142.6573  155.5016 H   0  0  0  0  0  0  0  0  0  0  0  0
  149.3779  141.9927  156.4413 H   0  0  0  0  0  0  0  0  0  0  0  0
  150.9656  140.6639  157.8036 H   0  0  0  0  0  0  0  0  0  0  0  0
  152.3087  141.2494  156.8713 H   0  0  0  0  0  0  0  0  0  0  0  0
  153.0743  141.8183  159.3615 H   0  0  0  0  0  0  0  0  0  0  0  0
  153.2273  143.7743  160.9208 H   0  0  0  0  0  0  0  0  0  0  0  0
  151.6679  145.7142  160.5826 H   0  0  0  0  0  0  0  0  0  0  0  0
  150.0180  145.6086  158.6971 H   0  0  0  0  0  0  0  0  0  0  0  0
  148.3507  140.4833  153.0846 H   0  0  0  0  0  0  0  0  0  0  0  0
  146.4848  139.5511  155.2775 H   0  0  0  0  0  0  0  0  0  0  0  0
  146.3484  140.9969  154.2903 H   0  0  0  0  0  0  0  0  0  0  0  0
  147.6804  140.8358  155.4264 H   0  0  0  0  0  0  0  0  0  0  0  0
  146.4161  138.1177  153.1048 H   0  0  0  0  0  0  0  0  0  0  0  0
  147.5853  138.4034  151.8225 H   0  0  0  0  0  0  0  0  0  0  0  0
  146.3152  139.5742  152.1349 H   0  0  0  0  0  0  0  0  0  0  0  0
  147.7671  137.5664  156.2740 H   0  0  0  0  0  0  0  0  0  0  0  0
  146.7033  137.6818  154.8953 H   0  0  0  0  0  0  0  0  0  0  0  0
  146.4321  135.5818  156.1981 H   0  0  0  0  0  0  0  0  0  0  0  0
  145.6585  135.5643  153.8830 H   0  0  0  0  0  0  0  0  0  0  0  0
  146.3644  134.0022  154.2772 H   0  0  0  0  0  0  0  0  0  0  0  0
  147.2553  135.1549  153.2842 H   0  0  0  0  0  0  0  0  0  0  0  0
  148.5563  136.9505  153.5242 H   0  0  0  0  0  0  0  0  0  0  0  0
  1  2  1  0  0  0  0
  1 24  1  0  0  0  0
  1 25  1  0  0  0  0
  1 26  1  0  0  0  0
  2 23  1  0  0  0  0
  2  3  1  0  0  0  0
  2 27  1  0  0  0  0
  3  4  1  0  0  0  0
  3 28  1  0  0  0  0
  3 29  1  0  0  0  0
  4  5  1  0  0  0  0
  4 20  1  0  0  0  0
  4 52  1  0  0  0  0
  5  6  1  0  0  0  0
  5 17  1  0  0  0  0
  5 30  1  0  0  0  0
  6  7  2  0  0  0  0
  6  8  1  0  0  0  0
  8  9  1  0  0  0  0
  9 10  1  0  0  0  0
  9 31  1  0  0  0  0
  9 32  1  0  0  0  0
 10 11  1  0  0  0  0
 10 33  1  0  0  0  0
 10 34  1  0  0  0  0
 11 16  1  0  0  0  0
 11 12  2  0  0  0  0
 12 13  1  0  0  0  0
 12 35  1  0  0  0  0
 13 14  2  0  0  0  0
 13 36  1  0  0  0  0
 14 15  1  0  0  0  0
 14 37  1  0  0  0  0
 15 16  2  0  0  0  0
 15 38  1  0  0  0  0
 17 18  1  0  0  0  0
 17 19  1  0  0  0  0
 17 39  1  0  0  0  0
 18 40  1  0  0  0  0
 18 41  1  0  0  0  0
 18 42  1  0  0  0  0
 19 43  1  0  0  0  0
 19 44  1  0  0  0  0
 19 45  1  0  0  0  0
 20 21  1  0  0  0  0
 20 46  1  0  0  0  0
 20 47  1  0  0  0  0
 21 22  1  0  0  0  0
 21 23  1  0  0  0  0
 21 48  1  0  0  0  0
 22 49  1  0  0  0  0
 22 50  1  0  0  0  0
 22 51  1  0  0  0  0
M  CHG  1   4   1
M  CHG  1   8  -1
M  END
> <s_m_source_file>
AV-unprocessed.smi

> <i_m_source_file_index>
1762

> <i_lp_mmshare_version>
43012

> <i_f3d_flags>
0

> <s_epik_input>
W0NIM11bQ0BASF0xW0NIMl1OKFtDSDJdW0NASF0oTzEpW0NIM10pW0NAQEhdKFtDSF0oW0NIM10pW0NIM10pQyg9TylbTkhdW0NIMl1bQ0gyXWMyW2NIXVtjSF1bY0hdW2NIXW4y

> <s_epik_cmdline>
J2VwaWtfcHl0aG9uJywgJy1waCcsICc3LjAnLCAnLXRuJywgJzgnLCAnLW1hJywgJzIwMCcsICctbWV0YWxfYmluZGluZycsICctaW1hZScsICc8aW5maWxlLm1hZT4nLCAnLW9tYWUnLCAnPG91dGZpbGUubWFlPic=

> <r_epik_Ionization_Penalty>
7.82966

> <r_epik_Ionization_Penalty_Charging>
7.7461

> <r_epik_Ionization_Penalty_Neutral>
0.0835571

> <r_epik_State_Penalty>
8.52273

> <r_epik_Charging_Adjusted_Penalty>
16.2688

> <i_epik_Tot_Q>
0

> <i_epik_Tot_abs_Q>
2

> <r_epik_Metal_State_Penalty>
4.47451

> <b_epik_Metal_Only>
1

> <s_lp_Force_Field>
OPLS_2005

> <r_lp_Energy>
24.7252

> <b_lp_Chiralities_Consistent>
1

> <s_lp_Variant>
AV-unprocessed.smi:1762-21

> <Gold.Version>
5.8.1

> <Gold.Id.Protein>
6NUR|6NUR_protein|mol2

> <Gold.PLP.Fitness>
45.6635

> <Gold.PLP.PLP>
-36.0500

> <Gold.PLP.part.hbond>
-2.0000

> <Gold.PLP.part.metal>
0.0000

> <Gold.PLP.part.buried>
-2.6417

> <Gold.PLP.part.nonpolar>
-32.8171

> <Gold.PLP.part.repulsive>
1.1527

> <Gold.PLP.ligand.clash>
0.0000

> <Gold.PLP.ligand.torsion>
1.3095

> <Gold.PLP.Chemscore.Hbond>
2.9440

> <Gold.PLP.Chemscore.CHOScore>
1.0000

> <Gold.PLP.Chemscore.Metal>
0.0000

> <Gold.Chemscore.Hbonds>
donor molecule, donor type, donor heavy atom, donor atom, acceptor molecule, acceptor atom, score
      L1  H     4    52       P1  7948  2.00
      P1  H  7989  7998       L1     8  0.72
      L1  C    15    38       P1  8029  0.93

> <Gold.PLP.Chemscore.Internal.Correction>
0.4004

> <Gold.Rescore>
     Score         DG    S(hbond)    S(metal)    S(lipo)     H(rot)  DE(clash)    DE(int)     intcor
     16.15     -20.41       1.60        0.00     116.93       1.60       0.47       3.78       ----

> <Gold.Chemscore.Fitness>
16.1527

> <Gold.Chemscore.DG>
-20.4051

> <Gold.Chemscore.ZeroCoef>
-5.4800

> <Gold.Chemscore.Hbond>
1.5999

> <Gold.Chemscore.Metal>
0.0000

> <Gold.Chemscore.Lipo>
116.9274

> <Gold.Chemscore.Internal_Hbond>
0.0000

> <Gold.Chemscore.DEClash>
0.4699

> <Gold.Chemscore.DEInternal>
3.7825

> <Gold.Chemscore.Rot>
1.6012

> <Gold.Chemscore.Internal.Correction>
   9.000000E+99

> <Gold.Chemscore.Hbonds>
donor molecule, donor type, donor heavy atom, donor atom, acceptor molecule, acceptor atom, score
      L1  H     4    52       P1  7948  0.98
      P1  H  7989  7998       L1     8  0.50

> <Gold.Chemscore.Hbond.Weighted>
-5.3435

> <Gold.Chemscore.Metal.Weighted>
-0.0000

> <Gold.Chemscore.Lipo.Weighted>
-13.6805

> <Gold.Chemscore.Internal_Hbond.Weighted>
0.0000

> <Gold.Chemscore.DEClash.Weighted>
0.4699

> <Gold.Chemscore.DEInternal.Weighted>
3.7825

> <Gold.Chemscore.Rot.Weighted>
4.0990

> <Gold.Chemscore.Internal.Correction.Weighted>
   9.000000E+99

> <Gold.Protein.RotatedTorsions>
[ 6907 6896 6895 6894 ] final -153.30 input  -60.11 | X-H torsion
[ 7974 7965 7964 7962 ] final  -95.00 input  175.53 | X-H torsion
[ 8008 7997 7996 7995 ] final -109.40 input   59.86 | X-H torsion
[ 10167 10162 10161 10158 ] final -156.79 input  -65.29 | X-H torsion
[ 10718 10713 10712 10709 ] final  102.01 input   66.30 | X-H torsion
[ 10763 10752 10751 10750 ] final  102.56 input  -60.55 | X-H torsion
[ 11005 11000 10999 10996 ] final -153.68 input  -57.11 | X-H torsion

> <Gold.Protein.ActiveResidues>
 VAL166  LYS551  ARG553  GLY616  TRP617  ASP618  TYR619  PRO620  LYS621  CYS622 
 ASP623  PHE694  ASN695  SER759  ASP760  ASP761  ALA762  ILE779  LEU786  VAL792 
 PHE793  MET794  SER795  GLU796  ALA797  LYS798  CYS799  TRP800  GLU811  SER814 

> <Gold.Protein.RotatedAtoms>
  151.2405  133.4402  159.2606 H   0  0  0  0  0  0  0  0  0  0  0  0  # atno 6907 bound_to 6896
  151.0710  134.9798  159.8318 H   0  0  0  0  0  0  0  0  0  0  0  0  # atno 6908 bound_to 6896
  152.5412  134.2350  159.8892 H   0  0  0  0  0  0  0  0  0  0  0  0  # atno 6909 bound_to 6896
  145.3659  140.9498  143.2474 H   0  0  0  0  0  0  0  0  0  0  0  0  # atno 7974 bound_to 7965
  154.9588  140.0399  157.2180 H   0  0  0  0  0  0  0  0  0  0  0  0  # atno 8008 bound_to 7997
  154.7908  140.2835  155.5971 H   0  0  0  0  0  0  0  0  0  0  0  0  # atno 8009 bound_to 7997
  156.2949  140.2573  156.2755 H   0  0  0  0  0  0  0  0  0  0  0  0  # atno 8010 bound_to 7997
  139.6822  143.9562  152.2342 H   0  0  0  0  0  0  0  0  0  0  0  0  # atno 10167 bound_to 10162
  157.6814  131.0742  150.5340 H   0  0  0  0  0  0  0  0  0  0  0  0  # atno 10718 bound_to 10713
  153.3412  135.4006  155.1573 H   0  0  0  0  0  0  0  0  0  0  0  0  # atno 10763 bound_to 10752
  154.8644  135.3634  154.5343 H   0  0  0  0  0  0  0  0  0  0  0  0  # atno 10764 bound_to 10752
  153.5788  135.7077  153.5532 H   0  0  0  0  0  0  0  0  0  0  0  0  # atno 10765 bound_to 10752
  140.7056  134.3889  157.5204 H   0  0  0  0  0  0  0  0  0  0  0  0  # atno 11005 bound_to 11000
  144.8612  139.5175  143.6811 LP  0  0  0  0  0  0  0  0  0  0  0  0  # atno 17320 bound_to 7965
  146.2907  139.7131  142.9163 LP  0  0  0  0  0  0  0  0  0  0  0  0  # atno 17321 bound_to 7965
  139.9355  144.6714  150.8319 LP  0  0  0  0  0  0  0  0  0  0  0  0  # atno 17342 bound_to 10162
  140.7656  143.3280  151.2474 LP  0  0  0  0  0  0  0  0  0  0  0  0  # atno 17343 bound_to 10162
  156.5649  130.4265  149.6046 LP  0  0  0  0  0  0  0  0  0  0  0  0  # atno 17370 bound_to 10713
  156.2790  130.7060  151.1879 LP  0  0  0  0  0  0  0  0  0  0  0  0  # atno 17371 bound_to 10713
  139.8885  134.8854  156.2470 LP  0  0  0  0  0  0  0  0  0  0  0  0  # atno 17394 bound_to 11000
  141.0128  133.7086  156.1139 LP  0  0  0  0  0  0  0  0  0  0  0  0  # atno 17395 bound_to 11000

$$$$
