AV-unprocessed.smi:3150|AV-procd|sdf|12008|dock3
  -GOLD-   2272017413D 1   1.00000     0.00000
 Structure written by MMmdl.
 33 34  0  0  0  0  0  0  0  0  1 V2000
  151.6414  144.6299  158.2126 C   0  0  0  0  0  0  0  0  0  0  0  0
  151.9526  143.1609  158.5360 C   0  0  1  0  0  0  0  0  0  0  0  0
  151.6570  142.9507  159.9142 O   0  0  0  0  0  0  0  0  0  0  0  0
  152.7543  143.1157  160.8039 C   0  0  0  0  0  0  0  0  0  0  0  0
  153.4217  141.7730  161.0085 C   0  0  0  0  0  0  0  0  0  0  0  0
  154.6321  141.3905  160.1872 C   0  0  0  0  0  0  0  0  0  0  0  0
  153.3167  140.6913  159.9573 C   0  0  0  0  0  0  0  0  0  0  0  0
  151.1260  142.2051  157.6602 C   0  0  0  0  0  0  0  0  0  0  0  0
  149.8975  142.2888  157.6562 O   0  0  0  0  0  0  0  0  0  0  0  0
  151.8345  141.3066  156.9513 N   0  0  0  0  0  0  0  0  0  0  0  0
  151.3588  140.2959  156.0712 C   0  0  0  0  0  0  0  0  0  0  0  0
  150.2813  140.4638  155.2637 N   0  0  0  0  0  0  0  0  0  0  0  0
  149.8949  139.4547  154.4559 C   0  0  0  0  0  0  0  0  0  0  0  0
  150.5577  138.2156  154.4021 C   0  0  0  0  0  0  0  0  0  0  0  0
  151.6753  138.0263  155.2334 C   0  0  0  0  0  0  0  0  0  0  0  0
  152.0838  139.0768  156.0796 C   0  0  0  0  0  0  0  0  0  0  0  0
  153.1697  138.8983  156.8915 O   0  0  0  0  0  0  0  0  0  0  0  0
  151.8281  144.8521  157.1614 H   0  0  0  0  0  0  0  0  0  0  0  0
  152.2680  145.2965  158.8054 H   0  0  0  0  0  0  0  0  0  0  0  0
  150.6017  144.8782  158.4293 H   0  0  0  0  0  0  0  0  0  0  0  0
  153.0180  142.9937  158.3650 H   0  0  0  0  0  0  0  0  0  0  0  0
  153.4843  143.8281  160.4171 H   0  0  0  0  0  0  0  0  0  0  0  0
  152.4050  143.4853  161.7687 H   0  0  0  0  0  0  0  0  0  0  0  0
  153.4300  141.4389  162.0444 H   0  0  0  0  0  0  0  0  0  0  0  0
  154.9686  142.0875  159.4219 H   0  0  0  0  0  0  0  0  0  0  0  0
  155.4199  140.8285  160.6846 H   0  0  0  0  0  0  0  0  0  0  0  0
  153.2258  139.6637  160.3031 H   0  0  0  0  0  0  0  0  0  0  0  0
  152.7757  140.9244  159.0421 H   0  0  0  0  0  0  0  0  0  0  0  0
  152.8379  141.3457  157.0561 H   0  0  0  0  0  0  0  0  0  0  0  0
  149.0323  139.6416  153.8337 H   0  0  0  0  0  0  0  0  0  0  0  0
  150.2174  137.4326  153.7411 H   0  0  0  0  0  0  0  0  0  0  0  0
  152.2106  137.0883  155.2206 H   0  0  0  0  0  0  0  0  0  0  0  0
  153.0156  138.2741  157.5842 H   0  0  0  0  0  0  0  0  0  0  0  0
  1  2  1  0  0  0  0
  1 18  1  0  0  0  0
  1 19  1  0  0  0  0
  1 20  1  0  0  0  0
  2  3  1  0  0  0  0
  2  8  1  0  0  0  0
  2 21  1  0  0  0  0
  3  4  1  0  0  0  0
  4  5  1  0  0  0  0
  4 22  1  0  0  0  0
  4 23  1  0  0  0  0
  5  7  1  0  0  0  0
  5  6  1  0  0  0  0
  5 24  1  0  0  0  0
  6  7  1  0  0  0  0
  6 25  1  0  0  0  0
  6 26  1  0  0  0  0
  7 27  1  0  0  0  0
  7 28  1  0  0  0  0
  8  9  2  0  0  0  0
  8 10  1  0  0  0  0
 10 11  1  0  0  0  0
 10 29  1  0  0  0  0
 11 16  1  0  0  0  0
 11 12  2  0  0  0  0
 12 13  1  0  0  0  0
 13 14  2  0  0  0  0
 13 30  1  0  0  0  0
 14 15  1  0  0  0  0
 14 31  1  0  0  0  0
 15 16  2  0  0  0  0
 15 32  1  0  0  0  0
 16 17  1  0  0  0  0
 17 33  1  0  0  0  0
M  END
> <s_m_source_file>
AV-unprocessed.smi

> <i_m_source_file_index>
3150

> <i_lp_mmshare_version>
43012

> <i_f3d_flags>
0

> <s_epik_input>
W0NIMl0xW0NIMl1bQ0hdMVtDSDJdT1tDQEBIXShbQ0gzXSlDKD1PKVtOSF1jMm5bY0hdW2NIXVtjSF1jMltPSF0=

> <s_epik_cmdline>
J2VwaWtfcHl0aG9uJywgJy1waCcsICc3LjAnLCAnLXRuJywgJzgnLCAnLW1hJywgJzIwMCcsICctbWV0YWxfYmluZGluZycsICctaW1hZScsICc8aW5maWxlLm1hZT4nLCAnLW9tYWUnLCAnPG91dGZpbGUubWFlPic=

> <r_lp_tautomer_probability>
0.43658

> <r_epik_Ionization_Penalty>
0.0204299

> <r_epik_Ionization_Penalty_Charging>
0

> <r_epik_Ionization_Penalty_Neutral>
0.0204299

> <r_epik_State_Penalty>
0.419322

> <r_epik_Charging_Adjusted_Penalty>
0.419322

> <i_epik_Tot_Q>
0

> <i_epik_Tot_abs_Q>
0

> <r_epik_Metal_State_Penalty>
0.377394

> <b_epik_Metal_Only>
0

> <s_lp_Force_Field>
OPLS_2005

> <r_lp_Energy>
16.197

> <b_lp_Chiralities_Consistent>
1

> <s_lp_Variant>
AV-unprocessed.smi:3150-2

> <Gold.Version>
5.8.1

> <Gold.Id.Protein>
6NUR|6NUR_protein|mol2

> <Gold.PLP.Fitness>
40.8850

> <Gold.PLP.PLP>
-38.0518

> <Gold.PLP.part.hbond>
-1.9476

> <Gold.PLP.part.metal>
0.0000

> <Gold.PLP.part.buried>
-1.0871

> <Gold.PLP.part.nonpolar>
-34.4608

> <Gold.PLP.part.repulsive>
0.3533

> <Gold.PLP.ligand.clash>
0.0000

> <Gold.PLP.ligand.torsion>
1.4347

> <Gold.PLP.Chemscore.Hbond>
1.0000

> <Gold.PLP.Chemscore.CHOScore>
0.7007

> <Gold.PLP.Chemscore.Metal>
0.0000

> <Gold.Chemscore.Hbonds>
donor molecule, donor type, donor heavy atom, donor atom, acceptor molecule, acceptor atom, score
      P1  H  7989  7998       L1    12  0.01
      P1  H  7997  8008       L1    17  1.00
      L1  C    13    30       P1  7957  0.29

> <Gold.PLP.Chemscore.Internal.Correction>
0.6005

> <Gold.Rescore>
     Score         DG    S(hbond)    S(metal)    S(lipo)     H(rot)  DE(clash)    DE(int)     intcor
     12.29     -14.01       0.99        0.00      93.36       2.22       0.26       1.47       ----

> <Gold.Chemscore.Fitness>
12.2859

> <Gold.Chemscore.DG>
-14.0119

> <Gold.Chemscore.ZeroCoef>
-5.4800

> <Gold.Chemscore.Hbond>
0.9851

> <Gold.Chemscore.Metal>
0.0000

> <Gold.Chemscore.Lipo>
93.3583

> <Gold.Chemscore.Internal_Hbond>
0.0000

> <Gold.Chemscore.DEClash>
0.2556

> <Gold.Chemscore.DEInternal>
1.4704

> <Gold.Chemscore.Rot>
2.2192

> <Gold.Chemscore.Internal.Correction>
   9.000000E+99

> <Gold.Chemscore.Hbonds>
donor molecule, donor type, donor heavy atom, donor atom, acceptor molecule, acceptor atom, score
      P1  H  7997  8008       L1    17  0.78

> <Gold.Chemscore.Hbond.Weighted>
-3.2902

> <Gold.Chemscore.Metal.Weighted>
-0.0000

> <Gold.Chemscore.Lipo.Weighted>
-10.9229

> <Gold.Chemscore.Internal_Hbond.Weighted>
0.0000

> <Gold.Chemscore.DEClash.Weighted>
0.2556

> <Gold.Chemscore.DEInternal.Weighted>
1.4704

> <Gold.Chemscore.Rot.Weighted>
5.6812

> <Gold.Chemscore.Internal.Correction.Weighted>
   9.000000E+99

> <Gold.Protein.RotatedTorsions>
[ 6907 6896 6895 6894 ] final -141.73 input  -60.11 | X-H torsion
[ 7974 7965 7964 7962 ] final  -94.74 input  175.53 | X-H torsion
[ 8008 7997 7996 7995 ] final  -54.96 input   59.86 | X-H torsion
[ 10167 10162 10161 10158 ] final -116.36 input  -65.29 | X-H torsion
[ 10718 10713 10712 10709 ] final   -4.10 input   66.30 | X-H torsion
[ 10763 10752 10751 10750 ] final -145.37 input  -60.55 | X-H torsion
[ 11005 11000 10999 10996 ] final -153.96 input  -57.11 | X-H torsion

> <Gold.Protein.ActiveResidues>
 VAL166  LYS551  ARG553  GLY616  TRP617  ASP618  TYR619  PRO620  LYS621  CYS622 
 ASP623  PHE694  ASN695  SER759  ASP760  ASP761  ALA762  ILE779  LEU786  VAL792 
 PHE793  MET794  SER795  GLU796  ALA797  LYS798  CYS799  TRP800  GLU811  SER814 

> <Gold.Protein.RotatedAtoms>
  151.0776  133.5415  159.2622 H   0  0  0  0  0  0  0  0  0  0  0  0  # atno 6907 bound_to 6896
  151.2331  135.0561  159.9005 H   0  0  0  0  0  0  0  0  0  0  0  0  # atno 6908 bound_to 6896
  152.5420  134.0562  159.8185 H   0  0  0  0  0  0  0  0  0  0  0  0  # atno 6909 bound_to 6896
  145.3693  140.9503  143.2456 H   0  0  0  0  0  0  0  0  0  0  0  0  # atno 7974 bound_to 7965
  154.4179  140.1164  156.5400 H   0  0  0  0  0  0  0  0  0  0  0  0  # atno 8008 bound_to 7997
  155.6518  140.3496  155.4731 H   0  0  0  0  0  0  0  0  0  0  0  0  # atno 8009 bound_to 7997
  155.9786  140.1156  157.0737 H   0  0  0  0  0  0  0  0  0  0  0  0  # atno 8010 bound_to 7997
  140.0801  143.4796  152.1931 H   0  0  0  0  0  0  0  0  0  0  0  0  # atno 10167 bound_to 10162
  156.7663  130.5285  149.5775 H   0  0  0  0  0  0  0  0  0  0  0  0  # atno 10718 bound_to 10713
  154.8386  135.3415  154.6494 H   0  0  0  0  0  0  0  0  0  0  0  0  # atno 10763 bound_to 10752
  153.7107  135.6964  153.5043 H   0  0  0  0  0  0  0  0  0  0  0  0  # atno 10764 bound_to 10752
  153.2454  135.4371  155.0695 H   0  0  0  0  0  0  0  0  0  0  0  0  # atno 10765 bound_to 10752
  140.7025  134.3921  157.5208 H   0  0  0  0  0  0  0  0  0  0  0  0  # atno 11005 bound_to 11000
  144.8588  139.5208  143.6822 LP  0  0  0  0  0  0  0  0  0  0  0  0  # atno 17320 bound_to 7965
  146.2893  139.7092  142.9173 LP  0  0  0  0  0  0  0  0  0  0  0  0  # atno 17321 bound_to 7965
  139.5785  144.7499  151.3702 LP  0  0  0  0  0  0  0  0  0  0  0  0  # atno 17342 bound_to 10162
  140.7082  143.7459  150.7520 LP  0  0  0  0  0  0  0  0  0  0  0  0  # atno 17343 bound_to 10162
  156.1307  130.6175  151.0328 LP  0  0  0  0  0  0  0  0  0  0  0  0  # atno 17370 bound_to 10713
  157.6712  131.0861  150.7608 LP  0  0  0  0  0  0  0  0  0  0  0  0  # atno 17371 bound_to 10713
  139.8893  134.8834  156.2429 LP  0  0  0  0  0  0  0  0  0  0  0  0  # atno 17394 bound_to 11000
  141.0152  133.7073  156.1176 LP  0  0  0  0  0  0  0  0  0  0  0  0  # atno 17395 bound_to 11000

$$$$
