#       Name:                AV-unprocessed.smi:2821
#       Creating user name   scv26
#       Creation time:       Fri Mar 27 15:30:28 2020


#       File generated by GOLD software.
#

@<TRIPOS>MOLECULE
AV-unprocessed.smi:2821
    42    43     1
SMALL
NO_CHARGES


@<TRIPOS>ATOM
      1 ****        -3.4224   3.3162   0.8415 C.3            1 S1                 0.0000
      2 ****        -2.4371   2.1466   0.8973 C.3            1 S1                 0.0000
      3 ****        -3.1500   0.9355   0.6654 O.3            1 S1                 0.0000
      4 ****        -2.4382  -0.2459   0.6393 C.ar           1 S1                 0.0000
      5 ****        -3.1089  -1.4579   0.3696 C.ar           1 S1                 0.0000
      6 ****        -2.4566  -2.6402   0.3196 N.ar           1 S1                 0.0000
      7 ****        -1.1234  -2.6056   0.5373 C.ar           1 S1                 0.0000
      8 ****        -0.4380  -1.4003   0.8058 C.ar           1 S1                 0.0000
      9 ****         0.9487  -1.4309   1.0129 N.pl3          1 S1                 0.0000
     10 ****         1.7652  -0.2190   0.9545 C.3            1 S1                 0.0000
     11 ****         3.0782  -0.4443   1.7184 C.3            1 S1                 0.0000
     12 ****         2.0370   0.2496  -0.4971 C.3            1 S1                 0.0000
     13 ****         2.5421  -0.8302  -1.4722 C.3            1 S1                 0.0000
     14 ****         1.4277  -0.9377  -2.4951 C.3            1 S1                 0.0000
     15 ****         0.8227   0.4581  -2.4588 C.3            1 S1                 0.0000
     16 ****         0.8532   0.7888  -1.0804 O.3            1 S1                 0.0000
     17 ****        -1.1012  -0.2214   0.8674 N.ar           1 S1                 0.0000
     18 ****        -2.9127   4.2631   1.0197 H              1 S1                 0.0000
     19 ****        -4.2014   3.2079   1.5963 H              1 S1                 0.0000
     20 ****        -3.9053   3.3745  -0.1342 H              1 S1                 0.0000
     21 ****        -1.6630   2.2854   0.1403 H              1 S1                 0.0000
     22 ****        -1.9529   2.1212   1.8750 H              1 S1                 0.0000
     23 ****        -4.1736  -1.4782   0.1895 H              1 S1                 0.0000
     24 ****        -0.5995  -3.5493   0.4903 H              1 S1                 0.0000
     25 ****         1.4235  -2.3173   0.9229 H              1 S1                 0.0000
     26 ****         1.2412   0.5820   1.4770 H              1 S1                 0.0000
     27 ****         3.6859   0.4609   1.7296 H              1 S1                 0.0000
     28 ****         3.6747  -1.2387   1.2687 H              1 S1                 0.0000
     29 ****         2.8854  -0.7205   2.7556 H              1 S1                 0.0000
     30 ****         2.7639   1.0629  -0.4739 H              1 S1                 0.0000
     31 ****         3.4574  -0.4874  -1.9563 H              1 S1                 0.0000
     32 ****         2.7613  -1.7879  -1.0000 H              1 S1                 0.0000
     33 ****         1.7804  -1.2257  -3.4856 H              1 S1                 0.0000
     34 ****         0.6888  -1.6704  -2.1678 H              1 S1                 0.0000
     35 ****         1.4383   1.1649  -3.0173 H              1 S1                 0.0000
     36 ****        -0.1918   0.4905  -2.8564 H              1 S1                 0.0000
     37 ****        -3.6073   1.0256  -0.2193 LP             1 S1                 0.0000
     38 ****        -3.8359   0.8523   1.3883 LP             1 S1                 0.0000
     39 ****        -2.9361  -3.4972   0.1311 LP             1 S1                 0.0000
     40 ****         0.8508   1.7832  -0.9745 LP             1 S1                 0.0000
     41 ****         0.0503   0.4032  -0.6257 LP             1 S1                 0.0000
     42 ****        -0.6244   0.6333   1.0729 LP             1 S1                 0.0000
@<TRIPOS>BOND
    1    1    2 1     
    2    1   18 1     
    3    1   19 1     
    4    1   20 1     
    5    2    3 1     
    6    2   21 1     
    7    2   22 1     
    8    3    4 1     
    9    4   17 ar    
   10    4    5 ar    
   11    5    6 ar    
   12    5   23 1     
   13    6    7 ar    
   14    7    8 ar    
   15    7   24 1     
   16    8    9 1     
   17    8   17 ar    
   18    9   10 1     
   19    9   25 1     
   20   10   11 1     
   21   10   12 1     
   22   10   26 1     
   23   11   27 1     
   24   11   28 1     
   25   11   29 1     
   26   12   16 1     
   27   12   13 1     
   28   12   30 1     
   29   13   14 1     
   30   13   31 1     
   31   13   32 1     
   32   14   15 1     
   33   14   33 1     
   34   14   34 1     
   35   15   16 1     
   36   15   35 1     
   37   15   36 1     
   38    3   37 1     
   39    3   38 1     
   40    6   39 1     
   41   16   40 1     
   42   16   41 1     
   43   17   42 1     
@<TRIPOS>SUBSTRUCTURE
      1 S1             1
@<TRIPOS>SET
LONE_PAIRS      STATIC     ATOMS    <user>   **** ""
6 37 38 39 40 41 42
DONOR_HYDROGENS      STATIC     ATOMS    <user>   **** ""
1 25
ATOM$BLUE        STATIC     ATOMS    COLORGROUP SYSTEM
6 37 38 39 40 41 42
ATOM$RED        STATIC     ATOMS    COLORGROUP SYSTEM
1 25
