AV-unprocessed.smi:2457|AV-procd|sdf|9705|dock7
  -GOLD-   2272013343D 1   1.00000     0.00000
 Structure written by MMmdl.
 40 41  0  0  0  0  0  0  0  0  1 V2000
  145.4179  145.1931  152.4450 C   0  0  0  0  0  0  0  0  0  0  0  0
  145.7746  144.1355  153.4413 C   0  0  0  0  0  0  0  0  0  0  0  0
  145.5309  144.1569  154.7918 C   0  0  0  0  0  0  0  0  0  0  0  0
  146.1095  142.7146  155.5790 S   0  0  0  0  0  0  0  0  0  0  0  0
  146.6690  142.1234  154.0177 C   0  0  0  0  0  0  0  0  0  0  0  0
  147.3713  140.8108  153.8434 C   0  0  1  0  0  0  0  0  0  0  0  0
  146.8285  140.0171  152.6465 C   0  0  0  0  0  0  0  0  0  0  0  0
  148.9110  140.9412  153.8323 C   0  0  0  0  0  0  0  0  0  0  0  0
  149.4035  141.9523  154.7643 N   0  0  0  0  0  0  0  0  0  0  0  0
  150.3925  141.7639  155.6483 C   0  0  0  0  0  0  0  0  0  0  0  0
  151.0363  140.7195  155.7504 O   0  0  0  0  0  0  0  0  0  0  0  0
  150.5779  142.8412  156.4235 N   0  0  0  0  0  0  0  0  0  0  0  0
  151.5369  142.9319  157.5203 C   0  0  2  0  0  0  0  0  0  0  0  0
  151.3536  141.7386  158.4813 C   0  0  0  0  0  0  0  0  0  0  0  0
  152.3729  141.7438  159.6314 C   0  0  0  0  0  0  0  0  0  0  0  0
  152.2609  143.0005  160.5062 C   0  0  0  0  0  0  0  0  0  0  0  0
  152.5999  144.5019  159.5471 S   0  0  0  0  0  0  0  0  0  0  0  0
  151.3592  144.2787  158.2425 C   0  0  0  0  0  0  0  0  0  0  0  0
  146.4282  142.9756  153.0166 N   0  0  0  0  0  0  0  0  0  0  0  0
  144.8745  146.0145  152.9123 H   0  0  0  0  0  0  0  0  0  0  0  0
  144.7864  144.7896  151.6530 H   0  0  0  0  0  0  0  0  0  0  0  0
  146.3097  145.6108  151.9776 H   0  0  0  0  0  0  0  0  0  0  0  0
  145.0466  144.9299  155.3698 H   0  0  0  0  0  0  0  0  0  0  0  0
  147.1176  140.2200  154.7243 H   0  0  0  0  0  0  0  0  0  0  0  0
  145.7537  139.8568  152.7370 H   0  0  0  0  0  0  0  0  0  0  0  0
  147.3039  139.0384  152.5771 H   0  0  0  0  0  0  0  0  0  0  0  0
  147.0096  140.5417  151.7079 H   0  0  0  0  0  0  0  0  0  0  0  0
  149.3795  139.9788  154.0436 H   0  0  0  0  0  0  0  0  0  0  0  0
  149.2446  141.2332  152.8363 H   0  0  0  0  0  0  0  0  0  0  0  0
  148.9312  142.8444  154.7588 H   0  0  0  0  0  0  0  0  0  0  0  0
  149.9932  143.6482  156.2634 H   0  0  0  0  0  0  0  0  0  0  0  0
  152.5470  142.9021  157.1065 H   0  0  0  0  0  0  0  0  0  0  0  0
  150.3419  141.7426  158.8892 H   0  0  0  0  0  0  0  0  0  0  0  0
  151.4545  140.8030  157.9297 H   0  0  0  0  0  0  0  0  0  0  0  0
  152.2177  140.8601  160.2511 H   0  0  0  0  0  0  0  0  0  0  0  0
  153.3836  141.6620  159.2295 H   0  0  0  0  0  0  0  0  0  0  0  0
  151.2637  143.0736  160.9413 H   0  0  0  0  0  0  0  0  0  0  0  0
  152.9684  142.9481  161.3339 H   0  0  0  0  0  0  0  0  0  0  0  0
  151.4546  145.1050  157.5371 H   0  0  0  0  0  0  0  0  0  0  0  0
  150.3650  144.3492  158.6850 H   0  0  0  0  0  0  0  0  0  0  0  0
  1  2  1  0  0  0  0
  1 20  1  0  0  0  0
  1 21  1  0  0  0  0
  1 22  1  0  0  0  0
  2 19  1  0  0  0  0
  2  3  2  0  0  0  0
  3  4  1  0  0  0  0
  3 23  1  0  0  0  0
  4  5  1  0  0  0  0
  5  6  1  0  0  0  0
  5 19  2  0  0  0  0
  6  7  1  0  0  0  0
  6  8  1  0  0  0  0
  6 24  1  0  0  0  0
  7 25  1  0  0  0  0
  7 26  1  0  0  0  0
  7 27  1  0  0  0  0
  8  9  1  0  0  0  0
  8 28  1  0  0  0  0
  8 29  1  0  0  0  0
  9 10  1  0  0  0  0
  9 30  1  0  0  0  0
 10 11  2  0  0  0  0
 10 12  1  0  0  0  0
 12 13  1  0  0  0  0
 12 31  1  0  0  0  0
 13 18  1  0  0  0  0
 13 14  1  0  0  0  0
 13 32  1  0  0  0  0
 14 15  1  0  0  0  0
 14 33  1  0  0  0  0
 14 34  1  0  0  0  0
 15 16  1  0  0  0  0
 15 35  1  0  0  0  0
 15 36  1  0  0  0  0
 16 17  1  0  0  0  0
 16 37  1  0  0  0  0
 16 38  1  0  0  0  0
 17 18  1  0  0  0  0
 18 39  1  0  0  0  0
 18 40  1  0  0  0  0
M  END
> <s_m_source_file>
AV-unprocessed.smi

> <i_m_source_file_index>
2457

> <i_lp_mmshare_version>
43012

> <i_f3d_flags>
0

> <s_epik_input>
W0NIM11jMVtjSF1zYyhuMSlbQ0BIXShbQ0gzXSlbQ0gyXVtOSF1DKD1PKVtOSF1bQ0BASF0yW0NIMl1bQ0gyXVtDSDJdU1tDSDJdMg==

> <s_epik_cmdline>
J2VwaWtfcHl0aG9uJywgJy1waCcsICc3LjAnLCAnLXRuJywgJzgnLCAnLW1hJywgJzIwMCcsICctbWV0YWxfYmluZGluZycsICctaW1hZScsICc8aW5maWxlLm1hZT4nLCAnLW9tYWUnLCAnPG91dGZpbGUubWFlPic=

> <r_epik_Ionization_Penalty>
0.00154805

> <r_epik_Ionization_Penalty_Charging>
0

> <r_epik_Ionization_Penalty_Neutral>
0.00154805

> <r_epik_State_Penalty>
0.00100357

> <r_epik_Charging_Adjusted_Penalty>
0.00100357

> <i_epik_Tot_Q>
0

> <i_epik_Tot_abs_Q>
0

> <r_epik_Metal_State_Penalty>
-0

> <b_epik_Metal_Only>
0

> <s_lp_Force_Field>
OPLS_2005

> <r_lp_Energy>
-7.39523

> <b_lp_Chiralities_Consistent>
1

> <s_lp_Variant>
AV-unprocessed.smi:2457-2

> <Gold.Version>
5.8.1

> <Gold.Id.Protein>
6NUR|6NUR_protein|mol2

> <Gold.PLP.Fitness>
46.9079

> <Gold.PLP.PLP>
-41.4506

> <Gold.PLP.part.hbond>
-3.0000

> <Gold.PLP.part.metal>
0.0000

> <Gold.PLP.part.buried>
0.9774

> <Gold.PLP.part.nonpolar>
-36.2193

> <Gold.PLP.part.repulsive>
0.6654

> <Gold.PLP.ligand.clash>
0.0000

> <Gold.PLP.ligand.torsion>
0.7691

> <Gold.PLP.Chemscore.Hbond>
2.2915

> <Gold.PLP.Chemscore.CHOScore>
0.0000

> <Gold.PLP.Chemscore.Metal>
0.0000

> <Gold.Chemscore.Hbonds>
donor molecule, donor type, donor heavy atom, donor atom, acceptor molecule, acceptor atom, score
      L1  H     9    30       P1  8028  0.83
      L1  H    12    31       P1  8028  1.00
      P1  H  7989  7998       L1    11  0.10

> <Gold.PLP.Chemscore.Internal.Correction>
0.1209

> <Gold.Rescore>
     Score         DG    S(hbond)    S(metal)    S(lipo)     H(rot)  DE(clash)    DE(int)     intcor
     18.12     -19.99       1.43        0.00     115.13       1.46       1.07       0.81       ----

> <Gold.Chemscore.Fitness>
18.1192

> <Gold.Chemscore.DG>
-19.9925

> <Gold.Chemscore.ZeroCoef>
-5.4800

> <Gold.Chemscore.Hbond>
1.4323

> <Gold.Chemscore.Metal>
0.0000

> <Gold.Chemscore.Lipo>
115.1311

> <Gold.Chemscore.Internal_Hbond>
0.0000

> <Gold.Chemscore.DEClash>
1.0677

> <Gold.Chemscore.DEInternal>
0.8057

> <Gold.Chemscore.Rot>
1.4616

> <Gold.Chemscore.Internal.Correction>
   9.000000E+99

> <Gold.Chemscore.Hbonds>
donor molecule, donor type, donor heavy atom, donor atom, acceptor molecule, acceptor atom, score
      L1  H     9    30       P1  8028  0.78
      L1  H    12    31       P1  8028  1.00

> <Gold.Chemscore.Hbond.Weighted>
-4.7838

> <Gold.Chemscore.Metal.Weighted>
-0.0000

> <Gold.Chemscore.Lipo.Weighted>
-13.4703

> <Gold.Chemscore.Internal_Hbond.Weighted>
0.0000

> <Gold.Chemscore.DEClash.Weighted>
1.0677

> <Gold.Chemscore.DEInternal.Weighted>
0.8057

> <Gold.Chemscore.Rot.Weighted>
3.7416

> <Gold.Chemscore.Internal.Correction.Weighted>
   9.000000E+99

> <Gold.Protein.RotatedTorsions>
[ 6907 6896 6895 6894 ] final  -31.12 input  -60.11 | X-H torsion
[ 7974 7965 7964 7962 ] final  175.13 input  175.53 | X-H torsion
[ 8008 7997 7996 7995 ] final -100.28 input   59.86 | X-H torsion
[ 10167 10162 10161 10158 ] final    8.03 input  -65.29 | X-H torsion
[ 10718 10713 10712 10709 ] final -179.53 input   66.30 | X-H torsion
[ 10763 10752 10751 10750 ] final  112.56 input  -60.55 | X-H torsion
[ 11005 11000 10999 10996 ] final   81.31 input  -57.11 | X-H torsion

> <Gold.Protein.ActiveResidues>
 VAL166  LYS551  ARG553  GLY616  TRP617  ASP618  TYR619  PRO620  LYS621  CYS622 
 ASP623  PHE694  ASN695  SER759  ASP760  ASP761  ALA762  ILE779  LEU786  VAL792 
 PHE793  MET794  SER795  GLU796  ALA797  LYS798  CYS799  TRP800  GLU811  SER814 

> <Gold.Protein.RotatedAtoms>
  151.0963  134.9946  159.8426 H   0  0  0  0  0  0  0  0  0  0  0  0  # atno 6907 bound_to 6896
  152.5433  134.2004  159.8720 H   0  0  0  0  0  0  0  0  0  0  0  0  # atno 6908 bound_to 6896
  151.2044  133.4548  159.2630 H   0  0  0  0  0  0  0  0  0  0  0  0  # atno 6909 bound_to 6896
  144.7207  139.9901  143.6440 H   0  0  0  0  0  0  0  0  0  0  0  0  # atno 7974 bound_to 7965
  154.8264  140.0442  157.1447 H   0  0  0  0  0  0  0  0  0  0  0  0  # atno 8008 bound_to 7997
  154.9201  140.3025  155.5200 H   0  0  0  0  0  0  0  0  0  0  0  0  # atno 8009 bound_to 7997
  156.2984  140.2342  156.4250 H   0  0  0  0  0  0  0  0  0  0  0  0  # atno 8010 bound_to 7997
  140.6338  143.7934  150.7331 H   0  0  0  0  0  0  0  0  0  0  0  0  # atno 10167 bound_to 10162
  156.8605  130.9750  151.3084 H   0  0  0  0  0  0  0  0  0  0  0  0  # atno 10718 bound_to 10713
  153.4797  135.3682  155.2435 H   0  0  0  0  0  0  0  0  0  0  0  0  # atno 10763 bound_to 10752
  154.8755  135.3951  154.3715 H   0  0  0  0  0  0  0  0  0  0  0  0  # atno 10764 bound_to 10752
  153.4316  135.7082  153.6292 H   0  0  0  0  0  0  0  0  0  0  0  0  # atno 10765 bound_to 10752
  139.9103  134.7987  156.2024 H   0  0  0  0  0  0  0  0  0  0  0  0  # atno 11005 bound_to 11000
  146.0418  139.3429  143.0692 LP  0  0  0  0  0  0  0  0  0  0  0  0  # atno 17320 bound_to 7965
  145.8325  140.9623  143.0841 LP  0  0  0  0  0  0  0  0  0  0  0  0  # atno 17321 bound_to 7965
  140.1551  143.4324  152.2105 LP  0  0  0  0  0  0  0  0  0  0  0  0  # atno 17342 bound_to 10162
  139.5549  144.7366  151.4323 LP  0  0  0  0  0  0  0  0  0  0  0  0  # atno 17343 bound_to 10162
  157.6253  130.8686  149.9178 LP  0  0  0  0  0  0  0  0  0  0  0  0  # atno 17370 bound_to 10713
  156.0779  130.3676  150.0640 LP  0  0  0  0  0  0  0  0  0  0  0  0  # atno 17371 bound_to 10713
  141.0516  133.6886  156.1783 LP  0  0  0  0  0  0  0  0  0  0  0  0  # atno 17394 bound_to 11000
  140.6801  134.4776  157.5589 LP  0  0  0  0  0  0  0  0  0  0  0  0  # atno 17395 bound_to 11000

$$$$
