AV-unprocessed.smi:625|AV-procd|sdf|3102|dock10
  -GOLD-   22720 0 23D 1   1.00000     0.00000
 Structure written by MMmdl.
 49 51  0  0  0  0  0  0  0  0  1 V2000
  146.8451  140.6098  152.8373 C   0  0  0  0  0  0  0  0  0  0  0  0
  147.7823  139.7123  153.4955 N   0  0  0  0  0  0  0  0  0  0  0  0
  148.9883  140.0789  153.9595 C   0  0  0  0  0  0  0  0  0  0  0  0
  149.3960  141.2378  153.8598 O   0  0  0  0  0  0  0  0  0  0  0  0
  149.7406  138.9858  154.5799 C   0  0  0  0  0  0  0  0  0  0  0  0
  151.1896  138.8716  154.5116 C   0  0  0  0  0  0  0  0  0  0  0  0
  151.8213  137.8219  155.0739 C   0  0  0  0  0  0  0  0  0  0  0  0
  151.0882  136.7595  155.7694 C   0  0  0  0  0  0  0  0  0  0  0  0
  151.6609  135.7889  156.2647 O   0  0  0  0  0  0  0  0  0  0  0  0
  149.7313  136.9155  155.8263 N   0  0  0  0  0  0  0  0  0  0  0  0
  148.8637  135.9038  156.4487 C   0  0  0  0  0  0  0  0  0  0  0  0
  148.8434  136.0743  157.9710 C   0  0  0  0  0  0  0  0  0  0  0  0
  149.8360  135.7870  158.6402 O   0  0  0  0  0  0  0  0  0  0  0  0
  147.6939  136.5216  158.4987 N   0  0  0  0  0  0  0  0  0  0  0  0
  147.3732  136.5705  159.9227 C   0  0  1  0  0  0  0  0  0  0  0  0
  145.8866  136.9161  160.0983 C   0  0  0  0  0  0  0  0  0  0  0  0
  147.7447  135.2190  160.5797 C   0  0  2  0  0  0  0  0  0  0  0  0
  146.7970  134.0476  160.2375 C   0  0  0  0  0  0  0  0  0  0  0  0
  146.4700  133.4508  161.6201 C   0  0  2  0  0  0  0  0  0  0  0  0
  145.5016  134.3916  162.3605 C   0  0  0  0  0  0  0  0  0  0  0  0
  146.4051  135.5803  162.7342 C   0  0  0  0  0  0  0  0  0  0  0  0
  147.7663  135.1773  162.1302 C   0  0  1  0  0  0  0  0  0  0  0  0
  147.7693  133.6742  162.3856 C   0  0  0  0  0  0  0  0  0  0  0  0
  149.0776  138.0152  155.2363 C   0  0  0  0  0  0  0  0  0  0  0  0
  145.9339  140.0708  152.5778 H   0  0  0  0  0  0  0  0  0  0  0  0
  147.2749  141.0141  151.9199 H   0  0  0  0  0  0  0  0  0  0  0  0
  146.5761  141.4401  153.4917 H   0  0  0  0  0  0  0  0  0  0  0  0
  147.4989  138.7496  153.6063 H   0  0  0  0  0  0  0  0  0  0  0  0
  151.7894  139.6191  154.0135 H   0  0  0  0  0  0  0  0  0  0  0  0
  152.8978  137.7585  155.0096 H   0  0  0  0  0  0  0  0  0  0  0  0
  147.8392  135.9500  156.0768 H   0  0  0  0  0  0  0  0  0  0  0  0
  149.2215  134.9067  156.1848 H   0  0  0  0  0  0  0  0  0  0  0  0
  146.9452  136.7523  157.8619 H   0  0  0  0  0  0  0  0  0  0  0  0
  147.9508  137.3584  160.4084 H   0  0  0  0  0  0  0  0  0  0  0  0
  145.6166  136.9779  161.1526 H   0  0  0  0  0  0  0  0  0  0  0  0
  145.2456  136.1657  159.6346 H   0  0  0  0  0  0  0  0  0  0  0  0
  145.6531  137.8797  159.6444 H   0  0  0  0  0  0  0  0  0  0  0  0
  148.7474  134.9525  160.2402 H   0  0  0  0  0  0  0  0  0  0  0  0
  145.8950  134.3659  159.7134 H   0  0  0  0  0  0  0  0  0  0  0  0
  147.3052  133.3181  159.6058 H   0  0  0  0  0  0  0  0  0  0  0  0
  146.1287  132.4161  161.5804 H   0  0  0  0  0  0  0  0  0  0  0  0
  144.6572  134.6906  161.7384 H   0  0  0  0  0  0  0  0  0  0  0  0
  145.1045  133.9158  163.2580 H   0  0  0  0  0  0  0  0  0  0  0  0
  146.0271  136.5299  162.3585 H   0  0  0  0  0  0  0  0  0  0  0  0
  146.4836  135.6714  163.8183 H   0  0  0  0  0  0  0  0  0  0  0  0
  148.6111  135.7073  162.5711 H   0  0  0  0  0  0  0  0  0  0  0  0
  147.6997  133.4141  163.4436 H   0  0  0  0  0  0  0  0  0  0  0  0
  148.6257  133.1593  161.9465 H   0  0  0  0  0  0  0  0  0  0  0  0
  148.0014  137.9959  155.3403 H   0  0  0  0  0  0  0  0  0  0  0  0
  1  2  1  0  0  0  0
  1 25  1  0  0  0  0
  1 26  1  0  0  0  0
  1 27  1  0  0  0  0
  2  3  1  0  0  0  0
  2 28  1  0  0  0  0
  3  4  2  0  0  0  0
  3  5  1  0  0  0  0
  5 24  2  0  0  0  0
  5  6  1  0  0  0  0
  6  7  2  0  0  0  0
  6 29  1  0  0  0  0
  7  8  1  0  0  0  0
  7 30  1  0  0  0  0
  8  9  2  0  0  0  0
  8 10  1  0  0  0  0
 10 11  1  0  0  0  0
 10 24  1  0  0  0  0
 11 12  1  0  0  0  0
 11 31  1  0  0  0  0
 11 32  1  0  0  0  0
 12 13  2  0  0  0  0
 12 14  1  0  0  0  0
 14 15  1  0  0  0  0
 14 33  1  0  0  0  0
 15 16  1  0  0  0  0
 15 17  1  0  0  0  0
 15 34  1  0  0  0  0
 16 35  1  0  0  0  0
 16 36  1  0  0  0  0
 16 37  1  0  0  0  0
 17 22  1  0  0  0  0
 17 18  1  0  0  0  0
 17 38  1  0  0  0  0
 18 19  1  0  0  0  0
 18 39  1  0  0  0  0
 18 40  1  0  0  0  0
 19 23  1  0  0  0  0
 19 20  1  0  0  0  0
 19 41  1  0  0  0  0
 20 21  1  0  0  0  0
 20 42  1  0  0  0  0
 20 43  1  0  0  0  0
 21 22  1  0  0  0  0
 21 44  1  0  0  0  0
 21 45  1  0  0  0  0
 22 23  1  0  0  0  0
 22 46  1  0  0  0  0
 23 47  1  0  0  0  0
 23 48  1  0  0  0  0
 24 49  1  0  0  0  0
M  END
> <s_m_source_file>
AV-unprocessed.smi

> <i_m_source_file_index>
625

> <i_lp_mmshare_version>
43012

> <i_f3d_flags>
0

> <s_epik_input>
W0NIM11bTkhdQyg9TyljMVtjSF1bY0hdYyg9TyluKFtjSF0xKVtDSDJdQyg9TylbTkhdW0NASF0oW0NIM10pW0NASF0oW0NIMl1bQ0BIXTIzKVtDQEhdKFtDSDJdMylbQ0gyXVtDSDJdMg==

> <s_epik_cmdline>
J2VwaWtfcHl0aG9uJywgJy1waCcsICc3LjAnLCAnLXRuJywgJzgnLCAnLW1hJywgJzIwMCcsICctbWV0YWxfYmluZGluZycsICctaW1hZScsICc8aW5maWxlLm1hZT4nLCAnLW9tYWUnLCAnPG91dGZpbGUubWFlPic=

> <r_lp_tautomer_probability>
1

> <r_epik_Ionization_Penalty>
3.7129e-07

> <r_epik_Ionization_Penalty_Charging>
5.04114e-08

> <r_epik_Ionization_Penalty_Neutral>
3.20879e-07

> <r_epik_State_Penalty>
-0

> <r_epik_Charging_Adjusted_Penalty>
5.04114e-08

> <i_epik_Tot_Q>
0

> <i_epik_Tot_abs_Q>
0

> <r_epik_Metal_State_Penalty>
-0

> <b_epik_Metal_Only>
0

> <s_lp_Force_Field>
OPLS_2005

> <r_lp_Energy>
63.4228

> <b_lp_Chiralities_Consistent>
1

> <s_lp_Variant>
AV-unprocessed.smi:625-2

> <Gold.Version>
5.8.1

> <Gold.Id.Protein>
6NUR|6NUR_protein|mol2

> <Gold.PLP.Fitness>
43.7716

> <Gold.PLP.PLP>
-37.0904

> <Gold.PLP.part.hbond>
-5.0000

> <Gold.PLP.part.metal>
0.0000

> <Gold.PLP.part.buried>
-2.4898

> <Gold.PLP.part.nonpolar>
-29.1468

> <Gold.PLP.part.repulsive>
0.3431

> <Gold.PLP.ligand.clash>
0.0000

> <Gold.PLP.ligand.torsion>
1.1025

> <Gold.PLP.Chemscore.Hbond>
2.9457

> <Gold.PLP.Chemscore.CHOScore>
0.0000

> <Gold.PLP.Chemscore.Metal>
0.0000

> <Gold.Chemscore.Hbonds>
donor molecule, donor type, donor heavy atom, donor atom, acceptor molecule, acceptor atom, score
      P1  H  6896  6909       L1    13  0.94
      P1  H  7989  7998       L1     4  0.12
      P1  H  8011  8017       L1     4  0.85
      P1  H 10752 10765       L1     9  1.00

> <Gold.PLP.Chemscore.Internal.Correction>
0.0492

> <Gold.Rescore>
     Score         DG    S(hbond)    S(metal)    S(lipo)     H(rot)  DE(clash)    DE(int)     intcor
     17.92     -20.35       2.62        0.00      88.76       1.67       0.10       2.33       ----

> <Gold.Chemscore.Fitness>
17.9186

> <Gold.Chemscore.DG>
-20.3463

> <Gold.Chemscore.ZeroCoef>
-5.4800

> <Gold.Chemscore.Hbond>
2.6225

> <Gold.Chemscore.Metal>
0.0000

> <Gold.Chemscore.Lipo>
88.7575

> <Gold.Chemscore.Internal_Hbond>
0.0000

> <Gold.Chemscore.DEClash>
0.0966

> <Gold.Chemscore.DEInternal>
2.3310

> <Gold.Chemscore.Rot>
1.6709

> <Gold.Chemscore.Internal.Correction>
   9.000000E+99

> <Gold.Chemscore.Hbonds>
donor molecule, donor type, donor heavy atom, donor atom, acceptor molecule, acceptor atom, score
      P1  H  6896  6909       L1    13  0.91
      P1  H  7989  7998       L1     4  0.05
      P1  H  8011  8017       L1     4  0.82
      P1  H 10752 10765       L1     9  0.44

> <Gold.Chemscore.Hbond.Weighted>
-8.7591

> <Gold.Chemscore.Metal.Weighted>
-0.0000

> <Gold.Chemscore.Lipo.Weighted>
-10.3846

> <Gold.Chemscore.Internal_Hbond.Weighted>
0.0000

> <Gold.Chemscore.DEClash.Weighted>
0.0966

> <Gold.Chemscore.DEInternal.Weighted>
2.3310

> <Gold.Chemscore.Rot.Weighted>
4.2774

> <Gold.Chemscore.Internal.Correction.Weighted>
   9.000000E+99

> <Gold.Protein.RotatedTorsions>
[ 6907 6896 6895 6894 ] final   41.01 input  -60.11 | X-H torsion
[ 7974 7965 7964 7962 ] final   10.62 input  175.53 | X-H torsion
[ 8008 7997 7996 7995 ] final -161.74 input   59.86 | X-H torsion
[ 10167 10162 10161 10158 ] final   80.05 input  -65.29 | X-H torsion
[ 10718 10713 10712 10709 ] final  160.09 input   66.30 | X-H torsion
[ 10763 10752 10751 10750 ] final -149.61 input  -60.55 | X-H torsion
[ 11005 11000 10999 10996 ] final  114.43 input  -57.11 | X-H torsion

> <Gold.Protein.ActiveResidues>
 VAL166  LYS551  ARG553  GLY616  TRP617  ASP618  TYR619  PRO620  LYS621  CYS622 
 ASP623  PHE694  ASN695  SER759  ASP760  ASP761  ALA762  ILE779  LEU786  VAL792 
 PHE793  MET794  SER795  GLU796  ALA797  LYS798  CYS799  TRP800  GLU811  SER814 

> <Gold.Protein.RotatedAtoms>
  152.1899  134.8681  160.0518 H   0  0  0  0  0  0  0  0  0  0  0  0  # atno 6907 bound_to 6896
  151.9574  133.3679  159.4030 H   0  0  0  0  0  0  0  0  0  0  0  0  # atno 6908 bound_to 6896
  150.6933  134.4200  159.5244 H   0  0  0  0  0  0  0  0  0  0  0  0  # atno 6909 bound_to 6896
  146.2385  139.9607  142.8459 H   0  0  0  0  0  0  0  0  0  0  0  0  # atno 7974 bound_to 7965
  155.7966  140.0886  157.1980 H   0  0  0  0  0  0  0  0  0  0  0  0  # atno 8008 bound_to 7997
  154.3983  140.1480  156.3284 H   0  0  0  0  0  0  0  0  0  0  0  0  # atno 8009 bound_to 7997
  155.8505  140.3435  155.5693 H   0  0  0  0  0  0  0  0  0  0  0  0  # atno 8010 bound_to 7997
  139.9538  144.6008  150.8135 H   0  0  0  0  0  0  0  0  0  0  0  0  # atno 10167 bound_to 10162
  157.1552  131.0573  151.2260 H   0  0  0  0  0  0  0  0  0  0  0  0  # atno 10718 bound_to 10713
  154.8167  135.3305  154.7155 H   0  0  0  0  0  0  0  0  0  0  0  0  # atno 10763 bound_to 10752
  153.7795  135.6919  153.4895 H   0  0  0  0  0  0  0  0  0  0  0  0  # atno 10764 bound_to 10752
  153.1990  135.4523  155.0191 H   0  0  0  0  0  0  0  0  0  0  0  0  # atno 10765 bound_to 10752
  139.8980  134.9568  156.6892 H   0  0  0  0  0  0  0  0  0  0  0  0  # atno 11005 bound_to 11000
  145.1773  140.9750  143.4286 LP  0  0  0  0  0  0  0  0  0  0  0  0  # atno 17320 bound_to 7965
  144.9974  139.3631  143.6185 LP  0  0  0  0  0  0  0  0  0  0  0  0  # atno 17321 bound_to 7965
  140.7574  143.3086  151.2899 LP  0  0  0  0  0  0  0  0  0  0  0  0  # atno 17342 bound_to 10162
  139.6607  144.0194  152.2690 LP  0  0  0  0  0  0  0  0  0  0  0  0  # atno 17343 bound_to 10162
  157.4184  130.7424  149.6894 LP  0  0  0  0  0  0  0  0  0  0  0  0  # atno 17370 bound_to 10713
  155.9763  130.4077  150.3786 LP  0  0  0  0  0  0  0  0  0  0  0  0  # atno 17371 bound_to 10713
  140.7239  133.9117  155.8165 LP  0  0  0  0  0  0  0  0  0  0  0  0  # atno 17394 bound_to 11000
  141.0206  134.0894  157.4124 LP  0  0  0  0  0  0  0  0  0  0  0  0  # atno 17395 bound_to 11000

$$$$
