#       Name:                AV-unprocessed.smi:1879
#       Creating user name   scv26
#       Creation time:       Fri Mar 27 09:35:46 2020


#       File generated by GOLD software.
#

@<TRIPOS>MOLECULE
AV-unprocessed.smi:1879
    52    54     1
SMALL
NO_CHARGES


@<TRIPOS>ATOM
      1 ****         0.7185   2.3594   0.0443 O.2            1 S1                 0.0000
      2 ****         0.3886   1.2674  -0.4191 C.2            1 S1                 0.0000
      3 ****         1.2292   0.2540  -0.6861 N.am           1 S1                 0.0000
      4 ****         2.6379   0.2090  -0.4864 C.ar           1 S1                 0.0000
      5 ****         3.4439   1.3603  -0.6628 C.ar           1 S1                 0.0000
      6 ****         4.8385   1.2544  -0.5262 C.ar           1 S1                 0.0000
      7 ****         5.3830  -0.0067  -0.2332 C.ar           1 S1                 0.0000
      8 ****         4.6317  -1.1145  -0.0759 N.ar           1 S1                 0.0000
      9 ****         3.2832  -1.0264  -0.1896 C.ar           1 S1                 0.0000
     10 ****         2.5489  -2.2201   0.0014 N.3            1 S1                 0.0000
     11 ****         3.2278  -3.5114   0.0268 C.3            1 S1                 0.0000
     12 ****         2.2109  -4.4813   0.6212 C.3            1 S1                 0.0000
     13 ****         1.4888  -3.6090   1.6432 C.3            1 S1                 0.0000
     14 ****         1.4759  -2.2219   0.9919 C.3            1 S1                 0.0000
     15 ****        -0.8782   0.9337  -0.7032 N.am           1 S1                 0.0000
     16 ****        -2.0393   1.7992  -0.5191 C.3            1 S1                 0.0000
     17 ****        -2.5483   1.7239   0.9344 C.3            1 S1                 0.0000
     18 ****        -3.8106   2.5807   1.1356 C.3            1 S1                 0.0000
     19 ****        -4.9257   2.2255   0.1338 C.3            1 S1                 0.0000
     20 ****        -5.4624   0.9530   0.4369 O.3            1 S1                 0.0000
     21 ****        -4.4126   2.2501  -1.3185 C.3            1 S1                 0.0000
     22 ****        -3.1489   1.3924  -1.5056 C.3            1 S1                 0.0000
     23 ****         0.8038  -0.6178  -0.9657 H              1 S1                 0.0000
     24 ****         3.0172   2.3167  -0.9242 H              1 S1                 0.0000
     25 ****         5.4754   2.1167  -0.6567 H              1 S1                 0.0000
     26 ****         6.4506  -0.1317  -0.1286 H              1 S1                 0.0000
     27 ****         3.5426  -3.8154  -0.9717 H              1 S1                 0.0000
     28 ****         4.1089  -3.4729   0.6687 H              1 S1                 0.0000
     29 ****         1.5123  -4.8096  -0.1499 H              1 S1                 0.0000
     30 ****         2.6729  -5.3651   1.0619 H              1 S1                 0.0000
     31 ****         0.4899  -3.9729   1.8850 H              1 S1                 0.0000
     32 ****         2.0665  -3.5744   2.5676 H              1 S1                 0.0000
     33 ****         1.5983  -1.4319   1.7341 H              1 S1                 0.0000
     34 ****         0.5265  -2.0620   0.4808 H              1 S1                 0.0000
     35 ****        -1.0545   0.0119  -1.0753 H              1 S1                 0.0000
     36 ****        -1.7530   2.8295  -0.7396 H              1 S1                 0.0000
     37 ****        -2.7655   0.6876   1.1972 H              1 S1                 0.0000
     38 ****        -1.7714   2.0578   1.6232 H              1 S1                 0.0000
     39 ****        -4.1739   2.4783   2.1588 H              1 S1                 0.0000
     40 ****        -3.5451   3.6314   1.0125 H              1 S1                 0.0000
     41 ****        -5.7388   2.9448   0.2368 H              1 S1                 0.0000
     42 ****        -6.1734   0.7769  -0.1600 H              1 S1                 0.0000
     43 ****        -5.1947   1.9196  -2.0027 H              1 S1                 0.0000
     44 ****        -4.1832   3.2798  -1.5957 H              1 S1                 0.0000
     45 ****        -2.7905   1.4911  -2.5311 H              1 S1                 0.0000
     46 ****        -3.3997   0.3396  -1.3679 H              1 S1                 0.0000
     47 ****         1.6790   2.5450   0.2516 LP             1 S1                 0.0000
     48 ****         0.0259   3.0607   0.2133 LP             1 S1                 0.0000
     49 ****         5.0647  -1.9937   0.1229 LP             1 S1                 0.0000
     50 ****         2.1431  -2.1514  -0.9100 LP             1 S1                 0.0000
     51 ****        -5.8021   0.9457   1.3774 LP             1 S1                 0.0000
     52 ****        -4.7541   0.2548   0.3328 LP             1 S1                 0.0000
@<TRIPOS>BOND
    1    1    2 2     
    2    2    3 am    
    3    2   15 am    
    4    3    4 1     
    5    3   23 1     
    6    4    9 ar    
    7    4    5 ar    
    8    5    6 ar    
    9    5   24 1     
   10    6    7 ar    
   11    6   25 1     
   12    7    8 ar    
   13    7   26 1     
   14    8    9 ar    
   15    9   10 1     
   16   10   14 1     
   17   10   11 1     
   18   11   12 1     
   19   11   27 1     
   20   11   28 1     
   21   12   13 1     
   22   12   29 1     
   23   12   30 1     
   24   13   14 1     
   25   13   31 1     
   26   13   32 1     
   27   14   33 1     
   28   14   34 1     
   29   15   16 1     
   30   15   35 1     
   31   16   22 1     
   32   16   17 1     
   33   16   36 1     
   34   17   18 1     
   35   17   37 1     
   36   17   38 1     
   37   18   19 1     
   38   18   39 1     
   39   18   40 1     
   40   19   20 1     
   41   19   21 1     
   42   19   41 1     
   43   20   42 1     
   44   21   22 1     
   45   21   43 1     
   46   21   44 1     
   47   22   45 1     
   48   22   46 1     
   49    1   47 1     
   50    1   48 1     
   51    8   49 1     
   52   10   50 1     
   53   20   51 1     
   54   20   52 1     
@<TRIPOS>SUBSTRUCTURE
      1 S1             1
@<TRIPOS>SET
LONE_PAIRS      STATIC     ATOMS    <user>   **** ""
6 47 48 49 50 51 52
DONOR_HYDROGENS      STATIC     ATOMS    <user>   **** ""
3 23 35 42
ATOM$BLUE        STATIC     ATOMS    COLORGROUP SYSTEM
6 47 48 49 50 51 52
ATOM$RED        STATIC     ATOMS    COLORGROUP SYSTEM
3 23 35 42
