AV-unprocessed.smi:1999|AV-procd|sdf|8098|dock9
  -GOLD-   2272010323D 1   1.00000     0.00000
 Structure written by MMmdl.
 38 39  0  0  0  0  0  0  0  0  3 V2000
  145.7793  137.1525  162.0581 C   0  0  0  0  0  0  0  0  0  0  0  0
  146.8676  136.6616  161.1660 C   0  0  0  0  0  0  0  0  0  0  0  0
  148.0640  137.2497  161.0885 N   0  0  0  0  0  0  0  0  0  0  0  0
  148.9042  136.6090  160.1900 N   0  0  0  0  0  0  0  0  0  0  0  0
  148.3293  135.5552  159.5930 C   0  0  0  0  0  0  0  0  0  0  0  0
  148.9745  134.8031  158.6863 N   0  5  0  0  0  0  0  0  0  0  0  0
  148.2988  134.2931  157.6339 C   0  0  0  0  0  0  0  0  0  0  0  0
  147.4283  133.4213  157.6803 O   0  0  0  0  0  0  0  0  0  0  0  0
  148.6278  134.8535  156.4600 N   0  0  0  0  0  0  0  0  0  0  0  0
  148.0000  134.5985  155.1620 C   0  0  2  0  0  0  0  0  0  0  0  0
  149.0469  134.0270  154.1965 C   0  0  0  0  0  0  0  0  0  0  0  0
  147.3577  135.8886  154.6025 C   0  0  0  0  0  0  0  0  0  0  0  0
  146.8675  135.7258  153.2105 N   0  3  0  0  0  0  0  0  0  0  0  0
  146.2153  134.4204  152.9603 C   0  0  0  0  0  0  0  0  0  0  0  0
  145.8421  134.2975  151.4730 C   0  0  0  0  0  0  0  0  0  0  0  0
  145.0010  135.3826  151.0977 O   0  0  0  0  0  0  0  0  0  0  0  0
  145.6442  136.6407  151.2679 C   0  0  0  0  0  0  0  0  0  0  0  0
  146.0003  136.8361  152.7505 C   0  0  0  0  0  0  0  0  0  0  0  0
  146.6747  135.2611  160.1252 S   0  0  0  0  0  0  0  0  0  0  0  0
  145.0459  137.7109  161.4764 H   0  0  0  0  0  0  0  0  0  0  0  0
  146.1836  137.8048  162.8328 H   0  0  0  0  0  0  0  0  0  0  0  0
  145.2800  136.3106  162.5377 H   0  0  0  0  0  0  0  0  0  0  0  0
  149.3555  135.5535  156.4783 H   0  0  0  0  0  0  0  0  0  0  0  0
  147.2270  133.8372  155.2753 H   0  0  0  0  0  0  0  0  0  0  0  0
  148.6035  133.8025  153.2260 H   0  0  0  0  0  0  0  0  0  0  0  0
  149.4739  133.1016  154.5846 H   0  0  0  0  0  0  0  0  0  0  0  0
  149.8655  134.7291  154.0345 H   0  0  0  0  0  0  0  0  0  0  0  0
  146.5156  136.1505  155.2452 H   0  0  0  0  0  0  0  0  0  0  0  0
  148.0532  136.7274  154.6571 H   0  0  0  0  0  0  0  0  0  0  0  0
  146.8902  133.6088  153.2350 H   0  0  0  0  0  0  0  0  0  0  0  0
  145.3251  134.3276  153.5845 H   0  0  0  0  0  0  0  0  0  0  0  0
  146.7366  134.2831  150.8476 H   0  0  0  0  0  0  0  0  0  0  0  0
  145.3131  133.3613  151.2936 H   0  0  0  0  0  0  0  0  0  0  0  0
  146.5364  136.6968  150.6417 H   0  0  0  0  0  0  0  0  0  0  0  0
  144.9707  137.4308  150.9355 H   0  0  0  0  0  0  0  0  0  0  0  0
  145.0918  136.8692  153.3537 H   0  0  0  0  0  0  0  0  0  0  0  0
  146.5053  137.7928  152.8820 H   0  0  0  0  0  0  0  0  0  0  0  0
  147.6926  135.7400  152.6262 H   0  0  0  0  0  0  0  0  0  0  0  0
  1  2  1  0  0  0  0
  1 20  1  0  0  0  0
  1 21  1  0  0  0  0
  1 22  1  0  0  0  0
  2 19  1  0  0  0  0
  2  3  2  0  0  0  0
  3  4  1  0  0  0  0
  4  5  2  0  0  0  0
  5  6  1  0  0  0  0
  5 19  1  0  0  0  0
  6  7  1  0  0  0  0
  7  8  2  0  0  0  0
  7  9  1  0  0  0  0
  9 10  1  0  0  0  0
  9 23  1  0  0  0  0
 10 11  1  0  0  0  0
 10 12  1  0  0  0  0
 10 24  1  0  0  0  0
 11 25  1  0  0  0  0
 11 26  1  0  0  0  0
 11 27  1  0  0  0  0
 12 13  1  0  0  0  0
 12 28  1  0  0  0  0
 12 29  1  0  0  0  0
 13 18  1  0  0  0  0
 13 14  1  0  0  0  0
 13 38  1  0  0  0  0
 14 15  1  0  0  0  0
 14 30  1  0  0  0  0
 14 31  1  0  0  0  0
 15 16  1  0  0  0  0
 15 32  1  0  0  0  0
 15 33  1  0  0  0  0
 16 17  1  0  0  0  0
 17 18  1  0  0  0  0
 17 34  1  0  0  0  0
 17 35  1  0  0  0  0
 18 36  1  0  0  0  0
 18 37  1  0  0  0  0
M  CHG  1   6  -1
M  CHG  1  13   1
M  END
> <s_m_source_file>
AV-unprocessed.smi

> <i_m_source_file_index>
1999

> <i_lp_mmshare_version>
43012

> <i_f3d_flags>
0

> <s_epik_input>
W0NIM11jMW5uYyhzMSlbTkhdQyg9TylbTkhdW0NASF0oW0NIM10pW0NIMl1OMltDSDJdW0NIMl1PW0NIMl1bQ0gyXTI=

> <s_epik_cmdline>
J2VwaWtfcHl0aG9uJywgJy1waCcsICc3LjAnLCAnLXRuJywgJzgnLCAnLW1hJywgJzIwMCcsICctbWV0YWxfYmluZGluZycsICctaW1hZScsICc8aW5maWxlLm1hZT4nLCAnLW9tYWUnLCAnPG91dGZpbGUubWFlPic=

> <r_lp_tautomer_probability>
1

> <r_epik_Ionization_Penalty>
3.39984

> <r_epik_Ionization_Penalty_Charging>
3.28696

> <r_epik_Ionization_Penalty_Neutral>
0.11288

> <r_epik_State_Penalty>
3.47917

> <r_epik_Charging_Adjusted_Penalty>
6.76613

> <i_epik_Tot_Q>
0

> <i_epik_Tot_abs_Q>
2

> <r_epik_Metal_State_Penalty>
1.13142

> <b_epik_Metal_Only>
1

> <s_lp_Force_Field>
OPLS_2005

> <r_lp_Energy>
12.288

> <b_lp_Chiralities_Consistent>
1

> <s_lp_Variant>
AV-unprocessed.smi:1999-7

> <Gold.Version>
5.8.1

> <Gold.Id.Protein>
6NUR|6NUR_protein|mol2

> <Gold.PLP.Fitness>
37.8122

> <Gold.PLP.PLP>
-22.7131

> <Gold.PLP.part.hbond>
-4.6074

> <Gold.PLP.part.metal>
0.0000

> <Gold.PLP.part.buried>
-2.8292

> <Gold.PLP.part.nonpolar>
-15.4365

> <Gold.PLP.part.repulsive>
0.2020

> <Gold.PLP.ligand.clash>
0.0000

> <Gold.PLP.ligand.torsion>
1.0867

> <Gold.PLP.Chemscore.Hbond>
5.7200

> <Gold.PLP.Chemscore.CHOScore>
0.0000

> <Gold.PLP.Chemscore.Metal>
0.0000

> <Gold.Chemscore.Hbonds>
donor molecule, donor type, donor heavy atom, donor atom, acceptor molecule, acceptor atom, score
      L1  H    13    38       P1  7948  2.00
      P1  H  6896  6909       L1     6  2.00
      P1  H  6931  6943       L1     3  0.96
      P1  H  6934  6947       L1     3  0.37

> <Gold.PLP.Chemscore.Internal.Correction>
0.1125

> <Gold.Rescore>
     Score         DG    S(hbond)    S(metal)    S(lipo)     H(rot)  DE(clash)    DE(int)     intcor
     14.72     -15.88       2.80        0.00      43.93       1.60       0.00       1.16       ----

> <Gold.Chemscore.Fitness>
14.7157

> <Gold.Chemscore.DG>
-15.8786

> <Gold.Chemscore.ZeroCoef>
-5.4800

> <Gold.Chemscore.Hbond>
2.8038

> <Gold.Chemscore.Metal>
0.0000

> <Gold.Chemscore.Lipo>
43.9254

> <Gold.Chemscore.Internal_Hbond>
0.0000

> <Gold.Chemscore.DEClash>
0.0048

> <Gold.Chemscore.DEInternal>
1.1580

> <Gold.Chemscore.Rot>
1.6036

> <Gold.Chemscore.Internal.Correction>
   9.000000E+99

> <Gold.Chemscore.Hbonds>
donor molecule, donor type, donor heavy atom, donor atom, acceptor molecule, acceptor atom, score
      L1  H    13    38       P1  7948  0.94
      P1  H  6896  6909       L1     6  0.55
      P1  H  6931  6943       L1     3  0.41
      P1  H  6934  6947       L1     3  0.02

> <Gold.Chemscore.Hbond.Weighted>
-9.3646

> <Gold.Chemscore.Metal.Weighted>
-0.0000

> <Gold.Chemscore.Lipo.Weighted>
-5.1393

> <Gold.Chemscore.Internal_Hbond.Weighted>
0.0000

> <Gold.Chemscore.DEClash.Weighted>
0.0048

> <Gold.Chemscore.DEInternal.Weighted>
1.1580

> <Gold.Chemscore.Rot.Weighted>
4.1053

> <Gold.Chemscore.Internal.Correction.Weighted>
   9.000000E+99

> <Gold.Protein.RotatedTorsions>
[ 6907 6896 6895 6894 ] final   37.03 input  -60.11 | X-H torsion
[ 7974 7965 7964 7962 ] final -104.61 input  175.53 | X-H torsion
[ 8008 7997 7996 7995 ] final   70.66 input   59.86 | X-H torsion
[ 10167 10162 10161 10158 ] final  107.16 input  -65.29 | X-H torsion
[ 10718 10713 10712 10709 ] final    2.25 input   66.30 | X-H torsion
[ 10763 10752 10751 10750 ] final  -36.83 input  -60.55 | X-H torsion
[ 11005 11000 10999 10996 ] final   61.14 input  -57.11 | X-H torsion

> <Gold.Protein.ActiveResidues>
 VAL166  LYS551  ARG553  GLY616  TRP617  ASP618  TYR619  PRO620  LYS621  CYS622 
 ASP623  PHE694  ASN695  SER759  ASP760  ASP761  ALA762  ILE779  LEU786  VAL792 
 PHE793  MET794  SER795  GLU796  ALA797  LYS798  CYS799  TRP800  GLU811  SER814 

> <Gold.Protein.RotatedAtoms>
  152.1378  134.9086  160.0555 H   0  0  0  0  0  0  0  0  0  0  0  0  # atno 6907 bound_to 6896
  152.0166  133.3877  159.4249 H   0  0  0  0  0  0  0  0  0  0  0  0  # atno 6908 bound_to 6896
  150.6862  134.3594  159.4987 H   0  0  0  0  0  0  0  0  0  0  0  0  # atno 6909 bound_to 6896
  145.2409  140.9205  143.3150 H   0  0  0  0  0  0  0  0  0  0  0  0  # atno 7974 bound_to 7965
  155.7422  140.3490  155.5109 H   0  0  0  0  0  0  0  0  0  0  0  0  # atno 8008 bound_to 7997
  155.9084  140.1046  157.1319 H   0  0  0  0  0  0  0  0  0  0  0  0  # atno 8009 bound_to 7997
  154.4052  140.1272  156.4512 H   0  0  0  0  0  0  0  0  0  0  0  0  # atno 8010 bound_to 7997
  139.6950  144.7103  151.1283 H   0  0  0  0  0  0  0  0  0  0  0  0  # atno 10167 bound_to 10162
  156.8602  130.5584  149.5663 H   0  0  0  0  0  0  0  0  0  0  0  0  # atno 10718 bound_to 10713
  153.8863  135.6816  153.4763 H   0  0  0  0  0  0  0  0  0  0  0  0  # atno 10763 bound_to 10752
  153.1206  135.4741  154.9186 H   0  0  0  0  0  0  0  0  0  0  0  0  # atno 10764 bound_to 10752
  154.7644  135.3220  154.8267 H   0  0  0  0  0  0  0  0  0  0  0  0  # atno 10765 bound_to 10752
  140.0182  134.6193  155.9679 H   0  0  0  0  0  0  0  0  0  0  0  0  # atno 11005 bound_to 11000
  144.9590  139.4001  143.6365 LP  0  0  0  0  0  0  0  0  0  0  0  0  # atno 17320 bound_to 7965
  146.3328  139.8633  142.8852 LP  0  0  0  0  0  0  0  0  0  0  0  0  # atno 17321 bound_to 7965
  140.7693  143.5505  150.9210 LP  0  0  0  0  0  0  0  0  0  0  0  0  # atno 17342 bound_to 10162
  139.9184  143.6635  152.3101 LP  0  0  0  0  0  0  0  0  0  0  0  0  # atno 17343 bound_to 10162
  156.0781  130.5798  150.9511 LP  0  0  0  0  0  0  0  0  0  0  0  0  # atno 17370 bound_to 10713
  157.6254  131.0926  150.8543 LP  0  0  0  0  0  0  0  0  0  0  0  0  # atno 17371 bound_to 10713
  141.1756  133.6540  156.4817 LP  0  0  0  0  0  0  0  0  0  0  0  0  # atno 17394 bound_to 11000
  140.4434  134.6995  157.5003 LP  0  0  0  0  0  0  0  0  0  0  0  0  # atno 17395 bound_to 11000

$$$$
