AV-unprocessed.smi:767|AV-procd|sdf|3662|dock3
  -GOLD-   22720 1 73D 1   1.00000     0.00000
 Structure written by MMmdl.
 47 49  0  0  0  0  0  0  0  0  1 V2000
  146.1731  130.2153  151.7796 C   0  0  0  0  0  0  0  0  0  0  0  0
  146.0264  131.6903  151.4701 C   0  0  0  0  0  0  0  0  0  0  0  0
  144.9736  132.1515  150.6530 C   0  0  0  0  0  0  0  0  0  0  0  0
  144.8780  133.5329  150.3995 C   0  0  0  0  0  0  0  0  0  0  0  0
  145.8316  134.3984  150.9733 C   0  0  0  0  0  0  0  0  0  0  0  0
  145.7478  135.9008  150.7588 C   0  0  0  0  0  0  0  0  0  0  0  0
  145.5228  136.7013  152.0586 C   0  0  0  0  0  0  0  0  0  0  0  0
  146.7638  136.9955  152.7683 N   0  0  0  0  0  0  0  0  0  0  0  0
  146.8570  137.6864  153.9118 C   0  0  0  0  0  0  0  0  0  0  0  0
  145.9008  138.2042  154.4886 O   0  0  0  0  0  0  0  0  0  0  0  0
  148.1167  137.7179  154.3630 N   0  0  0  0  0  0  0  0  0  0  0  0
  148.5497  138.3381  155.6163 C   0  0  1  0  0  0  0  0  0  0  0  0
  150.0599  138.1526  155.9023 C   0  0  1  0  0  0  0  0  0  0  0  0
  150.9300  137.1855  155.1388 C   0  0  0  0  0  0  0  0  0  0  0  0
  151.5444  138.0631  154.0440 C   0  0  0  0  0  0  0  0  0  0  0  0
  150.7020  139.2127  153.9734 O   0  0  0  0  0  0  0  0  0  0  0  0
  150.2765  139.5297  155.2975 C   0  0  1  0  0  0  0  0  0  0  0  0
  148.7810  139.8663  155.4772 C   0  0  0  0  0  0  0  0  0  0  0  0
  148.1050  140.6133  154.3194 C   0  0  0  0  0  0  0  0  0  0  0  0
  148.4684  140.6667  156.7454 C   0  0  0  0  0  0  0  0  0  0  0  0
  146.8526  133.8335  151.7663 C   0  0  0  0  0  0  0  0  0  0  0  0
  146.9528  132.5099  152.0145 N   0  0  0  0  0  0  0  0  0  0  0  0
  145.2072  129.7113  151.7332 H   0  0  0  0  0  0  0  0  0  0  0  0
  146.5838  130.0648  152.7787 H   0  0  0  0  0  0  0  0  0  0  0  0
  146.8414  129.7449  151.0582 H   0  0  0  0  0  0  0  0  0  0  0  0
  144.2517  131.4657  150.2346 H   0  0  0  0  0  0  0  0  0  0  0  0
  144.0768  133.9199  149.7869 H   0  0  0  0  0  0  0  0  0  0  0  0
  146.6619  136.2391  150.2702 H   0  0  0  0  0  0  0  0  0  0  0  0
  144.9375  136.1130  150.0601 H   0  0  0  0  0  0  0  0  0  0  0  0
  145.0637  137.6599  151.8158 H   0  0  0  0  0  0  0  0  0  0  0  0
  144.8218  136.1818  152.7133 H   0  0  0  0  0  0  0  0  0  0  0  0
  147.6110  136.6081  152.3793 H   0  0  0  0  0  0  0  0  0  0  0  0
  148.8293  137.2528  153.8196 H   0  0  0  0  0  0  0  0  0  0  0  0
  147.9219  138.0837  156.4724 H   0  0  0  0  0  0  0  0  0  0  0  0
  150.2525  138.1601  156.9764 H   0  0  0  0  0  0  0  0  0  0  0  0
  151.7048  136.7452  155.7669 H   0  0  0  0  0  0  0  0  0  0  0  0
  150.3544  136.3652  154.7152 H   0  0  0  0  0  0  0  0  0  0  0  0
  152.5498  138.3781  154.3264 H   0  0  0  0  0  0  0  0  0  0  0  0
  151.6041  137.5521  153.0828 H   0  0  0  0  0  0  0  0  0  0  0  0
  150.9831  140.1534  155.8473 H   0  0  0  0  0  0  0  0  0  0  0  0
  148.4174  141.6573  154.2804 H   0  0  0  0  0  0  0  0  0  0  0  0
  147.0190  140.5986  154.4172 H   0  0  0  0  0  0  0  0  0  0  0  0
  148.3477  140.1790  153.3495 H   0  0  0  0  0  0  0  0  0  0  0  0
  148.8638  141.6813  156.6874 H   0  0  0  0  0  0  0  0  0  0  0  0
  148.9036  140.2047  157.6320 H   0  0  0  0  0  0  0  0  0  0  0  0
  147.3940  140.7403  156.9168 H   0  0  0  0  0  0  0  0  0  0  0  0
  147.6026  134.4616  152.2238 H   0  0  0  0  0  0  0  0  0  0  0  0
  1  2  1  0  0  0  0
  1 23  1  0  0  0  0
  1 24  1  0  0  0  0
  1 25  1  0  0  0  0
  2 22  1  0  0  0  0
  2  3  2  0  0  0  0
  3  4  1  0  0  0  0
  3 26  1  0  0  0  0
  4  5  2  0  0  0  0
  4 27  1  0  0  0  0
  5  6  1  0  0  0  0
  5 21  1  0  0  0  0
  6  7  1  0  0  0  0
  6 28  1  0  0  0  0
  6 29  1  0  0  0  0
  7  8  1  0  0  0  0
  7 30  1  0  0  0  0
  7 31  1  0  0  0  0
  8  9  1  0  0  0  0
  8 32  1  0  0  0  0
  9 10  2  0  0  0  0
  9 11  1  0  0  0  0
 11 12  1  0  0  0  0
 11 33  1  0  0  0  0
 12 18  1  0  0  0  0
 12 13  1  0  0  0  0
 12 34  1  0  0  0  0
 13 17  1  0  0  0  0
 13 14  1  0  0  0  0
 13 35  1  0  0  0  0
 14 15  1  0  0  0  0
 14 36  1  0  0  0  0
 14 37  1  0  0  0  0
 15 16  1  0  0  0  0
 15 38  1  0  0  0  0
 15 39  1  0  0  0  0
 16 17  1  0  0  0  0
 17 18  1  0  0  0  0
 17 40  1  0  0  0  0
 18 19  1  0  0  0  0
 18 20  1  0  0  0  0
 19 41  1  0  0  0  0
 19 42  1  0  0  0  0
 19 43  1  0  0  0  0
 20 44  1  0  0  0  0
 20 45  1  0  0  0  0
 20 46  1  0  0  0  0
 21 22  2  0  0  0  0
 21 47  1  0  0  0  0
M  END
> <s_m_source_file>
AV-unprocessed.smi

> <i_m_source_file_index>
767

> <i_lp_mmshare_version>
43012

> <i_f3d_flags>
0

> <s_epik_input>
W0NIM11jMVtjSF1bY0hdYyhbY0hdbjEpW0NIMl1bQ0gyXVtOSF1DKD1PKVtOSF1bQ0BIXTJDKFtDSDNdKShbQ0gzXSlbQ0BIXShbQ0BASF0yMylPW0NIMl1bQ0gyXTM=

> <s_epik_cmdline>
J2VwaWtfcHl0aG9uJywgJy1waCcsICc3LjAnLCAnLXRuJywgJzgnLCAnLW1hJywgJzIwMCcsICctbWV0YWxfYmluZGluZycsICctaW1hZScsICc8aW5maWxlLm1hZT4nLCAnLW9tYWUnLCAnPG91dGZpbGUubWFlPic=

> <r_epik_Ionization_Penalty>
0.0567523

> <r_epik_Ionization_Penalty_Charging>
0

> <r_epik_Ionization_Penalty_Neutral>
0.0567523

> <r_epik_State_Penalty>
0.0489186

> <r_epik_Charging_Adjusted_Penalty>
0.0489186

> <i_epik_Tot_Q>
0

> <i_epik_Tot_abs_Q>
0

> <r_epik_Metal_State_Penalty>
0.044622

> <b_epik_Metal_Only>
0

> <s_lp_Force_Field>
OPLS_2005

> <r_lp_Energy>
33.3409

> <b_lp_Chiralities_Consistent>
1

> <s_lp_Variant>
AV-unprocessed.smi:767-6

> <Gold.Version>
5.8.1

> <Gold.Id.Protein>
6NUR|6NUR_protein|mol2

> <Gold.PLP.Fitness>
42.2063

> <Gold.PLP.PLP>
-32.2363

> <Gold.PLP.part.hbond>
-2.9652

> <Gold.PLP.part.metal>
0.0000

> <Gold.PLP.part.buried>
-4.4224

> <Gold.PLP.part.nonpolar>
-25.8350

> <Gold.PLP.part.repulsive>
0.4699

> <Gold.PLP.ligand.clash>
0.0000

> <Gold.PLP.ligand.torsion>
0.3168

> <Gold.PLP.Chemscore.Hbond>
2.4680

> <Gold.PLP.Chemscore.CHOScore>
1.0000

> <Gold.PLP.Chemscore.Metal>
0.0000

> <Gold.Chemscore.Hbonds>
donor molecule, donor type, donor heavy atom, donor atom, acceptor molecule, acceptor atom, score
      L1  H     8    32       P1  7948  0.88
      L1  H    11    33       P1  7948  0.44
      P1  H  7989  7998       L1    16  1.00
      L1  C    21    47       P1  7948  1.00

> <Gold.PLP.Chemscore.Internal.Correction>
0.1997

> <Gold.Rescore>
     Score         DG    S(hbond)    S(metal)    S(lipo)     H(rot)  DE(clash)    DE(int)     intcor
     18.17     -18.91       1.87        0.00      93.19       1.45       0.28       0.46       ----

> <Gold.Chemscore.Fitness>
18.1692

> <Gold.Chemscore.DG>
-18.9057

> <Gold.Chemscore.ZeroCoef>
-5.4800

> <Gold.Chemscore.Hbond>
1.8663

> <Gold.Chemscore.Metal>
0.0000

> <Gold.Chemscore.Lipo>
93.1933

> <Gold.Chemscore.Internal_Hbond>
0.0000

> <Gold.Chemscore.DEClash>
0.2808

> <Gold.Chemscore.DEInternal>
0.4557

> <Gold.Chemscore.Rot>
1.4497

> <Gold.Chemscore.Internal.Correction>
   9.000000E+99

> <Gold.Chemscore.Hbonds>
donor molecule, donor type, donor heavy atom, donor atom, acceptor molecule, acceptor atom, score
      L1  H     8    32       P1  7948  0.86
      L1  H    11    33       P1  7948  0.44
      P1  H  7989  7998       L1    16  0.26

> <Gold.Chemscore.Hbond.Weighted>
-6.2333

> <Gold.Chemscore.Metal.Weighted>
-0.0000

> <Gold.Chemscore.Lipo.Weighted>
-10.9036

> <Gold.Chemscore.Internal_Hbond.Weighted>
0.0000

> <Gold.Chemscore.DEClash.Weighted>
0.2808

> <Gold.Chemscore.DEInternal.Weighted>
0.4557

> <Gold.Chemscore.Rot.Weighted>
3.7112

> <Gold.Chemscore.Internal.Correction.Weighted>
   9.000000E+99

> <Gold.Protein.RotatedTorsions>
[ 6907 6896 6895 6894 ] final  174.97 input  -60.11 | X-H torsion
[ 7974 7965 7964 7962 ] final  123.15 input  175.53 | X-H torsion
[ 8008 7997 7996 7995 ] final  117.14 input   59.86 | X-H torsion
[ 10167 10162 10161 10158 ] final  -76.49 input  -65.29 | X-H torsion
[ 10718 10713 10712 10709 ] final -121.72 input   66.30 | X-H torsion
[ 10763 10752 10751 10750 ] final -151.39 input  -60.55 | X-H torsion
[ 11005 11000 10999 10996 ] final    8.40 input  -57.11 | X-H torsion

> <Gold.Protein.ActiveResidues>
 VAL166  LYS551  ARG553  GLY616  TRP617  ASP618  TYR619  PRO620  LYS621  CYS622 
 ASP623  PHE694  ASN695  SER759  ASP760  ASP761  ALA762  ILE779  LEU786  VAL792 
 PHE793  MET794  SER795  GLU796  ALA797  LYS798  CYS799  TRP800  GLU811  SER814 

> <Gold.Protein.RotatedAtoms>
  151.7437  133.3323  159.3372 H   0  0  0  0  0  0  0  0  0  0  0  0  # atno 6907 bound_to 6896
  150.7563  134.6255  159.6168 H   0  0  0  0  0  0  0  0  0  0  0  0  # atno 6908 bound_to 6896
  152.3514  134.7003  160.0287 H   0  0  0  0  0  0  0  0  0  0  0  0  # atno 6909 bound_to 6896
  145.0993  139.3530  143.4820 H   0  0  0  0  0  0  0  0  0  0  0  0  # atno 7974 bound_to 7965
  156.2478  140.2902  156.0633 H   0  0  0  0  0  0  0  0  0  0  0  0  # atno 8008 bound_to 7997
  155.1752  140.0403  157.2888 H   0  0  0  0  0  0  0  0  0  0  0  0  # atno 8009 bound_to 7997
  154.6298  140.2496  155.7454 H   0  0  0  0  0  0  0  0  0  0  0  0  # atno 8010 bound_to 7997
  140.4852  143.2392  151.7994 H   0  0  0  0  0  0  0  0  0  0  0  0  # atno 10167 bound_to 10162
  156.1360  130.6430  150.9696 H   0  0  0  0  0  0  0  0  0  0  0  0  # atno 10718 bound_to 10713
  154.8061  135.3261  154.7428 H   0  0  0  0  0  0  0  0  0  0  0  0  # atno 10763 bound_to 10752
  153.8086  135.6897  153.4848 H   0  0  0  0  0  0  0  0  0  0  0  0  # atno 10764 bound_to 10752
  153.1807  135.4588  154.9969 H   0  0  0  0  0  0  0  0  0  0  0  0  # atno 10765 bound_to 10752
  140.5374  134.0407  155.7893 H   0  0  0  0  0  0  0  0  0  0  0  0  # atno 11005 bound_to 11000
  146.3530  140.0863  142.8615 LP  0  0  0  0  0  0  0  0  0  0  0  0  # atno 17320 bound_to 7965
  145.0974  140.9324  143.4733 LP  0  0  0  0  0  0  0  0  0  0  0  0  # atno 17321 bound_to 7965
  139.4841  144.4720  151.9413 LP  0  0  0  0  0  0  0  0  0  0  0  0  # atno 17342 bound_to 10162
  140.3806  144.2741  150.5909 LP  0  0  0  0  0  0  0  0  0  0  0  0  # atno 17343 bound_to 10162
  157.6532  131.0893  150.8005 LP  0  0  0  0  0  0  0  0  0  0  0  0  # atno 17370 bound_to 10713
  156.8085  130.4944  149.5359 LP  0  0  0  0  0  0  0  0  0  0  0  0  # atno 17371 bound_to 10713
  141.1246  133.9404  157.2660 LP  0  0  0  0  0  0  0  0  0  0  0  0  # atno 17394 bound_to 11000
  139.9522  135.0173  156.9025 LP  0  0  0  0  0  0  0  0  0  0  0  0  # atno 17395 bound_to 11000

$$$$
