AV-unprocessed.smi:2468|AV-procd|sdf|9730|dock5
  -GOLD-   2272013373D 1   1.00000     0.00000
 Structure written by MMmdl.
 32 33  0  0  0  0  0  0  0  0  1 V2000
  153.3246  142.5324  160.5003 C   0  0  0  0  0  0  0  0  0  0  0  0
  152.5296  142.3360  159.2229 C   0  0  0  0  0  0  0  0  0  0  0  0
  152.0485  143.4631  158.6546 N   0  0  0  0  0  0  0  0  0  0  0  0
  151.3417  143.3454  157.5120 C   0  0  0  0  0  0  0  0  0  0  0  0
  151.0771  142.1115  156.8882 C   0  0  0  0  0  0  0  0  0  0  0  0
  151.5650  140.9265  157.4898 C   0  0  0  0  0  0  0  0  0  0  0  0
  151.3753  139.6296  156.9361 N   0  0  0  0  0  0  0  0  0  0  0  0
  151.2161  139.2726  155.6485 C   0  0  0  0  0  0  0  0  0  0  0  0
  151.1634  140.0626  154.7058 O   0  0  0  0  0  0  0  0  0  0  0  0
  151.0491  137.7643  155.3953 C   0  0  1  0  0  0  0  0  0  0  0  0
  152.2172  137.1098  155.8943 O   0  0  0  0  0  0  0  0  0  0  0  0
  151.8909  136.2321  156.9695 C   0  0  0  0  0  0  0  0  0  0  0  0
  150.5041  136.6549  157.4412 C   0  0  0  0  0  0  0  0  0  0  0  0
  149.8718  137.0954  156.1369 C   0  0  1  0  0  0  0  0  0  0  0  0
  148.5818  137.9200  156.2983 C   0  0  0  0  0  0  0  0  0  0  0  0
  152.3211  141.0465  158.6798 C   0  0  0  0  0  0  0  0  0  0  0  0
  152.9745  139.6443  159.4594 Cl  0  0  0  0  0  0  0  0  0  0  0  0
  152.8544  141.9963  161.3251 H   0  0  0  0  0  0  0  0  0  0  0  0
  153.3891  143.5857  160.7759 H   0  0  0  0  0  0  0  0  0  0  0  0
  154.3396  142.1538  160.3765 H   0  0  0  0  0  0  0  0  0  0  0  0
  150.9815  144.2654  157.0759 H   0  0  0  0  0  0  0  0  0  0  0  0
  150.5221  142.1027  155.9630 H   0  0  0  0  0  0  0  0  0  0  0  0
  151.2957  138.8828  157.6113 H   0  0  0  0  0  0  0  0  0  0  0  0
  150.9676  137.5803  154.3228 H   0  0  0  0  0  0  0  0  0  0  0  0
  151.8666  135.2105  156.5885 H   0  0  0  0  0  0  0  0  0  0  0  0
  152.6358  136.2800  157.7639 H   0  0  0  0  0  0  0  0  0  0  0  0
  149.9591  135.8467  157.9297 H   0  0  0  0  0  0  0  0  0  0  0  0
  150.5771  137.4890  158.1402 H   0  0  0  0  0  0  0  0  0  0  0  0
  149.6108  136.1955  155.5769 H   0  0  0  0  0  0  0  0  0  0  0  0
  148.7319  138.7997  156.9246 H   0  0  0  0  0  0  0  0  0  0  0  0
  147.7983  137.3215  156.7635 H   0  0  0  0  0  0  0  0  0  0  0  0
  148.2094  138.2558  155.3302 H   0  0  0  0  0  0  0  0  0  0  0  0
  1  2  1  0  0  0  0
  1 18  1  0  0  0  0
  1 19  1  0  0  0  0
  1 20  1  0  0  0  0
  2 16  1  0  0  0  0
  2  3  2  0  0  0  0
  3  4  1  0  0  0  0
  4  5  2  0  0  0  0
  4 21  1  0  0  0  0
  5  6  1  0  0  0  0
  5 22  1  0  0  0  0
  6  7  1  0  0  0  0
  6 16  2  0  0  0  0
  7  8  1  0  0  0  0
  7 23  1  0  0  0  0
  8  9  2  0  0  0  0
  8 10  1  0  0  0  0
 10 14  1  0  0  0  0
 10 11  1  0  0  0  0
 10 24  1  0  0  0  0
 11 12  1  0  0  0  0
 12 13  1  0  0  0  0
 12 25  1  0  0  0  0
 12 26  1  0  0  0  0
 13 14  1  0  0  0  0
 13 27  1  0  0  0  0
 13 28  1  0  0  0  0
 14 15  1  0  0  0  0
 14 29  1  0  0  0  0
 15 30  1  0  0  0  0
 15 31  1  0  0  0  0
 15 32  1  0  0  0  0
 16 17  1  0  0  0  0
M  END
> <s_m_source_file>
AV-unprocessed.smi

> <i_m_source_file_index>
2468

> <i_lp_mmshare_version>
43012

> <i_f3d_flags>
0

> <s_epik_input>
W0NIM11jMW5bY0hdW2NIXWMoYzFDbClbTkhdQyg9TylbQ0BASF0yT1tDSDJdW0NIMl1bQ0BIXTJbQ0gzXQ==

> <s_epik_cmdline>
J2VwaWtfcHl0aG9uJywgJy1waCcsICc3LjAnLCAnLXRuJywgJzgnLCAnLW1hJywgJzIwMCcsICctbWV0YWxfYmluZGluZycsICctaW1hZScsICc8aW5maWxlLm1hZT4nLCAnLW9tYWUnLCAnPG91dGZpbGUubWFlPic=

> <r_epik_Ionization_Penalty>
0.000361027

> <r_epik_Ionization_Penalty_Charging>
0

> <r_epik_Ionization_Penalty_Neutral>
0.000361027

> <r_epik_State_Penalty>
0.000217849

> <r_epik_Charging_Adjusted_Penalty>
0.000217849

> <i_epik_Tot_Q>
0

> <i_epik_Tot_abs_Q>
0

> <r_epik_Metal_State_Penalty>
-0

> <b_epik_Metal_Only>
0

> <s_lp_Force_Field>
OPLS_2005

> <r_lp_Energy>
25.7151

> <b_lp_Chiralities_Consistent>
1

> <s_lp_Variant>
AV-unprocessed.smi:2468-2

> <Gold.Version>
5.8.1

> <Gold.Id.Protein>
6NUR|6NUR_protein|mol2

> <Gold.PLP.Fitness>
34.7251

> <Gold.PLP.PLP>
-27.5159

> <Gold.PLP.part.hbond>
-1.9785

> <Gold.PLP.part.metal>
0.0000

> <Gold.PLP.part.buried>
-5.5669

> <Gold.PLP.part.nonpolar>
-21.1908

> <Gold.PLP.part.repulsive>
0.1838

> <Gold.PLP.ligand.clash>
0.0000

> <Gold.PLP.ligand.torsion>
0.1838

> <Gold.PLP.Chemscore.Hbond>
1.5205

> <Gold.PLP.Chemscore.CHOScore>
1.0000

> <Gold.PLP.Chemscore.Metal>
0.0000

> <Gold.Chemscore.Hbonds>
donor molecule, donor type, donor heavy atom, donor atom, acceptor molecule, acceptor atom, score
      P1  H  7989  7998       L1     9  0.99
      P1  H 10752 10765       L1    11  0.48
      L1  C     4    21       P1  8028  0.98

> <Gold.PLP.Chemscore.Internal.Correction>
0.0153

> <Gold.Rescore>
     Score         DG    S(hbond)    S(metal)    S(lipo)     H(rot)  DE(clash)    DE(int)     intcor
     15.47     -16.61       1.40        0.00      77.10       1.00       0.04       1.10       ----

> <Gold.Chemscore.Fitness>
15.4701

> <Gold.Chemscore.DG>
-16.6131

> <Gold.Chemscore.ZeroCoef>
-5.4800

> <Gold.Chemscore.Hbond>
1.3990

> <Gold.Chemscore.Metal>
0.0000

> <Gold.Chemscore.Lipo>
77.0973

> <Gold.Chemscore.Internal_Hbond>
0.0000

> <Gold.Chemscore.DEClash>
0.0391

> <Gold.Chemscore.DEInternal>
1.1038

> <Gold.Chemscore.Rot>
1.0000

> <Gold.Chemscore.Internal.Correction>
   9.000000E+99

> <Gold.Chemscore.Hbonds>
donor molecule, donor type, donor heavy atom, donor atom, acceptor molecule, acceptor atom, score
      P1  H  7989  7998       L1     9  0.92
      P1  H 10752 10765       L1    11  0.03

> <Gold.Chemscore.Hbond.Weighted>
-4.6727

> <Gold.Chemscore.Metal.Weighted>
-0.0000

> <Gold.Chemscore.Lipo.Weighted>
-9.0204

> <Gold.Chemscore.Internal_Hbond.Weighted>
0.0000

> <Gold.Chemscore.DEClash.Weighted>
0.0391

> <Gold.Chemscore.DEInternal.Weighted>
1.1038

> <Gold.Chemscore.Rot.Weighted>
2.5600

> <Gold.Chemscore.Internal.Correction.Weighted>
   9.000000E+99

> <Gold.Protein.RotatedTorsions>
[ 6907 6896 6895 6894 ] final  117.31 input  -60.11 | X-H torsion
[ 7974 7965 7964 7962 ] final   55.06 input  175.53 | X-H torsion
[ 8008 7997 7996 7995 ] final -134.42 input   59.86 | X-H torsion
[ 10167 10162 10161 10158 ] final  146.59 input  -65.29 | X-H torsion
[ 10718 10713 10712 10709 ] final  107.44 input   66.30 | X-H torsion
[ 10763 10752 10751 10750 ] final -170.33 input  -60.55 | X-H torsion
[ 11005 11000 10999 10996 ] final  -53.85 input  -57.11 | X-H torsion

> <Gold.Protein.ActiveResidues>
 VAL166  LYS551  ARG553  GLY616  TRP617  ASP618  TYR619  PRO620  LYS621  CYS622 
 ASP623  PHE694  ASN695  SER759  ASP760  ASP761  ALA762  ILE779  LEU786  VAL792 
 PHE793  MET794  SER795  GLU796  ALA797  LYS798  CYS799  TRP800  GLU811  SER814 

> <Gold.Protein.RotatedAtoms>
  152.4620  133.7843  159.6867 H   0  0  0  0  0  0  0  0  0  0  0  0  # atno 6907 bound_to 6896
  150.8569  133.7692  159.3012 H   0  0  0  0  0  0  0  0  0  0  0  0  # atno 6908 bound_to 6896
  151.5270  135.1071  159.9945 H   0  0  0  0  0  0  0  0  0  0  0  0  # atno 6909 bound_to 6896
  145.9544  139.4001  143.0286 H   0  0  0  0  0  0  0  0  0  0  0  0  # atno 7974 bound_to 7965
  155.3617  140.0483  157.3046 H   0  0  0  0  0  0  0  0  0  0  0  0  # atno 8008 bound_to 7997
  154.5174  140.2213  155.9003 H   0  0  0  0  0  0  0  0  0  0  0  0  # atno 8009 bound_to 7997
  156.1652  140.3108  155.8882 H   0  0  0  0  0  0  0  0  0  0  0  0  # atno 8010 bound_to 7997
  139.4904  144.5818  151.6856 H   0  0  0  0  0  0  0  0  0  0  0  0  # atno 10167 bound_to 10162
  157.6628  131.0873  150.6157 H   0  0  0  0  0  0  0  0  0  0  0  0  # atno 10718 bound_to 10713
  154.6427  135.2901  155.0084 H   0  0  0  0  0  0  0  0  0  0  0  0  # atno 10763 bound_to 10752
  154.1205  135.6549  153.4906 H   0  0  0  0  0  0  0  0  0  0  0  0  # atno 10764 bound_to 10752
  153.0335  135.5286  154.7301 H   0  0  0  0  0  0  0  0  0  0  0  0  # atno 10765 bound_to 10752
  141.0997  133.6619  156.4234 H   0  0  0  0  0  0  0  0  0  0  0  0  # atno 11005 bound_to 11000
  145.8127  140.9718  143.0940 LP  0  0  0  0  0  0  0  0  0  0  0  0  # atno 17320 bound_to 7965
  144.6802  139.9941  143.7484 LP  0  0  0  0  0  0  0  0  0  0  0  0  # atno 17321 bound_to 7965
  140.5426  144.0555  150.6094 LP  0  0  0  0  0  0  0  0  0  0  0  0  # atno 17342 bound_to 10162
  140.3582  143.2923  152.0413 LP  0  0  0  0  0  0  0  0  0  0  0  0  # atno 17343 bound_to 10162
  156.6459  130.4471  149.5736 LP  0  0  0  0  0  0  0  0  0  0  0  0  # atno 17370 bound_to 10713
  156.2174  130.6716  151.1333 LP  0  0  0  0  0  0  0  0  0  0  0  0  # atno 17371 bound_to 10713
  140.5053  134.6446  157.5264 LP  0  0  0  0  0  0  0  0  0  0  0  0  # atno 17394 bound_to 11000
  139.9844  134.7085  155.9800 LP  0  0  0  0  0  0  0  0  0  0  0  0  # atno 17395 bound_to 11000

$$$$
