AV-unprocessed.smi:3034|AV-procd|sdf|11580|dock10
  -GOLD-   2272016553D 1   1.00000     0.00000
 Structure written by MMmdl.
 31 31  0  0  0  0  0  0  0  0  2 V2000
  149.2609  139.3111  154.5112 C   0  0  0  0  0  0  0  0  0  0  0  0
  150.7055  138.9178  154.8374 C   0  0  0  0  0  0  0  0  0  0  0  0
  151.4068  139.9493  155.7304 C   0  0  0  0  0  0  0  0  0  0  0  0
  151.4229  139.4024  157.4975 S   0  0  0  0  0  0  0  0  0  0  0  0
  150.5525  138.2167  157.5708 O   0  0  0  0  0  0  0  0  0  0  0  0
  152.8424  139.1931  157.8202 O   0  0  0  0  0  0  0  0  0  0  0  0
  150.8336  140.7066  158.2681 N   0  5  0  0  0  0  0  0  0  0  0  0
  150.5204  141.9344  157.5471 C   0  0  0  0  0  0  0  0  0  0  0  0
  151.5653  143.0339  157.8673 C   0  0  1  0  0  0  0  0  0  0  0  0
  151.0381  144.2780  157.4460 O   0  0  0  0  0  0  0  0  0  0  0  0
  152.0269  143.0700  159.3286 C   0  0  0  0  0  0  0  0  0  0  0  0
  151.7013  144.1738  160.1505 C   0  0  0  0  0  0  0  0  0  0  0  0
  152.1328  144.1736  161.4905 C   0  0  0  0  0  0  0  0  0  0  0  0
  152.8649  143.0700  161.9672 C   0  0  0  0  0  0  0  0  0  0  0  0
  153.1350  142.0121  161.0776 C   0  0  0  0  0  0  0  0  0  0  0  0
  152.7263  142.0023  159.7909 N   0  0  0  0  0  0  0  0  0  0  0  0
  148.7863  138.5576  153.8825 H   0  0  0  0  0  0  0  0  0  0  0  0
  149.2230  140.2617  153.9785 H   0  0  0  0  0  0  0  0  0  0  0  0
  148.6656  139.4105  155.4191 H   0  0  0  0  0  0  0  0  0  0  0  0
  150.7121  137.9451  155.3303 H   0  0  0  0  0  0  0  0  0  0  0  0
  151.2633  138.7970  153.9085 H   0  0  0  0  0  0  0  0  0  0  0  0
  152.4396  140.0939  155.4134 H   0  0  0  0  0  0  0  0  0  0  0  0
  150.8993  140.9116  155.6681 H   0  0  0  0  0  0  0  0  0  0  0  0
  150.5226  141.7598  156.4703 H   0  0  0  0  0  0  0  0  0  0  0  0
  149.5199  142.2987  157.7835 H   0  0  0  0  0  0  0  0  0  0  0  0
  152.4458  142.8634  157.2458 H   0  0  0  0  0  0  0  0  0  0  0  0
  150.4714  144.1235  156.7065 H   0  0  0  0  0  0  0  0  0  0  0  0
  151.1413  145.0093  159.7570 H   0  0  0  0  0  0  0  0  0  0  0  0
  151.9058  145.0055  162.1407 H   0  0  0  0  0  0  0  0  0  0  0  0
  153.2117  143.0352  162.9892 H   0  0  0  0  0  0  0  0  0  0  0  0
  153.6926  141.1488  161.4092 H   0  0  0  0  0  0  0  0  0  0  0  0
  1  2  1  0  0  0  0
  1 17  1  0  0  0  0
  1 18  1  0  0  0  0
  1 19  1  0  0  0  0
  2  3  1  0  0  0  0
  2 20  1  0  0  0  0
  2 21  1  0  0  0  0
  3  4  1  0  0  0  0
  3 22  1  0  0  0  0
  3 23  1  0  0  0  0
  4  5  2  0  0  0  0
  4  6  2  0  0  0  0
  4  7  1  0  0  0  0
  7  8  1  0  0  0  0
  8  9  1  0  0  0  0
  8 24  1  0  0  0  0
  8 25  1  0  0  0  0
  9 10  1  0  0  0  0
  9 11  1  0  0  0  0
  9 26  1  0  0  0  0
 10 27  1  0  0  0  0
 11 16  1  0  0  0  0
 11 12  2  0  0  0  0
 12 13  1  0  0  0  0
 12 28  1  0  0  0  0
 13 14  2  0  0  0  0
 13 29  1  0  0  0  0
 14 15  1  0  0  0  0
 14 30  1  0  0  0  0
 15 16  2  0  0  0  0
 15 31  1  0  0  0  0
M  CHG  1   7  -1
M  END
> <s_m_source_file>
AV-unprocessed.smi

> <i_m_source_file_index>
3034

> <i_lp_mmshare_version>
43012

> <i_f3d_flags>
0

> <s_epik_input>
W0NIM11bQ0gyXVtDSDJdUyg9TykoPU8pW05IXVtDSDJdW0NASF0oW09IXSljMVtjSF1bY0hdW2NIXVtjSF1uMQ==

> <s_epik_cmdline>
J2VwaWtfcHl0aG9uJywgJy1waCcsICc3LjAnLCAnLXRuJywgJzgnLCAnLW1hJywgJzIwMCcsICctbWV0YWxfYmluZGluZycsICctaW1hZScsICc8aW5maWxlLm1hZT4nLCAnLW9tYWUnLCAnPG91dGZpbGUubWFlPic=

> <r_epik_Ionization_Penalty>
6.18156

> <r_epik_Ionization_Penalty_Charging>
6.17474

> <r_epik_Ionization_Penalty_Neutral>
0.0068235

> <r_epik_State_Penalty>
6.17598

> <r_epik_Charging_Adjusted_Penalty>
12.3507

> <i_epik_Tot_Q>
-1

> <i_epik_Tot_abs_Q>
1

> <r_epik_Metal_State_Penalty>
2.11803

> <b_epik_Metal_Only>
1

> <s_lp_Force_Field>
OPLS_2005

> <r_lp_Energy>
1.09161

> <b_lp_Chiralities_Consistent>
1

> <s_lp_Variant>
AV-unprocessed.smi:3034-4

> <Gold.Version>
5.8.1

> <Gold.Id.Protein>
6NUR|6NUR_protein|mol2

> <Gold.PLP.Fitness>
41.7876

> <Gold.PLP.PLP>
-37.4615

> <Gold.PLP.part.hbond>
-2.0000

> <Gold.PLP.part.metal>
0.0000

> <Gold.PLP.part.buried>
-4.3868

> <Gold.PLP.part.nonpolar>
-30.2401

> <Gold.PLP.part.repulsive>
0.0000

> <Gold.PLP.ligand.clash>
0.0000

> <Gold.PLP.ligand.torsion>
1.3626

> <Gold.PLP.Chemscore.Hbond>
2.0000

> <Gold.PLP.Chemscore.CHOScore>
0.0000

> <Gold.PLP.Chemscore.Metal>
0.0000

> <Gold.Chemscore.Hbonds>
donor molecule, donor type, donor heavy atom, donor atom, acceptor molecule, acceptor atom, score
      L1  H    10    27       P1  8028  0.91
      P1  H  7997  8010       L1     6  0.86

> <Gold.PLP.Chemscore.Internal.Correction>
1.0512

> <Gold.Rescore>
     Score         DG    S(hbond)    S(metal)    S(lipo)     H(rot)  DE(clash)    DE(int)     intcor
     13.95     -17.36       1.91        0.00      97.19       2.29       0.38       3.04       ----

> <Gold.Chemscore.Fitness>
13.9469

> <Gold.Chemscore.DG>
-17.3583

> <Gold.Chemscore.ZeroCoef>
-5.4800

> <Gold.Chemscore.Hbond>
1.9067

> <Gold.Chemscore.Metal>
0.0000

> <Gold.Chemscore.Lipo>
97.1903

> <Gold.Chemscore.Internal_Hbond>
0.0000

> <Gold.Chemscore.DEClash>
0.3762

> <Gold.Chemscore.DEInternal>
3.0353

> <Gold.Chemscore.Rot>
2.2895

> <Gold.Chemscore.Internal.Correction>
   9.000000E+99

> <Gold.Chemscore.Hbonds>
donor molecule, donor type, donor heavy atom, donor atom, acceptor molecule, acceptor atom, score
      L1  H    10    27       P1  8028  0.88
      P1  H  7997  8010       L1     6  0.84

> <Gold.Chemscore.Hbond.Weighted>
-6.3683

> <Gold.Chemscore.Metal.Weighted>
-0.0000

> <Gold.Chemscore.Lipo.Weighted>
-11.3713

> <Gold.Chemscore.Internal_Hbond.Weighted>
0.0000

> <Gold.Chemscore.DEClash.Weighted>
0.3762

> <Gold.Chemscore.DEInternal.Weighted>
3.0353

> <Gold.Chemscore.Rot.Weighted>
5.8612

> <Gold.Chemscore.Internal.Correction.Weighted>
   9.000000E+99

> <Gold.Protein.RotatedTorsions>
[ 6907 6896 6895 6894 ] final -176.96 input  -60.11 | X-H torsion
[ 7974 7965 7964 7962 ] final  -16.69 input  175.53 | X-H torsion
[ 8008 7997 7996 7995 ] final   36.70 input   59.86 | X-H torsion
[ 10167 10162 10161 10158 ] final   17.25 input  -65.29 | X-H torsion
[ 10718 10713 10712 10709 ] final -137.31 input   66.30 | X-H torsion
[ 10763 10752 10751 10750 ] final   77.11 input  -60.55 | X-H torsion
[ 11005 11000 10999 10996 ] final  -35.84 input  -57.11 | X-H torsion

> <Gold.Protein.ActiveResidues>
 VAL166  LYS551  ARG553  GLY616  TRP617  ASP618  TYR619  PRO620  LYS621  CYS622 
 ASP623  PHE694  ASN695  SER759  ASP760  ASP761  ALA762  ILE779  LEU786  VAL792 
 PHE793  MET794  SER795  GLU796  ALA797  LYS798  CYS799  TRP800  GLU811  SER814 

> <Gold.Protein.RotatedAtoms>
  151.6132  133.3345  159.3071 H   0  0  0  0  0  0  0  0  0  0  0  0  # atno 6907 bound_to 6896
  150.8145  134.7322  159.6729 H   0  0  0  0  0  0  0  0  0  0  0  0  # atno 6908 bound_to 6896
  152.4241  134.5906  160.0024 H   0  0  0  0  0  0  0  0  0  0  0  0  # atno 6909 bound_to 6896
  146.1976  140.3672  142.8435 H   0  0  0  0  0  0  0  0  0  0  0  0  # atno 7974 bound_to 7965
  155.1916  140.3308  155.4357 H   0  0  0  0  0  0  0  0  0  0  0  0  # atno 8008 bound_to 7997
  156.2440  140.1909  156.6959 H   0  0  0  0  0  0  0  0  0  0  0  0  # atno 8009 bound_to 7997
  154.6202  140.0596  156.9591 H   0  0  0  0  0  0  0  0  0  0  0  0  # atno 8010 bound_to 7997
  140.5739  143.9109  150.6735 H   0  0  0  0  0  0  0  0  0  0  0  0  # atno 10167 bound_to 10162
  156.2867  130.7352  151.1366 H   0  0  0  0  0  0  0  0  0  0  0  0  # atno 10718 bound_to 10713
  153.0774  135.4926  154.8433 H   0  0  0  0  0  0  0  0  0  0  0  0  # atno 10763 bound_to 10752
  154.7106  135.3019  154.9205 H   0  0  0  0  0  0  0  0  0  0  0  0  # atno 10764 bound_to 10752
  153.9900  135.6779  153.4806 H   0  0  0  0  0  0  0  0  0  0  0  0  # atno 10765 bound_to 10752
  140.9828  133.7047  156.1713 H   0  0  0  0  0  0  0  0  0  0  0  0  # atno 11005 bound_to 11000
  144.8613  140.7144  143.6105 LP  0  0  0  0  0  0  0  0  0  0  0  0  # atno 17320 bound_to 7965
  145.3592  139.1686  143.4392 LP  0  0  0  0  0  0  0  0  0  0  0  0  # atno 17321 bound_to 7965
  140.2591  143.3537  152.1338 LP  0  0  0  0  0  0  0  0  0  0  0  0  # atno 17342 bound_to 10162
  139.5132  144.6929  151.5710 LP  0  0  0  0  0  0  0  0  0  0  0  0  # atno 17343 bound_to 10162
  157.7331  131.0594  150.5596 LP  0  0  0  0  0  0  0  0  0  0  0  0  # atno 17370 bound_to 10713
  156.5708  130.4279  149.6020 LP  0  0  0  0  0  0  0  0  0  0  0  0  # atno 17371 bound_to 10713
  140.7161  134.4409  157.5578 LP  0  0  0  0  0  0  0  0  0  0  0  0  # atno 17394 bound_to 11000
  139.8957  134.8676  156.2119 LP  0  0  0  0  0  0  0  0  0  0  0  0  # atno 17395 bound_to 11000

$$$$
