AV-unprocessed.smi:848|AV-procd|sdf|3939|dock2
  -GOLD-   22720 1403D 1   1.00000     0.00000
 Structure written by MMmdl.
 46 48  0  0  0  0  0  0  0  0  1 V2000
  153.5769  142.9102  163.3487 C   0  0  0  0  0  0  0  0  0  0  0  0
  152.9831  142.9521  161.9557 C   0  0  0  0  0  0  0  0  0  0  0  0
  152.3957  144.1365  161.4681 C   0  0  0  0  0  0  0  0  0  0  0  0
  151.8447  144.1697  160.1726 C   0  0  0  0  0  0  0  0  0  0  0  0
  151.2127  145.4454  159.6550 C   0  0  0  0  0  0  0  0  0  0  0  0
  151.8871  143.0151  159.3648 C   0  0  0  0  0  0  0  0  0  0  0  0
  152.4736  141.8228  159.8360 C   0  0  0  0  0  0  0  0  0  0  0  0
  152.4741  140.7455  158.9759 O   0  0  0  0  0  0  0  0  0  0  0  0
  152.7614  139.4584  159.5059 C   0  0  0  0  0  0  0  0  0  0  0  0
  152.6389  138.4180  158.3810 C   0  0  2  0  0  0  0  0  0  0  0  0
  153.6474  138.6708  157.4221 O   0  0  0  0  0  0  0  0  0  0  0  0
  151.2579  138.4766  157.6953 C   0  0  0  0  0  0  0  0  0  0  0  0
  151.0694  137.4246  156.7046 N   0  0  0  0  0  0  0  0  0  0  0  0
  151.4545  137.4234  155.4032 C   0  0  0  0  0  0  0  0  0  0  0  0
  152.1813  138.5931  154.8014 C   0  0  0  0  0  0  0  0  0  0  0  0
  151.4926  139.8218  154.9211 O   0  0  0  0  0  0  0  0  0  0  0  0
  151.1528  136.3201  154.7140 N   0  0  0  0  0  0  0  0  0  0  0  0
  150.5165  135.5350  155.6546 C   0  0  0  0  0  0  0  0  0  0  0  0
  149.9568  134.2420  155.5443 C   0  0  0  0  0  0  0  0  0  0  0  0
  149.3526  133.6281  156.6609 C   0  0  0  0  0  0  0  0  0  0  0  0
  149.2997  134.2967  157.9010 C   0  0  0  0  0  0  0  0  0  0  0  0
  149.8496  135.5863  158.0320 C   0  0  0  0  0  0  0  0  0  0  0  0
  150.4511  136.1950  156.9139 C   0  0  0  0  0  0  0  0  0  0  0  0
  153.0218  141.8005  161.1433 C   0  0  0  0  0  0  0  0  0  0  0  0
  153.3422  143.8154  163.9094 H   0  0  0  0  0  0  0  0  0  0  0  0
  154.6614  142.8141  163.2929 H   0  0  0  0  0  0  0  0  0  0  0  0
  153.1842  142.0572  163.9032 H   0  0  0  0  0  0  0  0  0  0  0  0
  152.3657  145.0218  162.0868 H   0  0  0  0  0  0  0  0  0  0  0  0
  150.6989  145.2791  158.7078 H   0  0  0  0  0  0  0  0  0  0  0  0
  151.9761  146.2082  159.5010 H   0  0  0  0  0  0  0  0  0  0  0  0
  150.4855  145.8264  160.3726 H   0  0  0  0  0  0  0  0  0  0  0  0
  151.4663  143.0393  158.3700 H   0  0  0  0  0  0  0  0  0  0  0  0
  153.7867  139.4628  159.8796 H   0  0  0  0  0  0  0  0  0  0  0  0
  152.1031  139.2086  160.3400 H   0  0  0  0  0  0  0  0  0  0  0  0
  152.7933  137.4201  158.7921 H   0  0  0  0  0  0  0  0  0  0  0  0
  153.6662  137.9533  156.8075 H   0  0  0  0  0  0  0  0  0  0  0  0
  150.4629  138.4046  158.4378 H   0  0  0  0  0  0  0  0  0  0  0  0
  151.1211  139.4416  157.2052 H   0  0  0  0  0  0  0  0  0  0  0  0
  153.1544  138.6996  155.2795 H   0  0  0  0  0  0  0  0  0  0  0  0
  152.3556  138.3965  153.7434 H   0  0  0  0  0  0  0  0  0  0  0  0
  150.6442  139.6556  155.3020 H   0  0  0  0  0  0  0  0  0  0  0  0
  149.9931  133.7217  154.5986 H   0  0  0  0  0  0  0  0  0  0  0  0
  148.9279  132.6396  156.5650 H   0  0  0  0  0  0  0  0  0  0  0  0
  148.8358  133.8189  158.7516 H   0  0  0  0  0  0  0  0  0  0  0  0
  149.8075  136.1010  158.9800 H   0  0  0  0  0  0  0  0  0  0  0  0
  153.4799  140.9095  161.5450 H   0  0  0  0  0  0  0  0  0  0  0  0
  1  2  1  0  0  0  0
  1 25  1  0  0  0  0
  1 26  1  0  0  0  0
  1 27  1  0  0  0  0
  2 24  1  0  0  0  0
  2  3  2  0  0  0  0
  3  4  1  0  0  0  0
  3 28  1  0  0  0  0
  4  5  1  0  0  0  0
  4  6  2  0  0  0  0
  5 29  1  0  0  0  0
  5 30  1  0  0  0  0
  5 31  1  0  0  0  0
  6  7  1  0  0  0  0
  6 32  1  0  0  0  0
  7  8  1  0  0  0  0
  7 24  2  0  0  0  0
  8  9  1  0  0  0  0
  9 10  1  0  0  0  0
  9 33  1  0  0  0  0
  9 34  1  0  0  0  0
 10 11  1  0  0  0  0
 10 12  1  0  0  0  0
 10 35  1  0  0  0  0
 11 36  1  0  0  0  0
 12 13  1  0  0  0  0
 12 37  1  0  0  0  0
 12 38  1  0  0  0  0
 13 23  1  0  0  0  0
 13 14  1  0  0  0  0
 14 15  1  0  0  0  0
 14 17  2  0  0  0  0
 15 16  1  0  0  0  0
 15 39  1  0  0  0  0
 15 40  1  0  0  0  0
 16 41  1  0  0  0  0
 17 18  1  0  0  0  0
 18 23  2  0  0  0  0
 18 19  1  0  0  0  0
 19 20  2  0  0  0  0
 19 42  1  0  0  0  0
 20 21  1  0  0  0  0
 20 43  1  0  0  0  0
 21 22  2  0  0  0  0
 21 44  1  0  0  0  0
 22 23  1  0  0  0  0
 22 45  1  0  0  0  0
 24 46  1  0  0  0  0
M  END
> <s_m_source_file>
AV-unprocessed.smi

> <i_m_source_file_index>
848

> <i_lp_mmshare_version>
43012

> <i_f3d_flags>
0

> <s_epik_input>
W0NIM11jMVtjSF1jKFtDSDNdKVtjSF1jKFtjSF0xKU9bQ0gyXVtDQEhdKFtPSF0pW0NIMl1uKGMobjIpW0NIMl1bT0hdKWMoYzIzKVtjSF1bY0hdW2NIXVtjSF0z

> <s_epik_cmdline>
J2VwaWtfcHl0aG9uJywgJy1waCcsICc3LjAnLCAnLXRuJywgJzgnLCAnLW1hJywgJzIwMCcsICctbWV0YWxfYmluZGluZycsICctaW1hZScsICc8aW5maWxlLm1hZT4nLCAnLW9tYWUnLCAnPG91dGZpbGUubWFlPic=

> <r_lp_tautomer_probability>
1

> <r_epik_Ionization_Penalty>
0.0554234

> <r_epik_Ionization_Penalty_Charging>
0

> <r_epik_Ionization_Penalty_Neutral>
0.0554234

> <r_epik_State_Penalty>
0.0476717

> <r_epik_Charging_Adjusted_Penalty>
0.0476717

> <i_epik_Tot_Q>
0

> <i_epik_Tot_abs_Q>
0

> <r_epik_Metal_State_Penalty>
4.96399e-05

> <b_epik_Metal_Only>
0

> <s_lp_Force_Field>
OPLS_2005

> <r_lp_Energy>
17.4445

> <b_lp_Chiralities_Consistent>
1

> <s_lp_Variant>
AV-unprocessed.smi:848-1

> <Gold.Version>
5.8.1

> <Gold.Id.Protein>
6NUR|6NUR_protein|mol2

> <Gold.PLP.Fitness>
56.1753

> <Gold.PLP.PLP>
-48.1680

> <Gold.PLP.part.hbond>
-2.8243

> <Gold.PLP.part.metal>
0.0000

> <Gold.PLP.part.buried>
-7.3906

> <Gold.PLP.part.nonpolar>
-39.1735

> <Gold.PLP.part.repulsive>
0.7242

> <Gold.PLP.ligand.clash>
0.0000

> <Gold.PLP.ligand.torsion>
0.5704

> <Gold.PLP.Chemscore.Hbond>
2.9760

> <Gold.PLP.Chemscore.CHOScore>
0.0000

> <Gold.PLP.Chemscore.Metal>
0.0000

> <Gold.Chemscore.Hbonds>
donor molecule, donor type, donor heavy atom, donor atom, acceptor molecule, acceptor atom, score
      P1  H  7989  7998       L1    16  1.00
      P1  H  7997  8008       L1    11  1.00
      P1  H 10752 10763       L1    17  1.00

> <Gold.PLP.Chemscore.Internal.Correction>
0.2202

> <Gold.Rescore>
     Score         DG    S(hbond)    S(metal)    S(lipo)     H(rot)  DE(clash)    DE(int)     intcor
     19.62     -20.33       1.93        0.00     136.58       2.96       0.12       0.59       ----

> <Gold.Chemscore.Fitness>
19.6165

> <Gold.Chemscore.DG>
-20.3251

> <Gold.Chemscore.ZeroCoef>
-5.4800

> <Gold.Chemscore.Hbond>
1.9259

> <Gold.Chemscore.Metal>
0.0000

> <Gold.Chemscore.Lipo>
136.5846

> <Gold.Chemscore.Internal_Hbond>
0.0000

> <Gold.Chemscore.DEClash>
0.1162

> <Gold.Chemscore.DEInternal>
0.5924

> <Gold.Chemscore.Rot>
2.9561

> <Gold.Chemscore.Internal.Correction>
   9.000000E+99

> <Gold.Chemscore.Hbonds>
donor molecule, donor type, donor heavy atom, donor atom, acceptor molecule, acceptor atom, score
      P1  H  7989  7998       L1    16  0.83
      P1  H  7997  8008       L1    11  0.88
      P1  H 10752 10763       L1    17  0.18

> <Gold.Chemscore.Hbond.Weighted>
-6.4324

> <Gold.Chemscore.Metal.Weighted>
-0.0000

> <Gold.Chemscore.Lipo.Weighted>
-15.9804

> <Gold.Chemscore.Internal_Hbond.Weighted>
0.0000

> <Gold.Chemscore.DEClash.Weighted>
0.1162

> <Gold.Chemscore.DEInternal.Weighted>
0.5924

> <Gold.Chemscore.Rot.Weighted>
7.5677

> <Gold.Chemscore.Internal.Correction.Weighted>
   9.000000E+99

> <Gold.Protein.RotatedTorsions>
[ 6907 6896 6895 6894 ] final  -55.43 input  -60.11 | X-H torsion
[ 7974 7965 7964 7962 ] final  -74.05 input  175.53 | X-H torsion
[ 8008 7997 7996 7995 ] final  -90.22 input   59.86 | X-H torsion
[ 10167 10162 10161 10158 ] final  -61.32 input  -65.29 | X-H torsion
[ 10718 10713 10712 10709 ] final  134.10 input   66.30 | X-H torsion
[ 10763 10752 10751 10750 ] final   47.18 input  -60.55 | X-H torsion
[ 11005 11000 10999 10996 ] final   96.39 input  -57.11 | X-H torsion

> <Gold.Protein.ActiveResidues>
 VAL166  LYS551  ARG553  GLY616  TRP617  ASP618  TYR619  PRO620  LYS621  CYS622 
 ASP623  PHE694  ASN695  SER759  ASP760  ASP761  ALA762  ILE779  LEU786  VAL792 
 PHE793  MET794  SER795  GLU796  ALA797  LYS798  CYS799  TRP800  GLU811  SER814 

> <Gold.Protein.RotatedAtoms>
  150.8252  134.7480  159.6806 H   0  0  0  0  0  0  0  0  0  0  0  0  # atno 6907 bound_to 6896
  152.4364  134.5675  159.9921 H   0  0  0  0  0  0  0  0  0  0  0  0  # atno 6908 bound_to 6896
  151.5849  133.3336  159.3052 H   0  0  0  0  0  0  0  0  0  0  0  0  # atno 6909 bound_to 6896
  145.6441  140.9302  143.1020 H   0  0  0  0  0  0  0  0  0  0  0  0  # atno 7974 bound_to 7965
  154.6960  140.0533  157.0410 H   0  0  0  0  0  0  0  0  0  0  0  0  # atno 8008 bound_to 7997
  155.0751  140.3203  155.4599 H   0  0  0  0  0  0  0  0  0  0  0  0  # atno 8009 bound_to 7997
  156.2744  140.2075  156.5879 H   0  0  0  0  0  0  0  0  0  0  0  0  # atno 8010 bound_to 7997
  140.6014  143.2362  151.5921 H   0  0  0  0  0  0  0  0  0  0  0  0  # atno 10167 bound_to 10162
  157.4707  131.1080  150.9806 H   0  0  0  0  0  0  0  0  0  0  0  0  # atno 10718 bound_to 10713
  152.9802  135.5984  154.3721 H   0  0  0  0  0  0  0  0  0  0  0  0  # atno 10763 bound_to 10752
  154.3393  135.2768  155.2433 H   0  0  0  0  0  0  0  0  0  0  0  0  # atno 10764 bound_to 10752
  154.4521  135.5987  153.6254 H   0  0  0  0  0  0  0  0  0  0  0  0  # atno 10765 bound_to 10752
  139.8782  134.8948  156.4151 H   0  0  0  0  0  0  0  0  0  0  0  0  # atno 11005 bound_to 11000
  144.7146  139.8242  143.7403 LP  0  0  0  0  0  0  0  0  0  0  0  0  # atno 17320 bound_to 7965
  146.1257  139.4283  143.0200 LP  0  0  0  0  0  0  0  0  0  0  0  0  # atno 17321 bound_to 7965
  139.5293  144.2963  152.1111 LP  0  0  0  0  0  0  0  0  0  0  0  0  # atno 17342 bound_to 10162
  140.2144  144.4530  150.6371 LP  0  0  0  0  0  0  0  0  0  0  0  0  # atno 17343 bound_to 10162
  157.0572  130.5811  149.5380 LP  0  0  0  0  0  0  0  0  0  0  0  0  # atno 17370 bound_to 10713
  156.0072  130.5160  150.7869 LP  0  0  0  0  0  0  0  0  0  0  0  0  # atno 17371 bound_to 10713
  140.9173  133.7670  155.9863 LP  0  0  0  0  0  0  0  0  0  0  0  0  # atno 17394 bound_to 11000
  140.8479  134.2988  157.5287 LP  0  0  0  0  0  0  0  0  0  0  0  0  # atno 17395 bound_to 11000

$$$$
