AV-unprocessed.smi:683|AV-procd|sdf|3330|dock1
  -GOLD-   22720 0293D 1   1.00000     0.00000
 Structure written by MMmdl.
 30 31  0  0  0  0  0  0  0  0  1 V2000
  153.7390  142.1443  162.3816 N   0  0  0  0  0  0  0  0  0  0  0  0
  153.1530  142.6531  161.5234 C   0  0  0  0  0  0  0  0  0  0  0  0
  152.4166  143.2927  160.4459 C   0  0  0  0  0  0  0  0  0  0  0  0
  152.1050  144.6647  160.5234 C   0  0  0  0  0  0  0  0  0  0  0  0
  151.3912  145.2811  159.4792 C   0  0  0  0  0  0  0  0  0  0  0  0
  150.9897  144.5275  158.3599 C   0  0  0  0  0  0  0  0  0  0  0  0
  151.2937  143.1537  158.2669 C   0  0  0  0  0  0  0  0  0  0  0  0
  150.8616  142.4939  157.1363 O   0  0  0  0  0  0  0  0  0  0  0  0
  150.8317  141.0737  157.1561 C   0  0  0  0  0  0  0  0  0  0  0  0
  151.2003  140.5583  155.7565 C   0  0  0  0  0  0  0  0  0  0  0  0
  150.0571  140.4295  154.8875 N   0  0  0  0  0  0  0  0  0  0  0  0
  149.0673  141.3971  154.8107 C   0  0  0  0  0  0  0  0  0  0  0  0
  147.9793  141.2843  154.0109 C   0  0  0  0  0  0  0  0  0  0  0  0
  146.7872  142.5338  153.9706 Cl  0  0  0  0  0  0  0  0  0  0  0  0
  147.8050  140.0966  153.1753 C   0  0  0  0  0  0  0  0  0  0  0  0
  146.8612  139.8936  152.4141 O   0  0  0  0  0  0  0  0  0  0  0  0
  148.8223  139.1445  153.2919 N   0  0  0  0  0  0  0  0  0  0  0  0
  149.9442  139.2510  154.1145 C   0  0  0  0  0  0  0  0  0  0  0  0
  150.7736  138.3417  154.1425 O   0  0  0  0  0  0  0  0  0  0  0  0
  152.0134  142.5396  159.3235 C   0  0  0  0  0  0  0  0  0  0  0  0
  148.7367  138.3074  152.7337 H   0  0  0  0  0  0  0  0  0  0  0  0
  152.4102  145.2495  161.3795 H   0  0  0  0  0  0  0  0  0  0  0  0
  151.1514  146.3325  159.5364 H   0  0  0  0  0  0  0  0  0  0  0  0
  150.4429  145.0097  157.5628 H   0  0  0  0  0  0  0  0  0  0  0  0
  151.5395  140.6961  157.8956 H   0  0  0  0  0  0  0  0  0  0  0  0
  149.8347  140.7215  157.4264 H   0  0  0  0  0  0  0  0  0  0  0  0
  151.8854  141.2475  155.2602 H   0  0  0  0  0  0  0  0  0  0  0  0
  151.7067  139.5910  155.7853 H   0  0  0  0  0  0  0  0  0  0  0  0
  149.1620  142.2861  155.4180 H   0  0  0  0  0  0  0  0  0  0  0  0
  152.2654  141.4899  159.2910 H   0  0  0  0  0  0  0  0  0  0  0  0
  1  2  3  0  0  0  0
  2  3  1  0  0  0  0
  3 20  1  0  0  0  0
  3  4  2  0  0  0  0
  4  5  1  0  0  0  0
  4 22  1  0  0  0  0
  5  6  2  0  0  0  0
  5 23  1  0  0  0  0
  6  7  1  0  0  0  0
  6 24  1  0  0  0  0
  7  8  1  0  0  0  0
  7 20  2  0  0  0  0
  8  9  1  0  0  0  0
  9 10  1  0  0  0  0
  9 25  1  0  0  0  0
  9 26  1  0  0  0  0
 10 11  1  0  0  0  0
 10 27  1  0  0  0  0
 10 28  1  0  0  0  0
 11 18  1  0  0  0  0
 11 12  1  0  0  0  0
 12 13  2  0  0  0  0
 12 29  1  0  0  0  0
 13 14  1  0  0  0  0
 13 15  1  0  0  0  0
 15 16  2  0  0  0  0
 15 17  1  0  0  0  0
 17 21  1  0  0  0  0
 17 18  1  0  0  0  0
 18 19  2  0  0  0  0
 20 30  1  0  0  0  0
M  END
> <s_m_source_file>
AV-unprocessed.smi

> <i_m_source_file_index>
683

> <i_lp_mmshare_version>
43012

> <i_f3d_flags>
0

> <s_epik_input>
TiNDYzFbY0hdW2NIXVtjSF1jKFtjSF0xKU9bQ0gyXVtDSDJdbjJbY0hdYyhDbCljKD1PKVtuSF1jMj1P

> <s_epik_cmdline>
J2VwaWtfcHl0aG9uJywgJy1waCcsICc3LjAnLCAnLXRuJywgJzgnLCAnLW1hJywgJzIwMCcsICctbWV0YWxfYmluZGluZycsICctaW1hZScsICc8aW5maWxlLm1hZT4nLCAnLW9tYWUnLCAnPG91dGZpbGUubWFlPic=

> <r_lp_tautomer_probability>
0.999537

> <r_epik_Ionization_Penalty>
0.0498777

> <r_epik_Ionization_Penalty_Charging>
0.0498777

> <r_epik_Ionization_Penalty_Neutral>
0

> <r_epik_State_Penalty>
0.042632

> <r_epik_Charging_Adjusted_Penalty>
0.0925097

> <i_epik_Tot_Q>
0

> <i_epik_Tot_abs_Q>
0

> <r_epik_Metal_State_Penalty>
2.56282

> <b_epik_Metal_Only>
0

> <s_lp_Force_Field>
OPLS_2005

> <r_lp_Energy>
12.7666

> <b_lp_Chiralities_Consistent>
1

> <s_lp_Variant>
AV-unprocessed.smi:683-1

> <Gold.Version>
5.8.1

> <Gold.Id.Protein>
6NUR|6NUR_protein|mol2

> <Gold.PLP.Fitness>
50.7225

> <Gold.PLP.PLP>
-47.2930

> <Gold.PLP.part.hbond>
-1.9848

> <Gold.PLP.part.metal>
0.0000

> <Gold.PLP.part.buried>
-4.6126

> <Gold.PLP.part.nonpolar>
-42.0345

> <Gold.PLP.part.repulsive>
1.4525

> <Gold.PLP.ligand.clash>
0.0000

> <Gold.PLP.ligand.torsion>
0.8257

> <Gold.PLP.Chemscore.Hbond>
0.6988

> <Gold.PLP.Chemscore.CHOScore>
0.9847

> <Gold.PLP.Chemscore.Metal>
0.0000

> <Gold.Chemscore.Hbonds>
donor molecule, donor type, donor heavy atom, donor atom, acceptor molecule, acceptor atom, score
      L1  H    17    21       P1  7948  0.50
      L1  C    12    29       P1  8028  1.00

> <Gold.PLP.Chemscore.Internal.Correction>
0.0305

> <Gold.Rescore>
     Score         DG    S(hbond)    S(metal)    S(lipo)     H(rot)  DE(clash)    DE(int)     intcor
     13.78     -14.77       0.98        0.00      95.82       2.03       0.01       0.98       ----

> <Gold.Chemscore.Fitness>
13.7780

> <Gold.Chemscore.DG>
-14.7659

> <Gold.Chemscore.ZeroCoef>
-5.4800

> <Gold.Chemscore.Hbond>
0.9765

> <Gold.Chemscore.Metal>
0.0000

> <Gold.Chemscore.Lipo>
95.8155

> <Gold.Chemscore.Internal_Hbond>
0.0000

> <Gold.Chemscore.DEClash>
0.0060

> <Gold.Chemscore.DEInternal>
0.9819

> <Gold.Chemscore.Rot>
2.0258

> <Gold.Chemscore.Internal.Correction>
   9.000000E+99

> <Gold.Chemscore.Hbonds>
donor molecule, donor type, donor heavy atom, donor atom, acceptor molecule, acceptor atom, score
      L1  H    17    21       P1  7948  0.50

> <Gold.Chemscore.Hbond.Weighted>
-3.2614

> <Gold.Chemscore.Metal.Weighted>
-0.0000

> <Gold.Chemscore.Lipo.Weighted>
-11.2104

> <Gold.Chemscore.Internal_Hbond.Weighted>
0.0000

> <Gold.Chemscore.DEClash.Weighted>
0.0060

> <Gold.Chemscore.DEInternal.Weighted>
0.9819

> <Gold.Chemscore.Rot.Weighted>
5.1860

> <Gold.Chemscore.Internal.Correction.Weighted>
   9.000000E+99

> <Gold.Protein.RotatedTorsions>
[ 6907 6896 6895 6894 ] final  -65.94 input  -60.11 | X-H torsion
[ 7974 7965 7964 7962 ] final  134.65 input  175.53 | X-H torsion
[ 8008 7997 7996 7995 ] final   67.65 input   59.86 | X-H torsion
[ 10167 10162 10161 10158 ] final   79.46 input  -65.29 | X-H torsion
[ 10718 10713 10712 10709 ] final    5.47 input   66.30 | X-H torsion
[ 10763 10752 10751 10750 ] final   17.99 input  -60.55 | X-H torsion
[ 11005 11000 10999 10996 ] final -164.12 input  -57.11 | X-H torsion

> <Gold.Protein.ActiveResidues>
 VAL166  LYS551  ARG553  GLY616  TRP617  ASP618  TYR619  PRO620  LYS621  CYS622 
 ASP623  PHE694  ASN695  SER759  ASP760  ASP761  ALA762  ILE779  LEU786  VAL792 
 PHE793  MET794  SER795  GLU796  ALA797  LYS798  CYS799  TRP800  GLU811  SER814 

> <Gold.Protein.RotatedAtoms>
  150.7494  134.6091  159.6076 H   0  0  0  0  0  0  0  0  0  0  0  0  # atno 6907 bound_to 6896
  152.3430  134.7106  160.0267 H   0  0  0  0  0  0  0  0  0  0  0  0  # atno 6908 bound_to 6896
  151.7552  133.3294  159.3439 H   0  0  0  0  0  0  0  0  0  0  0  0  # atno 6909 bound_to 6896
  144.9742  139.4573  143.5418 H   0  0  0  0  0  0  0  0  0  0  0  0  # atno 7974 bound_to 7965
  155.6962  140.3495  155.4914 H   0  0  0  0  0  0  0  0  0  0  0  0  # atno 8008 bound_to 7997
  155.9481  140.1114  157.1022 H   0  0  0  0  0  0  0  0  0  0  0  0  # atno 8009 bound_to 7997
  154.4116  140.1199  156.5002 H   0  0  0  0  0  0  0  0  0  0  0  0  # atno 8010 bound_to 7997
  139.9601  144.5967  150.8080 H   0  0  0  0  0  0  0  0  0  0  0  0  # atno 10167 bound_to 10162
  156.9079  130.5745  149.5647 H   0  0  0  0  0  0  0  0  0  0  0  0  # atno 10718 bound_to 10713
  153.1289  135.6736  153.9211 H   0  0  0  0  0  0  0  0  0  0  0  0  # atno 10763 bound_to 10752
  153.8704  135.3070  155.3443 H   0  0  0  0  0  0  0  0  0  0  0  0  # atno 10764 bound_to 10752
  154.7689  135.4949  153.9691 H   0  0  0  0  0  0  0  0  0  0  0  0  # atno 10765 bound_to 10752
  140.5905  134.5049  157.5192 H   0  0  0  0  0  0  0  0  0  0  0  0  # atno 11005 bound_to 11000
  146.3390  139.8974  142.8800 LP  0  0  0  0  0  0  0  0  0  0  0  0  # atno 17320 bound_to 7965
  145.2514  141.0045  143.3878 LP  0  0  0  0  0  0  0  0  0  0  0  0  # atno 17321 bound_to 7965
  140.7556  143.3049  151.2987 LP  0  0  0  0  0  0  0  0  0  0  0  0  # atno 17342 bound_to 10162
  139.6561  144.0274  152.2660 LP  0  0  0  0  0  0  0  0  0  0  0  0  # atno 17343 bound_to 10162
  156.0550  130.5613  150.9072 LP  0  0  0  0  0  0  0  0  0  0  0  0  # atno 17370 bound_to 10713
  157.5986  131.0942  150.8999 LP  0  0  0  0  0  0  0  0  0  0  0  0  # atno 17371 bound_to 10713
  139.9276  134.8025  156.1023 LP  0  0  0  0  0  0  0  0  0  0  0  0  # atno 17394 bound_to 11000
  141.0938  133.6704  156.2599 LP  0  0  0  0  0  0  0  0  0  0  0  0  # atno 17395 bound_to 11000

$$$$
