AV-unprocessed.smi:3317|AV-procd|sdf|12761|dock9
  -GOLD-   2272019103D 1   1.00000     0.00000
 Structure written by MMmdl.
 36 37  0  0  0  0  0  0  0  0  1 V2000
  151.8261  145.4723  159.3634 C   0  0  0  0  0  0  0  0  0  0  0  0
  151.5636  144.2500  158.6899 O   0  0  0  0  0  0  0  0  0  0  0  0
  152.1981  143.1073  159.1372 C   0  0  0  0  0  0  0  0  0  0  0  0
  153.0735  143.0818  160.2528 C   0  0  0  0  0  0  0  0  0  0  0  0
  153.6719  141.8681  160.6324 C   0  0  0  0  0  0  0  0  0  0  0  0
  153.3749  140.7183  159.8824 C   0  0  0  0  0  0  0  0  0  0  0  0
  152.5466  140.7284  158.8198 N   0  0  0  0  0  0  0  0  0  0  0  0
  151.9616  141.8925  158.4424 C   0  0  0  0  0  0  0  0  0  0  0  0
  151.0785  141.9879  157.3323 N   0  0  0  0  0  0  0  0  0  0  0  0
  150.9571  141.1599  156.2776 C   0  0  0  0  0  0  0  0  0  0  0  0
  151.6324  140.1467  156.0982 O   0  0  0  0  0  0  0  0  0  0  0  0
  149.9079  141.5536  155.2384 C   0  0  0  0  0  0  0  0  0  0  0  0
  148.6251  141.5618  155.8506 O   0  0  0  0  0  0  0  0  0  0  0  0
  147.6163  140.9085  155.0917 C   0  0  0  0  0  0  0  0  0  0  0  0
  147.4490  141.6753  153.7799 C   0  0  0  0  0  0  0  0  0  0  0  0
  146.5494  142.8681  154.1223 C   0  0  0  0  0  0  0  0  0  0  0  0
  145.7603  142.4640  155.3772 C   0  0  0  0  0  0  0  0  0  0  0  0
  146.2430  141.0590  155.7566 C   0  0  0  0  0  0  0  0  0  0  0  0
  151.2507  146.2709  158.8952 H   0  0  0  0  0  0  0  0  0  0  0  0
  152.8806  145.7441  159.2979 H   0  0  0  0  0  0  0  0  0  0  0  0
  151.5287  145.4240  160.4118 H   0  0  0  0  0  0  0  0  0  0  0  0
  153.2984  143.9683  160.8261 H   0  0  0  0  0  0  0  0  0  0  0  0
  154.3422  141.8202  161.4777 H   0  0  0  0  0  0  0  0  0  0  0  0
  153.8137  139.7662  160.1413 H   0  0  0  0  0  0  0  0  0  0  0  0
  150.4538  142.7812  157.3464 H   0  0  0  0  0  0  0  0  0  0  0  0
  150.1512  142.5440  154.8511 H   0  0  0  0  0  0  0  0  0  0  0  0
  149.9397  140.8523  154.4040 H   0  0  0  0  0  0  0  0  0  0  0  0
  147.8822  139.8664  154.9054 H   0  0  0  0  0  0  0  0  0  0  0  0
  148.4008  141.9770  153.3413 H   0  0  0  0  0  0  0  0  0  0  0  0
  146.9414  141.0390  153.0539 H   0  0  0  0  0  0  0  0  0  0  0  0
  147.1599  143.7452  154.3404 H   0  0  0  0  0  0  0  0  0  0  0  0
  145.8935  143.1256  153.2902 H   0  0  0  0  0  0  0  0  0  0  0  0
  145.9713  143.1647  156.1860 H   0  0  0  0  0  0  0  0  0  0  0  0
  144.6839  142.4800  155.2043 H   0  0  0  0  0  0  0  0  0  0  0  0
  145.5610  140.3210  155.3324 H   0  0  0  0  0  0  0  0  0  0  0  0
  146.2565  140.9003  156.8345 H   0  0  0  0  0  0  0  0  0  0  0  0
  1  2  1  0  0  0  0
  1 19  1  0  0  0  0
  1 20  1  0  0  0  0
  1 21  1  0  0  0  0
  2  3  1  0  0  0  0
  3  8  1  0  0  0  0
  3  4  2  0  0  0  0
  4  5  1  0  0  0  0
  4 22  1  0  0  0  0
  5  6  2  0  0  0  0
  5 23  1  0  0  0  0
  6  7  1  0  0  0  0
  6 24  1  0  0  0  0
  7  8  2  0  0  0  0
  8  9  1  0  0  0  0
  9 10  1  0  0  0  0
  9 25  1  0  0  0  0
 10 11  2  0  0  0  0
 10 12  1  0  0  0  0
 12 13  1  0  0  0  0
 12 26  1  0  0  0  0
 12 27  1  0  0  0  0
 13 14  1  0  0  0  0
 14 18  1  0  0  0  0
 14 15  1  0  0  0  0
 14 28  1  0  0  0  0
 15 16  1  0  0  0  0
 15 29  1  0  0  0  0
 15 30  1  0  0  0  0
 16 17  1  0  0  0  0
 16 31  1  0  0  0  0
 16 32  1  0  0  0  0
 17 18  1  0  0  0  0
 17 33  1  0  0  0  0
 17 34  1  0  0  0  0
 18 35  1  0  0  0  0
 18 36  1  0  0  0  0
M  END
> <s_m_source_file>
AV-unprocessed.smi

> <i_m_source_file_index>
3317

> <i_lp_mmshare_version>
43012

> <i_f3d_flags>
0

> <s_epik_input>
W0NIM11PYzFbY0hdW2NIXVtjSF1uYzFbTkhdQyg9TylbQ0gyXU9bQ0hdMltDSDJdW0NIMl1bQ0gyXVtDSDJdMg==

> <s_epik_cmdline>
J2VwaWtfcHl0aG9uJywgJy1waCcsICc3LjAnLCAnLXRuJywgJzgnLCAnLW1hJywgJzIwMCcsICctbWV0YWxfYmluZGluZycsICctaW1hZScsICc8aW5maWxlLm1hZT4nLCAnLW9tYWUnLCAnPG91dGZpbGUubWFlPic=

> <r_lp_tautomer_probability>
1

> <r_epik_Ionization_Penalty>
0.000545986

> <r_epik_Ionization_Penalty_Charging>
0

> <r_epik_Ionization_Penalty_Neutral>
0.000545986

> <r_epik_State_Penalty>
-0

> <r_epik_Charging_Adjusted_Penalty>
0

> <i_epik_Tot_Q>
0

> <i_epik_Tot_abs_Q>
0

> <r_epik_Metal_State_Penalty>
-0

> <b_epik_Metal_Only>
0

> <s_lp_Force_Field>
OPLS_2005

> <r_lp_Energy>
28.4297

> <b_lp_Chiralities_Consistent>
1

> <s_lp_Variant>
AV-unprocessed.smi:3317-1

> <Gold.Version>
5.8.1

> <Gold.Id.Protein>
6NUR|6NUR_protein|mol2

> <Gold.PLP.Fitness>
37.6883

> <Gold.PLP.PLP>
-38.5446

> <Gold.PLP.part.hbond>
0.0000

> <Gold.PLP.part.metal>
0.0000

> <Gold.PLP.part.buried>
-6.1856

> <Gold.PLP.part.nonpolar>
-32.3532

> <Gold.PLP.part.repulsive>
0.2502

> <Gold.PLP.ligand.clash>
0.0000

> <Gold.PLP.ligand.torsion>
0.4375

> <Gold.PLP.Chemscore.Hbond>
0.0000

> <Gold.PLP.Chemscore.CHOScore>
0.0000

> <Gold.PLP.Chemscore.Metal>
0.0000

> <Gold.PLP.Chemscore.Internal.Correction>
0.0188

> <Gold.Rescore>
     Score         DG    S(hbond)    S(metal)    S(lipo)     H(rot)  DE(clash)    DE(int)     intcor
     10.21     -11.94       0.00        0.00      90.52       1.61       0.11       1.62       ----

> <Gold.Chemscore.Fitness>
10.2085

> <Gold.Chemscore.DG>
-11.9422

> <Gold.Chemscore.ZeroCoef>
-5.4800

> <Gold.Chemscore.Hbond>
0.0000

> <Gold.Chemscore.Metal>
0.0000

> <Gold.Chemscore.Lipo>
90.5194

> <Gold.Chemscore.Internal_Hbond>
0.0000

> <Gold.Chemscore.DEClash>
0.1110

> <Gold.Chemscore.DEInternal>
1.6227

> <Gold.Chemscore.Rot>
1.6127

> <Gold.Chemscore.Internal.Correction>
   9.000000E+99

> <Gold.Chemscore.Hbond.Weighted>
-0.0000

> <Gold.Chemscore.Metal.Weighted>
-0.0000

> <Gold.Chemscore.Lipo.Weighted>
-10.5908

> <Gold.Chemscore.Internal_Hbond.Weighted>
0.0000

> <Gold.Chemscore.DEClash.Weighted>
0.1110

> <Gold.Chemscore.DEInternal.Weighted>
1.6227

> <Gold.Chemscore.Rot.Weighted>
4.1285

> <Gold.Chemscore.Internal.Correction.Weighted>
   9.000000E+99

> <Gold.Protein.RotatedTorsions>
[ 6907 6896 6895 6894 ] final  -12.02 input  -60.11 | X-H torsion
[ 7974 7965 7964 7962 ] final   85.71 input  175.53 | X-H torsion
[ 8008 7997 7996 7995 ] final  -71.04 input   59.86 | X-H torsion
[ 10167 10162 10161 10158 ] final  169.24 input  -65.29 | X-H torsion
[ 10718 10713 10712 10709 ] final -177.99 input   66.30 | X-H torsion
[ 10763 10752 10751 10750 ] final   85.35 input  -60.55 | X-H torsion
[ 11005 11000 10999 10996 ] final -103.28 input  -57.11 | X-H torsion

> <Gold.Protein.ActiveResidues>
 VAL166  LYS551  ARG553  GLY616  TRP617  ASP618  TYR619  PRO620  LYS621  CYS622 
 ASP623  PHE694  ASN695  SER759  ASP760  ASP761  ALA762  ILE779  LEU786  VAL792 
 PHE793  MET794  SER795  GLU796  ALA797  LYS798  CYS799  TRP800  GLU811  SER814 

> <Gold.Protein.RotatedAtoms>
  151.3770  135.0933  159.9483 H   0  0  0  0  0  0  0  0  0  0  0  0  # atno 6907 bound_to 6896
  152.5119  133.9109  159.7497 H   0  0  0  0  0  0  0  0  0  0  0  0  # atno 6908 bound_to 6896
  150.9534  133.6469  159.2796 H   0  0  0  0  0  0  0  0  0  0  0  0  # atno 6909 bound_to 6896
  145.5819  139.2326  143.2348 H   0  0  0  0  0  0  0  0  0  0  0  0  # atno 7974 bound_to 7965
  154.5058  140.0823  156.7890 H   0  0  0  0  0  0  0  0  0  0  0  0  # atno 8008 bound_to 7997
  155.3898  140.3432  155.4232 H   0  0  0  0  0  0  0  0  0  0  0  0  # atno 8009 bound_to 7997
  156.1513  140.1559  156.8752 H   0  0  0  0  0  0  0  0  0  0  0  0  # atno 8010 bound_to 7997
  139.4987  144.3727  151.9707 H   0  0  0  0  0  0  0  0  0  0  0  0  # atno 10167 bound_to 10162
  156.8376  130.9675  151.3102 H   0  0  0  0  0  0  0  0  0  0  0  0  # atno 10718 bound_to 10713
  153.1467  135.4620  154.9576 H   0  0  0  0  0  0  0  0  0  0  0  0  # atno 10763 bound_to 10752
  154.7792  135.3183  154.8030 H   0  0  0  0  0  0  0  0  0  0  0  0  # atno 10764 bound_to 10752
  153.8542  135.6918  153.4843 H   0  0  0  0  0  0  0  0  0  0  0  0  # atno 10765 bound_to 10752
  141.1152  133.8627  157.1467 H   0  0  0  0  0  0  0  0  0  0  0  0  # atno 11005 bound_to 11000
  146.1710  140.6645  142.9233 LP  0  0  0  0  0  0  0  0  0  0  0  0  # atno 17320 bound_to 7965
  144.7390  140.4890  143.6883 LP  0  0  0  0  0  0  0  0  0  0  0  0  # atno 17321 bound_to 7965
  140.3163  144.3479  150.6021 LP  0  0  0  0  0  0  0  0  0  0  0  0  # atno 17342 bound_to 10162
  140.5758  143.2176  151.7517 LP  0  0  0  0  0  0  0  0  0  0  0  0  # atno 17343 bound_to 10162
  157.6373  130.8777  149.9382 LP  0  0  0  0  0  0  0  0  0  0  0  0  # atno 17370 bound_to 10713
  156.0898  130.3664  150.0416 LP  0  0  0  0  0  0  0  0  0  0  0  0  # atno 17371 bound_to 10713
  140.0070  135.0004  157.0314 LP  0  0  0  0  0  0  0  0  0  0  0  0  # atno 17394 bound_to 11000
  140.4664  134.1431  155.7197 LP  0  0  0  0  0  0  0  0  0  0  0  0  # atno 17395 bound_to 11000

$$$$
