#       Name:                AV-unprocessed.smi:1726
#       Creating user name   scv26
#       Creation time:       Fri Mar 27 08:17:36 2020


#       File generated by GOLD software.
#

@<TRIPOS>MOLECULE
AV-unprocessed.smi:1726
    47    48     1
SMALL
NO_CHARGES


@<TRIPOS>ATOM
      1 ****        -1.5527  -2.1107  -2.3656 C.3            1 S1                 0.0000
      2 ****        -2.4520  -2.5781  -1.2117 C.3            1 S1                 0.0000
      3 ****        -2.0802  -1.9506   0.0807 N.4            1 S1                 1.0000
      4 ****        -2.5252  -2.7501   1.2517 C.3            1 S1                 0.0000
      5 ****        -1.9872  -2.1579   2.5663 C.3            1 S1                 0.0000
      6 ****        -2.3648  -0.6737   2.7123 C.3            1 S1                 0.0000
      7 ****        -1.9469   0.1275   1.4661 C.3            1 S1                 0.0000
      8 ****        -0.4882   0.2285   1.4047 N.am           1 S1                 0.0000
      9 ****         0.2005   1.0635   0.6131 C.2            1 S1                 0.0000
     10 ****        -0.3407   1.8555  -0.1574 O.2            1 S1                 0.0000
     11 ****         1.5245   0.9050   0.7888 N.am           1 S1                 0.0000
     12 ****         2.5992   1.5309   0.1334 C.2            1 S1                 0.0000
     13 ****         2.4951   2.2857  -0.9962 C.2            1 S1                 0.0000
     14 ****         3.6551   2.8967  -1.6338 C.2            1 S1                 0.0000
     15 ****         3.5932   3.7558  -2.8837 C.3            1 S1                 0.0000
     16 ****         4.0729   4.9730  -2.6301 F              1 S1                 0.0000
     17 ****         4.3325   3.2149  -3.8515 F              1 S1                 0.0000
     18 ****         2.3428   3.8803  -3.3290 F              1 S1                 0.0000
     19 ****         4.8317   2.6098  -0.9715 C.2            1 S1                 0.0000
     20 ****         5.0222   1.8667   0.1404 N.pl3          1 S1                -1.0000
     21 ****         3.9313   1.3035   0.7318 C.2            1 S1                 0.0000
     22 ****         4.0335   0.6124   1.7461 O.2            1 S1                 0.0000
     23 ****        -2.5284  -0.5378   0.1988 C.3            1 S1                 0.0000
     24 ****        -1.7997  -2.6438  -3.2840 H              1 S1                 0.0000
     25 ****        -0.5014  -2.3010  -2.1471 H              1 S1                 0.0000
     26 ****        -1.6648  -1.0466  -2.5708 H              1 S1                 0.0000
     27 ****        -3.5020  -2.3849  -1.4356 H              1 S1                 0.0000
     28 ****        -2.3482  -3.6608  -1.1302 H              1 S1                 0.0000
     29 ****        -3.6156  -2.7886   1.2737 H              1 S1                 0.0000
     30 ****        -2.1737  -3.7781   1.1544 H              1 S1                 0.0000
     31 ****        -2.3744  -2.7237   3.4141 H              1 S1                 0.0000
     32 ****        -0.9024  -2.2670   2.5970 H              1 S1                 0.0000
     33 ****        -3.4437  -0.5897   2.8498 H              1 S1                 0.0000
     34 ****        -1.9088  -0.2532   3.6095 H              1 S1                 0.0000
     35 ****        -2.3512   1.1373   1.5558 H              1 S1                 0.0000
     36 ****         0.0363  -0.3770   2.0194 H              1 S1                 0.0000
     37 ****         1.8069   0.2544   1.5074 H              1 S1                 0.0000
     38 ****         1.5417   2.4457  -1.4699 H              1 S1                 0.0000
     39 ****         5.7588   3.0448  -1.4025 H              1 S1                 0.0000
     40 ****        -2.2358   0.0304  -0.6830 H              1 S1                 0.0000
     41 ****        -3.6189  -0.5060   0.2290 H              1 S1                 0.0000
     42 ****        -1.0706  -1.9419   0.1113 H              1 S1                 0.0000
     43 ****        -1.3383   1.8963  -0.2132 LP             1 S1                 0.0000
     44 ****         0.2170   2.4583  -0.7280 LP             1 S1                 0.0000
     45 ****         5.9381   1.7336   0.5189 LP             1 S1                 0.0000
     46 ****         3.2178   0.2086   2.1602 LP             1 S1                 0.0000
     47 ****         4.9322   0.4550   2.1554 LP             1 S1                 0.0000
@<TRIPOS>BOND
    1    1    2 1     
    2    1   24 1     
    3    1   25 1     
    4    1   26 1     
    5    2    3 1     
    6    2   27 1     
    7    2   28 1     
    8    3   23 1     
    9    3    4 1     
   10    3   42 1     
   11    4    5 1     
   12    4   29 1     
   13    4   30 1     
   14    5    6 1     
   15    5   31 1     
   16    5   32 1     
   17    6    7 1     
   18    6   33 1     
   19    6   34 1     
   20    7    8 1     
   21    7   23 1     
   22    7   35 1     
   23    8    9 am    
   24    8   36 1     
   25    9   10 2     
   26    9   11 am    
   27   11   12 1     
   28   11   37 1     
   29   12   21 1     
   30   12   13 2     
   31   13   14 1     
   32   13   38 1     
   33   14   15 1     
   34   14   19 2     
   35   15   16 1     
   36   15   17 1     
   37   15   18 1     
   38   19   20 1     
   39   19   39 1     
   40   20   21 1     
   41   21   22 2     
   42   23   40 1     
   43   23   41 1     
   44   10   43 1     
   45   10   44 1     
   46   20   45 1     
   47   22   46 1     
   48   22   47 1     
@<TRIPOS>SUBSTRUCTURE
      1 S1             1
@<TRIPOS>SET
LONE_PAIRS      STATIC     ATOMS    <user>   **** ""
5 43 44 45 46 47
DONOR_HYDROGENS      STATIC     ATOMS    <user>   **** ""
3 42 36 37
ATOM$BLUE        STATIC     ATOMS    COLORGROUP SYSTEM
5 43 44 45 46 47
ATOM$RED        STATIC     ATOMS    COLORGROUP SYSTEM
3 42 36 37
