AV-unprocessed.smi:2163|AV-procd|sdf|8807|dock6
  -GOLD-   2272011593D 1   1.00000     0.00000
 Structure written by MMmdl.
 44 46  0  0  0  0  0  0  0  0  2 V2000
  149.6331  141.1900  155.2873 C   0  0  0  0  0  0  0  0  0  0  0  0
  150.4232  141.8311  156.3781 C   0  0  0  0  0  0  0  0  0  0  0  0
  150.4276  143.1578  156.6905 N   0  3  0  0  0  0  0  0  0  0  0  0
  151.2856  143.3864  157.7674 C   0  0  0  0  0  0  0  0  0  0  0  0
  151.6172  144.5608  158.4362 C   0  0  0  0  0  0  0  0  0  0  0  0
  152.5332  144.4444  159.5024 C   0  0  0  0  0  0  0  0  0  0  0  0
  153.0824  143.1977  159.8665 C   0  0  0  0  0  0  0  0  0  0  0  0
  152.7391  142.0140  159.1806 C   0  0  0  0  0  0  0  0  0  0  0  0
  151.8318  142.1379  158.1288 C   0  0  0  0  0  0  0  0  0  0  0  0
  151.2699  141.2082  157.2475 N   0  0  0  0  0  0  0  0  0  0  0  0
  151.6391  139.7891  157.3694 C   0  0  0  0  0  0  0  0  0  0  0  0
  151.5892  139.0361  156.0239 C   0  0  1  0  0  0  0  0  0  0  0  0
  152.7440  139.3608  155.2746 O   0  0  0  0  0  0  0  0  0  0  0  0
  151.5453  137.5124  156.2202 C   0  0  0  0  0  0  0  0  0  0  0  0
  150.2205  137.1315  156.5677 O   0  0  0  0  0  0  0  0  0  0  0  0
  149.6702  136.0340  155.9408 C   0  0  0  0  0  0  0  0  0  0  0  0
  148.2819  135.8596  155.7100 C   0  0  0  0  0  0  0  0  0  0  0  0
  147.8056  134.6983  155.0707 C   0  0  0  0  0  0  0  0  0  0  0  0
  148.7049  133.6990  154.6507 C   0  0  0  0  0  0  0  0  0  0  0  0
  148.1893  132.4486  153.9694 C   0  0  0  0  0  0  0  0  0  0  0  0
  147.3596  132.7598  152.7958 C   0  0  0  0  0  0  0  0  0  0  0  0
  146.7065  133.0043  151.8725 N   0  0  0  0  0  0  0  0  0  0  0  0
  150.0859  133.8699  154.8678 C   0  0  0  0  0  0  0  0  0  0  0  0
  150.5612  135.0302  155.5085 C   0  0  0  0  0  0  0  0  0  0  0  0
  149.0145  141.9284  154.7767 H   0  0  0  0  0  0  0  0  0  0  0  0
  148.9828  140.4172  155.6973 H   0  0  0  0  0  0  0  0  0  0  0  0
  150.3017  140.7330  154.5575 H   0  0  0  0  0  0  0  0  0  0  0  0
  151.1980  145.5170  158.1595 H   0  0  0  0  0  0  0  0  0  0  0  0
  152.8200  145.3293  160.0520 H   0  0  0  0  0  0  0  0  0  0  0  0
  153.7808  143.1475  160.6894 H   0  0  0  0  0  0  0  0  0  0  0  0
  153.1632  141.0633  159.4675 H   0  0  0  0  0  0  0  0  0  0  0  0
  152.6430  139.7418  157.7927 H   0  0  0  0  0  0  0  0  0  0  0  0
  150.9764  139.3254  158.1013 H   0  0  0  0  0  0  0  0  0  0  0  0
  150.7090  139.3569  155.4658 H   0  0  0  0  0  0  0  0  0  0  0  0
  152.6762  138.9517  154.4256 H   0  0  0  0  0  0  0  0  0  0  0  0
  151.8939  137.0002  155.3213 H   0  0  0  0  0  0  0  0  0  0  0  0
  152.2069  137.2328  157.0416 H   0  0  0  0  0  0  0  0  0  0  0  0
  147.5604  136.6023  156.0141 H   0  0  0  0  0  0  0  0  0  0  0  0
  146.7453  134.5762  154.9033 H   0  0  0  0  0  0  0  0  0  0  0  0
  149.0236  131.8250  153.6469 H   0  0  0  0  0  0  0  0  0  0  0  0
  147.5929  131.8621  154.6686 H   0  0  0  0  0  0  0  0  0  0  0  0
  150.7838  133.1111  154.5454 H   0  0  0  0  0  0  0  0  0  0  0  0
  151.6221  135.1491  155.6737 H   0  0  0  0  0  0  0  0  0  0  0  0
  149.8804  143.8547  156.2017 H   0  0  0  0  0  0  0  0  0  0  0  0
  1  2  1  0  0  0  0
  1 25  1  0  0  0  0
  1 26  1  0  0  0  0
  1 27  1  0  0  0  0
  2 10  1  0  0  0  0
  2  3  2  0  0  0  0
  3  4  1  0  0  0  0
  3 44  1  0  0  0  0
  4  9  2  0  0  0  0
  4  5  1  0  0  0  0
  5  6  2  0  0  0  0
  5 28  1  0  0  0  0
  6  7  1  0  0  0  0
  6 29  1  0  0  0  0
  7  8  2  0  0  0  0
  7 30  1  0  0  0  0
  8  9  1  0  0  0  0
  8 31  1  0  0  0  0
  9 10  1  0  0  0  0
 10 11  1  0  0  0  0
 11 12  1  0  0  0  0
 11 32  1  0  0  0  0
 11 33  1  0  0  0  0
 12 13  1  0  0  0  0
 12 14  1  0  0  0  0
 12 34  1  0  0  0  0
 13 35  1  0  0  0  0
 14 15  1  0  0  0  0
 14 36  1  0  0  0  0
 14 37  1  0  0  0  0
 15 16  1  0  0  0  0
 16 24  1  0  0  0  0
 16 17  2  0  0  0  0
 17 18  1  0  0  0  0
 17 38  1  0  0  0  0
 18 19  2  0  0  0  0
 18 39  1  0  0  0  0
 19 20  1  0  0  0  0
 19 23  1  0  0  0  0
 20 21  1  0  0  0  0
 20 40  1  0  0  0  0
 20 41  1  0  0  0  0
 21 22  3  0  0  0  0
 23 24  2  0  0  0  0
 23 42  1  0  0  0  0
 24 43  1  0  0  0  0
M  CHG  1   3   1
M  END
> <s_m_source_file>
AV-unprocessed.smi

> <i_m_source_file_index>
2163

> <i_lp_mmshare_version>
43012

> <i_f3d_flags>
0

> <s_epik_input>
W2NIXTFbY0hdW2NIXVtjSF1jKGMxMiluKGMobjIpW0NIM10pW0NIMl1bQ0BIXShbT0hdKVtDSDJdT2MzW2NIXVtjSF1jKFtDSDJdQyNOKVtjSF1bY0hdMw==

> <s_epik_cmdline>
J2VwaWtfcHl0aG9uJywgJy1waCcsICc3LjAnLCAnLXRuJywgJzgnLCAnLW1hJywgJzIwMCcsICctbWV0YWxfYmluZGluZycsICctaW1hZScsICc8aW5maWxlLm1hZT4nLCAnLW9tYWUnLCAnPG91dGZpbGUubWFlPic=

> <r_lp_tautomer_probability>
1

> <r_epik_Ionization_Penalty>
1.03158

> <r_epik_Ionization_Penalty_Charging>
1.03158

> <r_epik_Ionization_Penalty_Neutral>
2.3994e-06

> <r_epik_State_Penalty>
1.08278

> <r_epik_Charging_Adjusted_Penalty>
2.11436

> <i_epik_Tot_Q>
1

> <i_epik_Tot_abs_Q>
1

> <r_epik_Metal_State_Penalty>
5.07177

> <b_epik_Metal_Only>
0

> <s_lp_Force_Field>
OPLS_2005

> <r_lp_Energy>
20.4003

> <b_lp_Chiralities_Consistent>
1

> <s_lp_Variant>
AV-unprocessed.smi:2163-4

> <Gold.Version>
5.8.1

> <Gold.Id.Protein>
6NUR|6NUR_protein|mol2

> <Gold.PLP.Fitness>
54.8010

> <Gold.PLP.PLP>
-48.4244

> <Gold.PLP.part.hbond>
-1.8453

> <Gold.PLP.part.metal>
0.0000

> <Gold.PLP.part.buried>
-6.2215

> <Gold.PLP.part.nonpolar>
-40.8689

> <Gold.PLP.part.repulsive>
0.2837

> <Gold.PLP.ligand.clash>
0.0000

> <Gold.PLP.ligand.torsion>
1.4114

> <Gold.PLP.Chemscore.Hbond>
3.0000

> <Gold.PLP.Chemscore.CHOScore>
0.0000

> <Gold.PLP.Chemscore.Metal>
0.0000

> <Gold.Chemscore.Hbonds>
donor molecule, donor type, donor heavy atom, donor atom, acceptor molecule, acceptor atom, score
      L1  H     3    44       P1  8028  1.43
      P1  H  7997  8010       L1    13  1.00

> <Gold.PLP.Chemscore.Internal.Correction>
0.1995

> <Gold.Rescore>
     Score         DG    S(hbond)    S(metal)    S(lipo)     H(rot)  DE(clash)    DE(int)     intcor
     17.71     -19.76       1.96        0.00     123.15       2.60       0.15       1.90       ----

> <Gold.Chemscore.Fitness>
17.7118

> <Gold.Chemscore.DG>
-19.7611

> <Gold.Chemscore.ZeroCoef>
-5.4800

> <Gold.Chemscore.Hbond>
1.9576

> <Gold.Chemscore.Metal>
0.0000

> <Gold.Chemscore.Lipo>
123.1545

> <Gold.Chemscore.Internal_Hbond>
0.0000

> <Gold.Chemscore.DEClash>
0.1464

> <Gold.Chemscore.DEInternal>
1.9028

> <Gold.Chemscore.Rot>
2.6041

> <Gold.Chemscore.Internal.Correction>
   9.000000E+99

> <Gold.Chemscore.Hbonds>
donor molecule, donor type, donor heavy atom, donor atom, acceptor molecule, acceptor atom, score
      L1  H     3    44       P1  8028  0.71
      P1  H  7997  8010       L1    13  0.97

> <Gold.Chemscore.Hbond.Weighted>
-6.5385

> <Gold.Chemscore.Metal.Weighted>
-0.0000

> <Gold.Chemscore.Lipo.Weighted>
-14.4091

> <Gold.Chemscore.Internal_Hbond.Weighted>
0.0000

> <Gold.Chemscore.DEClash.Weighted>
0.1464

> <Gold.Chemscore.DEInternal.Weighted>
1.9028

> <Gold.Chemscore.Rot.Weighted>
6.6665

> <Gold.Chemscore.Internal.Correction.Weighted>
   9.000000E+99

> <Gold.Protein.RotatedTorsions>
[ 6907 6896 6895 6894 ] final  177.83 input  -60.11 | X-H torsion
[ 7974 7965 7964 7962 ] final  -46.28 input  175.53 | X-H torsion
[ 8008 7997 7996 7995 ] final  101.35 input   59.86 | X-H torsion
[ 10167 10162 10161 10158 ] final  -37.52 input  -65.29 | X-H torsion
[ 10718 10713 10712 10709 ] final   69.84 input   66.30 | X-H torsion
[ 10763 10752 10751 10750 ] final  126.41 input  -60.55 | X-H torsion
[ 11005 11000 10999 10996 ] final   90.17 input  -57.11 | X-H torsion

> <Gold.Protein.ActiveResidues>
 VAL166  LYS551  ARG553  GLY616  TRP617  ASP618  TYR619  PRO620  LYS621  CYS622 
 ASP623  PHE694  ASN695  SER759  ASP760  ASP761  ALA762  ILE779  LEU786  VAL792 
 PHE793  MET794  SER795  GLU796  ALA797  LYS798  CYS799  TRP800  GLU811  SER814 

> <Gold.Protein.RotatedAtoms>
  151.6977  133.3311  159.3258 H   0  0  0  0  0  0  0  0  0  0  0  0  # atno 6907 bound_to 6896
  150.7750  134.6643  159.6366 H   0  0  0  0  0  0  0  0  0  0  0  0  # atno 6908 bound_to 6896
  152.3788  134.6625  160.0202 H   0  0  0  0  0  0  0  0  0  0  0  0  # atno 6909 bound_to 6896
  145.9735  140.7358  142.9399 H   0  0  0  0  0  0  0  0  0  0  0  0  # atno 7974 bound_to 7965
  156.1291  140.3199  155.8321 H   0  0  0  0  0  0  0  0  0  0  0  0  # atno 8008 bound_to 7997
  155.4365  140.0522  157.3031 H   0  0  0  0  0  0  0  0  0  0  0  0  # atno 8009 bound_to 7997
  154.4885  140.2082  155.9614 H   0  0  0  0  0  0  0  0  0  0  0  0  # atno 8010 bound_to 7997
  140.7116  143.3336  151.2512 H   0  0  0  0  0  0  0  0  0  0  0  0  # atno 10167 bound_to 10162
  157.6368  130.9447  150.0569 H   0  0  0  0  0  0  0  0  0  0  0  0  # atno 10718 bound_to 10713
  153.6928  135.3296  155.3206 H   0  0  0  0  0  0  0  0  0  0  0  0  # atno 10763 bound_to 10752
  154.8435  135.4436  154.1490 H   0  0  0  0  0  0  0  0  0  0  0  0  # atno 10764 bound_to 10752
  153.2537  135.6984  153.7730 H   0  0  0  0  0  0  0  0  0  0  0  0  # atno 10765 bound_to 10752
  139.8861  134.8597  156.3247 H   0  0  0  0  0  0  0  0  0  0  0  0  # atno 11005 bound_to 11000
  144.6843  140.2788  143.7295 LP  0  0  0  0  0  0  0  0  0  0  0  0  # atno 17320 bound_to 7965
  145.7872  139.1913  143.2124 LP  0  0  0  0  0  0  0  0  0  0  0  0  # atno 17321 bound_to 7965
  139.6825  143.9829  152.2816 LP  0  0  0  0  0  0  0  0  0  0  0  0  # atno 17342 bound_to 10162
  139.9464  144.6648  150.8215 LP  0  0  0  0  0  0  0  0  0  0  0  0  # atno 17343 bound_to 10162
  156.1614  130.3644  149.9294 LP  0  0  0  0  0  0  0  0  0  0  0  0  # atno 17370 bound_to 10713
  156.7291  130.9036  151.3624 LP  0  0  0  0  0  0  0  0  0  0  0  0  # atno 17371 bound_to 10713
  140.9763  133.7295  156.0607 LP  0  0  0  0  0  0  0  0  0  0  0  0  # atno 17394 bound_to 11000
  140.7806  134.3729  157.5488 LP  0  0  0  0  0  0  0  0  0  0  0  0  # atno 17395 bound_to 11000

$$$$
