AV-unprocessed.smi:2021|AV-procd|sdf|8184|dock1
  -GOLD-   2272010433D 1   1.00000     0.00000
 Structure written by MMmdl.
 41 42  0  0  0  0  0  0  0  0  3 V2000
  152.6282  144.5637  159.8358 C   0  0  0  0  0  0  0  0  0  0  0  0
  152.3635  143.5952  158.6707 C   0  0  0  0  0  0  0  0  0  0  0  0
  151.8246  144.3587  157.4517 C   0  0  0  0  0  0  0  0  0  0  0  0
  151.3935  142.4628  159.0717 C   0  0  0  0  0  0  0  0  0  0  0  0
  151.1806  141.4643  157.9928 N   0  3  2  0  0  0  0  0  0  0  0  0
  150.1882  141.8874  156.9741 C   0  0  0  0  0  0  0  0  0  0  0  0
  150.0521  140.8152  155.8806 C   0  0  0  0  0  0  0  0  0  0  0  0
  149.6999  139.5723  156.4735 O   0  0  0  0  0  0  0  0  0  0  0  0
  150.6947  139.1042  157.3791 C   0  0  2  0  0  0  0  0  0  0  0  0
  150.2736  137.7226  157.8968 C   0  0  0  0  0  0  0  0  0  0  0  0
  149.3032  137.8498  158.9751 N   0  0  0  0  0  0  0  0  0  0  0  0
  148.7040  136.8244  159.5927 C   0  0  0  0  0  0  0  0  0  0  0  0
  148.9701  135.6676  159.2587 O   0  0  0  0  0  0  0  0  0  0  0  0
  147.8352  137.2028  160.5569 N   0  5  0  0  0  0  0  0  0  0  0  0
  147.0913  136.2792  161.1882 C   0  0  0  0  0  0  0  0  0  0  0  0
  147.4082  134.9743  161.1814 N   0  0  0  0  0  0  0  0  0  0  0  0
  146.5098  134.1905  161.8929 N   0  0  0  0  0  0  0  0  0  0  0  0
  145.5282  134.9273  162.4130 C   0  0  0  0  0  0  0  0  0  0  0  0
  145.6096  136.6440  162.0777 S   0  0  0  0  0  0  0  0  0  0  0  0
  150.8338  140.1251  158.5247 C   0  0  0  0  0  0  0  0  0  0  0  0
  151.7049  145.0287  160.1829 H   0  0  0  0  0  0  0  0  0  0  0  0
  153.3076  145.3618  159.5347 H   0  0  0  0  0  0  0  0  0  0  0  0
  153.0844  144.0537  160.6845 H   0  0  0  0  0  0  0  0  0  0  0  0
  153.3170  143.1612  158.3710 H   0  0  0  0  0  0  0  0  0  0  0  0
  150.8706  144.8388  157.6731 H   0  0  0  0  0  0  0  0  0  0  0  0
  151.6717  143.6900  156.6041 H   0  0  0  0  0  0  0  0  0  0  0  0
  152.5212  145.1352  157.1334 H   0  0  0  0  0  0  0  0  0  0  0  0
  151.8004  141.9617  159.9517 H   0  0  0  0  0  0  0  0  0  0  0  0
  150.4285  142.8716  159.3759 H   0  0  0  0  0  0  0  0  0  0  0  0
  149.2212  142.0548  157.4512 H   0  0  0  0  0  0  0  0  0  0  0  0
  150.4858  142.8296  156.5155 H   0  0  0  0  0  0  0  0  0  0  0  0
  149.2757  141.0998  155.1703 H   0  0  0  0  0  0  0  0  0  0  0  0
  150.9798  140.7137  155.3149 H   0  0  0  0  0  0  0  0  0  0  0  0
  151.6496  139.0117  156.8573 H   0  0  0  0  0  0  0  0  0  0  0  0
  149.8261  137.1451  157.0861 H   0  0  0  0  0  0  0  0  0  0  0  0
  151.1433  137.1655  158.2487 H   0  0  0  0  0  0  0  0  0  0  0  0
  149.0655  138.7830  159.2784 H   0  0  0  0  0  0  0  0  0  0  0  0
  144.7501  134.4568  162.9949 H   0  0  0  0  0  0  0  0  0  0  0  0
  151.6098  139.7936  159.2161 H   0  0  0  0  0  0  0  0  0  0  0  0
  149.9035  140.1873  159.0921 H   0  0  0  0  0  0  0  0  0  0  0  0
  152.0665  141.3582  157.5193 H   0  0  0  0  0  0  0  0  0  0  0  0
  1  2  1  0  0  0  0
  1 21  1  0  0  0  0
  1 22  1  0  0  0  0
  1 23  1  0  0  0  0
  2  3  1  0  0  0  0
  2  4  1  0  0  0  0
  2 24  1  0  0  0  0
  3 25  1  0  0  0  0
  3 26  1  0  0  0  0
  3 27  1  0  0  0  0
  4  5  1  0  0  0  0
  4 28  1  0  0  0  0
  4 29  1  0  0  0  0
  5 20  1  0  0  0  0
  5  6  1  0  0  0  0
  5 41  1  0  0  0  0
  6  7  1  0  0  0  0
  6 30  1  0  0  0  0
  6 31  1  0  0  0  0
  7  8  1  0  0  0  0
  7 32  1  0  0  0  0
  7 33  1  0  0  0  0
  8  9  1  0  0  0  0
  9 10  1  0  0  0  0
  9 20  1  0  0  0  0
  9 34  1  0  0  0  0
 10 11  1  0  0  0  0
 10 35  1  0  0  0  0
 10 36  1  0  0  0  0
 11 12  1  0  0  0  0
 11 37  1  0  0  0  0
 12 13  2  0  0  0  0
 12 14  1  0  0  0  0
 14 15  1  0  0  0  0
 15 19  1  0  0  0  0
 15 16  2  0  0  0  0
 16 17  1  0  0  0  0
 17 18  2  0  0  0  0
 18 19  1  0  0  0  0
 18 38  1  0  0  0  0
 20 39  1  0  0  0  0
 20 40  1  0  0  0  0
M  CHG  1   5   1
M  CHG  1  14  -1
M  END
> <s_m_source_file>
AV-unprocessed.smi

> <i_m_source_file_index>
2021

> <i_lp_mmshare_version>
43012

> <i_f3d_flags>
0

> <s_epik_input>
W0NIM11bQ0hdKFtDSDNdKVtDSDJdTjFbQ0gyXVtDSDJdT1tDQEhdKFtDSDJdMSlbQ0gyXVtOSF1DKD1PKVtOSF1jMm5uW2NIXXMy

> <s_epik_cmdline>
J2VwaWtfcHl0aG9uJywgJy1waCcsICc3LjAnLCAnLXRuJywgJzgnLCAnLW1hJywgJzIwMCcsICctbWV0YWxfYmluZGluZycsICctaW1hZScsICc8aW5maWxlLm1hZT4nLCAnLW9tYWUnLCAnPG91dGZpbGUubWFlPic=

> <r_lp_tautomer_probability>
1

> <r_epik_Ionization_Penalty>
3.15762

> <r_epik_Ionization_Penalty_Charging>
3.12229

> <r_epik_Ionization_Penalty_Neutral>
0.0353298

> <r_epik_State_Penalty>
3.11266

> <r_epik_Charging_Adjusted_Penalty>
6.23495

> <i_epik_Tot_Q>
0

> <i_epik_Tot_abs_Q>
2

> <r_epik_Metal_State_Penalty>
0.541462

> <b_epik_Metal_Only>
1

> <s_lp_Force_Field>
OPLS_2005

> <r_lp_Energy>
10.6965

> <b_lp_Chiralities_Consistent>
1

> <s_lp_Variant>
AV-unprocessed.smi:2021-10

> <Gold.Version>
5.8.1

> <Gold.Id.Protein>
6NUR|6NUR_protein|mol2

> <Gold.PLP.Fitness>
45.4107

> <Gold.PLP.PLP>
-33.4062

> <Gold.PLP.part.hbond>
-3.0000

> <Gold.PLP.part.metal>
0.0000

> <Gold.PLP.part.buried>
-6.2205

> <Gold.PLP.part.nonpolar>
-24.9007

> <Gold.PLP.part.repulsive>
0.2997

> <Gold.PLP.ligand.clash>
0.0000

> <Gold.PLP.ligand.torsion>
0.5734

> <Gold.PLP.Chemscore.Hbond>
4.2320

> <Gold.PLP.Chemscore.CHOScore>
0.0000

> <Gold.PLP.Chemscore.Metal>
0.0000

> <Gold.Chemscore.Hbonds>
donor molecule, donor type, donor heavy atom, donor atom, acceptor molecule, acceptor atom, score
      P1  H  6896  6909       L1    13  0.96
      P1  H  6931  6943       L1    14  1.35
      P1  H  6934  6947       L1    14  1.70

> <Gold.PLP.Chemscore.Internal.Correction>
0.4554

> <Gold.Rescore>
     Score         DG    S(hbond)    S(metal)    S(lipo)     H(rot)  DE(clash)    DE(int)     intcor
     14.90     -17.36       1.97        0.00      85.75       1.85       0.07       2.39       ----

> <Gold.Chemscore.Fitness>
14.8967

> <Gold.Chemscore.DG>
-17.3575

> <Gold.Chemscore.ZeroCoef>
-5.4800

> <Gold.Chemscore.Hbond>
1.9676

> <Gold.Chemscore.Metal>
0.0000

> <Gold.Chemscore.Lipo>
85.7532

> <Gold.Chemscore.Internal_Hbond>
0.0000

> <Gold.Chemscore.DEClash>
0.0728

> <Gold.Chemscore.DEInternal>
2.3880

> <Gold.Chemscore.Rot>
1.8466

> <Gold.Chemscore.Internal.Correction>
   9.000000E+99

> <Gold.Chemscore.Hbonds>
donor molecule, donor type, donor heavy atom, donor atom, acceptor molecule, acceptor atom, score
      P1  H  6896  6909       L1    13  0.90
      P1  H  6931  6943       L1    14  0.21
      P1  H  6934  6947       L1    14  0.67

> <Gold.Chemscore.Hbond.Weighted>
-6.5716

> <Gold.Chemscore.Metal.Weighted>
-0.0000

> <Gold.Chemscore.Lipo.Weighted>
-10.0331

> <Gold.Chemscore.Internal_Hbond.Weighted>
0.0000

> <Gold.Chemscore.DEClash.Weighted>
0.0728

> <Gold.Chemscore.DEInternal.Weighted>
2.3880

> <Gold.Chemscore.Rot.Weighted>
4.7272

> <Gold.Chemscore.Internal.Correction.Weighted>
   9.000000E+99

> <Gold.Protein.RotatedTorsions>
[ 6907 6896 6895 6894 ] final   65.71 input  -60.11 | X-H torsion
[ 7974 7965 7964 7962 ] final  -90.65 input  175.53 | X-H torsion
[ 8008 7997 7996 7995 ] final -138.66 input   59.86 | X-H torsion
[ 10167 10162 10161 10158 ] final   47.43 input  -65.29 | X-H torsion
[ 10718 10713 10712 10709 ] final   51.44 input   66.30 | X-H torsion
[ 10763 10752 10751 10750 ] final  115.19 input  -60.55 | X-H torsion
[ 11005 11000 10999 10996 ] final  124.54 input  -57.11 | X-H torsion

> <Gold.Protein.ActiveResidues>
 VAL166  LYS551  ARG553  GLY616  TRP617  ASP618  TYR619  PRO620  LYS621  CYS622 
 ASP623  PHE694  ASN695  SER759  ASP760  ASP761  ALA762  ILE779  LEU786  VAL792 
 PHE793  MET794  SER795  GLU796  ALA797  LYS798  CYS799  TRP800  GLU811  SER814 

> <Gold.Protein.RotatedAtoms>
  152.4427  134.5557  159.9879 H   0  0  0  0  0  0  0  0  0  0  0  0  # atno 6907 bound_to 6896
  151.5650  133.3392  159.2986 H   0  0  0  0  0  0  0  0  0  0  0  0  # atno 6908 bound_to 6896
  150.8337  134.7634  159.6939 H   0  0  0  0  0  0  0  0  0  0  0  0  # atno 6909 bound_to 6896
  145.4236  140.9552  143.2167 H   0  0  0  0  0  0  0  0  0  0  0  0  # atno 7974 bound_to 7965
  155.4320  140.0526  157.3018 H   0  0  0  0  0  0  0  0  0  0  0  0  # atno 8008 bound_to 7997
  154.4856  140.2099  155.9622 H   0  0  0  0  0  0  0  0  0  0  0  0  # atno 8009 bound_to 7997
  156.1269  140.3178  155.8296 H   0  0  0  0  0  0  0  0  0  0  0  0  # atno 8010 bound_to 7997
  140.3037  144.2903  150.6213 H   0  0  0  0  0  0  0  0  0  0  0  0  # atno 10167 bound_to 10162
  157.4981  130.8420  149.8283 H   0  0  0  0  0  0  0  0  0  0  0  0  # atno 10718 bound_to 10713
  153.5185  135.3603  155.2621 H   0  0  0  0  0  0  0  0  0  0  0  0  # atno 10763 bound_to 10752
  154.8737  135.4040  154.3286 H   0  0  0  0  0  0  0  0  0  0  0  0  # atno 10764 bound_to 10752
  153.3953  135.7073  153.6532 H   0  0  0  0  0  0  0  0  0  0  0  0  # atno 10765 bound_to 10752
  139.9363  134.9639  156.8424 H   0  0  0  0  0  0  0  0  0  0  0  0  # atno 11005 bound_to 11000
  144.8229  139.5760  143.6978 LP  0  0  0  0  0  0  0  0  0  0  0  0  # atno 17320 bound_to 7965
  146.2644  139.6485  142.9340 LP  0  0  0  0  0  0  0  0  0  0  0  0  # atno 17321 bound_to 7965
  140.5629  143.2190  151.7734 LP  0  0  0  0  0  0  0  0  0  0  0  0  # atno 17342 bound_to 10162
  139.4909  144.4324  151.9857 LP  0  0  0  0  0  0  0  0  0  0  0  0  # atno 17343 bound_to 10162
  156.0213  130.3795  150.1955 LP  0  0  0  0  0  0  0  0  0  0  0  0  # atno 17370 bound_to 10713
  157.0144  130.9961  151.3357 LP  0  0  0  0  0  0  0  0  0  0  0  0  # atno 17371 bound_to 10713
  140.6067  134.0121  155.7559 LP  0  0  0  0  0  0  0  0  0  0  0  0  # atno 17394 bound_to 11000
  141.0978  133.9815  157.3130 LP  0  0  0  0  0  0  0  0  0  0  0  0  # atno 17395 bound_to 11000

$$$$
