AV-unprocessed.smi:1644|AV-procd|sdf|6590|dock2
  -GOLD-   22720 7283D 1   1.00000     0.00000
 Structure written by MMmdl.
 50 52  0  0  0  0  0  0  0  0  2 V2000
  151.9552  144.7046  158.6825 C   0  0  0  0  0  0  0  0  0  0  0  0
  151.6234  144.0092  157.3580 C   0  0  0  0  0  0  0  0  0  0  0  0
  150.9757  142.6252  157.5686 C   0  0  0  0  0  0  0  0  0  0  0  0
  150.6070  141.8509  156.2824 C   0  0  2  0  0  0  0  0  0  0  0  0
  149.3810  142.3158  155.6649 N   0  0  0  0  0  0  0  0  0  0  0  0
  148.4700  141.3419  155.5383 C   0  0  0  0  0  0  0  0  0  0  0  0
  147.3580  141.4723  155.0283 O   0  0  0  0  0  0  0  0  0  0  0  0
  148.9835  140.2097  156.0544 N   0  0  0  0  0  0  0  0  0  0  0  0
  148.2779  138.9253  156.0916 C   0  0  0  0  0  0  0  0  0  0  0  0
  147.8548  138.4656  154.6819 C   0  0  1  0  0  0  0  0  0  0  0  0
  148.9819  137.9273  154.0183 O   0  0  0  0  0  0  0  0  0  0  0  0
  146.7658  137.3769  154.7399 C   0  0  0  0  0  0  0  0  0  0  0  0
  146.0837  137.1904  153.4534 N   0  0  0  0  0  0  0  0  0  0  0  0
  145.4887  138.0997  152.6350 C   0  0  0  0  0  0  0  0  0  0  0  0
  144.9959  137.4224  151.5608 N   0  3  0  0  0  0  0  0  0  0  0  0
  145.2802  136.0614  151.6970 C   0  0  0  0  0  0  0  0  0  0  0  0
  144.9865  134.9807  150.8739 C   0  0  0  0  0  0  0  0  0  0  0  0
  145.4189  133.7055  151.3042 C   0  0  0  0  0  0  0  0  0  0  0  0
  145.1139  132.5022  150.4282 C   0  0  0  0  0  0  0  0  0  0  0  0
  146.1219  133.5467  152.5270 C   0  0  0  0  0  0  0  0  0  0  0  0
  146.5790  132.1711  152.9820 C   0  0  0  0  0  0  0  0  0  0  0  0
  146.4128  134.6585  153.3490 C   0  0  0  0  0  0  0  0  0  0  0  0
  145.9789  135.9067  152.9096 C   0  0  0  0  0  0  0  0  0  0  0  0
  150.2270  140.3996  156.5130 C   0  0  0  0  0  0  0  0  0  0  0  0
  150.9681  139.5654  157.0322 O   0  0  0  0  0  0  0  0  0  0  0  0
  152.4115  145.6788  158.5061 H   0  0  0  0  0  0  0  0  0  0  0  0
  152.6533  144.1124  159.2748 H   0  0  0  0  0  0  0  0  0  0  0  0
  151.0566  144.8615  159.2798 H   0  0  0  0  0  0  0  0  0  0  0  0
  150.9585  144.6527  156.7814 H   0  0  0  0  0  0  0  0  0  0  0  0
  152.5383  143.9079  156.7736 H   0  0  0  0  0  0  0  0  0  0  0  0
  151.6555  142.0079  158.1572 H   0  0  0  0  0  0  0  0  0  0  0  0
  150.0796  142.7392  158.1803 H   0  0  0  0  0  0  0  0  0  0  0  0
  151.4211  141.9002  155.5582 H   0  0  0  0  0  0  0  0  0  0  0  0
  149.2486  143.2675  155.3541 H   0  0  0  0  0  0  0  0  0  0  0  0
  148.8688  138.1573  156.5949 H   0  0  0  0  0  0  0  0  0  0  0  0
  147.3919  139.0531  156.7160 H   0  0  0  0  0  0  0  0  0  0  0  0
  147.4819  139.3125  154.1048 H   0  0  0  0  0  0  0  0  0  0  0  0
  148.6890  137.4935  153.2312 H   0  0  0  0  0  0  0  0  0  0  0  0
  147.1977  136.4178  155.0302 H   0  0  0  0  0  0  0  0  0  0  0  0
  146.0121  137.6173  155.4907 H   0  0  0  0  0  0  0  0  0  0  0  0
  145.4175  139.1638  152.8089 H   0  0  0  0  0  0  0  0  0  0  0  0
  144.4495  135.1092  149.9454 H   0  0  0  0  0  0  0  0  0  0  0  0
  146.0356  132.0046  150.1258 H   0  0  0  0  0  0  0  0  0  0  0  0
  144.5802  132.7922  149.5226 H   0  0  0  0  0  0  0  0  0  0  0  0
  144.4931  131.7854  150.9660 H   0  0  0  0  0  0  0  0  0  0  0  0
  147.0969  132.2194  153.9405 H   0  0  0  0  0  0  0  0  0  0  0  0
  147.2643  131.7353  152.2548 H   0  0  0  0  0  0  0  0  0  0  0  0
  145.7254  131.5029  153.0990 H   0  0  0  0  0  0  0  0  0  0  0  0
  146.9471  134.5393  154.2803 H   0  0  0  0  0  0  0  0  0  0  0  0
  144.5009  137.8596  150.7940 H   0  0  0  0  0  0  0  0  0  0  0  0
  1  2  1  0  0  0  0
  1 26  1  0  0  0  0
  1 27  1  0  0  0  0
  1 28  1  0  0  0  0
  2  3  1  0  0  0  0
  2 29  1  0  0  0  0
  2 30  1  0  0  0  0
  3  4  1  0  0  0  0
  3 31  1  0  0  0  0
  3 32  1  0  0  0  0
  4 24  1  0  0  0  0
  4  5  1  0  0  0  0
  4 33  1  0  0  0  0
  5  6  1  0  0  0  0
  5 34  1  0  0  0  0
  6  7  2  0  0  0  0
  6  8  1  0  0  0  0
  8  9  1  0  0  0  0
  8 24  1  0  0  0  0
  9 10  1  0  0  0  0
  9 35  1  0  0  0  0
  9 36  1  0  0  0  0
 10 11  1  0  0  0  0
 10 12  1  0  0  0  0
 10 37  1  0  0  0  0
 11 38  1  0  0  0  0
 12 13  1  0  0  0  0
 12 39  1  0  0  0  0
 12 40  1  0  0  0  0
 13 23  1  0  0  0  0
 13 14  1  0  0  0  0
 14 15  2  0  0  0  0
 14 41  1  0  0  0  0
 15 16  1  0  0  0  0
 15 50  1  0  0  0  0
 16 23  2  0  0  0  0
 16 17  1  0  0  0  0
 17 18  2  0  0  0  0
 17 42  1  0  0  0  0
 18 19  1  0  0  0  0
 18 20  1  0  0  0  0
 19 43  1  0  0  0  0
 19 44  1  0  0  0  0
 19 45  1  0  0  0  0
 20 21  1  0  0  0  0
 20 22  2  0  0  0  0
 21 46  1  0  0  0  0
 21 47  1  0  0  0  0
 21 48  1  0  0  0  0
 22 23  1  0  0  0  0
 22 49  1  0  0  0  0
 24 25  2  0  0  0  0
M  CHG  1  15   1
M  END
> <s_m_source_file>
AV-unprocessed.smi

> <i_m_source_file_index>
1644

> <i_lp_mmshare_version>
43012

> <i_f3d_flags>
0

> <s_epik_input>
W0NIM11bQ0gyXVtDSDJdW0NAQEhdMVtOSF1DKD1PKU4oQzE9TylbQ0gyXVtDQEhdKFtPSF0pW0NIMl1uKFtjSF1uMiljKGMyMylbY0hdYyhbQ0gzXSljKFtjSF0zKVtDSDNd

> <s_epik_cmdline>
J2VwaWtfcHl0aG9uJywgJy1waCcsICc3LjAnLCAnLXRuJywgJzgnLCAnLW1hJywgJzIwMCcsICctbWV0YWxfYmluZGluZycsICctaW1hZScsICc8aW5maWxlLm1hZT4nLCAnLW9tYWUnLCAnPG91dGZpbGUubWFlPic=

> <r_lp_tautomer_probability>
1

> <r_epik_Ionization_Penalty>
1.06742

> <r_epik_Ionization_Penalty_Charging>
1.06736

> <r_epik_Ionization_Penalty_Neutral>
5.56132e-05

> <r_epik_State_Penalty>
1.12163

> <r_epik_Charging_Adjusted_Penalty>
2.18899

> <i_epik_Tot_Q>
1

> <i_epik_Tot_abs_Q>
1

> <r_epik_Metal_State_Penalty>
1.26636

> <b_epik_Metal_Only>
0

> <s_lp_Force_Field>
OPLS_2005

> <r_lp_Energy>
29.5634

> <b_lp_Chiralities_Consistent>
1

> <s_lp_Variant>
AV-unprocessed.smi:1644-7

> <Gold.Version>
5.8.1

> <Gold.Id.Protein>
6NUR|6NUR_protein|mol2

> <Gold.PLP.Fitness>
48.9872

> <Gold.PLP.PLP>
-37.8062

> <Gold.PLP.part.hbond>
-2.9950

> <Gold.PLP.part.metal>
0.0000

> <Gold.PLP.part.buried>
-2.4387

> <Gold.PLP.part.nonpolar>
-33.0558

> <Gold.PLP.part.repulsive>
0.3235

> <Gold.PLP.ligand.clash>
0.0000

> <Gold.PLP.ligand.torsion>
0.4596

> <Gold.PLP.Chemscore.Hbond>
3.0000

> <Gold.PLP.Chemscore.CHOScore>
1.0000

> <Gold.PLP.Chemscore.Metal>
0.0000

> <Gold.Chemscore.Hbonds>
donor molecule, donor type, donor heavy atom, donor atom, acceptor molecule, acceptor atom, score
      L1  H     5    34       P1  8028  0.98
      L1  H    11    38       P1  7948  0.99
      L1  H    15    50       P1 10171  0.62
      L1  C    14    41       P1 10175  0.95

> <Gold.PLP.Chemscore.Internal.Correction>
0.1001

> <Gold.Rescore>
     Score         DG    S(hbond)    S(metal)    S(lipo)     H(rot)  DE(clash)    DE(int)     intcor
     16.11     -18.11       2.92        0.00      85.77       2.80       0.07       1.93       ----

> <Gold.Chemscore.Fitness>
16.1129

> <Gold.Chemscore.DG>
-18.1122

> <Gold.Chemscore.ZeroCoef>
-5.4800

> <Gold.Chemscore.Hbond>
2.9209

> <Gold.Chemscore.Metal>
0.0000

> <Gold.Chemscore.Lipo>
85.7650

> <Gold.Chemscore.Internal_Hbond>
0.0000

> <Gold.Chemscore.DEClash>
0.0726

> <Gold.Chemscore.DEInternal>
1.9267

> <Gold.Chemscore.Rot>
2.7961

> <Gold.Chemscore.Internal.Correction>
   9.000000E+99

> <Gold.Chemscore.Hbonds>
donor molecule, donor type, donor heavy atom, donor atom, acceptor molecule, acceptor atom, score
      L1  H     5    34       P1  8028  0.88
      L1  H    11    38       P1  7948  0.94
      L1  H    15    50       P1 10171  0.60

> <Gold.Chemscore.Hbond.Weighted>
-9.7557

> <Gold.Chemscore.Metal.Weighted>
-0.0000

> <Gold.Chemscore.Lipo.Weighted>
-10.0345

> <Gold.Chemscore.Internal_Hbond.Weighted>
0.0000

> <Gold.Chemscore.DEClash.Weighted>
0.0726

> <Gold.Chemscore.DEInternal.Weighted>
1.9267

> <Gold.Chemscore.Rot.Weighted>
7.1580

> <Gold.Chemscore.Internal.Correction.Weighted>
   9.000000E+99

> <Gold.Protein.RotatedTorsions>
[ 6907 6896 6895 6894 ] final  -52.89 input  -60.11 | X-H torsion
[ 7974 7965 7964 7962 ] final -121.69 input  175.53 | X-H torsion
[ 8008 7997 7996 7995 ] final -175.21 input   59.86 | X-H torsion
[ 10167 10162 10161 10158 ] final  -55.28 input  -65.29 | X-H torsion
[ 10718 10713 10712 10709 ] final  172.27 input   66.30 | X-H torsion
[ 10763 10752 10751 10750 ] final  137.32 input  -60.55 | X-H torsion
[ 11005 11000 10999 10996 ] final  -16.73 input  -57.11 | X-H torsion

> <Gold.Protein.ActiveResidues>
 VAL166  LYS551  ARG553  GLY616  TRP617  ASP618  TYR619  PRO620  LYS621  CYS622 
 ASP623  PHE694  ASN695  SER759  ASP760  ASP761  ALA762  ILE779  LEU786  VAL792 
 PHE793  MET794  SER795  GLU796  ALA797  LYS798  CYS799  TRP800  GLU811  SER814 

> <Gold.Protein.RotatedAtoms>
  150.8477  134.7791  159.6983 H   0  0  0  0  0  0  0  0  0  0  0  0  # atno 6907 bound_to 6896
  152.4549  134.5309  159.9820 H   0  0  0  0  0  0  0  0  0  0  0  0  # atno 6908 bound_to 6896
  151.5436  133.3391  159.2976 H   0  0  0  0  0  0  0  0  0  0  0  0  # atno 6909 bound_to 6896
  145.0376  140.8118  143.4286 H   0  0  0  0  0  0  0  0  0  0  0  0  # atno 7974 bound_to 7965
  155.9797  140.1179  157.0738 H   0  0  0  0  0  0  0  0  0  0  0  0  # atno 8008 bound_to 7997
  154.4179  140.1147  156.5486 H   0  0  0  0  0  0  0  0  0  0  0  0  # atno 8009 bound_to 7997
  155.6487  140.3473  155.4742 H   0  0  0  0  0  0  0  0  0  0  0  0  # atno 8010 bound_to 7997
  140.6384  143.2494  151.5057 H   0  0  0  0  0  0  0  0  0  0  0  0  # atno 10167 bound_to 10162
  156.9814  131.0120  151.2880 H   0  0  0  0  0  0  0  0  0  0  0  0  # atno 10718 bound_to 10713
  153.8711  135.3055  155.3442 H   0  0  0  0  0  0  0  0  0  0  0  0  # atno 10763 bound_to 10752
  154.7805  135.4838  153.9837 H   0  0  0  0  0  0  0  0  0  0  0  0  # atno 10764 bound_to 10752
  153.1405  135.6823  153.9130 H   0  0  0  0  0  0  0  0  0  0  0  0  # atno 10765 bound_to 10752
  140.8097  133.8150  155.9551 H   0  0  0  0  0  0  0  0  0  0  0  0  # atno 11005 bound_to 11000
  145.1689  139.2415  143.5352 LP  0  0  0  0  0  0  0  0  0  0  0  0  # atno 17320 bound_to 7965
  146.3506  140.1435  142.8594 LP  0  0  0  0  0  0  0  0  0  0  0  0  # atno 17321 bound_to 7965
  139.5593  144.2196  152.1665 LP  0  0  0  0  0  0  0  0  0  0  0  0  # atno 17342 bound_to 10162
  140.1459  144.5159  150.6716 LP  0  0  0  0  0  0  0  0  0  0  0  0  # atno 17343 bound_to 10162
  157.5523  130.8191  149.8161 LP  0  0  0  0  0  0  0  0  0  0  0  0  # atno 17370 bound_to 10713
  156.0243  130.3785  150.1870 LP  0  0  0  0  0  0  0  0  0  0  0  0  # atno 17371 bound_to 10713
  140.9210  134.2142  157.4926 LP  0  0  0  0  0  0  0  0  0  0  0  0  # atno 17394 bound_to 11000
  139.8715  134.9792  156.5027 LP  0  0  0  0  0  0  0  0  0  0  0  0  # atno 17395 bound_to 11000

$$$$
