AV-unprocessed.smi:2663|AV-procd|sdf|10324|dock8
  -GOLD-   2272014343D 1   1.00000     0.00000
 Structure written by MMmdl.
 38 39  0  0  0  0  0  0  0  0  2 V2000
  152.5854  138.2237  157.2274 C   0  0  0  0  0  0  0  0  0  0  0  0
  151.5153  139.2555  157.6696 C   0  0  1  0  0  0  0  0  0  0  0  0
  150.6388  139.6216  156.4360 C   0  0  0  0  0  0  0  0  0  0  0  0
  151.4036  140.1642  155.3777 O   0  0  0  0  0  0  0  0  0  0  0  0
  150.6590  138.6752  158.7164 N   0  0  0  0  0  0  0  0  0  0  0  0
  150.1426  137.4394  158.8217 C   0  0  0  0  0  0  0  0  0  0  0  0
  150.3602  136.5904  157.9551 O   0  0  0  0  0  0  0  0  0  0  0  0
  149.4015  137.2639  159.9393 N   0  5  0  0  0  0  0  0  0  0  0  0
  148.7391  136.1114  160.1326 C   0  0  0  0  0  0  0  0  0  0  0  0
  148.8847  135.0525  159.3200 N   0  0  0  0  0  0  0  0  0  0  0  0
  148.1082  133.9648  159.6967 N   0  0  0  0  0  0  0  0  0  0  0  0
  147.3868  134.2362  160.7841 C   0  0  0  0  0  0  0  0  0  0  0  0
  147.5865  135.8457  161.4435 S   0  0  0  0  0  0  0  0  0  0  0  0
  152.2095  140.5231  158.2849 C   0  0  0  0  0  0  0  0  0  0  0  0
  153.0846  140.2071  159.5292 C   0  0  0  0  0  0  0  0  0  0  0  0
  153.7933  141.4556  160.0787 C   0  0  0  0  0  0  0  0  0  0  0  0
  152.7880  142.5627  160.4181 C   0  0  0  0  0  0  0  0  0  0  0  0
  151.9309  142.9067  159.1941 C   0  0  0  0  0  0  0  0  0  0  0  0
  151.2166  141.6616  158.6440 C   0  0  0  0  0  0  0  0  0  0  0  0
  153.3578  138.6915  156.6165 H   0  0  0  0  0  0  0  0  0  0  0  0
  152.1560  137.4196  156.6299 H   0  0  0  0  0  0  0  0  0  0  0  0
  153.0767  137.7516  158.0778 H   0  0  0  0  0  0  0  0  0  0  0  0
  150.1209  138.7455  156.0465 H   0  0  0  0  0  0  0  0  0  0  0  0
  149.8572  140.3331  156.7023 H   0  0  0  0  0  0  0  0  0  0  0  0
  152.3113  140.1693  155.6404 H   0  0  0  0  0  0  0  0  0  0  0  0
  150.4273  139.3033  159.4718 H   0  0  0  0  0  0  0  0  0  0  0  0
  146.7307  133.4856  161.1985 H   0  0  0  0  0  0  0  0  0  0  0  0
  152.8868  140.9239  157.5293 H   0  0  0  0  0  0  0  0  0  0  0  0
  152.4740  139.7708  160.3207 H   0  0  0  0  0  0  0  0  0  0  0  0
  153.8482  139.4690  159.2886 H   0  0  0  0  0  0  0  0  0  0  0  0
  154.3692  141.1939  160.9668 H   0  0  0  0  0  0  0  0  0  0  0  0
  154.5095  141.8237  159.3431 H   0  0  0  0  0  0  0  0  0  0  0  0
  152.1456  142.2385  161.2379 H   0  0  0  0  0  0  0  0  0  0  0  0
  153.3145  143.4512  160.7679 H   0  0  0  0  0  0  0  0  0  0  0  0
  151.1968  143.6685  159.4577 H   0  0  0  0  0  0  0  0  0  0  0  0
  152.5605  143.3403  158.4161 H   0  0  0  0  0  0  0  0  0  0  0  0
  150.6450  141.9670  157.7690 H   0  0  0  0  0  0  0  0  0  0  0  0
  150.4909  141.3113  159.3789 H   0  0  0  0  0  0  0  0  0  0  0  0
  1  2  1  0  0  0  0
  1 20  1  0  0  0  0
  1 21  1  0  0  0  0
  1 22  1  0  0  0  0
  2  3  1  0  0  0  0
  2  5  1  0  0  0  0
  2 14  1  0  0  0  0
  3  4  1  0  0  0  0
  3 23  1  0  0  0  0
  3 24  1  0  0  0  0
  4 25  1  0  0  0  0
  5  6  1  0  0  0  0
  5 26  1  0  0  0  0
  6  7  2  0  0  0  0
  6  8  1  0  0  0  0
  8  9  1  0  0  0  0
  9 13  1  0  0  0  0
  9 10  2  0  0  0  0
 10 11  1  0  0  0  0
 11 12  2  0  0  0  0
 12 13  1  0  0  0  0
 12 27  1  0  0  0  0
 14 19  1  0  0  0  0
 14 15  1  0  0  0  0
 14 28  1  0  0  0  0
 15 16  1  0  0  0  0
 15 29  1  0  0  0  0
 15 30  1  0  0  0  0
 16 17  1  0  0  0  0
 16 31  1  0  0  0  0
 16 32  1  0  0  0  0
 17 18  1  0  0  0  0
 17 33  1  0  0  0  0
 17 34  1  0  0  0  0
 18 19  1  0  0  0  0
 18 35  1  0  0  0  0
 18 36  1  0  0  0  0
 19 37  1  0  0  0  0
 19 38  1  0  0  0  0
M  CHG  1   8  -1
M  END
> <s_m_source_file>
AV-unprocessed.smi

> <i_m_source_file_index>
2663

> <i_lp_mmshare_version>
43012

> <i_f3d_flags>
0

> <s_epik_input>
W0NIMl0xW0NIMl1bQ0gyXVtDSDJdW0NIMl1bQ0hdMVtDQF0oW0NIM10pKFtDSDJdW09IXSlbTkhdQyg9TylbTkhdYzJubltjSF1zMg==

> <s_epik_cmdline>
J2VwaWtfcHl0aG9uJywgJy1waCcsICc3LjAnLCAnLXRuJywgJzgnLCAnLW1hJywgJzIwMCcsICctbWV0YWxfYmluZGluZycsICctaW1hZScsICc8aW5maWxlLm1hZT4nLCAnLW9tYWUnLCAnPG91dGZpbGUubWFlPic=

> <r_lp_tautomer_probability>
1

> <r_epik_Ionization_Penalty>
4.39194

> <r_epik_Ionization_Penalty_Charging>
4.34423

> <r_epik_Ionization_Penalty_Neutral>
0.047714

> <r_epik_State_Penalty>
4.34384

> <r_epik_Charging_Adjusted_Penalty>
8.68806

> <i_epik_Tot_Q>
-1

> <i_epik_Tot_abs_Q>
1

> <r_epik_Metal_State_Penalty>
0.746645

> <b_epik_Metal_Only>
1

> <s_lp_Force_Field>
OPLS_2005

> <r_lp_Energy>
17.2717

> <b_lp_Chiralities_Consistent>
1

> <s_lp_Variant>
AV-unprocessed.smi:2663-3

> <Gold.Version>
5.8.1

> <Gold.Id.Protein>
6NUR|6NUR_protein|mol2

> <Gold.PLP.Fitness>
39.0554

> <Gold.PLP.PLP>
-32.3219

> <Gold.PLP.part.hbond>
-3.1682

> <Gold.PLP.part.metal>
0.0000

> <Gold.PLP.part.buried>
-5.2526

> <Gold.PLP.part.nonpolar>
-25.1594

> <Gold.PLP.part.repulsive>
0.1734

> <Gold.PLP.ligand.clash>
0.0000

> <Gold.PLP.ligand.torsion>
0.4311

> <Gold.PLP.Chemscore.Hbond>
2.5157

> <Gold.PLP.Chemscore.CHOScore>
0.0000

> <Gold.PLP.Chemscore.Metal>
0.0000

> <Gold.Chemscore.Hbonds>
donor molecule, donor type, donor heavy atom, donor atom, acceptor molecule, acceptor atom, score
      P1  H  6896  6909       L1    10  1.00
      P1  H  6931  6943       L1     8  0.39
      P1  H  7989  7998       L1     4  0.90

> <Gold.PLP.Chemscore.Internal.Correction>
0.0486

> <Gold.Rescore>
     Score         DG    S(hbond)    S(metal)    S(lipo)     H(rot)  DE(clash)    DE(int)     intcor
     11.18     -14.76       1.63        0.00      80.35       2.18       0.00       3.58       ----

> <Gold.Chemscore.Fitness>
11.1764

> <Gold.Chemscore.DG>
-14.7566

> <Gold.Chemscore.ZeroCoef>
-5.4800

> <Gold.Chemscore.Hbond>
1.6322

> <Gold.Chemscore.Metal>
0.0000

> <Gold.Chemscore.Lipo>
80.3544

> <Gold.Chemscore.Internal_Hbond>
0.0000

> <Gold.Chemscore.DEClash>
0.0038

> <Gold.Chemscore.DEInternal>
3.5765

> <Gold.Chemscore.Rot>
2.1783

> <Gold.Chemscore.Internal.Correction>
   9.000000E+99

> <Gold.Chemscore.Hbonds>
donor molecule, donor type, donor heavy atom, donor atom, acceptor molecule, acceptor atom, score
      P1  H  6896  6909       L1    10  0.28
      P1  H  6931  6943       L1     8  0.06
      P1  H  7989  7998       L1     4  0.16

> <Gold.Chemscore.Hbond.Weighted>
-5.4516

> <Gold.Chemscore.Metal.Weighted>
-0.0000

> <Gold.Chemscore.Lipo.Weighted>
-9.4015

> <Gold.Chemscore.Internal_Hbond.Weighted>
0.0000

> <Gold.Chemscore.DEClash.Weighted>
0.0038

> <Gold.Chemscore.DEInternal.Weighted>
3.5765

> <Gold.Chemscore.Rot.Weighted>
5.5765

> <Gold.Chemscore.Internal.Correction.Weighted>
   9.000000E+99

> <Gold.Protein.RotatedTorsions>
[ 6907 6896 6895 6894 ] final   38.03 input  -60.11 | X-H torsion
[ 7974 7965 7964 7962 ] final  151.57 input  175.53 | X-H torsion
[ 8008 7997 7996 7995 ] final  -47.55 input   59.86 | X-H torsion
[ 10167 10162 10161 10158 ] final   82.67 input  -65.29 | X-H torsion
[ 10718 10713 10712 10709 ] final   32.74 input   66.30 | X-H torsion
[ 10763 10752 10751 10750 ] final  -37.99 input  -60.55 | X-H torsion
[ 11005 11000 10999 10996 ] final   -6.41 input  -57.11 | X-H torsion

> <Gold.Protein.ActiveResidues>
 VAL166  LYS551  ARG553  GLY616  TRP617  ASP618  TYR619  PRO620  LYS621  CYS622 
 ASP623  PHE694  ASN695  SER759  ASP760  ASP761  ALA762  ILE779  LEU786  VAL792 
 PHE793  MET794  SER795  GLU796  ALA797  LYS798  CYS799  TRP800  GLU811  SER814 

> <Gold.Protein.RotatedAtoms>
  152.1511  134.8988  160.0547 H   0  0  0  0  0  0  0  0  0  0  0  0  # atno 6907 bound_to 6896
  152.0019  133.3824  159.4193 H   0  0  0  0  0  0  0  0  0  0  0  0  # atno 6908 bound_to 6896
  150.6876  134.3746  159.5051 H   0  0  0  0  0  0  0  0  0  0  0  0  # atno 6909 bound_to 6896
  144.8283  139.6556  143.6070 H   0  0  0  0  0  0  0  0  0  0  0  0  # atno 7974 bound_to 7965
  154.4018  140.1343  156.4193 H   0  0  0  0  0  0  0  0  0  0  0  0  # atno 8008 bound_to 7997
  155.7658  140.3485  155.5201 H   0  0  0  0  0  0  0  0  0  0  0  0  # atno 8009 bound_to 7997
  155.8815  140.0988  157.1472 H   0  0  0  0  0  0  0  0  0  0  0  0  # atno 8010 bound_to 7997
  139.9264  144.6180  150.8389 H   0  0  0  0  0  0  0  0  0  0  0  0  # atno 10167 bound_to 10162
  157.2891  130.7293  149.6600 H   0  0  0  0  0  0  0  0  0  0  0  0  # atno 10718 bound_to 10713
  153.9054  135.6798  153.4753 H   0  0  0  0  0  0  0  0  0  0  0  0  # atno 10763 bound_to 10752
  153.1107  135.4784  154.9027 H   0  0  0  0  0  0  0  0  0  0  0  0  # atno 10764 bound_to 10752
  154.7554  135.3196  154.8434 H   0  0  0  0  0  0  0  0  0  0  0  0  # atno 10765 bound_to 10752
  140.7017  133.8984  155.8688 H   0  0  0  0  0  0  0  0  0  0  0  0  # atno 11005 bound_to 11000
  146.2587  139.6361  142.9377 LP  0  0  0  0  0  0  0  0  0  0  0  0  # atno 17320 bound_to 7965
  145.4952  141.0438  143.2571 LP  0  0  0  0  0  0  0  0  0  0  0  0  # atno 17321 bound_to 7965
  140.7649  143.3261  151.2513 LP  0  0  0  0  0  0  0  0  0  0  0  0  # atno 17342 bound_to 10162
  139.6819  143.9840  152.2813 LP  0  0  0  0  0  0  0  0  0  0  0  0  # atno 17343 bound_to 10162
  155.9666  130.4314  150.4920 LP  0  0  0  0  0  0  0  0  0  0  0  0  # atno 17370 bound_to 10713
  157.2879  131.0620  151.2154 LP  0  0  0  0  0  0  0  0  0  0  0  0  # atno 17371 bound_to 10713
  141.0158  134.0957  157.4173 LP  0  0  0  0  0  0  0  0  0  0  0  0  # atno 17394 bound_to 11000
  139.8895  135.0105  156.6683 LP  0  0  0  0  0  0  0  0  0  0  0  0  # atno 17395 bound_to 11000

$$$$
