AV-unprocessed.smi:4|AV-procd|sdf|34|dock7
  -GOLD-   2262015143D 1   1.00000     0.00000
 Structure written by MMmdl.
 43 44  0  0  0  0  0  0  0  0  1 V2000
  141.1817  139.2133  153.6685 C   0  0  0  0  0  0  0  0  0  0  0  0
  140.7070  137.7382  153.7365 C   0  0  0  0  0  0  0  0  0  0  0  0
  140.2670  137.5172  155.2076 C   0  0  0  0  0  0  0  0  0  0  0  0
  139.4910  137.6492  152.7792 C   0  0  0  0  0  0  0  0  0  0  0  0
  141.7639  136.7827  153.3419 N   0  0  0  0  0  0  0  0  0  0  0  0
  143.0137  137.1619  152.8441 C   0  0  0  0  0  0  0  0  0  0  0  0
  143.9968  136.2989  152.4809 C   0  0  0  0  0  0  0  0  0  0  0  0
  145.3232  136.7841  151.9122 C   0  0  0  0  0  0  0  0  0  0  0  0
  145.5300  138.2055  152.1761 N   0  0  0  0  0  0  0  0  0  0  0  0
  146.1683  138.4622  153.4644 C   0  0  0  0  0  0  0  0  0  0  0  0
  147.3458  139.4305  153.3220 C   0  0  0  0  0  0  0  0  0  0  0  0
  148.2679  138.7770  152.4716 O   0  0  0  0  0  0  0  0  0  0  0  0
  147.0182  140.8694  152.8827 C   0  0  0  0  0  0  0  0  0  0  0  0
  148.0419  141.3912  153.8919 C   0  0  0  0  0  0  0  0  0  0  0  0
  147.9530  140.0391  154.6003 C   0  0  0  0  0  0  0  0  0  0  0  0
  143.7617  134.8583  152.5840 C   0  0  0  0  0  0  0  0  0  0  0  0
  144.5625  133.9777  152.2741 O   0  0  0  0  0  0  0  0  0  0  0  0
  142.5086  134.5054  153.0792 N   0  0  0  0  0  0  0  0  0  0  0  0
  141.5010  135.3879  153.4619 C   0  0  0  0  0  0  0  0  0  0  0  0
  140.4445  134.9138  153.8760 O   0  0  0  0  0  0  0  0  0  0  0  0
  142.3125  133.5190  153.1678 H   0  0  0  0  0  0  0  0  0  0  0  0
  140.3899  139.8989  153.9727 H   0  0  0  0  0  0  0  0  0  0  0  0
  141.4666  139.5053  152.6567 H   0  0  0  0  0  0  0  0  0  0  0  0
  142.0252  139.4015  154.3342 H   0  0  0  0  0  0  0  0  0  0  0  0
  141.1264  137.5109  155.8791 H   0  0  0  0  0  0  0  0  0  0  0  0
  139.7187  136.5903  155.3647 H   0  0  0  0  0  0  0  0  0  0  0  0
  139.6015  138.3136  155.5427 H   0  0  0  0  0  0  0  0  0  0  0  0
  138.7699  138.4410  152.9850 H   0  0  0  0  0  0  0  0  0  0  0  0
  138.9401  136.7142  152.8627 H   0  0  0  0  0  0  0  0  0  0  0  0
  139.8008  137.7575  151.7391 H   0  0  0  0  0  0  0  0  0  0  0  0
  143.2622  138.2029  152.7227 H   0  0  0  0  0  0  0  0  0  0  0  0
  146.1309  136.1956  152.3490 H   0  0  0  0  0  0  0  0  0  0  0  0
  145.3506  136.5978  150.8380 H   0  0  0  0  0  0  0  0  0  0  0  0
  144.6337  138.6827  152.1586 H   0  0  0  0  0  0  0  0  0  0  0  0
  145.4384  138.8536  154.1749 H   0  0  0  0  0  0  0  0  0  0  0  0
  146.5142  137.5165  153.8835 H   0  0  0  0  0  0  0  0  0  0  0  0
  148.5087  139.3953  151.7988 H   0  0  0  0  0  0  0  0  0  0  0  0
  147.2582  141.0990  151.8438 H   0  0  0  0  0  0  0  0  0  0  0  0
  145.9986  141.1705  153.1284 H   0  0  0  0  0  0  0  0  0  0  0  0
  149.0215  141.5698  153.4461 H   0  0  0  0  0  0  0  0  0  0  0  0
  147.7046  142.2404  154.4870 H   0  0  0  0  0  0  0  0  0  0  0  0
  147.2541  140.0508  155.4386 H   0  0  0  0  0  0  0  0  0  0  0  0
  148.9168  139.6217  154.8930 H   0  0  0  0  0  0  0  0  0  0  0  0
  1  2  1  0  0  0  0
  1 22  1  0  0  0  0
  1 23  1  0  0  0  0
  1 24  1  0  0  0  0
  2  3  1  0  0  0  0
  2  4  1  0  0  0  0
  2  5  1  0  0  0  0
  3 25  1  0  0  0  0
  3 26  1  0  0  0  0
  3 27  1  0  0  0  0
  4 28  1  0  0  0  0
  4 29  1  0  0  0  0
  4 30  1  0  0  0  0
  5 19  1  0  0  0  0
  5  6  1  0  0  0  0
  6  7  2  0  0  0  0
  6 31  1  0  0  0  0
  7  8  1  0  0  0  0
  7 16  1  0  0  0  0
  8  9  1  0  0  0  0
  8 32  1  0  0  0  0
  8 33  1  0  0  0  0
  9 10  1  0  0  0  0
  9 34  1  0  0  0  0
 10 11  1  0  0  0  0
 10 35  1  0  0  0  0
 10 36  1  0  0  0  0
 11 15  1  0  0  0  0
 11 12  1  0  0  0  0
 11 13  1  0  0  0  0
 12 37  1  0  0  0  0
 13 14  1  0  0  0  0
 13 38  1  0  0  0  0
 13 39  1  0  0  0  0
 14 15  1  0  0  0  0
 14 40  1  0  0  0  0
 14 41  1  0  0  0  0
 15 42  1  0  0  0  0
 15 43  1  0  0  0  0
 16 17  2  0  0  0  0
 16 18  1  0  0  0  0
 18 21  1  0  0  0  0
 18 19  1  0  0  0  0
 19 20  2  0  0  0  0
M  END
> <s_m_source_file>
AV-unprocessed.smi

> <i_m_source_file_index>
4

> <i_lp_mmshare_version>
43012

> <i_f3d_flags>
0

> <s_epik_input>
W0NIM11DKFtDSDNdKShbQ0gzXSluMVtjSF1jKGMoPU8pW25IXWMxPU8pW0NIMl1bTkhdW0NIMl1DMihbT0hdKVtDSDJdW0NIMl1bQ0gyXTI=

> <s_epik_cmdline>
J2VwaWtfcHl0aG9uJywgJy1waCcsICc3LjAnLCAnLXRuJywgJzgnLCAnLW1hJywgJzIwMCcsICctbWV0YWxfYmluZGluZycsICctaW1hZScsICc8aW5maWxlLm1hZT4nLCAnLW9tYWUnLCAnPG91dGZpbGUubWFlPic=

> <r_lp_tautomer_probability>
0.999537

> <r_epik_Ionization_Penalty>
2.11381

> <r_epik_Ionization_Penalty_Charging>
0.000786845

> <r_epik_Ionization_Penalty_Neutral>
2.11303

> <r_epik_State_Penalty>
2.25008

> <r_epik_Charging_Adjusted_Penalty>
2.25087

> <i_epik_Tot_Q>
0

> <i_epik_Tot_abs_Q>
0

> <r_epik_Metal_State_Penalty>
2.75188

> <b_epik_Metal_Only>
0

> <s_lp_Force_Field>
OPLS_2005

> <r_lp_Energy>
31.2144

> <b_lp_Chiralities_Consistent>
1

> <s_lp_Variant>
AV-unprocessed.smi:4-2

> <Gold.Version>
5.8.1

> <Gold.Id.Protein>
6NUR|6NUR_protein|mol2

> <Gold.PLP.Fitness>
45.8804

> <Gold.PLP.PLP>
-35.6665

> <Gold.PLP.part.hbond>
-5.6338

> <Gold.PLP.part.metal>
0.0000

> <Gold.PLP.part.buried>
-4.7434

> <Gold.PLP.part.nonpolar>
-24.8659

> <Gold.PLP.part.repulsive>
0.3261

> <Gold.PLP.ligand.clash>
0.0000

> <Gold.PLP.ligand.torsion>
0.8313

> <Gold.PLP.Chemscore.Hbond>
2.9185

> <Gold.PLP.Chemscore.CHOScore>
1.0000

> <Gold.PLP.Chemscore.Metal>
0.0000

> <Gold.Chemscore.Hbonds>
donor molecule, donor type, donor heavy atom, donor atom, acceptor molecule, acceptor atom, score
      L1  H     9    34       P1 10175  0.91
      L1  H    12    37       P1  7957  0.61
      L1  H    18    21       P1 10957  0.08
      P1  H 11000 11005       L1    20  1.00
      L1  C     6    31       P1 10175  1.00

> <Gold.PLP.Chemscore.Internal.Correction>
0.1209

> <Gold.Rescore>
     Score         DG    S(hbond)    S(metal)    S(lipo)     H(rot)  DE(clash)    DE(int)     intcor
     16.82     -19.29       3.72        0.00      65.58       2.46       0.23       2.24       ----

> <Gold.Chemscore.Fitness>
16.8199

> <Gold.Chemscore.DG>
-19.2914

> <Gold.Chemscore.ZeroCoef>
-5.4800

> <Gold.Chemscore.Hbond>
3.7243

> <Gold.Chemscore.Metal>
0.0000

> <Gold.Chemscore.Lipo>
65.5786

> <Gold.Chemscore.Internal_Hbond>
0.0000

> <Gold.Chemscore.DEClash>
0.2280

> <Gold.Chemscore.DEInternal>
2.2434

> <Gold.Chemscore.Rot>
2.4612

> <Gold.Chemscore.Internal.Correction>
   9.000000E+99

> <Gold.Chemscore.Hbonds>
donor molecule, donor type, donor heavy atom, donor atom, acceptor molecule, acceptor atom, score
      L1  H     9    34       P1 10175  0.84
      L1  H    12    37       P1  7957  0.59
      L1  H    18    21       P1 10957  0.09
      P1  H 10995 11001       L1    20  0.01
      P1  H 11000 11005       L1    20  0.98

> <Gold.Chemscore.Hbond.Weighted>
-12.4393

> <Gold.Chemscore.Metal.Weighted>
-0.0000

> <Gold.Chemscore.Lipo.Weighted>
-7.6727

> <Gold.Chemscore.Internal_Hbond.Weighted>
0.0000

> <Gold.Chemscore.DEClash.Weighted>
0.2280

> <Gold.Chemscore.DEInternal.Weighted>
2.2434

> <Gold.Chemscore.Rot.Weighted>
6.3006

> <Gold.Chemscore.Internal.Correction.Weighted>
   9.000000E+99

> <Gold.Protein.RotatedTorsions>
[ 6907 6896 6895 6894 ] final    8.75 input  -60.11 | X-H torsion
[ 7974 7965 7964 7962 ] final  109.33 input  175.53 | X-H torsion
[ 8008 7997 7996 7995 ] final  -68.10 input   59.86 | X-H torsion
[ 10167 10162 10161 10158 ] final  -54.47 input  -65.29 | X-H torsion
[ 10718 10713 10712 10709 ] final -110.34 input   66.30 | X-H torsion
[ 10763 10752 10751 10750 ] final  -32.58 input  -60.55 | X-H torsion
[ 11005 11000 10999 10996 ] final   39.32 input  -57.11 | X-H torsion

> <Gold.Protein.ActiveResidues>
 VAL166  LYS551  ARG553  GLY616  TRP617  ASP618  TYR619  PRO620  LYS621  CYS622 
 ASP623  PHE694  ASN695  SER759  ASP760  ASP761  ALA762  ILE779  LEU786  VAL792 
 PHE793  MET794  SER795  GLU796  ALA797  LYS798  CYS799  TRP800  GLU811  SER814 

> <Gold.Protein.RotatedAtoms>
  151.7111  135.0912  160.0267 H   0  0  0  0  0  0  0  0  0  0  0  0  # atno 6907 bound_to 6896
  152.3661  133.6354  159.6060 H   0  0  0  0  0  0  0  0  0  0  0  0  # atno 6908 bound_to 6896
  150.7639  133.9262  159.3454 H   0  0  0  0  0  0  0  0  0  0  0  0  # atno 6909 bound_to 6896
  145.2692  139.2673  143.3975 H   0  0  0  0  0  0  0  0  0  0  0  0  # atno 7974 bound_to 7965
  154.4844  140.0879  156.7453 H   0  0  0  0  0  0  0  0  0  0  0  0  # atno 8008 bound_to 7997
  155.4387  140.3453  155.4269 H   0  0  0  0  0  0  0  0  0  0  0  0  # atno 8009 bound_to 7997
  156.1240  140.1482  156.9151 H   0  0  0  0  0  0  0  0  0  0  0  0  # atno 8010 bound_to 7997
  140.6429  143.2518  151.4940 H   0  0  0  0  0  0  0  0  0  0  0  0  # atno 10167 bound_to 10162
  156.0585  130.5810  150.8223 H   0  0  0  0  0  0  0  0  0  0  0  0  # atno 10718 bound_to 10713
  153.8161  135.6878  153.4834 H   0  0  0  0  0  0  0  0  0  0  0  0  # atno 10763 bound_to 10752
  153.1598  135.4584  154.9754 H   0  0  0  0  0  0  0  0  0  0  0  0  # atno 10764 bound_to 10752
  154.7947  135.3314  154.7638 H   0  0  0  0  0  0  0  0  0  0  0  0  # atno 10765 bound_to 10752
  140.2039  134.3837  155.8082 H   0  0  0  0  0  0  0  0  0  0  0  0  # atno 11005 bound_to 11000
  146.3252  140.3130  142.8628 LP  0  0  0  0  0  0  0  0  0  0  0  0  # atno 17320 bound_to 7965
  144.9350  140.8016  143.5666 LP  0  0  0  0  0  0  0  0  0  0  0  0  # atno 17321 bound_to 7965
  139.5638  144.2091  152.1733 LP  0  0  0  0  0  0  0  0  0  0  0  0  # atno 17342 bound_to 10162
  140.1367  144.5239  150.6769 LP  0  0  0  0  0  0  0  0  0  0  0  0  # atno 17343 bound_to 10162
  157.5575  131.0945  150.9607 LP  0  0  0  0  0  0  0  0  0  0  0  0  # atno 17370 bound_to 10713
  156.9852  130.5542  149.5299 LP  0  0  0  0  0  0  0  0  0  0  0  0  # atno 17371 bound_to 10713
  141.2227  133.7108  156.8304 LP  0  0  0  0  0  0  0  0  0  0  0  0  # atno 17394 bound_to 11000
  140.2024  134.8887  157.3184 LP  0  0  0  0  0  0  0  0  0  0  0  0  # atno 17395 bound_to 11000

$$$$
