AV-unprocessed.smi:829|AV-procd|sdf|3866|dock2
  -GOLD-   22720 1313D 1   1.00000     0.00000
 Structure written by MMmdl.
 49 51  0  0  0  0  0  0  0  0  2 V2000
  150.2355  136.6888  156.2117 O   0  0  0  0  0  0  0  0  0  0  0  0
  149.8612  136.6004  155.0426 C   0  0  0  0  0  0  0  0  0  0  0  0
  149.6911  135.4559  154.3576 N   0  0  0  0  0  0  0  0  0  0  0  0
  149.8839  134.1136  154.7867 C   0  0  0  0  0  0  0  0  0  0  0  0
  149.4724  133.0865  153.9121 C   0  0  0  0  0  0  0  0  0  0  0  0
  149.6391  131.7452  154.3107 C   0  0  0  0  0  0  0  0  0  0  0  0
  150.1711  131.3847  155.4972 N   0  0  0  0  0  0  0  0  0  0  0  0
  150.5550  132.3681  156.3382 C   0  0  0  0  0  0  0  0  0  0  0  0
  150.4314  133.7397  156.0384 C   0  0  0  0  0  0  0  0  0  0  0  0
  149.5797  137.6668  154.2796 N   0  0  0  0  0  0  0  0  0  0  0  0
  149.6787  139.0577  154.7126 C   0  0  2  0  0  0  0  0  0  0  0  0
  151.0526  139.3391  155.3478 C   0  0  0  0  0  0  0  0  0  0  0  0
  151.1287  140.7735  155.8977 C   0  0  0  0  0  0  0  0  0  0  0  0
  150.0353  141.0354  156.8690 N   0  3  1  0  0  0  0  0  0  0  0  0
  150.1537  142.3594  157.5330 C   0  0  0  0  0  0  0  0  0  0  0  0
  151.6044  142.6629  157.9527 C   0  0  0  0  0  0  0  0  0  0  0  0
  152.2608  141.6042  158.8440 C   0  0  0  0  0  0  0  0  0  0  0  0
  153.4410  142.3221  159.5051 C   0  0  0  0  0  0  0  0  0  0  0  0
  153.0839  143.8159  159.5098 C   0  0  0  0  0  0  0  0  0  0  0  0
  151.7344  143.9370  158.7922 C   0  0  0  0  0  0  0  0  0  0  0  0
  148.6987  140.8080  156.2599 C   0  0  0  0  0  0  0  0  0  0  0  0
  148.5695  139.3709  155.7291 C   0  0  0  0  0  0  0  0  0  0  0  0
  149.4314  135.5592  153.3876 H   0  0  0  0  0  0  0  0  0  0  0  0
  149.0389  133.3164  152.9497 H   0  0  0  0  0  0  0  0  0  0  0  0
  149.3355  130.9400  153.6581 H   0  0  0  0  0  0  0  0  0  0  0  0
  150.9705  132.0522  157.2838 H   0  0  0  0  0  0  0  0  0  0  0  0
  150.7483  134.4619  156.7738 H   0  0  0  0  0  0  0  0  0  0  0  0
  149.2819  137.5050  153.3285 H   0  0  0  0  0  0  0  0  0  0  0  0
  149.5439  139.7127  153.8494 H   0  0  0  0  0  0  0  0  0  0  0  0
  151.2393  138.6312  156.1569 H   0  0  0  0  0  0  0  0  0  0  0  0
  151.8462  139.1859  154.6153 H   0  0  0  0  0  0  0  0  0  0  0  0
  152.0944  140.9162  156.3849 H   0  0  0  0  0  0  0  0  0  0  0  0
  151.0733  141.4946  155.0805 H   0  0  0  0  0  0  0  0  0  0  0  0
  149.8388  143.1434  156.8426 H   0  0  0  0  0  0  0  0  0  0  0  0
  149.4744  142.4299  158.3842 H   0  0  0  0  0  0  0  0  0  0  0  0
  152.2156  142.7891  157.0572 H   0  0  0  0  0  0  0  0  0  0  0  0
  151.5598  141.2777  159.6137 H   0  0  0  0  0  0  0  0  0  0  0  0
  152.5775  140.7223  158.2865 H   0  0  0  0  0  0  0  0  0  0  0  0
  153.6314  141.9412  160.5091 H   0  0  0  0  0  0  0  0  0  0  0  0
  154.3478  142.1644  158.9197 H   0  0  0  0  0  0  0  0  0  0  0  0
  153.0292  144.2174  160.5223 H   0  0  0  0  0  0  0  0  0  0  0  0
  153.8497  144.3813  158.9770 H   0  0  0  0  0  0  0  0  0  0  0  0
  151.6647  144.8431  158.1899 H   0  0  0  0  0  0  0  0  0  0  0  0
  150.9351  143.9749  159.5337 H   0  0  0  0  0  0  0  0  0  0  0  0
  147.9146  140.9906  156.9937 H   0  0  0  0  0  0  0  0  0  0  0  0
  148.5410  141.5210  155.4489 H   0  0  0  0  0  0  0  0  0  0  0  0
  147.5904  139.2355  155.2680 H   0  0  0  0  0  0  0  0  0  0  0  0
  148.6185  138.6703  156.5644 H   0  0  0  0  0  0  0  0  0  0  0  0
  150.1447  140.3467  157.5995 H   0  0  0  0  0  0  0  0  0  0  0  0
  1  2  2  0  0  0  0
  2  3  1  0  0  0  0
  2 10  1  0  0  0  0
  3  4  1  0  0  0  0
  3 23  1  0  0  0  0
  4  9  1  0  0  0  0
  4  5  2  0  0  0  0
  5  6  1  0  0  0  0
  5 24  1  0  0  0  0
  6  7  2  0  0  0  0
  6 25  1  0  0  0  0
  7  8  1  0  0  0  0
  8  9  2  0  0  0  0
  8 26  1  0  0  0  0
  9 27  1  0  0  0  0
 10 11  1  0  0  0  0
 10 28  1  0  0  0  0
 11 22  1  0  0  0  0
 11 12  1  0  0  0  0
 11 29  1  0  0  0  0
 12 13  1  0  0  0  0
 12 30  1  0  0  0  0
 12 31  1  0  0  0  0
 13 14  1  0  0  0  0
 13 32  1  0  0  0  0
 13 33  1  0  0  0  0
 14 15  1  0  0  0  0
 14 21  1  0  0  0  0
 14 49  1  0  0  0  0
 15 16  1  0  0  0  0
 15 34  1  0  0  0  0
 15 35  1  0  0  0  0
 16 20  1  0  0  0  0
 16 17  1  0  0  0  0
 16 36  1  0  0  0  0
 17 18  1  0  0  0  0
 17 37  1  0  0  0  0
 17 38  1  0  0  0  0
 18 19  1  0  0  0  0
 18 39  1  0  0  0  0
 18 40  1  0  0  0  0
 19 20  1  0  0  0  0
 19 41  1  0  0  0  0
 19 42  1  0  0  0  0
 20 43  1  0  0  0  0
 20 44  1  0  0  0  0
 21 22  1  0  0  0  0
 21 45  1  0  0  0  0
 21 46  1  0  0  0  0
 22 47  1  0  0  0  0
 22 48  1  0  0  0  0
M  CHG  1  14   1
M  END
> <s_m_source_file>
AV-unprocessed.smi

> <i_m_source_file_index>
829

> <i_lp_mmshare_version>
43012

> <i_f3d_flags>
0

> <s_epik_input>
W2NIXTFbY0hdbltjSF1bY0hdYzFbTkhdQyg9TylbTkhdW0NIXTJbQ0gyXVtDSDJdTihbQ0gyXVtDSDJdMilbQ0gyXVtDSF0zW0NIMl1bQ0gyXVtDSDJdW0NIMl0z

> <s_epik_cmdline>
J2VwaWtfcHl0aG9uJywgJy1waCcsICc3LjAnLCAnLXRuJywgJzgnLCAnLW1hJywgJzIwMCcsICctbWV0YWxfYmluZGluZycsICctaW1hZScsICc8aW5maWxlLm1hZT4nLCAnLW9tYWUnLCAnPG91dGZpbGUubWFlPic=

> <r_epik_Ionization_Penalty>
0.101981

> <r_epik_Ionization_Penalty_Charging>
0.00207989

> <r_epik_Ionization_Penalty_Neutral>
0.0999008

> <r_epik_State_Penalty>
0.0935668

> <r_epik_Charging_Adjusted_Penalty>
0.0956467

> <i_epik_Tot_Q>
1

> <i_epik_Tot_abs_Q>
1

> <r_epik_Metal_State_Penalty>
0.0787682

> <b_epik_Metal_Only>
0

> <s_lp_Force_Field>
OPLS_2005

> <r_lp_Energy>
43.2002

> <b_lp_Chiralities_Consistent>
1

> <s_lp_Variant>
AV-unprocessed.smi:829-1

> <Gold.Version>
5.8.1

> <Gold.Id.Protein>
6NUR|6NUR_protein|mol2

> <Gold.PLP.Fitness>
45.5557

> <Gold.PLP.PLP>
-40.0011

> <Gold.PLP.part.hbond>
-2.1332

> <Gold.PLP.part.metal>
0.0000

> <Gold.PLP.part.buried>
-4.6934

> <Gold.PLP.part.nonpolar>
-33.2416

> <Gold.PLP.part.repulsive>
0.0951

> <Gold.PLP.ligand.clash>
0.0000

> <Gold.PLP.ligand.torsion>
0.2091

> <Gold.PLP.Chemscore.Hbond>
1.9760

> <Gold.PLP.Chemscore.CHOScore>
0.0000

> <Gold.PLP.Chemscore.Metal>
0.0000

> <Gold.Chemscore.Hbonds>
donor molecule, donor type, donor heavy atom, donor atom, acceptor molecule, acceptor atom, score
      L1  H     3    23       P1  7948  0.90
      L1  H    10    28       P1  7948  0.98

> <Gold.PLP.Chemscore.Internal.Correction>
0.0447

> <Gold.Rescore>
     Score         DG    S(hbond)    S(metal)    S(lipo)     H(rot)  DE(clash)    DE(int)     intcor
     18.07     -20.64       1.71        0.00     110.25       1.35       0.06       2.52       ----

> <Gold.Chemscore.Fitness>
18.0711

> <Gold.Chemscore.DG>
-20.6424

> <Gold.Chemscore.ZeroCoef>
-5.4800

> <Gold.Chemscore.Hbond>
1.7088

> <Gold.Chemscore.Metal>
0.0000

> <Gold.Chemscore.Lipo>
110.2511

> <Gold.Chemscore.Internal_Hbond>
0.0000

> <Gold.Chemscore.DEClash>
0.0555

> <Gold.Chemscore.DEInternal>
2.5157

> <Gold.Chemscore.Rot>
1.3455

> <Gold.Chemscore.Internal.Correction>
   9.000000E+99

> <Gold.Chemscore.Hbonds>
donor molecule, donor type, donor heavy atom, donor atom, acceptor molecule, acceptor atom, score
      L1  H     3    23       P1  7948  0.18
      L1  H    10    28       P1  7948  0.91

> <Gold.Chemscore.Hbond.Weighted>
-5.7075

> <Gold.Chemscore.Metal.Weighted>
-0.0000

> <Gold.Chemscore.Lipo.Weighted>
-12.8994

> <Gold.Chemscore.Internal_Hbond.Weighted>
0.0000

> <Gold.Chemscore.DEClash.Weighted>
0.0555

> <Gold.Chemscore.DEInternal.Weighted>
2.5157

> <Gold.Chemscore.Rot.Weighted>
3.4445

> <Gold.Chemscore.Internal.Correction.Weighted>
   9.000000E+99

> <Gold.Protein.RotatedTorsions>
[ 6907 6896 6895 6894 ] final  148.02 input  -60.11 | X-H torsion
[ 7974 7965 7964 7962 ] final  -40.51 input  175.53 | X-H torsion
[ 8008 7997 7996 7995 ] final   87.53 input   59.86 | X-H torsion
[ 10167 10162 10161 10158 ] final   97.17 input  -65.29 | X-H torsion
[ 10718 10713 10712 10709 ] final   42.42 input   66.30 | X-H torsion
[ 10763 10752 10751 10750 ] final -149.01 input  -60.55 | X-H torsion
[ 11005 11000 10999 10996 ] final   66.09 input  -57.11 | X-H torsion

> <Gold.Protein.ActiveResidues>
 VAL166  LYS551  ARG553  GLY616  TRP617  ASP618  TYR619  PRO620  LYS621  CYS622 
 ASP623  PHE694  ASN695  SER759  ASP760  ASP761  ALA762  ILE779  LEU786  VAL792 
 PHE793  MET794  SER795  GLU796  ALA797  LYS798  CYS799  TRP800  GLU811  SER814 

> <Gold.Protein.RotatedAtoms>
  152.1470  133.4498  159.4794 H   0  0  0  0  0  0  0  0  0  0  0  0  # atno 6907 bound_to 6896
  150.6891  134.2235  159.4415 H   0  0  0  0  0  0  0  0  0  0  0  0  # atno 6908 bound_to 6896
  152.0130  134.9865  160.0619 H   0  0  0  0  0  0  0  0  0  0  0  0  # atno 6909 bound_to 6896
  146.0297  140.6747  142.9138 H   0  0  0  0  0  0  0  0  0  0  0  0  # atno 7974 bound_to 7965
  155.9766  140.3381  155.6624 H   0  0  0  0  0  0  0  0  0  0  0  0  # atno 8008 bound_to 7997
  155.6605  140.0715  157.2574 H   0  0  0  0  0  0  0  0  0  0  0  0  # atno 8009 bound_to 7997
  154.4180  140.1709  156.1758 H   0  0  0  0  0  0  0  0  0  0  0  0  # atno 8010 bound_to 7997
  139.7826  144.6882  151.0001 H   0  0  0  0  0  0  0  0  0  0  0  0  # atno 10167 bound_to 10162
  157.4046  130.7880  149.7378 H   0  0  0  0  0  0  0  0  0  0  0  0  # atno 10718 bound_to 10713
  154.8201  135.3320  154.7062 H   0  0  0  0  0  0  0  0  0  0  0  0  # atno 10763 bound_to 10752
  153.7696  135.6926  153.4913 H   0  0  0  0  0  0  0  0  0  0  0  0  # atno 10764 bound_to 10752
  153.2054  135.4501  155.0265 H   0  0  0  0  0  0  0  0  0  0  0  0  # atno 10765 bound_to 10752
  139.9853  134.6678  156.0187 H   0  0  0  0  0  0  0  0  0  0  0  0  # atno 11005 bound_to 11000
  144.7025  140.3714  143.7144 LP  0  0  0  0  0  0  0  0  0  0  0  0  # atno 17320 bound_to 7965
  145.7060  139.1673  143.2566 LP  0  0  0  0  0  0  0  0  0  0  0  0  # atno 17321 bound_to 7965
  140.7819  143.4466  151.0473 LP  0  0  0  0  0  0  0  0  0  0  0  0  # atno 17342 bound_to 10162
  139.8146  143.7903  152.3173 LP  0  0  0  0  0  0  0  0  0  0  0  0  # atno 17343 bound_to 10162
  155.9833  130.4002  150.3371 LP  0  0  0  0  0  0  0  0  0  0  0  0  # atno 17370 bound_to 10713
  157.1503  131.0319  151.2888 LP  0  0  0  0  0  0  0  0  0  0  0  0  # atno 17371 bound_to 10713
  141.1519  133.6547  156.4040 LP  0  0  0  0  0  0  0  0  0  0  0  0  # atno 17394 bound_to 11000
  140.5014  134.6482  157.5250 LP  0  0  0  0  0  0  0  0  0  0  0  0  # atno 17395 bound_to 11000

$$$$
