AV-unprocessed.smi:2001|AV-procd|sdf|8107|dock7
  -GOLD-   2272010333D 1   1.00000     0.00000
 Structure written by MMmdl.
 51 52  0  0  0  0  0  0  0  0  2 V2000
  152.4073  142.6109  159.1428 C   0  0  0  0  0  0  0  0  0  0  0  0
  151.0543  142.2183  158.9943 O   0  0  0  0  0  0  0  0  0  0  0  0
  150.9025  141.0951  158.1423 C   0  0  0  0  0  0  0  0  0  0  0  0
  150.7250  141.5613  156.6878 C   0  0  0  0  0  0  0  0  0  0  0  0
  150.6087  140.4279  155.7630 N   0  0  0  0  0  0  0  0  0  0  0  0
  149.3708  140.3306  155.1485 N   0  0  0  0  0  0  0  0  0  0  0  0
  149.1381  139.3815  154.3005 C   0  0  0  0  0  0  0  0  0  0  0  0
  147.8191  139.2406  153.6228 C   0  0  0  0  0  0  0  0  0  0  0  0
  146.7692  139.6023  154.1565 O   0  0  0  0  0  0  0  0  0  0  0  0
  147.8570  138.6987  152.3934 N   0  0  0  0  0  0  0  0  0  0  0  0
  146.6900  138.4927  151.5476 C   0  0  0  0  0  0  0  0  0  0  0  0
  145.5757  137.7845  152.3344 C   0  0  0  0  0  0  0  0  0  0  0  0
  145.7520  136.3112  152.3693 N   0  3  1  0  0  0  0  0  0  0  0  0
  145.5913  135.7587  153.7339 C   0  0  0  0  0  0  0  0  0  0  0  0
  145.8920  134.2496  153.7440 C   0  0  1  0  0  0  0  0  0  0  0  0
  145.6523  133.6283  155.1245 C   0  0  0  0  0  0  0  0  0  0  0  0
  145.0397  133.5915  152.8104 O   0  0  0  0  0  0  0  0  0  0  0  0
  145.1409  134.0653  151.4674 C   0  0  2  0  0  0  0  0  0  0  0  0
  146.4623  133.6467  150.7984 C   0  0  0  0  0  0  0  0  0  0  0  0
  144.8791  135.5838  151.4149 C   0  0  0  0  0  0  0  0  0  0  0  0
  150.1639  138.4047  153.9766 C   0  0  0  0  0  0  0  0  0  0  0  0
  151.3663  138.5128  154.5830 C   0  0  0  0  0  0  0  0  0  0  0  0
  151.6569  139.5770  155.5450 C   0  0  0  0  0  0  0  0  0  0  0  0
  152.7459  139.6959  156.1055 O   0  0  0  0  0  0  0  0  0  0  0  0
  152.4664  143.4748  159.8049 H   0  0  0  0  0  0  0  0  0  0  0  0
  152.8445  142.8911  158.1835 H   0  0  0  0  0  0  0  0  0  0  0  0
  153.0047  141.8098  159.5799 H   0  0  0  0  0  0  0  0  0  0  0  0
  151.7900  140.4646  158.2147 H   0  0  0  0  0  0  0  0  0  0  0  0
  150.0496  140.4900  158.4550 H   0  0  0  0  0  0  0  0  0  0  0  0
  149.8707  142.2360  156.6094 H   0  0  0  0  0  0  0  0  0  0  0  0
  151.5894  142.1627  156.4008 H   0  0  0  0  0  0  0  0  0  0  0  0
  148.7551  138.4219  152.0227 H   0  0  0  0  0  0  0  0  0  0  0  0
  146.3550  139.4625  151.1791 H   0  0  0  0  0  0  0  0  0  0  0  0
  146.9730  137.8958  150.6790 H   0  0  0  0  0  0  0  0  0  0  0  0
  145.5889  138.1664  153.3565 H   0  0  0  0  0  0  0  0  0  0  0  0
  144.5947  138.0301  151.9246 H   0  0  0  0  0  0  0  0  0  0  0  0
  146.2676  136.2685  154.4213 H   0  0  0  0  0  0  0  0  0  0  0  0
  144.5754  135.9471  154.0858 H   0  0  0  0  0  0  0  0  0  0  0  0
  146.9350  134.0812  153.4746 H   0  0  0  0  0  0  0  0  0  0  0  0
  146.2877  134.0921  155.8796 H   0  0  0  0  0  0  0  0  0  0  0  0
  145.8737  132.5607  155.1153 H   0  0  0  0  0  0  0  0  0  0  0  0
  144.6153  133.7506  155.4387 H   0  0  0  0  0  0  0  0  0  0  0  0
  144.3405  133.5725  150.9146 H   0  0  0  0  0  0  0  0  0  0  0  0
  146.4540  133.8978  149.7373 H   0  0  0  0  0  0  0  0  0  0  0  0
  146.6144  132.5703  150.8794 H   0  0  0  0  0  0  0  0  0  0  0  0
  147.3267  134.1413  151.2404 H   0  0  0  0  0  0  0  0  0  0  0  0
  143.8357  135.7831  151.6648 H   0  0  0  0  0  0  0  0  0  0  0  0
  145.0310  135.9426  150.3974 H   0  0  0  0  0  0  0  0  0  0  0  0
  149.9778  137.6088  153.2702 H   0  0  0  0  0  0  0  0  0  0  0  0
  152.1382  137.7934  154.3521 H   0  0  0  0  0  0  0  0  0  0  0  0
  146.7078  136.1268  152.0989 H   0  0  0  0  0  0  0  0  0  0  0  0
  1  2  1  0  0  0  0
  1 25  1  0  0  0  0
  1 26  1  0  0  0  0
  1 27  1  0  0  0  0
  2  3  1  0  0  0  0
  3  4  1  0  0  0  0
  3 28  1  0  0  0  0
  3 29  1  0  0  0  0
  4  5  1  0  0  0  0
  4 30  1  0  0  0  0
  4 31  1  0  0  0  0
  5 23  1  0  0  0  0
  5  6  1  0  0  0  0
  6  7  2  0  0  0  0
  7  8  1  0  0  0  0
  7 21  1  0  0  0  0
  8  9  2  0  0  0  0
  8 10  1  0  0  0  0
 10 11  1  0  0  0  0
 10 32  1  0  0  0  0
 11 12  1  0  0  0  0
 11 33  1  0  0  0  0
 11 34  1  0  0  0  0
 12 13  1  0  0  0  0
 12 35  1  0  0  0  0
 12 36  1  0  0  0  0
 13 20  1  0  0  0  0
 13 14  1  0  0  0  0
 13 51  1  0  0  0  0
 14 15  1  0  0  0  0
 14 37  1  0  0  0  0
 14 38  1  0  0  0  0
 15 16  1  0  0  0  0
 15 17  1  0  0  0  0
 15 39  1  0  0  0  0
 16 40  1  0  0  0  0
 16 41  1  0  0  0  0
 16 42  1  0  0  0  0
 17 18  1  0  0  0  0
 18 19  1  0  0  0  0
 18 20  1  0  0  0  0
 18 43  1  0  0  0  0
 19 44  1  0  0  0  0
 19 45  1  0  0  0  0
 19 46  1  0  0  0  0
 20 47  1  0  0  0  0
 20 48  1  0  0  0  0
 21 22  2  0  0  0  0
 21 49  1  0  0  0  0
 22 23  1  0  0  0  0
 22 50  1  0  0  0  0
 23 24  2  0  0  0  0
M  CHG  1  13   1
M  END
> <s_m_source_file>
AV-unprocessed.smi

> <i_m_source_file_index>
2001

> <i_lp_mmshare_version>
43012

> <i_f3d_flags>
0

> <s_epik_input>
W0NIM11PW0NIMl1bQ0gyXW4xbmMoW2NIXVtjSF1jMT1PKUMoPU8pW05IXVtDSDJdW0NIMl1OMltDSDJdW0NAQEhdKFtDSDNdKU9bQ0BASF0oW0NIM10pW0NIMl0y

> <s_epik_cmdline>
J2VwaWtfcHl0aG9uJywgJy1waCcsICc3LjAnLCAnLXRuJywgJzgnLCAnLW1hJywgJzIwMCcsICctbWV0YWxfYmluZGluZycsICctaW1hZScsICc8aW5maWxlLm1hZT4nLCAnLW9tYWUnLCAnPG91dGZpbGUubWFlPic=

> <r_lp_tautomer_probability>
1

> <r_epik_Ionization_Penalty>
0.724354

> <r_epik_Ionization_Penalty_Charging>
0.724348

> <r_epik_Ionization_Penalty_Neutral>
6.1656e-06

> <r_epik_State_Penalty>
0.749058

> <r_epik_Charging_Adjusted_Penalty>
1.47341

> <i_epik_Tot_Q>
1

> <i_epik_Tot_abs_Q>
1

> <r_epik_Metal_State_Penalty>
0.750779

> <b_epik_Metal_Only>
0

> <s_lp_Force_Field>
OPLS_2005

> <r_lp_Energy>
40.2428

> <b_lp_Chiralities_Consistent>
1

> <s_lp_Variant>
AV-unprocessed.smi:2001-6

> <Gold.Version>
5.8.1

> <Gold.Id.Protein>
6NUR|6NUR_protein|mol2

> <Gold.PLP.Fitness>
47.7194

> <Gold.PLP.PLP>
-40.6483

> <Gold.PLP.part.hbond>
-4.2700

> <Gold.PLP.part.metal>
0.0000

> <Gold.PLP.part.buried>
-2.9085

> <Gold.PLP.part.nonpolar>
-32.6217

> <Gold.PLP.part.repulsive>
0.3811

> <Gold.PLP.ligand.clash>
0.0000

> <Gold.PLP.ligand.torsion>
1.3980

> <Gold.PLP.Chemscore.Hbond>
3.2080

> <Gold.PLP.Chemscore.CHOScore>
0.0000

> <Gold.PLP.Chemscore.Metal>
0.0000

> <Gold.Chemscore.Hbonds>
donor molecule, donor type, donor heavy atom, donor atom, acceptor molecule, acceptor atom, score
      L1  H    10    32       P1  7948  0.19
      L1  H    13    51       P1  7948  0.98
      P1  H  7997  8009       L1    24  1.00

> <Gold.PLP.Chemscore.Internal.Correction>
0.2431

> <Gold.Rescore>
     Score         DG    S(hbond)    S(metal)    S(lipo)     H(rot)  DE(clash)    DE(int)     intcor
     13.64     -16.85       2.14        0.00      81.36       2.07       0.35       2.86       ----

> <Gold.Chemscore.Fitness>
13.6368

> <Gold.Chemscore.DG>
-16.8463

> <Gold.Chemscore.ZeroCoef>
-5.4800

> <Gold.Chemscore.Hbond>
2.1411

> <Gold.Chemscore.Metal>
0.0000

> <Gold.Chemscore.Lipo>
81.3642

> <Gold.Chemscore.Internal_Hbond>
0.0000

> <Gold.Chemscore.DEClash>
0.3457

> <Gold.Chemscore.DEInternal>
2.8639

> <Gold.Chemscore.Rot>
2.0721

> <Gold.Chemscore.Internal.Correction>
   9.000000E+99

> <Gold.Chemscore.Hbonds>
donor molecule, donor type, donor heavy atom, donor atom, acceptor molecule, acceptor atom, score
      L1  H    10    32       P1  7948  0.18
      L1  H    13    51       P1  7948  0.48
      P1  H  7997  8009       L1    24  1.00

> <Gold.Chemscore.Hbond.Weighted>
-7.1514

> <Gold.Chemscore.Metal.Weighted>
-0.0000

> <Gold.Chemscore.Lipo.Weighted>
-9.5196

> <Gold.Chemscore.Internal_Hbond.Weighted>
0.0000

> <Gold.Chemscore.DEClash.Weighted>
0.3457

> <Gold.Chemscore.DEInternal.Weighted>
2.8639

> <Gold.Chemscore.Rot.Weighted>
5.3047

> <Gold.Chemscore.Internal.Correction.Weighted>
   9.000000E+99

> <Gold.Protein.RotatedTorsions>
[ 6907 6896 6895 6894 ] final -154.39 input  -60.11 | X-H torsion
[ 7974 7965 7964 7962 ] final -118.73 input  175.53 | X-H torsion
[ 8008 7997 7996 7995 ] final -163.18 input   59.86 | X-H torsion
[ 10167 10162 10161 10158 ] final -116.40 input  -65.29 | X-H torsion
[ 10718 10713 10712 10709 ] final  -48.42 input   66.30 | X-H torsion
[ 10763 10752 10751 10750 ] final  -40.65 input  -60.55 | X-H torsion
[ 11005 11000 10999 10996 ] final  -10.98 input  -57.11 | X-H torsion

> <Gold.Protein.ActiveResidues>
 VAL166  LYS551  ARG553  GLY616  TRP617  ASP618  TYR619  PRO620  LYS621  CYS622 
 ASP623  PHE694  ASN695  SER759  ASP760  ASP761  ALA762  ILE779  LEU786  VAL792 
 PHE793  MET794  SER795  GLU796  ALA797  LYS798  CYS799  TRP800  GLU811  SER814 

> <Gold.Protein.RotatedAtoms>
  151.2567  133.4322  159.2613 H   0  0  0  0  0  0  0  0  0  0  0  0  # atno 6907 bound_to 6896
  151.0567  134.9710  159.8250 H   0  0  0  0  0  0  0  0  0  0  0  0  # atno 6908 bound_to 6896
  152.5392  134.2519  159.8955 H   0  0  0  0  0  0  0  0  0  0  0  0  # atno 6909 bound_to 6896
  145.0705  140.8355  143.4098 H   0  0  0  0  0  0  0  0  0  0  0  0  # atno 7974 bound_to 7965
  155.8176  140.0915  157.1868 H   0  0  0  0  0  0  0  0  0  0  0  0  # atno 8008 bound_to 7997
  154.3979  140.1443  156.3521 H   0  0  0  0  0  0  0  0  0  0  0  0  # atno 8009 bound_to 7997
  155.8300  140.3443  155.5569 H   0  0  0  0  0  0  0  0  0  0  0  0  # atno 8010 bound_to 7997
  140.0796  143.4800  152.1933 H   0  0  0  0  0  0  0  0  0  0  0  0  # atno 10167 bound_to 10162
  156.1989  130.4155  149.9267 H   0  0  0  0  0  0  0  0  0  0  0  0  # atno 10718 bound_to 10713
  153.9494  135.6752  153.4744 H   0  0  0  0  0  0  0  0  0  0  0  0  # atno 10763 bound_to 10752
  153.0892  135.4883  154.8653 H   0  0  0  0  0  0  0  0  0  0  0  0  # atno 10764 bound_to 10752
  154.7333  135.3143  154.8813 H   0  0  0  0  0  0  0  0  0  0  0  0  # atno 10765 bound_to 10752
  140.7505  133.8596  155.9041 H   0  0  0  0  0  0  0  0  0  0  0  0  # atno 11005 bound_to 11000
  145.1298  139.2639  143.5545 LP  0  0  0  0  0  0  0  0  0  0  0  0  # atno 17320 bound_to 7965
  146.3528  140.0946  142.8611 LP  0  0  0  0  0  0  0  0  0  0  0  0  # atno 17321 bound_to 7965
  139.5787  144.7500  151.3696 LP  0  0  0  0  0  0  0  0  0  0  0  0  # atno 17342 bound_to 10162
  140.7084  143.7453  150.7523 LP  0  0  0  0  0  0  0  0  0  0  0  0  # atno 17343 bound_to 10162
  156.6983  130.8923  151.3596 LP  0  0  0  0  0  0  0  0  0  0  0  0  # atno 17370 bound_to 10713
  157.6974  130.9296  150.0685 LP  0  0  0  0  0  0  0  0  0  0  0  0  # atno 17371 bound_to 10713
  140.9755  134.1474  157.4539 LP  0  0  0  0  0  0  0  0  0  0  0  0  # atno 17394 bound_to 11000
  139.8788  134.9993  156.5948 LP  0  0  0  0  0  0  0  0  0  0  0  0  # atno 17395 bound_to 11000

$$$$
