#       Name:                AV-unprocessed.smi:686
#       Creating user name   scv26
#       Creation time:       Fri Mar 27 00:32:06 2020


#       File generated by GOLD software.
#

@<TRIPOS>MOLECULE
AV-unprocessed.smi:686
    44    45     1
SMALL
NO_CHARGES


@<TRIPOS>ATOM
      1 ****         0.3392  -0.4192  -3.0312 C.3            1 S1                 0.0000
      2 ****        -0.7555  -0.2390  -1.9578 C.3            1 S1                 0.0000
      3 ****        -1.4068  -1.5384  -1.4824 C.3            1 S1                 0.0000
      4 ****        -2.1563  -1.1631  -0.2615 N.4            1 S1                 1.0000
      5 ****        -2.4397  -2.2766   0.6888 C.3            1 S1                 0.0000
      6 ****        -3.0747  -3.4881  -0.0209 C.3            1 S1                 0.0000
      7 ****        -3.3661  -1.8101   1.8280 C.3            1 S1                 0.0000
      8 ****        -1.4760   0.0209   0.3303 C.3            1 S1                 0.0000
      9 ****        -0.3660   0.4656  -0.6446 C.3            1 S1                 0.0000
     10 ****         0.9315  -0.0051  -0.1626 N.pl3          1 S1                -1.0000
     11 ****         1.7812   0.8315   0.9450 S.o2           1 S1                 0.0000
     12 ****         0.9430   1.4898   1.9617 O.2            1 S1                 0.0000
     13 ****         2.9154   0.0385   1.4426 O.2            1 S1                 0.0000
     14 ****         2.5314   2.1811  -0.0754 C.3            1 S1                 0.0000
     15 ****         3.4508   3.0140   0.7725 C.2            1 S1                 0.0000
     16 ****         4.7992   2.7479   1.1394 C.2            1 S1                 0.0000
     17 ****         5.1409   3.8267   1.9027 C.2            1 S1                 0.0000
     18 ****         4.1002   4.6923   1.9952 O.3            1 S1                 0.0000
     19 ****         3.0267   4.1667   1.2672 N.2            1 S1                 0.0000
     20 ****         1.1462  -1.0739  -2.6979 H              1 S1                 0.0000
     21 ****         0.7806   0.5346  -3.3250 H              1 S1                 0.0000
     22 ****        -0.0823  -0.8688  -3.9304 H              1 S1                 0.0000
     23 ****        -1.5445   0.3635  -2.4115 H              1 S1                 0.0000
     24 ****        -2.0710  -1.9578  -2.2389 H              1 S1                 0.0000
     25 ****        -0.6504  -2.2934  -1.2503 H              1 S1                 0.0000
     26 ****        -1.4920  -2.5986   1.1238 H              1 S1                 0.0000
     27 ****        -3.3238  -4.2723   0.6948 H              1 S1                 0.0000
     28 ****        -2.4013  -3.9348  -0.7523 H              1 S1                 0.0000
     29 ****        -3.9942  -3.2091  -0.5366 H              1 S1                 0.0000
     30 ****        -3.5877  -2.6310   2.5109 H              1 S1                 0.0000
     31 ****        -4.3154  -1.4401   1.4394 H              1 S1                 0.0000
     32 ****        -2.9196  -1.0156   2.4251 H              1 S1                 0.0000
     33 ****        -2.2168   0.8122   0.4467 H              1 S1                 0.0000
     34 ****        -1.0813  -0.1898   1.3255 H              1 S1                 0.0000
     35 ****        -0.3806   1.5468  -0.7840 H              1 S1                 0.0000
     36 ****         3.0756   1.7222  -0.9004 H              1 S1                 0.0000
     37 ****         1.7336   2.7891  -0.5015 H              1 S1                 0.0000
     38 ****         5.4135   1.8963   0.8877 H              1 S1                 0.0000
     39 ****         6.0432   4.1114   2.4234 H              1 S1                 0.0000
     40 ****        -3.0499  -0.8245  -0.5875 H              1 S1                 0.0000
     41 ****         1.3053  -0.8604  -0.5215 LP             1 S1                 0.0000
     42 ****         4.3635   5.5796   1.6167 LP             1 S1                 0.0000
     43 ****         3.8369   4.8036   2.9535 LP             1 S1                 0.0000
     44 ****         2.1233   4.5779   1.1455 LP             1 S1                 0.0000
@<TRIPOS>BOND
    1    1    2 1     
    2    1   20 1     
    3    1   21 1     
    4    1   22 1     
    5    2    9 1     
    6    2    3 1     
    7    2   23 1     
    8    3    4 1     
    9    3   24 1     
   10    3   25 1     
   11    4    5 1     
   12    4    8 1     
   13    4   40 1     
   14    5    6 1     
   15    5    7 1     
   16    5   26 1     
   17    6   27 1     
   18    6   28 1     
   19    6   29 1     
   20    7   30 1     
   21    7   31 1     
   22    7   32 1     
   23    8    9 1     
   24    8   33 1     
   25    8   34 1     
   26    9   10 1     
   27    9   35 1     
   28   10   11 1     
   29   11   12 2     
   30   11   13 2     
   31   11   14 1     
   32   14   15 1     
   33   14   36 1     
   34   14   37 1     
   35   15   19 2     
   36   15   16 1     
   37   16   17 2     
   38   16   38 1     
   39   17   18 1     
   40   17   39 1     
   41   18   19 1     
   42   10   41 1     
   43   18   42 1     
   44   18   43 1     
   45   19   44 1     
@<TRIPOS>SUBSTRUCTURE
      1 S1             1
@<TRIPOS>SET
LONE_PAIRS      STATIC     ATOMS    <user>   **** ""
6 41 12 13 42 43 44
DONOR_HYDROGENS      STATIC     ATOMS    <user>   **** ""
1 40
ATOM$BLUE        STATIC     ATOMS    COLORGROUP SYSTEM
6 41 12 13 42 43 44
ATOM$RED        STATIC     ATOMS    COLORGROUP SYSTEM
1 40
