AV-unprocessed.smi:1389|AV-procd|sdf|5654|dock3
  -GOLD-   22720 5273D 1   1.00000     0.00000
 Structure written by MMmdl.
 52 54  0  0  0  0  0  0  0  0  4 V2000
  145.1412  136.9266  155.9716 C   0  0  0  0  0  0  0  0  0  0  0  0
  144.2968  137.6888  154.9238 C   0  0  2  0  0  0  0  0  0  0  0  0
  143.1641  136.8130  154.2915 C   0  0  0  0  0  0  0  0  0  0  0  0
  143.6638  135.4785  153.9553 N   0  5  0  0  0  0  0  0  0  0  0  0
  143.8555  135.0202  152.6895 C   0  0  0  0  0  0  0  0  0  0  0  0
  143.4783  135.5394  151.6324 O   0  0  0  0  0  0  0  0  0  0  0  0
  144.5526  133.8716  152.6682 N   0  0  0  0  0  0  0  0  0  0  0  0
  145.0256  133.1486  151.5384 C   0  0  0  0  0  0  0  0  0  0  0  0
  144.2409  133.0409  150.3627 C   0  0  0  0  0  0  0  0  0  0  0  0
  144.6963  132.2600  149.2839 C   0  0  0  0  0  0  0  0  0  0  0  0
  145.9218  131.5827  149.4050 C   0  0  0  0  0  0  0  0  0  0  0  0
  146.6376  131.6927  150.5434 N   0  3  0  0  0  0  0  0  0  0  0  0
  146.2601  132.4413  151.6103 C   0  0  0  0  0  0  0  0  0  0  0  0
  147.1177  132.4705  152.7338 N   0  0  0  0  0  0  0  0  0  0  0  0
  147.3767  131.2569  153.4989 C   0  0  0  0  0  0  0  0  0  0  0  0
  148.5792  131.5923  154.3772 C   0  0  0  0  0  0  0  0  0  0  0  0
  149.3938  132.5181  153.4786 C   0  0  0  0  0  0  0  0  0  0  0  0
  148.3296  133.2833  152.6849 C   0  0  0  0  0  0  0  0  0  0  0  0
  145.2016  138.3919  153.9515 N   0  3  0  0  0  0  0  0  0  0  0  0
  146.1857  139.3685  154.4971 C   0  0  0  0  0  0  0  0  0  0  0  0
  146.8209  140.1677  153.3477 C   0  0  0  0  0  0  0  0  0  0  0  0
  147.4270  139.2750  152.4200 O   0  0  0  0  0  0  0  0  0  0  0  0
  146.4808  138.3915  151.8292 C   0  0  0  0  0  0  0  0  0  0  0  0
  145.8291  137.5247  152.9188 C   0  0  0  0  0  0  0  0  0  0  0  0
  144.5357  136.5736  156.8086 H   0  0  0  0  0  0  0  0  0  0  0  0
  145.9061  137.5781  156.3952 H   0  0  0  0  0  0  0  0  0  0  0  0
  145.6524  136.0591  155.5513 H   0  0  0  0  0  0  0  0  0  0  0  0
  143.8095  138.4937  155.4766 H   0  0  0  0  0  0  0  0  0  0  0  0
  142.3231  136.7581  154.9834 H   0  0  0  0  0  0  0  0  0  0  0  0
  142.7709  137.3233  153.4121 H   0  0  0  0  0  0  0  0  0  0  0  0
  144.9010  133.5624  153.5640 H   0  0  0  0  0  0  0  0  0  0  0  0
  143.2826  133.5319  150.2832 H   0  0  0  0  0  0  0  0  0  0  0  0
  144.1066  132.1728  148.3831 H   0  0  0  0  0  0  0  0  0  0  0  0
  146.3466  130.9562  148.6344 H   0  0  0  0  0  0  0  0  0  0  0  0
  146.5093  130.9676  154.0933 H   0  0  0  0  0  0  0  0  0  0  0  0
  147.6287  130.4318  152.8312 H   0  0  0  0  0  0  0  0  0  0  0  0
  148.2528  132.1313  155.2679 H   0  0  0  0  0  0  0  0  0  0  0  0
  149.1329  130.7091  154.6970 H   0  0  0  0  0  0  0  0  0  0  0  0
  150.0607  133.1762  154.0361 H   0  0  0  0  0  0  0  0  0  0  0  0
  150.0025  131.9228  152.7966 H   0  0  0  0  0  0  0  0  0  0  0  0
  148.6583  133.4740  151.6621 H   0  0  0  0  0  0  0  0  0  0  0  0
  148.1281  134.2438  153.1609 H   0  0  0  0  0  0  0  0  0  0  0  0
  145.7019  140.0557  155.1904 H   0  0  0  0  0  0  0  0  0  0  0  0
  146.9719  138.8527  155.0501 H   0  0  0  0  0  0  0  0  0  0  0  0
  146.0756  140.7850  152.8435 H   0  0  0  0  0  0  0  0  0  0  0  0
  147.5830  140.8432  153.7367 H   0  0  0  0  0  0  0  0  0  0  0  0
  145.7278  138.9601  151.2812 H   0  0  0  0  0  0  0  0  0  0  0  0
  146.9922  137.7592  151.1032 H   0  0  0  0  0  0  0  0  0  0  0  0
  146.5834  136.8795  153.3705 H   0  0  0  0  0  0  0  0  0  0  0  0
  145.0790  136.8745  152.4675 H   0  0  0  0  0  0  0  0  0  0  0  0
  144.5590  138.9623  153.4212 H   0  0  0  0  0  0  0  0  0  0  0  0
  147.5216  131.1874  150.6022 H   0  0  0  0  0  0  0  0  0  0  0  0
  1  2  1  0  0  0  0
  1 25  1  0  0  0  0
  1 26  1  0  0  0  0
  1 27  1  0  0  0  0
  2  3  1  0  0  0  0
  2 19  1  0  0  0  0
  2 28  1  0  0  0  0
  3  4  1  0  0  0  0
  3 29  1  0  0  0  0
  3 30  1  0  0  0  0
  4  5  1  0  0  0  0
  5  6  2  0  0  0  0
  5  7  1  0  0  0  0
  7  8  1  0  0  0  0
  7 31  1  0  0  0  0
  8 13  1  0  0  0  0
  8  9  2  0  0  0  0
  9 10  1  0  0  0  0
  9 32  1  0  0  0  0
 10 11  2  0  0  0  0
 10 33  1  0  0  0  0
 11 12  1  0  0  0  0
 11 34  1  0  0  0  0
 12 13  2  0  0  0  0
 12 52  1  0  0  0  0
 13 14  1  0  0  0  0
 14 18  1  0  0  0  0
 14 15  1  0  0  0  0
 15 16  1  0  0  0  0
 15 35  1  0  0  0  0
 15 36  1  0  0  0  0
 16 17  1  0  0  0  0
 16 37  1  0  0  0  0
 16 38  1  0  0  0  0
 17 18  1  0  0  0  0
 17 39  1  0  0  0  0
 17 40  1  0  0  0  0
 18 41  1  0  0  0  0
 18 42  1  0  0  0  0
 19 24  1  0  0  0  0
 19 20  1  0  0  0  0
 19 51  1  0  0  0  0
 20 21  1  0  0  0  0
 20 43  1  0  0  0  0
 20 44  1  0  0  0  0
 21 22  1  0  0  0  0
 21 45  1  0  0  0  0
 21 46  1  0  0  0  0
 22 23  1  0  0  0  0
 23 24  1  0  0  0  0
 23 47  1  0  0  0  0
 23 48  1  0  0  0  0
 24 49  1  0  0  0  0
 24 50  1  0  0  0  0
M  CHG  1   4  -1
M  CHG  1  12   1
M  CHG  1  19   1
M  END
> <s_m_source_file>
AV-unprocessed.smi

> <i_m_source_file_index>
1389

> <i_lp_mmshare_version>
43012

> <i_f3d_flags>
0

> <s_epik_input>
W0NIMl0xW0NIMl1PW0NIMl1bQ0gyXU4xW0NASF0oW0NIM10pW0NIMl1bTkhdQyg9TylbTkhdYzJbY0hdW2NIXVtjSF1uYzJOM1tDSDJdW0NIMl1bQ0gyXVtDSDJdMw==

> <s_epik_cmdline>
J2VwaWtfcHl0aG9uJywgJy1waCcsICc3LjAnLCAnLXRuJywgJzgnLCAnLW1hJywgJzIwMCcsICctbWV0YWxfYmluZGluZycsICctaW1hZScsICc8aW5maWxlLm1hZT4nLCAnLW9tYWUnLCAnPG91dGZpbGUubWFlPic=

> <r_lp_tautomer_probability>
0.999994

> <r_epik_Ionization_Penalty>
8.58362

> <r_epik_Ionization_Penalty_Charging>
8.58361

> <r_epik_Ionization_Penalty_Neutral>
3.55275e-06

> <r_epik_State_Penalty>
8.57766

> <r_epik_Charging_Adjusted_Penalty>
17.1613

> <i_epik_Tot_Q>
1

> <i_epik_Tot_abs_Q>
3

> <r_epik_Metal_State_Penalty>
4.57399

> <b_epik_Metal_Only>
1

> <s_lp_Force_Field>
OPLS_2005

> <r_lp_Energy>
52.6414

> <b_lp_Chiralities_Consistent>
1

> <s_lp_Variant>
AV-unprocessed.smi:1389-9

> <Gold.Version>
5.8.1

> <Gold.Id.Protein>
6NUR|6NUR_protein|mol2

> <Gold.PLP.Fitness>
41.2974

> <Gold.PLP.PLP>
-33.2512

> <Gold.PLP.part.hbond>
-2.0000

> <Gold.PLP.part.metal>
0.0000

> <Gold.PLP.part.buried>
-5.6888

> <Gold.PLP.part.nonpolar>
-28.4481

> <Gold.PLP.part.repulsive>
2.8209

> <Gold.PLP.ligand.clash>
0.0000

> <Gold.PLP.ligand.torsion>
0.8698

> <Gold.PLP.Chemscore.Hbond>
3.0000

> <Gold.PLP.Chemscore.CHOScore>
0.0000

> <Gold.PLP.Chemscore.Metal>
0.0000

> <Gold.Chemscore.Hbonds>
donor molecule, donor type, donor heavy atom, donor atom, acceptor molecule, acceptor atom, score
      L1  H    12    52       P1 10747  0.99
      L1  H    19    51       P1 10175  2.00

> <Gold.PLP.Chemscore.Internal.Correction>
0.7858

> <Gold.Rescore>
     Score         DG    S(hbond)    S(metal)    S(lipo)     H(rot)  DE(clash)    DE(int)     intcor
     14.49     -18.33       1.92        0.00      90.80       1.63       1.67       2.18       ----

> <Gold.Chemscore.Fitness>
14.4862

> <Gold.Chemscore.DG>
-18.3341

> <Gold.Chemscore.ZeroCoef>
-5.4800

> <Gold.Chemscore.Hbond>
1.9177

> <Gold.Chemscore.Metal>
0.0000

> <Gold.Chemscore.Lipo>
90.7988

> <Gold.Chemscore.Internal_Hbond>
0.0000

> <Gold.Chemscore.DEClash>
1.6682

> <Gold.Chemscore.DEInternal>
2.1796

> <Gold.Chemscore.Rot>
1.6307

> <Gold.Chemscore.Internal.Correction>
   9.000000E+99

> <Gold.Chemscore.Hbonds>
donor molecule, donor type, donor heavy atom, donor atom, acceptor molecule, acceptor atom, score
      L1  H    12    52       P1 10747  0.91
      L1  H    19    51       P1 10175  0.98

> <Gold.Chemscore.Hbond.Weighted>
-6.4052

> <Gold.Chemscore.Metal.Weighted>
-0.0000

> <Gold.Chemscore.Lipo.Weighted>
-10.6235

> <Gold.Chemscore.Internal_Hbond.Weighted>
0.0000

> <Gold.Chemscore.DEClash.Weighted>
1.6682

> <Gold.Chemscore.DEInternal.Weighted>
2.1796

> <Gold.Chemscore.Rot.Weighted>
4.1746

> <Gold.Chemscore.Internal.Correction.Weighted>
   9.000000E+99

> <Gold.Protein.RotatedTorsions>
[ 6907 6896 6895 6894 ] final  -75.60 input  -60.11 | X-H torsion
[ 7974 7965 7964 7962 ] final   50.26 input  175.53 | X-H torsion
[ 8008 7997 7996 7995 ] final -119.02 input   59.86 | X-H torsion
[ 10167 10162 10161 10158 ] final  143.10 input  -65.29 | X-H torsion
[ 10718 10713 10712 10709 ] final  114.74 input   66.30 | X-H torsion
[ 10763 10752 10751 10750 ] final -139.99 input  -60.55 | X-H torsion
[ 11005 11000 10999 10996 ] final   71.78 input  -57.11 | X-H torsion

> <Gold.Protein.ActiveResidues>
 VAL166  LYS551  ARG553  GLY616  TRP617  ASP618  TYR619  PRO620  LYS621  CYS622 
 ASP623  PHE694  ASN695  SER759  ASP760  ASP761  ALA762  ILE779  LEU786  VAL792 
 PHE793  MET794  SER795  GLU796  ALA797  LYS798  CYS799  TRP800  GLU811  SER814 

> <Gold.Protein.RotatedAtoms>
  150.7054  134.4697  159.5419 H   0  0  0  0  0  0  0  0  0  0  0  0  # atno 6907 bound_to 6896
  152.2355  134.8277  160.0477 H   0  0  0  0  0  0  0  0  0  0  0  0  # atno 6908 bound_to 6896
  151.9077  133.3518  159.3889 H   0  0  0  0  0  0  0  0  0  0  0  0  # atno 6909 bound_to 6896
  146.0029  139.4459  143.0004 H   0  0  0  0  0  0  0  0  0  0  0  0  # atno 7974 bound_to 7965
  155.1091  140.0397  157.2719 H   0  0  0  0  0  0  0  0  0  0  0  0  # atno 8008 bound_to 7997
  154.6699  140.2610  155.6993 H   0  0  0  0  0  0  0  0  0  0  0  0  # atno 8009 bound_to 7997
  156.2654  140.2800  156.1204 H   0  0  0  0  0  0  0  0  0  0  0  0  # atno 8010 bound_to 7997
  139.4978  144.6063  151.6371 H   0  0  0  0  0  0  0  0  0  0  0  0  # atno 10167 bound_to 10162
  157.6264  131.1003  150.7229 H   0  0  0  0  0  0  0  0  0  0  0  0  # atno 10718 bound_to 10713
  154.8592  135.3566  154.5635 H   0  0  0  0  0  0  0  0  0  0  0  0  # atno 10763 bound_to 10752
  153.6249  135.7004  153.5301 H   0  0  0  0  0  0  0  0  0  0  0  0  # atno 10764 bound_to 10752
  153.3097  135.4182  155.1285 H   0  0  0  0  0  0  0  0  0  0  0  0  # atno 10765 bound_to 10752
  139.9525  134.7201  156.0828 H   0  0  0  0  0  0  0  0  0  0  0  0  # atno 11005 bound_to 11000
  145.7460  140.9990  143.1275 LP  0  0  0  0  0  0  0  0  0  0  0  0  # atno 17320 bound_to 7965
  144.6925  139.9157  143.7465 LP  0  0  0  0  0  0  0  0  0  0  0  0  # atno 17321 bound_to 7965
  140.5726  144.0083  150.6224 LP  0  0  0  0  0  0  0  0  0  0  0  0  # atno 17342 bound_to 10162
  140.3206  143.3140  152.0788 LP  0  0  0  0  0  0  0  0  0  0  0  0  # atno 17343 bound_to 10162
  156.7576  130.4788  149.5443 LP  0  0  0  0  0  0  0  0  0  0  0  0  # atno 17370 bound_to 10713
  156.1438  130.6263  151.0503 LP  0  0  0  0  0  0  0  0  0  0  0  0  # atno 17371 bound_to 10713
  141.1191  133.6618  156.3169 LP  0  0  0  0  0  0  0  0  0  0  0  0  # atno 17394 bound_to 11000
  140.5685  134.5864  157.5451 LP  0  0  0  0  0  0  0  0  0  0  0  0  # atno 17395 bound_to 11000

$$$$
