AV-unprocessed.smi:2680|AV-procd|sdf|10372|dock7
  -GOLD-   2272014403D 1   1.00000     0.00000
 Structure written by MMmdl.
 37 38  0  0  0  0  0  0  0  0  2 V2000
  152.6644  145.0526  158.5111 C   0  0  0  0  0  0  0  0  0  0  0  0
  152.7343  143.8188  159.3638 C   0  0  0  0  0  0  0  0  0  0  0  0
  152.0279  143.5454  160.5694 C   0  0  0  0  0  0  0  0  0  0  0  0
  152.3118  142.3559  161.0743 N   0  0  0  0  0  0  0  0  0  0  0  0
  153.1980  141.8225  160.2062 N   0  0  0  0  0  0  0  0  0  0  0  0
  153.7342  140.4911  160.4479 C   0  0  0  0  0  0  0  0  0  0  0  0
  153.6416  139.6017  159.2043 C   0  0  0  0  0  0  0  0  0  0  0  0
  154.6783  139.2084  158.6720 O   0  0  0  0  0  0  0  0  0  0  0  0
  152.3948  139.3188  158.7789 N   0  0  0  0  0  0  0  0  0  0  0  0
  151.8901  138.5956  157.6015 C   0  0  0  0  0  0  0  0  0  0  0  0
  152.3913  137.1408  157.7951 C   0  0  0  0  0  0  0  0  0  0  0  0
  152.0892  136.5552  158.8593 O   0  0  0  0  0  0  0  0  0  0  0  0
  153.1146  136.6455  156.9016 O   0  5  0  0  0  0  0  0  0  0  0  0
  150.3388  138.6359  157.4202 C   0  0  0  0  0  0  0  0  0  0  0  0
  149.8661  137.9981  156.0992 C   0  0  0  0  0  0  0  0  0  0  0  0
  150.5383  138.6661  154.8911 C   0  0  0  0  0  0  0  0  0  0  0  0
  152.0680  138.6323  155.0177 C   0  0  0  0  0  0  0  0  0  0  0  0
  152.5347  139.2553  156.3488 C   0  0  0  0  0  0  0  0  0  0  0  0
  153.4809  142.6915  159.1716 C   0  0  0  0  0  0  0  0  0  0  0  0
  152.0314  145.8196  158.9578 H   0  0  0  0  0  0  0  0  0  0  0  0
  152.2559  144.8340  157.5242 H   0  0  0  0  0  0  0  0  0  0  0  0
  153.6494  145.4949  158.3617 H   0  0  0  0  0  0  0  0  0  0  0  0
  151.3206  144.1740  161.0900 H   0  0  0  0  0  0  0  0  0  0  0  0
  154.7743  140.5914  160.7604 H   0  0  0  0  0  0  0  0  0  0  0  0
  153.1934  140.0177  161.2689 H   0  0  0  0  0  0  0  0  0  0  0  0
  151.6594  139.7271  159.3377 H   0  0  0  0  0  0  0  0  0  0  0  0
  149.8282  138.1565  158.2566 H   0  0  0  0  0  0  0  0  0  0  0  0
  150.0006  139.6728  157.4157 H   0  0  0  0  0  0  0  0  0  0  0  0
  150.0805  136.9290  156.0968 H   0  0  0  0  0  0  0  0  0  0  0  0
  148.7831  138.0907  156.0141 H   0  0  0  0  0  0  0  0  0  0  0  0
  150.2292  138.1701  153.9707 H   0  0  0  0  0  0  0  0  0  0  0  0
  150.2021  139.7008  154.8139 H   0  0  0  0  0  0  0  0  0  0  0  0
  152.4196  137.6032  154.9397 H   0  0  0  0  0  0  0  0  0  0  0  0
  152.5179  139.1701  154.1828 H   0  0  0  0  0  0  0  0  0  0  0  0
  152.2823  140.3167  156.3390 H   0  0  0  0  0  0  0  0  0  0  0  0
  153.6240  139.2215  156.4038 H   0  0  0  0  0  0  0  0  0  0  0  0
  154.1744  142.4318  158.3850 H   0  0  0  0  0  0  0  0  0  0  0  0
  1  2  1  0  0  0  0
  1 20  1  0  0  0  0
  1 21  1  0  0  0  0
  1 22  1  0  0  0  0
  2 19  2  0  0  0  0
  2  3  1  0  0  0  0
  3  4  2  0  0  0  0
  3 23  1  0  0  0  0
  4  5  1  0  0  0  0
  5  6  1  0  0  0  0
  5 19  1  0  0  0  0
  6  7  1  0  0  0  0
  6 24  1  0  0  0  0
  6 25  1  0  0  0  0
  7  8  2  0  0  0  0
  7  9  1  0  0  0  0
  9 10  1  0  0  0  0
  9 26  1  0  0  0  0
 10 18  1  0  0  0  0
 10 11  1  0  0  0  0
 10 14  1  0  0  0  0
 11 12  2  0  0  0  0
 11 13  1  0  0  0  0
 14 15  1  0  0  0  0
 14 27  1  0  0  0  0
 14 28  1  0  0  0  0
 15 16  1  0  0  0  0
 15 29  1  0  0  0  0
 15 30  1  0  0  0  0
 16 17  1  0  0  0  0
 16 31  1  0  0  0  0
 16 32  1  0  0  0  0
 17 18  1  0  0  0  0
 17 33  1  0  0  0  0
 17 34  1  0  0  0  0
 18 35  1  0  0  0  0
 18 36  1  0  0  0  0
 19 37  1  0  0  0  0
M  CHG  1  13  -1
M  END
> <s_m_source_file>
AV-unprocessed.smi

> <i_m_source_file_index>
2680

> <i_lp_mmshare_version>
43012

> <i_f3d_flags>
0

> <s_epik_input>
W0NIM11jMVtjSF1ubihbY0hdMSlbQ0gyXUMoPU8pW05IXUMyKEMoPU8pW09IXSlbQ0gyXVtDSDJdW0NIMl1bQ0gyXVtDSDJdMg==

> <s_epik_cmdline>
J2VwaWtfcHl0aG9uJywgJy1waCcsICc3LjAnLCAnLXRuJywgJzgnLCAnLW1hJywgJzIwMCcsICctbWV0YWxfYmluZGluZycsICctaW1hZScsICc8aW5maWxlLm1hZT4nLCAnLW9tYWUnLCAnPG91dGZpbGUubWFlPic=

> <r_lp_tautomer_probability>
1

> <r_epik_Ionization_Penalty>
0.000361632

> <r_epik_Ionization_Penalty_Charging>
0.000323848

> <r_epik_Ionization_Penalty_Neutral>
3.77838e-05

> <r_epik_State_Penalty>
0.000195685

> <r_epik_Charging_Adjusted_Penalty>
0.000519533

> <i_epik_Tot_Q>
-1

> <i_epik_Tot_abs_Q>
1

> <r_epik_Metal_State_Penalty>
-0

> <b_epik_Metal_Only>
0

> <s_lp_Force_Field>
OPLS_2005

> <r_lp_Energy>
4.37628

> <b_lp_Chiralities_Consistent>
1

> <s_lp_Variant>
AV-unprocessed.smi:2680-1

> <Gold.Version>
5.8.1

> <Gold.Id.Protein>
6NUR|6NUR_protein|mol2

> <Gold.PLP.Fitness>
50.0241

> <Gold.PLP.PLP>
-37.1533

> <Gold.PLP.part.hbond>
-3.4341

> <Gold.PLP.part.metal>
0.0000

> <Gold.PLP.part.buried>
-3.9633

> <Gold.PLP.part.nonpolar>
-28.6446

> <Gold.PLP.part.repulsive>
0.1429

> <Gold.PLP.ligand.clash>
0.0000

> <Gold.PLP.ligand.torsion>
0.2970

> <Gold.PLP.Chemscore.Hbond>
4.4720

> <Gold.PLP.Chemscore.CHOScore>
0.0000

> <Gold.PLP.Chemscore.Metal>
0.0000

> <Gold.Chemscore.Hbonds>
donor molecule, donor type, donor heavy atom, donor atom, acceptor molecule, acceptor atom, score
      P1  H  6896  6907       L1    12  1.54
      P1  H  7997  8009       L1     8  1.00
      P1  H 10752 10764       L1    13  1.89

> <Gold.PLP.Chemscore.Internal.Correction>
0.0488

> <Gold.Rescore>
     Score         DG    S(hbond)    S(metal)    S(lipo)     H(rot)  DE(clash)    DE(int)     intcor
     18.41     -20.00       2.63        0.00      92.01       1.96       0.30       1.30       ----

> <Gold.Chemscore.Fitness>
18.4070

> <Gold.Chemscore.DG>
-20.0031

> <Gold.Chemscore.ZeroCoef>
-5.4800

> <Gold.Chemscore.Hbond>
2.6290

> <Gold.Chemscore.Metal>
0.0000

> <Gold.Chemscore.Lipo>
92.0132

> <Gold.Chemscore.Internal_Hbond>
0.0000

> <Gold.Chemscore.DEClash>
0.2967

> <Gold.Chemscore.DEInternal>
1.2994

> <Gold.Chemscore.Rot>
1.9622

> <Gold.Chemscore.Internal.Correction>
   9.000000E+99

> <Gold.Chemscore.Hbonds>
donor molecule, donor type, donor heavy atom, donor atom, acceptor molecule, acceptor atom, score
      P1  H  6896  6907       L1    12  0.78
      P1  H  7997  8009       L1     8  0.94
      P1  H 10752 10764       L1    13  0.87

> <Gold.Chemscore.Hbond.Weighted>
-8.7809

> <Gold.Chemscore.Metal.Weighted>
-0.0000

> <Gold.Chemscore.Lipo.Weighted>
-10.7655

> <Gold.Chemscore.Internal_Hbond.Weighted>
0.0000

> <Gold.Chemscore.DEClash.Weighted>
0.2967

> <Gold.Chemscore.DEInternal.Weighted>
1.2994

> <Gold.Chemscore.Rot.Weighted>
5.0233

> <Gold.Chemscore.Internal.Correction.Weighted>
   9.000000E+99

> <Gold.Protein.RotatedTorsions>
[ 6907 6896 6895 6894 ] final    5.08 input  -60.11 | X-H torsion
[ 7974 7965 7964 7962 ] final   85.37 input  175.53 | X-H torsion
[ 8008 7997 7996 7995 ] final  116.06 input   59.86 | X-H torsion
[ 10167 10162 10161 10158 ] final -163.25 input  -65.29 | X-H torsion
[ 10718 10713 10712 10709 ] final  171.99 input   66.30 | X-H torsion
[ 10763 10752 10751 10750 ] final    2.16 input  -60.55 | X-H torsion
[ 11005 11000 10999 10996 ] final   31.08 input  -57.11 | X-H torsion

> <Gold.Protein.ActiveResidues>
 VAL166  LYS551  ARG553  GLY616  TRP617  ASP618  TYR619  PRO620  LYS621  CYS622 
 ASP623  PHE694  ASN695  SER759  ASP760  ASP761  ALA762  ILE779  LEU786  VAL792 
 PHE793  MET794  SER795  GLU796  ALA797  LYS798  CYS799  TRP800  GLU811  SER814 

> <Gold.Protein.RotatedAtoms>
  151.6517  135.1000  160.0161 H   0  0  0  0  0  0  0  0  0  0  0  0  # atno 6907 bound_to 6896
  152.3997  133.6795  159.6314 H   0  0  0  0  0  0  0  0  0  0  0  0  # atno 6908 bound_to 6896
  150.7898  133.8730  159.3305 H   0  0  0  0  0  0  0  0  0  0  0  0  # atno 6909 bound_to 6896
  145.5864  139.2332  143.2324 H   0  0  0  0  0  0  0  0  0  0  0  0  # atno 7974 bound_to 7965
  156.2418  140.2925  156.0465 H   0  0  0  0  0  0  0  0  0  0  0  0  # atno 8008 bound_to 7997
  155.1929  140.0407  157.2921 H   0  0  0  0  0  0  0  0  0  0  0  0  # atno 8009 bound_to 7997
  154.6182  140.2469  155.7589 H   0  0  0  0  0  0  0  0  0  0  0  0  # atno 8010 bound_to 7997
  139.6334  144.0396  152.2034 H   0  0  0  0  0  0  0  0  0  0  0  0  # atno 10167 bound_to 10162
  156.9855  131.0132  151.2870 H   0  0  0  0  0  0  0  0  0  0  0  0  # atno 10718 bound_to 10713
  153.2990  135.6954  153.7221 H   0  0  0  0  0  0  0  0  0  0  0  0  # atno 10763 bound_to 10752
  153.6142  135.3439  155.2990 H   0  0  0  0  0  0  0  0  0  0  0  0  # atno 10764 bound_to 10752
  154.8545  135.4371  154.2095 H   0  0  0  0  0  0  0  0  0  0  0  0  # atno 10765 bound_to 10752
  140.2876  134.2901  155.7784 H   0  0  0  0  0  0  0  0  0  0  0  0  # atno 11005 bound_to 11000
  146.1679  140.6691  142.9247 LP  0  0  0  0  0  0  0  0  0  0  0  0  # atno 17320 bound_to 7965
  144.7371  140.4838  143.6896 LP  0  0  0  0  0  0  0  0  0  0  0  0  # atno 17321 bound_to 7965
  140.0067  144.6253  150.7682 LP  0  0  0  0  0  0  0  0  0  0  0  0  # atno 17342 bound_to 10162
  140.7452  143.2871  151.3432 LP  0  0  0  0  0  0  0  0  0  0  0  0  # atno 17343 bound_to 10162
  157.5496  130.8173  149.8129 LP  0  0  0  0  0  0  0  0  0  0  0  0  # atno 17370 bound_to 10713
  156.0228  130.3790  150.1912 LP  0  0  0  0  0  0  0  0  0  0  0  0  # atno 17371 bound_to 10713
  141.2152  133.7565  156.9576 LP  0  0  0  0  0  0  0  0  0  0  0  0  # atno 17394 bound_to 11000
  140.1225  134.9408  157.2223 LP  0  0  0  0  0  0  0  0  0  0  0  0  # atno 17395 bound_to 11000

$$$$
