AV-unprocessed.smi:301|AV-procd|sdf|2271|dock2
  -GOLD-   2262022163D 1   1.00000     0.00000
 Structure written by MMmdl.
 32 33  0  0  0  0  0  0  0  0  1 V2000
  153.1851  137.9716  154.8213 C   0  0  0  0  0  0  0  0  0  0  0  0
  151.8701  138.6417  155.0284 C   0  0  0  0  0  0  0  0  0  0  0  0
  151.7430  139.9118  155.4205 N   0  0  0  0  0  0  0  0  0  0  0  0
  150.4070  140.3052  155.5531 C   0  0  0  0  0  0  0  0  0  0  0  0
  150.0771  141.7046  155.9902 C   0  0  0  0  0  0  0  0  0  0  0  0
  150.9938  142.1649  157.1299 C   0  0  0  0  0  0  0  0  0  0  0  0
  151.6655  141.3513  157.7659 O   0  0  0  0  0  0  0  0  0  0  0  0
  151.0164  143.4840  157.3753 N   0  0  0  0  0  0  0  0  0  0  0  0
  151.8049  144.1283  158.4192 C   0  0  0  0  0  0  0  0  0  0  0  0
  151.5793  143.4636  159.7871 C   0  0  1  0  0  0  0  0  0  0  0  0
  152.6335  142.4161  160.1417 C   0  0  0  0  0  0  0  0  0  0  0  0
  152.5730  142.4224  161.6516 C   0  0  0  0  0  0  0  0  0  0  0  0
  152.3741  143.9060  161.9452 C   0  0  0  0  0  0  0  0  0  0  0  0
  151.6531  144.4310  160.8333 O   0  0  0  0  0  0  0  0  0  0  0  0
  149.5174  139.3062  155.2416 C   0  0  0  0  0  0  0  0  0  0  0  0
  150.3272  137.8326  154.7853 S   0  0  0  0  0  0  0  0  0  0  0  0
  153.9770  138.7115  154.7005 H   0  0  0  0  0  0  0  0  0  0  0  0
  153.1514  137.3487  153.9273 H   0  0  0  0  0  0  0  0  0  0  0  0
  153.4207  137.3425  155.6797 H   0  0  0  0  0  0  0  0  0  0  0  0
  150.1809  142.4050  155.1607 H   0  0  0  0  0  0  0  0  0  0  0  0
  149.0356  141.7594  156.3108 H   0  0  0  0  0  0  0  0  0  0  0  0
  150.4350  144.0841  156.8082 H   0  0  0  0  0  0  0  0  0  0  0  0
  152.8635  144.1011  158.1556 H   0  0  0  0  0  0  0  0  0  0  0  0
  151.5245  145.1811  158.4630 H   0  0  0  0  0  0  0  0  0  0  0  0
  150.5935  142.9972  159.8296 H   0  0  0  0  0  0  0  0  0  0  0  0
  152.4238  141.4377  159.7085 H   0  0  0  0  0  0  0  0  0  0  0  0
  153.6224  142.7336  159.8076 H   0  0  0  0  0  0  0  0  0  0  0  0
  151.7091  141.8511  161.9941 H   0  0  0  0  0  0  0  0  0  0  0  0
  153.4664  142.0094  162.1208 H   0  0  0  0  0  0  0  0  0  0  0  0
  151.8440  144.0774  162.8823 H   0  0  0  0  0  0  0  0  0  0  0  0
  153.3370  144.4150  162.0028 H   0  0  0  0  0  0  0  0  0  0  0  0
  148.4383  139.3465  155.2595 H   0  0  0  0  0  0  0  0  0  0  0  0
  1  2  1  0  0  0  0
  1 17  1  0  0  0  0
  1 18  1  0  0  0  0
  1 19  1  0  0  0  0
  2 16  1  0  0  0  0
  2  3  2  0  0  0  0
  3  4  1  0  0  0  0
  4  5  1  0  0  0  0
  4 15  2  0  0  0  0
  5  6  1  0  0  0  0
  5 20  1  0  0  0  0
  5 21  1  0  0  0  0
  6  7  2  0  0  0  0
  6  8  1  0  0  0  0
  8  9  1  0  0  0  0
  8 22  1  0  0  0  0
  9 10  1  0  0  0  0
  9 23  1  0  0  0  0
  9 24  1  0  0  0  0
 10 14  1  0  0  0  0
 10 11  1  0  0  0  0
 10 25  1  0  0  0  0
 11 12  1  0  0  0  0
 11 26  1  0  0  0  0
 11 27  1  0  0  0  0
 12 13  1  0  0  0  0
 12 28  1  0  0  0  0
 12 29  1  0  0  0  0
 13 14  1  0  0  0  0
 13 30  1  0  0  0  0
 13 31  1  0  0  0  0
 15 16  1  0  0  0  0
 15 32  1  0  0  0  0
M  END
> <s_m_source_file>
AV-unprocessed.smi

> <i_m_source_file_index>
301

> <i_lp_mmshare_version>
43012

> <i_f3d_flags>
0

> <s_epik_input>
W0NIM11jMW5jKFtjSF1zMSlbQ0gyXUMoPU8pW05IXVtDSDJdW0NAQEhdMltDSDJdW0NIMl1bQ0gyXU8y

> <s_epik_cmdline>
J2VwaWtfcHl0aG9uJywgJy1waCcsICc3LjAnLCAnLXRuJywgJzgnLCAnLW1hJywgJzIwMCcsICctbWV0YWxfYmluZGluZycsICctaW1hZScsICc8aW5maWxlLm1hZT4nLCAnLW9tYWUnLCAnPG91dGZpbGUubWFlPic=

> <r_lp_tautomer_probability>
1

> <r_epik_Ionization_Penalty>
6.06873e-05

> <r_epik_Ionization_Penalty_Charging>
0

> <r_epik_Ionization_Penalty_Neutral>
6.06873e-05

> <r_epik_State_Penalty>
-0

> <r_epik_Charging_Adjusted_Penalty>
0

> <i_epik_Tot_Q>
0

> <i_epik_Tot_abs_Q>
0

> <r_epik_Metal_State_Penalty>
-0

> <b_epik_Metal_Only>
0

> <s_lp_Force_Field>
OPLS_2005

> <r_lp_Energy>
16.0562

> <b_lp_Chiralities_Consistent>
1

> <s_lp_Variant>
AV-unprocessed.smi:301-2

> <Gold.Version>
5.8.1

> <Gold.Id.Protein>
6NUR|6NUR_protein|mol2

> <Gold.PLP.Fitness>
42.5587

> <Gold.PLP.PLP>
-40.6489

> <Gold.PLP.part.hbond>
-2.0000

> <Gold.PLP.part.metal>
0.0000

> <Gold.PLP.part.buried>
-3.9400

> <Gold.PLP.part.nonpolar>
-33.9606

> <Gold.PLP.part.repulsive>
0.1703

> <Gold.PLP.ligand.clash>
0.0000

> <Gold.PLP.ligand.torsion>
0.9514

> <Gold.PLP.Chemscore.Hbond>
1.2671

> <Gold.PLP.Chemscore.CHOScore>
0.0000

> <Gold.PLP.Chemscore.Metal>
0.0000

> <Gold.Chemscore.Hbonds>
donor molecule, donor type, donor heavy atom, donor atom, acceptor molecule, acceptor atom, score
      L1  H     8    22       P1  8028  1.00
      P1  H  7989  7998       L1     3  0.21

> <Gold.PLP.Chemscore.Internal.Correction>
0.0113

> <Gold.Rescore>
     Score         DG    S(hbond)    S(metal)    S(lipo)     H(rot)  DE(clash)    DE(int)     intcor
     13.24     -16.68       1.00        0.00     100.36       1.51       0.04       3.40       ----

> <Gold.Chemscore.Fitness>
13.2409

> <Gold.Chemscore.DG>
-16.6822

> <Gold.Chemscore.ZeroCoef>
-5.4800

> <Gold.Chemscore.Hbond>
0.9961

> <Gold.Chemscore.Metal>
0.0000

> <Gold.Chemscore.Lipo>
100.3626

> <Gold.Chemscore.Internal_Hbond>
0.0000

> <Gold.Chemscore.DEClash>
0.0398

> <Gold.Chemscore.DEInternal>
3.4015

> <Gold.Chemscore.Rot>
1.5106

> <Gold.Chemscore.Internal.Correction>
   9.000000E+99

> <Gold.Chemscore.Hbonds>
donor molecule, donor type, donor heavy atom, donor atom, acceptor molecule, acceptor atom, score
      L1  H     8    22       P1  8028  0.94

> <Gold.Chemscore.Hbond.Weighted>
-3.3268

> <Gold.Chemscore.Metal.Weighted>
-0.0000

> <Gold.Chemscore.Lipo.Weighted>
-11.7424

> <Gold.Chemscore.Internal_Hbond.Weighted>
0.0000

> <Gold.Chemscore.DEClash.Weighted>
0.0398

> <Gold.Chemscore.DEInternal.Weighted>
3.4015

> <Gold.Chemscore.Rot.Weighted>
3.8670

> <Gold.Chemscore.Internal.Correction.Weighted>
   9.000000E+99

> <Gold.Protein.RotatedTorsions>
[ 6907 6896 6895 6894 ] final   60.86 input  -60.11 | X-H torsion
[ 7974 7965 7964 7962 ] final -130.81 input  175.53 | X-H torsion
[ 8008 7997 7996 7995 ] final  157.46 input   59.86 | X-H torsion
[ 10167 10162 10161 10158 ] final -170.18 input  -65.29 | X-H torsion
[ 10718 10713 10712 10709 ] final -153.91 input   66.30 | X-H torsion
[ 10763 10752 10751 10750 ] final -148.09 input  -60.55 | X-H torsion
[ 11005 11000 10999 10996 ] final  106.93 input  -57.11 | X-H torsion

> <Gold.Protein.ActiveResidues>
 VAL166  LYS551  ARG553  GLY616  TRP617  ASP618  TYR619  PRO620  LYS621  CYS622 
 ASP623  PHE694  ASN695  SER759  ASP760  ASP761  ALA762  ILE779  LEU786  VAL792 
 PHE793  MET794  SER795  GLU796  ALA797  LYS798  CYS799  TRP800  GLU811  SER814 

> <Gold.Protein.RotatedAtoms>
  152.4039  134.6239  160.0057 H   0  0  0  0  0  0  0  0  0  0  0  0  # atno 6907 bound_to 6896
  151.6436  133.3319  159.3144 H   0  0  0  0  0  0  0  0  0  0  0  0  # atno 6908 bound_to 6896
  150.7936  134.7021  159.6601 H   0  0  0  0  0  0  0  0  0  0  0  0  # atno 6909 bound_to 6896
  144.9439  140.7270  143.4829 H   0  0  0  0  0  0  0  0  0  0  0  0  # atno 7974 bound_to 7965
  156.2362  140.1884  156.7112 H   0  0  0  0  0  0  0  0  0  0  0  0  # atno 8008 bound_to 7997
  154.6111  140.0622  156.9522 H   0  0  0  0  0  0  0  0  0  0  0  0  # atno 8009 bound_to 7997
  155.2014  140.3292  155.4345 H   0  0  0  0  0  0  0  0  0  0  0  0  # atno 8010 bound_to 7997
  139.5877  144.1281  152.1596 H   0  0  0  0  0  0  0  0  0  0  0  0  # atno 10167 bound_to 10162
  156.4922  130.8352  151.2575 H   0  0  0  0  0  0  0  0  0  0  0  0  # atno 10718 bound_to 10713
  154.8252  135.3343  154.6919 H   0  0  0  0  0  0  0  0  0  0  0  0  # atno 10763 bound_to 10752
  153.7546  135.6937  153.4943 H   0  0  0  0  0  0  0  0  0  0  0  0  # atno 10764 bound_to 10752
  153.2152  135.4468  155.0376 H   0  0  0  0  0  0  0  0  0  0  0  0  # atno 10765 bound_to 10752
  139.8821  134.9385  156.5741 H   0  0  0  0  0  0  0  0  0  0  0  0  # atno 11005 bound_to 11000
  145.2948  139.1871  143.4721 LP  0  0  0  0  0  0  0  0  0  0  0  0  # atno 17320 bound_to 7965
  146.3296  140.2930  142.8616 LP  0  0  0  0  0  0  0  0  0  0  0  0  # atno 17321 bound_to 7965
  140.0848  144.5670  150.7096 LP  0  0  0  0  0  0  0  0  0  0  0  0  # atno 17342 bound_to 10162
  140.7146  143.2534  151.4474 LP  0  0  0  0  0  0  0  0  0  0  0  0  # atno 17343 bound_to 10162
  157.7472  131.0010  150.2946 LP  0  0  0  0  0  0  0  0  0  0  0  0  # atno 17370 bound_to 10713
  156.3415  130.3816  149.7404 LP  0  0  0  0  0  0  0  0  0  0  0  0  # atno 17371 bound_to 10713
  140.8076  133.8455  155.8781 LP  0  0  0  0  0  0  0  0  0  0  0  0  # atno 17394 bound_to 11000
  140.9536  134.1747  157.4709 LP  0  0  0  0  0  0  0  0  0  0  0  0  # atno 17395 bound_to 11000

$$$$
