AV-unprocessed.smi:3194|AV-procd|sdf|12211|dock6
  -GOLD-   2272018 53D 1   1.00000     0.00000
 Structure written by MMmdl.
 27 27  0  0  0  0  0  0  0  0  2 V2000
  152.4382  136.9352  156.8430 C   0  0  0  0  0  0  0  0  0  0  0  0
  152.7415  138.1276  155.9236 C   0  0  1  0  0  0  0  0  0  0  0  0
  151.8531  138.1013  154.6645 C   0  0  0  0  0  0  0  0  0  0  0  0
  151.9146  136.8454  154.0173 O   0  0  0  0  0  0  0  0  0  0  0  0
  152.5047  139.3649  156.6707 N   0  5  0  0  0  0  0  0  0  0  0  0
  151.4907  140.2409  156.4116 C   0  0  0  0  0  0  0  0  0  0  0  0
  151.1217  140.7303  155.3379 O   0  0  0  0  0  0  0  0  0  0  0  0
  150.7445  140.6491  157.6995 C   0  0  0  0  0  0  0  0  0  0  0  0
  149.7093  141.4297  157.3771 F   0  0  0  0  0  0  0  0  0  0  0  0
  150.2489  139.5581  158.2926 F   0  0  0  0  0  0  0  0  0  0  0  0
  151.6727  141.4051  158.6501 C   0  0  0  0  0  0  0  0  0  0  0  0
  151.6077  142.8129  158.7662 C   0  0  0  0  0  0  0  0  0  0  0  0
  152.4759  143.4586  159.6669 C   0  0  0  0  0  0  0  0  0  0  0  0
  153.3775  142.6803  160.4169 C   0  0  0  0  0  0  0  0  0  0  0  0
  153.3681  141.2838  160.2329 C   0  0  0  0  0  0  0  0  0  0  0  0
  152.5401  140.6547  159.3724 N   0  0  0  0  0  0  0  0  0  0  0  0
  153.7794  138.0279  155.6010 H   0  0  0  0  0  0  0  0  0  0  0  0
  152.6087  135.9904  156.3264 H   0  0  0  0  0  0  0  0  0  0  0  0
  151.4020  136.9456  157.1831 H   0  0  0  0  0  0  0  0  0  0  0  0
  153.0792  136.9452  157.7254 H   0  0  0  0  0  0  0  0  0  0  0  0
  150.8135  138.2898  154.9328 H   0  0  0  0  0  0  0  0  0  0  0  0
  152.1471  138.8823  153.9619 H   0  0  0  0  0  0  0  0  0  0  0  0
  151.4043  136.8926  153.2245 H   0  0  0  0  0  0  0  0  0  0  0  0
  150.8990  143.3861  158.1871 H   0  0  0  0  0  0  0  0  0  0  0  0
  152.4485  144.5320  159.7818 H   0  0  0  0  0  0  0  0  0  0  0  0
  154.0574  143.1412  161.1178 H   0  0  0  0  0  0  0  0  0  0  0  0
  154.0451  140.6547  160.7916 H   0  0  0  0  0  0  0  0  0  0  0  0
  1  2  1  0  0  0  0
  1 18  1  0  0  0  0
  1 19  1  0  0  0  0
  1 20  1  0  0  0  0
  2 17  1  0  0  0  0
  2  3  1  0  0  0  0
  2  5  1  0  0  0  0
  3  4  1  0  0  0  0
  3 21  1  0  0  0  0
  3 22  1  0  0  0  0
  4 23  1  0  0  0  0
  5  6  1  0  0  0  0
  6  7  2  0  0  0  0
  6  8  1  0  0  0  0
  8  9  1  0  0  0  0
  8 10  1  0  0  0  0
  8 11  1  0  0  0  0
 11 16  1  0  0  0  0
 11 12  2  0  0  0  0
 12 13  1  0  0  0  0
 12 24  1  0  0  0  0
 13 14  2  0  0  0  0
 13 25  1  0  0  0  0
 14 15  1  0  0  0  0
 14 26  1  0  0  0  0
 15 16  2  0  0  0  0
 15 27  1  0  0  0  0
M  CHG  1   5  -1
M  END
> <s_m_source_file>
AV-unprocessed.smi

> <i_m_source_file_index>
3194

> <i_lp_mmshare_version>
43012

> <i_f3d_flags>
0

> <s_epik_input>
W09IXVtDSDJdW0NASF0oW0NIM10pW05IXUMoPU8pQyhGKShGKWMxW2NIXVtjSF1bY0hdW2NIXW4x

> <s_epik_cmdline>
J2VwaWtfcHl0aG9uJywgJy1waCcsICc3LjAnLCAnLXRuJywgJzgnLCAnLW1hJywgJzIwMCcsICctbWV0YWxfYmluZGluZycsICctaW1hZScsICc8aW5maWxlLm1hZT4nLCAnLW9tYWUnLCAnPG91dGZpbGUubWFlPic=

> <r_lp_tautomer_probability>
1

> <r_epik_Ionization_Penalty>
5.78943

> <r_epik_Ionization_Penalty_Charging>
5.78942

> <r_epik_Ionization_Penalty_Neutral>
4.0054e-06

> <r_epik_State_Penalty>
5.78939

> <r_epik_Charging_Adjusted_Penalty>
11.5788

> <i_epik_Tot_Q>
-1

> <i_epik_Tot_abs_Q>
1

> <r_epik_Metal_State_Penalty>
1.76064

> <b_epik_Metal_Only>
1

> <s_lp_Force_Field>
OPLS_2005

> <r_lp_Energy>
17.1269

> <b_lp_Chiralities_Consistent>
1

> <s_lp_Variant>
AV-unprocessed.smi:3194-3

> <Gold.Version>
5.8.1

> <Gold.Id.Protein>
6NUR|6NUR_protein|mol2

> <Gold.PLP.Fitness>
43.0306

> <Gold.PLP.PLP>
-32.5592

> <Gold.PLP.part.hbond>
-4.0000

> <Gold.PLP.part.metal>
0.0000

> <Gold.PLP.part.buried>
-4.6404

> <Gold.PLP.part.nonpolar>
-24.5012

> <Gold.PLP.part.repulsive>
0.0423

> <Gold.PLP.ligand.clash>
0.7638

> <Gold.PLP.ligand.torsion>
1.2834

> <Gold.PLP.Chemscore.Hbond>
4.5840

> <Gold.PLP.Chemscore.CHOScore>
0.0000

> <Gold.PLP.Chemscore.Metal>
0.0000

> <Gold.Chemscore.Hbonds>
donor molecule, donor type, donor heavy atom, donor atom, acceptor molecule, acceptor atom, score
      L1  H     4    23       P1  7949  0.82
      P1  H  7989  7998       L1     7  0.82
      P1  H  7997  8008       L1     5  1.80
      P1  H 10752 10764       L1     4  1.00

> <Gold.PLP.Chemscore.Internal.Correction>
0.0500

> <Gold.Rescore>
     Score         DG    S(hbond)    S(metal)    S(lipo)     H(rot)  DE(clash)    DE(int)     intcor
     14.34     -17.44       2.78        0.00      75.91       2.43       0.11       2.99       ----

> <Gold.Chemscore.Fitness>
14.3386

> <Gold.Chemscore.DG>
-17.4367

> <Gold.Chemscore.ZeroCoef>
-5.4800

> <Gold.Chemscore.Hbond>
2.7815

> <Gold.Chemscore.Metal>
0.0000

> <Gold.Chemscore.Lipo>
75.9107

> <Gold.Chemscore.Internal_Hbond>
0.0000

> <Gold.Chemscore.DEClash>
0.1103

> <Gold.Chemscore.DEInternal>
2.9878

> <Gold.Chemscore.Rot>
2.4277

> <Gold.Chemscore.Internal.Correction>
   9.000000E+99

> <Gold.Chemscore.Hbonds>
donor molecule, donor type, donor heavy atom, donor atom, acceptor molecule, acceptor atom, score
      L1  H     4    23       P1  7949  0.66
      P1  H  7989  7998       L1     7  0.81
      P1  H  7997  8008       L1     5  0.16
      P1  H 10752 10764       L1     4  0.91

> <Gold.Chemscore.Hbond.Weighted>
-9.2900

> <Gold.Chemscore.Metal.Weighted>
-0.0000

> <Gold.Chemscore.Lipo.Weighted>
-8.8816

> <Gold.Chemscore.Internal_Hbond.Weighted>
0.0000

> <Gold.Chemscore.DEClash.Weighted>
0.1103

> <Gold.Chemscore.DEInternal.Weighted>
2.9878

> <Gold.Chemscore.Rot.Weighted>
6.2149

> <Gold.Chemscore.Internal.Correction.Weighted>
   9.000000E+99

> <Gold.Protein.RotatedTorsions>
[ 6907 6896 6895 6894 ] final   10.60 input  -60.11 | X-H torsion
[ 7974 7965 7964 7962 ] final -120.57 input  175.53 | X-H torsion
[ 8008 7997 7996 7995 ] final  -63.06 input   59.86 | X-H torsion
[ 10167 10162 10161 10158 ] final   76.30 input  -65.29 | X-H torsion
[ 10718 10713 10712 10709 ] final  -97.55 input   66.30 | X-H torsion
[ 10763 10752 10751 10750 ] final  -88.89 input  -60.55 | X-H torsion
[ 11005 11000 10999 10996 ] final  -16.00 input  -57.11 | X-H torsion

> <Gold.Protein.ActiveResidues>
 VAL166  LYS551  ARG553  GLY616  TRP617  ASP618  TYR619  PRO620  LYS621  CYS622 
 ASP623  PHE694  ASN695  SER759  ASP760  ASP761  ALA762  ILE779  LEU786  VAL792 
 PHE793  MET794  SER795  GLU796  ALA797  LYS798  CYS799  TRP800  GLU811  SER814 

> <Gold.Protein.RotatedAtoms>
  151.7409  135.0854  160.0315 H   0  0  0  0  0  0  0  0  0  0  0  0  # atno 6907 bound_to 6896
  152.3480  133.6141  159.5932 H   0  0  0  0  0  0  0  0  0  0  0  0  # atno 6908 bound_to 6896
  150.7521  133.9535  159.3535 H   0  0  0  0  0  0  0  0  0  0  0  0  # atno 6909 bound_to 6896
  145.0499  140.8210  143.4215 H   0  0  0  0  0  0  0  0  0  0  0  0  # atno 7974 bound_to 7965
  154.4533  140.0983  156.6684 H   0  0  0  0  0  0  0  0  0  0  0  0  # atno 8008 bound_to 7997
  155.5216  140.3479  155.4389 H   0  0  0  0  0  0  0  0  0  0  0  0  # atno 8009 bound_to 7997
  156.0727  140.1353  156.9798 H   0  0  0  0  0  0  0  0  0  0  0  0  # atno 8010 bound_to 7997
  139.9938  144.5738  150.7795 H   0  0  0  0  0  0  0  0  0  0  0  0  # atno 10167 bound_to 10162
  156.0086  130.5199  150.6391 H   0  0  0  0  0  0  0  0  0  0  0  0  # atno 10718 bound_to 10713
  154.6494  135.5360  153.7884 H   0  0  0  0  0  0  0  0  0  0  0  0  # atno 10763 bound_to 10752
  153.0378  135.6479  154.1039 H   0  0  0  0  0  0  0  0  0  0  0  0  # atno 10764 bound_to 10752
  154.0958  135.2937  155.3242 H   0  0  0  0  0  0  0  0  0  0  0  0  # atno 10765 bound_to 10752
  140.8023  133.8204  155.9482 H   0  0  0  0  0  0  0  0  0  0  0  0  # atno 11005 bound_to 11000
  145.1540  139.2497  143.5426 LP  0  0  0  0  0  0  0  0  0  0  0  0  # atno 17320 bound_to 7965
  146.3517  140.1250  142.8599 LP  0  0  0  0  0  0  0  0  0  0  0  0  # atno 17321 bound_to 7965
  140.7445  143.2861  151.3459 LP  0  0  0  0  0  0  0  0  0  0  0  0  # atno 17342 bound_to 10162
  139.6321  144.0701  152.2485 LP  0  0  0  0  0  0  0  0  0  0  0  0  # atno 17343 bound_to 10162
  157.4174  131.0832  151.1163 LP  0  0  0  0  0  0  0  0  0  0  0  0  # atno 17370 bound_to 10713
  157.1776  130.6295  149.5661 LP  0  0  0  0  0  0  0  0  0  0  0  0  # atno 17371 bound_to 10713
  140.9282  134.2055  157.4881 LP  0  0  0  0  0  0  0  0  0  0  0  0  # atno 17394 bound_to 11000
  139.8720  134.9821  156.5145 LP  0  0  0  0  0  0  0  0  0  0  0  0  # atno 17395 bound_to 11000

$$$$
