AV-unprocessed.smi:712|AV-procd|sdf|3470|dock7
  -GOLD-   22720 0463D 1   1.00000     0.00000
 Structure written by MMmdl.
 51 52  0  0  0  0  0  0  0  0  2 V2000
  150.7710  142.5658  157.1402 C   0  0  0  0  0  0  0  0  0  0  0  0
  150.7999  141.2201  156.4451 C   0  0  0  0  0  0  0  0  0  0  0  0
  149.5925  140.6506  155.8835 C   0  0  0  0  0  0  0  0  0  0  0  0
  149.6555  139.4574  155.2725 C   0  0  0  0  0  0  0  0  0  0  0  0
  150.8613  138.7413  155.1625 N   0  0  0  0  0  0  0  0  0  0  0  0
  150.8131  137.4404  154.4743 C   0  0  0  0  0  0  0  0  0  0  0  0
  149.9298  136.4146  155.1974 C   0  0  0  0  0  0  0  0  0  0  0  0
  150.0821  136.1921  156.3992 O   0  0  0  0  0  0  0  0  0  0  0  0
  149.0010  135.8017  154.4482 N   0  0  0  0  0  0  0  0  0  0  0  0
  148.0944  134.7610  154.9215 C   0  0  0  0  0  0  0  0  0  0  0  0
  147.0837  134.3554  153.8333 C   0  0  2  0  0  0  0  0  0  0  0  0
  145.7355  133.9102  154.4426 C   0  0  0  0  0  0  0  0  0  0  0  0
  144.7934  133.4196  153.4028 N   0  3  1  0  0  0  0  0  0  0  0  0
  144.1195  134.4852  152.6115 C   0  0  0  0  0  0  0  0  0  0  0  0
  143.1630  135.3551  153.4562 C   0  0  0  0  0  0  0  0  0  0  0  0
  141.7165  134.8350  153.4049 C   0  0  0  0  0  0  0  0  0  0  0  0
  143.2214  136.8202  152.9985 C   0  0  0  0  0  0  0  0  0  0  0  0
  145.4412  132.3803  152.5659 C   0  0  0  0  0  0  0  0  0  0  0  0
  146.7854  132.8775  152.0059 C   0  0  0  0  0  0  0  0  0  0  0  0
  147.6227  133.2697  153.0850 O   0  0  0  0  0  0  0  0  0  0  0  0
  152.0344  139.2187  155.6782 C   0  0  0  0  0  0  0  0  0  0  0  0
  153.0908  138.5907  155.5945 O   0  0  0  0  0  0  0  0  0  0  0  0
  151.9546  140.5260  156.3405 C   0  0  0  0  0  0  0  0  0  0  0  0
  149.7910  143.0350  157.0507 H   0  0  0  0  0  0  0  0  0  0  0  0
  151.5102  143.2371  156.7020 H   0  0  0  0  0  0  0  0  0  0  0  0
  150.9975  142.4489  158.2002 H   0  0  0  0  0  0  0  0  0  0  0  0
  148.6505  141.1742  155.9563 H   0  0  0  0  0  0  0  0  0  0  0  0
  148.7910  138.9754  154.8395 H   0  0  0  0  0  0  0  0  0  0  0  0
  150.4370  137.5534  153.4565 H   0  0  0  0  0  0  0  0  0  0  0  0
  151.8247  137.0444  154.3642 H   0  0  0  0  0  0  0  0  0  0  0  0
  148.9370  136.0549  153.4727 H   0  0  0  0  0  0  0  0  0  0  0  0
  148.6499  133.8920  155.2787 H   0  0  0  0  0  0  0  0  0  0  0  0
  147.5625  135.1612  155.7851 H   0  0  0  0  0  0  0  0  0  0  0  0
  146.9308  135.2095  153.1718 H   0  0  0  0  0  0  0  0  0  0  0  0
  145.9116  133.0939  155.1449 H   0  0  0  0  0  0  0  0  0  0  0  0
  145.2920  134.7163  155.0254 H   0  0  0  0  0  0  0  0  0  0  0  0
  144.8630  135.1095  152.1163 H   0  0  0  0  0  0  0  0  0  0  0  0
  143.5371  134.0255  151.8117 H   0  0  0  0  0  0  0  0  0  0  0  0
  143.4870  135.3407  154.4962 H   0  0  0  0  0  0  0  0  0  0  0  0
  141.3331  134.8282  152.3840 H   0  0  0  0  0  0  0  0  0  0  0  0
  141.0540  135.4612  154.0034 H   0  0  0  0  0  0  0  0  0  0  0  0
  141.6416  133.8200  153.7959 H   0  0  0  0  0  0  0  0  0  0  0  0
  142.8994  136.9265  151.9618 H   0  0  0  0  0  0  0  0  0  0  0  0
  144.2344  137.2167  153.0747 H   0  0  0  0  0  0  0  0  0  0  0  0
  142.5769  137.4502  153.6126 H   0  0  0  0  0  0  0  0  0  0  0  0
  145.6147  131.5001  153.1863 H   0  0  0  0  0  0  0  0  0  0  0  0
  144.7781  132.0600  151.7616 H   0  0  0  0  0  0  0  0  0  0  0  0
  147.2789  132.0789  151.4519 H   0  0  0  0  0  0  0  0  0  0  0  0
  146.6471  133.7067  151.3108 H   0  0  0  0  0  0  0  0  0  0  0  0
  152.8584  140.9447  156.7590 H   0  0  0  0  0  0  0  0  0  0  0  0
  144.0453  132.9482  153.8916 H   0  0  0  0  0  0  0  0  0  0  0  0
  1  2  1  0  0  0  0
  1 24  1  0  0  0  0
  1 25  1  0  0  0  0
  1 26  1  0  0  0  0
  2 23  2  0  0  0  0
  2  3  1  0  0  0  0
  3  4  2  0  0  0  0
  3 27  1  0  0  0  0
  4  5  1  0  0  0  0
  4 28  1  0  0  0  0
  5  6  1  0  0  0  0
  5 21  1  0  0  0  0
  6  7  1  0  0  0  0
  6 29  1  0  0  0  0
  6 30  1  0  0  0  0
  7  8  2  0  0  0  0
  7  9  1  0  0  0  0
  9 10  1  0  0  0  0
  9 31  1  0  0  0  0
 10 11  1  0  0  0  0
 10 32  1  0  0  0  0
 10 33  1  0  0  0  0
 11 20  1  0  0  0  0
 11 12  1  0  0  0  0
 11 34  1  0  0  0  0
 12 13  1  0  0  0  0
 12 35  1  0  0  0  0
 12 36  1  0  0  0  0
 13 14  1  0  0  0  0
 13 18  1  0  0  0  0
 13 51  1  0  0  0  0
 14 15  1  0  0  0  0
 14 37  1  0  0  0  0
 14 38  1  0  0  0  0
 15 16  1  0  0  0  0
 15 17  1  0  0  0  0
 15 39  1  0  0  0  0
 16 40  1  0  0  0  0
 16 41  1  0  0  0  0
 16 42  1  0  0  0  0
 17 43  1  0  0  0  0
 17 44  1  0  0  0  0
 17 45  1  0  0  0  0
 18 19  1  0  0  0  0
 18 46  1  0  0  0  0
 18 47  1  0  0  0  0
 19 20  1  0  0  0  0
 19 48  1  0  0  0  0
 19 49  1  0  0  0  0
 21 22  2  0  0  0  0
 21 23  1  0  0  0  0
 23 50  1  0  0  0  0
M  CHG  1  13   1
M  END
> <s_m_source_file>
AV-unprocessed.smi

> <i_m_source_file_index>
712

> <i_lp_mmshare_version>
43012

> <i_f3d_flags>
0

> <s_epik_input>
W0NIM11jMVtjSF1bY0hdbihjKD1PKVtjSF0xKVtDSDJdQyg9TylbTkhdW0NIMl1bQ0BASF0yW0NIMl1OKFtDSDJdW0NIMl1PMilbQ0gyXVtDSF0oW0NIM10pW0NIM10=

> <s_epik_cmdline>
J2VwaWtfcHl0aG9uJywgJy1waCcsICc3LjAnLCAnLXRuJywgJzgnLCAnLW1hJywgJzIwMCcsICctbWV0YWxfYmluZGluZycsICctaW1hZScsICc8aW5maWxlLm1hZT4nLCAnLW9tYWUnLCAnPG91dGZpbGUubWFlPic=

> <r_lp_tautomer_probability>
1

> <r_epik_Ionization_Penalty>
0.0975935

> <r_epik_Ionization_Penalty_Charging>
0.0975934

> <r_epik_Ionization_Penalty_Neutral>
6.27044e-08

> <r_epik_State_Penalty>
0.0877056

> <r_epik_Charging_Adjusted_Penalty>
0.185299

> <i_epik_Tot_Q>
1

> <i_epik_Tot_abs_Q>
1

> <r_epik_Metal_State_Penalty>
0.0877109

> <b_epik_Metal_Only>
0

> <s_lp_Force_Field>
OPLS_2005

> <r_lp_Energy>
30.0943

> <b_lp_Chiralities_Consistent>
1

> <s_lp_Variant>
AV-unprocessed.smi:712-3

> <Gold.Version>
5.8.1

> <Gold.Id.Protein>
6NUR|6NUR_protein|mol2

> <Gold.PLP.Fitness>
46.0663

> <Gold.PLP.PLP>
-36.3641

> <Gold.PLP.part.hbond>
-2.9736

> <Gold.PLP.part.metal>
0.0000

> <Gold.PLP.part.buried>
-4.6911

> <Gold.PLP.part.nonpolar>
-30.3245

> <Gold.PLP.part.repulsive>
0.1736

> <Gold.PLP.ligand.clash>
0.0000

> <Gold.PLP.ligand.torsion>
1.0339

> <Gold.PLP.Chemscore.Hbond>
3.8925

> <Gold.PLP.Chemscore.CHOScore>
0.0000

> <Gold.PLP.Chemscore.Metal>
0.0000

> <Gold.Chemscore.Hbonds>
donor molecule, donor type, donor heavy atom, donor atom, acceptor molecule, acceptor atom, score
      L1  H     9    31       P1  7948  1.00
      L1  H    13    51       P1 10957  2.00
      P1  H  7997  8010       L1    22  0.82

> <Gold.PLP.Chemscore.Internal.Correction>
0.0925

> <Gold.Rescore>
     Score         DG    S(hbond)    S(metal)    S(lipo)     H(rot)  DE(clash)    DE(int)     intcor
     17.17     -18.13       2.91        0.00      66.40       1.89       0.04       0.93       ----

> <Gold.Chemscore.Fitness>
17.1719

> <Gold.Chemscore.DG>
-18.1340

> <Gold.Chemscore.ZeroCoef>
-5.4800

> <Gold.Chemscore.Hbond>
2.9091

> <Gold.Chemscore.Metal>
0.0000

> <Gold.Chemscore.Lipo>
66.3982

> <Gold.Chemscore.Internal_Hbond>
0.0000

> <Gold.Chemscore.DEClash>
0.0363

> <Gold.Chemscore.DEInternal>
0.9259

> <Gold.Chemscore.Rot>
1.8871

> <Gold.Chemscore.Internal.Correction>
   9.000000E+99

> <Gold.Chemscore.Hbonds>
donor molecule, donor type, donor heavy atom, donor atom, acceptor molecule, acceptor atom, score
      L1  H     9    31       P1  7948  0.97
      L1  H    13    51       P1 10957  0.89
      P1  H  7997  8010       L1    22  0.17

> <Gold.Chemscore.Hbond.Weighted>
-9.7164

> <Gold.Chemscore.Metal.Weighted>
-0.0000

> <Gold.Chemscore.Lipo.Weighted>
-7.7686

> <Gold.Chemscore.Internal_Hbond.Weighted>
0.0000

> <Gold.Chemscore.DEClash.Weighted>
0.0363

> <Gold.Chemscore.DEInternal.Weighted>
0.9259

> <Gold.Chemscore.Rot.Weighted>
4.8309

> <Gold.Chemscore.Internal.Correction.Weighted>
   9.000000E+99

> <Gold.Protein.RotatedTorsions>
[ 6907 6896 6895 6894 ] final   -6.34 input  -60.11 | X-H torsion
[ 7974 7965 7964 7962 ] final  123.94 input  175.53 | X-H torsion
[ 8008 7997 7996 7995 ] final   97.66 input   59.86 | X-H torsion
[ 10167 10162 10161 10158 ] final -147.99 input  -65.29 | X-H torsion
[ 10718 10713 10712 10709 ] final -121.51 input   66.30 | X-H torsion
[ 10763 10752 10751 10750 ] final   94.86 input  -60.55 | X-H torsion
[ 11005 11000 10999 10996 ] final  143.28 input  -57.11 | X-H torsion

> <Gold.Protein.ActiveResidues>
 VAL166  LYS551  ARG553  GLY616  TRP617  ASP618  TYR619  PRO620  LYS621  CYS622 
 ASP623  PHE694  ASN695  SER759  ASP760  ASP761  ALA762  ILE779  LEU786  VAL792 
 PHE793  MET794  SER795  GLU796  ALA797  LYS798  CYS799  TRP800  GLU811  SER814 

> <Gold.Protein.RotatedAtoms>
  151.4671  135.1043  159.9740 H   0  0  0  0  0  0  0  0  0  0  0  0  # atno 6907 bound_to 6896
  152.4831  133.8299  159.7108 H   0  0  0  0  0  0  0  0  0  0  0  0  # atno 6908 bound_to 6896
  150.8918  133.7173  159.2929 H   0  0  0  0  0  0  0  0  0  0  0  0  # atno 6909 bound_to 6896
  145.0901  139.3593  143.4865 H   0  0  0  0  0  0  0  0  0  0  0  0  # atno 7974 bound_to 7965
  156.0925  140.3255  155.7834 H   0  0  0  0  0  0  0  0  0  0  0  0  # atno 8008 bound_to 7997
  155.4973  140.0566  157.2962 H   0  0  0  0  0  0  0  0  0  0  0  0  # atno 8009 bound_to 7997
  154.4646  140.1983  156.0168 H   0  0  0  0  0  0  0  0  0  0  0  0  # atno 8010 bound_to 7997
  139.7572  143.8430  152.2599 H   0  0  0  0  0  0  0  0  0  0  0  0  # atno 10167 bound_to 10162
  156.1343  130.6419  150.9671 H   0  0  0  0  0  0  0  0  0  0  0  0  # atno 10718 bound_to 10713
  153.2465  135.4274  155.0753 H   0  0  0  0  0  0  0  0  0  0  0  0  # atno 10763 bound_to 10752
  154.8363  135.3415  154.6574 H   0  0  0  0  0  0  0  0  0  0  0  0  # atno 10764 bound_to 10752
  153.6996  135.7029  153.5123 H   0  0  0  0  0  0  0  0  0  0  0  0  # atno 10765 bound_to 10752
  140.0542  134.9240  157.1070 H   0  0  0  0  0  0  0  0  0  0  0  0  # atno 11005 bound_to 11000
  146.3531  140.0732  142.8622 LP  0  0  0  0  0  0  0  0  0  0  0  0  # atno 17320 bound_to 7965
  145.1075  140.9385  143.4676 LP  0  0  0  0  0  0  0  0  0  0  0  0  # atno 17321 bound_to 7965
  139.8426  144.7203  150.9312 LP  0  0  0  0  0  0  0  0  0  0  0  0  # atno 17342 bound_to 10162
  140.7804  143.3970  151.1213 LP  0  0  0  0  0  0  0  0  0  0  0  0  # atno 17343 bound_to 10162
  157.6517  131.0896  150.8035 LP  0  0  0  0  0  0  0  0  0  0  0  0  # atno 17370 bound_to 10713
  156.8117  130.4954  149.5355 LP  0  0  0  0  0  0  0  0  0  0  0  0  # atno 17371 bound_to 10713
  140.3870  134.2225  155.7168 LP  0  0  0  0  0  0  0  0  0  0  0  0  # atno 17394 bound_to 11000
  141.1944  133.8129  157.0758 LP  0  0  0  0  0  0  0  0  0  0  0  0  # atno 17395 bound_to 11000

$$$$
