AV-unprocessed.smi:3181|AV-procd|sdf|12148|dock2
  -GOLD-   2272017583D 1   1.00000     0.00000
 Structure written by MMmdl.
 42 43  0  0  0  0  0  0  0  0  2 V2000
  148.5589  140.7694  155.7341 C   0  0  0  0  0  0  0  0  0  0  0  0
  149.7765  140.9455  156.6562 C   0  0  1  0  0  0  0  0  0  0  0  0
  151.1124  140.7353  155.9102 C   0  0  0  0  0  0  0  0  0  0  0  0
  151.2907  139.3724  155.4457 N   0  0  0  0  0  0  0  0  0  0  0  0
  152.2904  138.5103  155.6400 C   0  0  0  0  0  0  0  0  0  0  0  0
  152.1014  137.3334  155.0601 N   0  0  0  0  0  0  0  0  0  0  0  0
  150.8769  137.5509  154.4937 C   0  0  0  0  0  0  0  0  0  0  0  0
  150.3451  138.7563  154.6983 N   0  0  0  0  0  0  0  0  0  0  0  0
  149.7403  142.2926  157.2703 N   0  3  0  0  0  0  0  0  0  0  0  0
  151.0221  142.7992  157.8140 C   0  0  2  0  0  0  0  0  0  0  0  0
  151.6741  141.7152  158.6907 C   0  0  0  0  0  0  0  0  0  0  0  0
  152.9968  142.2023  159.3056 C   0  0  0  0  0  0  0  0  0  0  0  0
  152.8205  143.5015  160.1175 C   0  0  2  0  0  0  0  0  0  0  0  0
  152.0889  143.2457  161.4506 C   0  0  0  0  0  0  0  0  0  0  0  0
  152.1648  144.5923  159.2330 C   0  0  2  0  0  0  0  0  0  0  0  0
  152.0000  145.9409  159.9531 C   0  0  0  0  0  0  0  0  0  0  0  0
  150.8379  144.1071  158.6139 C   0  0  0  0  0  0  0  0  0  0  0  0
  148.5122  139.7619  155.3199 H   0  0  0  0  0  0  0  0  0  0  0  0
  148.5873  141.4709  154.8995 H   0  0  0  0  0  0  0  0  0  0  0  0
  147.6286  140.9369  156.2779 H   0  0  0  0  0  0  0  0  0  0  0  0
  149.6922  140.1957  157.4444 H   0  0  0  0  0  0  0  0  0  0  0  0
  151.1702  141.4013  155.0479 H   0  0  0  0  0  0  0  0  0  0  0  0
  151.9599  140.9847  156.5488 H   0  0  0  0  0  0  0  0  0  0  0  0
  153.1751  138.7486  156.2123 H   0  0  0  0  0  0  0  0  0  0  0  0
  150.3622  136.7989  153.9139 H   0  0  0  0  0  0  0  0  0  0  0  0
  149.3750  142.9545  156.6005 H   0  0  0  0  0  0  0  0  0  0  0  0
  151.6899  142.9918  156.9725 H   0  0  0  0  0  0  0  0  0  0  0  0
  150.9884  141.4144  159.4838 H   0  0  0  0  0  0  0  0  0  0  0  0
  151.8609  140.8201  158.0960 H   0  0  0  0  0  0  0  0  0  0  0  0
  153.4266  141.4202  159.9325 H   0  0  0  0  0  0  0  0  0  0  0  0
  153.7177  142.3749  158.5052 H   0  0  0  0  0  0  0  0  0  0  0  0
  153.8208  143.8496  160.3795 H   0  0  0  0  0  0  0  0  0  0  0  0
  151.0498  142.9540  161.3023 H   0  0  0  0  0  0  0  0  0  0  0  0
  152.0964  144.1310  162.0860 H   0  0  0  0  0  0  0  0  0  0  0  0
  152.5754  142.4492  162.0139 H   0  0  0  0  0  0  0  0  0  0  0  0
  152.8507  144.7752  158.4041 H   0  0  0  0  0  0  0  0  0  0  0  0
  151.2569  145.8868  160.7489 H   0  0  0  0  0  0  0  0  0  0  0  0
  151.6767  146.7163  159.2581 H   0  0  0  0  0  0  0  0  0  0  0  0
  152.9416  146.2688  160.3942 H   0  0  0  0  0  0  0  0  0  0  0  0
  150.4528  144.8900  157.9603 H   0  0  0  0  0  0  0  0  0  0  0  0
  150.0893  143.9656  159.3944 H   0  0  0  0  0  0  0  0  0  0  0  0
  149.0960  142.2434  158.0464 H   0  0  0  0  0  0  0  0  0  0  0  0
  1  2  1  0  0  0  0
  1 18  1  0  0  0  0
  1 19  1  0  0  0  0
  1 20  1  0  0  0  0
  2  3  1  0  0  0  0
  2  9  1  0  0  0  0
  2 21  1  0  0  0  0
  3  4  1  0  0  0  0
  3 22  1  0  0  0  0
  3 23  1  0  0  0  0
  4  8  1  0  0  0  0
  4  5  1  0  0  0  0
  5  6  2  0  0  0  0
  5 24  1  0  0  0  0
  6  7  1  0  0  0  0
  7  8  2  0  0  0  0
  7 25  1  0  0  0  0
  9 10  1  0  0  0  0
  9 26  1  0  0  0  0
  9 42  1  0  0  0  0
 10 17  1  0  0  0  0
 10 11  1  0  0  0  0
 10 27  1  0  0  0  0
 11 12  1  0  0  0  0
 11 28  1  0  0  0  0
 11 29  1  0  0  0  0
 12 13  1  0  0  0  0
 12 30  1  0  0  0  0
 12 31  1  0  0  0  0
 13 14  1  0  0  0  0
 13 15  1  0  0  0  0
 13 32  1  0  0  0  0
 14 33  1  0  0  0  0
 14 34  1  0  0  0  0
 14 35  1  0  0  0  0
 15 16  1  0  0  0  0
 15 17  1  0  0  0  0
 15 36  1  0  0  0  0
 16 37  1  0  0  0  0
 16 38  1  0  0  0  0
 16 39  1  0  0  0  0
 17 40  1  0  0  0  0
 17 41  1  0  0  0  0
M  CHG  1   9   1
M  END
> <s_m_source_file>
AV-unprocessed.smi

> <i_m_source_file_index>
3181

> <i_lp_mmshare_version>
43012

> <i_f3d_flags>
0

> <s_epik_input>
bjFbY0hdbltjSF1uMVtDSDJdW0NAQEhdKFtDSDNdKVtOSF1bQ0BASF0yW0NIMl1bQ0gyXVtDQEBIXShbQ0gzXSlbQ0BASF0oW0NIM10pW0NIMl0y

> <s_epik_cmdline>
J2VwaWtfcHl0aG9uJywgJy1waCcsICc3LjAnLCAnLXRuJywgJzgnLCAnLW1hJywgJzIwMCcsICctbWV0YWxfYmluZGluZycsICctaW1hZScsICc8aW5maWxlLm1hZT4nLCAnLW9tYWUnLCAnPG91dGZpbGUubWFlPic=

> <r_lp_tautomer_probability>
1

> <r_epik_Ionization_Penalty>
0.000617007

> <r_epik_Ionization_Penalty_Charging>
0.000616215

> <r_epik_Ionization_Penalty_Neutral>
7.92544e-07

> <r_epik_State_Penalty>
0.000388807

> <r_epik_Charging_Adjusted_Penalty>
0.00100502

> <i_epik_Tot_Q>
1

> <i_epik_Tot_abs_Q>
1

> <r_epik_Metal_State_Penalty>
-0

> <b_epik_Metal_Only>
0

> <s_lp_Force_Field>
OPLS_2005

> <r_lp_Energy>
20.8152

> <b_lp_Chiralities_Consistent>
1

> <s_lp_Variant>
AV-unprocessed.smi:3181-14

> <Gold.Version>
5.8.1

> <Gold.Id.Protein>
6NUR|6NUR_protein|mol2

> <Gold.PLP.Fitness>
52.9166

> <Gold.PLP.PLP>
-42.1373

> <Gold.PLP.part.hbond>
-2.0000

> <Gold.PLP.part.metal>
0.0000

> <Gold.PLP.part.buried>
-4.5538

> <Gold.PLP.part.nonpolar>
-37.2869

> <Gold.PLP.part.repulsive>
0.2612

> <Gold.PLP.ligand.clash>
0.0000

> <Gold.PLP.ligand.torsion>
0.3405

> <Gold.PLP.Chemscore.Hbond>
2.7332

> <Gold.PLP.Chemscore.CHOScore>
1.0706

> <Gold.PLP.Chemscore.Metal>
0.0000

> <Gold.Chemscore.Hbonds>
donor molecule, donor type, donor heavy atom, donor atom, acceptor molecule, acceptor atom, score
      L1  H     9    26       P1  8028  1.85
      P1  H 10752 10765       L1     6  0.75
      L1  C     7    25       P1  7948  0.77
      L1  C     7    25       P1  7949  0.21

> <Gold.PLP.Chemscore.Internal.Correction>
0.0489

> <Gold.Rescore>
     Score         DG    S(hbond)    S(metal)    S(lipo)     H(rot)  DE(clash)    DE(int)     intcor
     17.00     -17.38       1.65        0.00     100.85       2.11       0.06       0.32       ----

> <Gold.Chemscore.Fitness>
16.9999

> <Gold.Chemscore.DG>
-17.3827

> <Gold.Chemscore.ZeroCoef>
-5.4800

> <Gold.Chemscore.Hbond>
1.6477

> <Gold.Chemscore.Metal>
0.0000

> <Gold.Chemscore.Lipo>
100.8508

> <Gold.Chemscore.Internal_Hbond>
0.0000

> <Gold.Chemscore.DEClash>
0.0642

> <Gold.Chemscore.DEInternal>
0.3185

> <Gold.Chemscore.Rot>
2.1095

> <Gold.Chemscore.Internal.Correction>
   9.000000E+99

> <Gold.Chemscore.Hbonds>
donor molecule, donor type, donor heavy atom, donor atom, acceptor molecule, acceptor atom, score
      L1  H     9    26       P1  8028  0.88
      P1  H 10752 10765       L1     6  0.57

> <Gold.Chemscore.Hbond.Weighted>
-5.5034

> <Gold.Chemscore.Metal.Weighted>
-0.0000

> <Gold.Chemscore.Lipo.Weighted>
-11.7995

> <Gold.Chemscore.Internal_Hbond.Weighted>
0.0000

> <Gold.Chemscore.DEClash.Weighted>
0.0642

> <Gold.Chemscore.DEInternal.Weighted>
0.3185

> <Gold.Chemscore.Rot.Weighted>
5.4003

> <Gold.Chemscore.Internal.Correction.Weighted>
   9.000000E+99

> <Gold.Protein.RotatedTorsions>
[ 6907 6896 6895 6894 ] final  -76.41 input  -60.11 | X-H torsion
[ 7974 7965 7964 7962 ] final   83.30 input  175.53 | X-H torsion
[ 8008 7997 7996 7995 ] final  -48.10 input   59.86 | X-H torsion
[ 10167 10162 10161 10158 ] final  176.86 input  -65.29 | X-H torsion
[ 10718 10713 10712 10709 ] final -166.87 input   66.30 | X-H torsion
[ 10763 10752 10751 10750 ] final  163.35 input  -60.55 | X-H torsion
[ 11005 11000 10999 10996 ] final   44.35 input  -57.11 | X-H torsion

> <Gold.Protein.ActiveResidues>
 VAL166  LYS551  ARG553  GLY616  TRP617  ASP618  TYR619  PRO620  LYS621  CYS622 
 ASP623  PHE694  ASN695  SER759  ASP760  ASP761  ALA762  ILE779  LEU786  VAL792 
 PHE793  MET794  SER795  GLU796  ALA797  LYS798  CYS799  TRP800  GLU811  SER814 

> <Gold.Protein.RotatedAtoms>
  150.7028  134.4576  159.5365 H   0  0  0  0  0  0  0  0  0  0  0  0  # atno 6907 bound_to 6896
  152.2256  134.8368  160.0489 H   0  0  0  0  0  0  0  0  0  0  0  0  # atno 6908 bound_to 6896
  151.9202  133.3548  159.3931 H   0  0  0  0  0  0  0  0  0  0  0  0  # atno 6909 bound_to 6896
  145.6137  139.2373  143.2178 H   0  0  0  0  0  0  0  0  0  0  0  0  # atno 7974 bound_to 7965
  154.4024  140.1330  156.4284 H   0  0  0  0  0  0  0  0  0  0  0  0  # atno 8008 bound_to 7997
  155.7575  140.3487  155.5161 H   0  0  0  0  0  0  0  0  0  0  0  0  # atno 8009 bound_to 7997
  155.8891  140.1000  157.1421 H   0  0  0  0  0  0  0  0  0  0  0  0  # atno 8010 bound_to 7997
  139.5231  144.2866  152.0501 H   0  0  0  0  0  0  0  0  0  0  0  0  # atno 10167 bound_to 10162
  156.6741  130.9096  151.3048 H   0  0  0  0  0  0  0  0  0  0  0  0  # atno 10718 bound_to 10713
  154.2924  135.2760  155.2649 H   0  0  0  0  0  0  0  0  0  0  0  0  # atno 10763 bound_to 10752
  154.5122  135.5779  153.6617 H   0  0  0  0  0  0  0  0  0  0  0  0  # atno 10764 bound_to 10752
  152.9912  135.6184  154.3089 H   0  0  0  0  0  0  0  0  0  0  0  0  # atno 10765 bound_to 10752
  140.1559  134.4402  155.8350 H   0  0  0  0  0  0  0  0  0  0  0  0  # atno 11005 bound_to 11000
  146.1485  140.6959  142.9333 LP  0  0  0  0  0  0  0  0  0  0  0  0  # atno 17320 bound_to 7965
  144.7259  140.4524  143.6973 LP  0  0  0  0  0  0  0  0  0  0  0  0  # atno 17321 bound_to 7965
  140.2318  144.4360  150.6296 LP  0  0  0  0  0  0  0  0  0  0  0  0  # atno 17342 bound_to 10162
  140.6350  143.2193  151.6415 LP  0  0  0  0  0  0  0  0  0  0  0  0  # atno 17343 bound_to 10162
  157.7067  130.9393  150.0953 LP  0  0  0  0  0  0  0  0  0  0  0  0  # atno 17370 bound_to 10713
  156.1916  130.3655  149.8902 LP  0  0  0  0  0  0  0  0  0  0  0  0  # atno 17371 bound_to 10713
  141.2204  133.6892  156.7507 LP  0  0  0  0  0  0  0  0  0  0  0  0  # atno 17394 bound_to 11000
  140.2547  134.8513  157.3702 LP  0  0  0  0  0  0  0  0  0  0  0  0  # atno 17395 bound_to 11000

$$$$
