#       Name:                AV-unprocessed.smi:2756
#       Creating user name   scv26
#       Creation time:       Fri Mar 27 15:06:44 2020


#       File generated by GOLD software.
#

@<TRIPOS>MOLECULE
AV-unprocessed.smi:2756
    23    23     1
SMALL
NO_CHARGES


@<TRIPOS>ATOM
      1 ****         0.2055   2.1237   0.1779 N.pl3          1 S1                 0.0000
      2 ****        -0.4114   0.8731   0.2175 C.ar           1 S1                 0.0000
      3 ****        -1.7629   0.8479   0.2163 N.pl3          1 S1                 1.0000
      4 ****        -2.4805  -0.2960   0.2425 C.ar           1 S1                 0.0000
      5 ****        -1.8172  -1.5379   0.2739 C.ar           1 S1                 0.0000
      6 ****        -0.4079  -1.5613   0.2791 C.ar           1 S1                 0.0000
      7 ****         0.3123  -0.3456   0.2530 C.ar           1 S1                 0.0000
      8 ****         1.8348  -0.3756   0.2613 C.3            1 S1                 0.0000
      9 ****         2.3190  -0.2343  -1.1818 C.2            1 S1                 0.0000
     10 ****         2.7188   0.8959  -1.5376 O.co2          1 S1                 0.0000
     11 ****         2.2671  -1.2535  -1.9041 O.co2          1 S1                -1.0000
     12 ****         1.2133   2.2004   0.1732 H              1 S1                 0.0000
     13 ****        -0.3143   2.9591  -0.0478 H              1 S1                 0.0000
     14 ****        -3.5548  -0.1837   0.2346 H              1 S1                 0.0000
     15 ****        -2.3797  -2.4597   0.2917 H              1 S1                 0.0000
     16 ****         0.1154  -2.5061   0.2990 H              1 S1                 0.0000
     17 ****         2.2369   0.4241   0.8844 H              1 S1                 0.0000
     18 ****         2.1956  -1.3160   0.6800 H              1 S1                 0.0000
     19 ****        -2.2661   1.7348   0.1893 H              1 S1                 0.0000
     20 ****         3.0343   1.0423  -2.4751 LP             1 S1                 0.0000
     21 ****         2.7229   1.6532  -0.8846 LP             1 S1                 0.0000
     22 ****         2.5619  -1.2056  -2.8584 LP             1 S1                 0.0000
     23 ****         1.9307  -2.1167  -1.5275 LP             1 S1                 0.0000
@<TRIPOS>BOND
    1    1    2 1     
    2    1   12 1     
    3    1   13 1     
    4    2    7 ar    
    5    2    3 ar    
    6    3    4 ar    
    7    3   19 1     
    8    4    5 ar    
    9    4   14 1     
   10    5    6 ar    
   11    5   15 1     
   12    6    7 ar    
   13    6   16 1     
   14    7    8 1     
   15    8    9 1     
   16    8   17 1     
   17    8   18 1     
   18    9   10 ar    
   19    9   11 ar    
   20   10   20 1     
   21   10   21 1     
   22   11   22 1     
   23   11   23 1     
@<TRIPOS>SUBSTRUCTURE
      1 S1             1
@<TRIPOS>SET
LONE_PAIRS      STATIC     ATOMS    <user>   **** ""
4 20 21 22 23
DONOR_HYDROGENS      STATIC     ATOMS    <user>   **** ""
3 12 13 19
ATOM$BLUE        STATIC     ATOMS    COLORGROUP SYSTEM
4 20 21 22 23
ATOM$RED        STATIC     ATOMS    COLORGROUP SYSTEM
3 12 13 19
