#       Name:                AV-unprocessed.smi:1366
#       Creating user name   scv26
#       Creation time:       Fri Mar 27 05:16:39 2020


#       File generated by GOLD software.
#

@<TRIPOS>MOLECULE
AV-unprocessed.smi:1366
    36    37     1
SMALL
NO_CHARGES


@<TRIPOS>ATOM
      1 ****        -5.7854   0.7255   1.3007 N.1            1 S1                 0.0000
      2 ****        -4.6394   0.8358   1.4163 C.1            1 S1                 0.0000
      3 ****        -3.1969   0.9747   1.5617 C.ar           1 S1                 0.0000
      4 ****        -2.4865   1.9102   0.7783 C.ar           1 S1                 0.0000
      5 ****        -1.1490   2.0633   0.8859 N.ar           1 S1                 0.0000
      6 ****        -0.5322   1.2785   1.7727 C.ar           1 S1                 0.0000
      7 ****         1.2319   1.4614   1.9289 S.3            1 S1                 0.0000
      8 ****         1.7530   1.5717   0.1885 C.3            1 S1                 0.0000
      9 ****         1.4359   0.2934  -0.6060 C.3            1 S1                 0.0000
     10 ****         1.8626   0.4112  -2.0816 C.3            1 S1                 0.0000
     11 ****         1.5965  -0.9034  -2.8242 C.3            1 S1                 0.0000
     12 ****         2.2514  -2.0655  -2.0697 C.3            1 S1                 0.0000
     13 ****         1.8189  -2.0578  -0.5949 C.3            1 S1                 0.0000
     14 ****         2.1294  -0.7988  -0.0057 O.3            1 S1                 0.0000
     15 ****        -1.0900   0.3674   2.5721 N.ar           1 S1                 0.0000
     16 ****        -2.4274   0.2059   2.4718 C.ar           1 S1                 0.0000
     17 ****        -2.9959  -0.7548   3.3102 N.pl3          1 S1                 0.0000
     18 ****        -2.9890   2.5407   0.0591 H              1 S1                 0.0000
     19 ****         1.2771   2.4370  -0.2734 H              1 S1                 0.0000
     20 ****         2.8263   1.7621   0.1698 H              1 S1                 0.0000
     21 ****         0.3630   0.0997  -0.5635 H              1 S1                 0.0000
     22 ****         1.3267   1.2276  -2.5666 H              1 S1                 0.0000
     23 ****         2.9243   0.6548  -2.1403 H              1 S1                 0.0000
     24 ****         0.5215  -1.0727  -2.8976 H              1 S1                 0.0000
     25 ****         1.9769  -0.8492  -3.8445 H              1 S1                 0.0000
     26 ****         1.9883  -3.0151  -2.5363 H              1 S1                 0.0000
     27 ****         3.3368  -1.9763  -2.1301 H              1 S1                 0.0000
     28 ****         0.7512  -2.2621  -0.4999 H              1 S1                 0.0000
     29 ****         2.3422  -2.8417  -0.0471 H              1 S1                 0.0000
     30 ****        -3.9880  -0.9437   3.3031 H              1 S1                 0.0000
     31 ****        -2.4331  -1.2812   3.9626 H              1 S1                 0.0000
     32 ****        -6.7759   0.6302   1.2008 LP             1 S1                 0.0000
     33 ****        -0.6481   2.7281   0.3317 LP             1 S1                 0.0000
     34 ****         1.8868  -0.8339   0.9638 LP             1 S1                 0.0000
     35 ****         3.1123  -0.6393  -0.0978 LP             1 S1                 0.0000
     36 ****        -0.5441  -0.1701   3.2147 LP             1 S1                 0.0000
@<TRIPOS>BOND
    1    1    2 3     
    2    2    3 1     
    3    3   16 ar    
    4    3    4 ar    
    5    4    5 ar    
    6    4   18 1     
    7    5    6 ar    
    8    6    7 1     
    9    6   15 ar    
   10    7    8 1     
   11    8    9 1     
   12    8   19 1     
   13    8   20 1     
   14    9   14 1     
   15    9   10 1     
   16    9   21 1     
   17   10   11 1     
   18   10   22 1     
   19   10   23 1     
   20   11   12 1     
   21   11   24 1     
   22   11   25 1     
   23   12   13 1     
   24   12   26 1     
   25   12   27 1     
   26   13   14 1     
   27   13   28 1     
   28   13   29 1     
   29   15   16 ar    
   30   16   17 1     
   31   17   30 1     
   32   17   31 1     
   33    1   32 1     
   34    5   33 1     
   35   14   34 1     
   36   14   35 1     
   37   15   36 1     
@<TRIPOS>SUBSTRUCTURE
      1 S1             1
@<TRIPOS>SET
LONE_PAIRS      STATIC     ATOMS    <user>   **** ""
5 32 33 34 35 36
DONOR_HYDROGENS      STATIC     ATOMS    <user>   **** ""
2 30 31
ATOM$BLUE        STATIC     ATOMS    COLORGROUP SYSTEM
5 32 33 34 35 36
ATOM$RED        STATIC     ATOMS    COLORGROUP SYSTEM
2 30 31
