#       Name:                AV-unprocessed.smi:54
#       Creating user name   scv26
#       Creation time:       Thu Mar 26 16:44:07 2020


#       File generated by GOLD software.
#

@<TRIPOS>MOLECULE
AV-unprocessed.smi:54
    58    60     1
SMALL
NO_CHARGES


@<TRIPOS>ATOM
      1 ****        -2.4983   5.5269   1.4336 C.3            1 S1                 0.0000
      2 ****        -1.8598   4.8308   0.2203 C.3            1 S1                 0.0000
      3 ****        -1.9797   5.6949  -1.0460 C.3            1 S1                 0.0000
      4 ****        -2.4853   3.4470  -0.0068 C.2            1 S1                 0.0000
      5 ****        -3.6922   3.3671  -0.2455 O.2            1 S1                 0.0000
      6 ****        -1.6248   2.4070   0.0651 N.am           1 S1                 0.0000
      7 ****        -1.8684   1.0396  -0.1117 C.2            1 S1                 0.0000
      8 ****        -0.7724   0.3447  -0.2986 N.2            1 S1                 0.0000
      9 ****        -1.0203  -1.0053  -0.4581 C.2            1 S1                 0.0000
     10 ****        -2.2293  -1.6440  -0.4371 C.2            1 S1                 0.0000
     11 ****        -2.0846  -3.0105  -0.6434 N.2            1 S1                 0.0000
     12 ****        -0.7651  -3.1339  -0.7807 C.2            1 S1                 0.0000
     13 ****        -0.0598  -1.9883  -0.6681 N.pl3          1 S1                 0.0000
     14 ****         1.4218  -1.7849  -0.7798 C.3            1 S1                 0.0000
     15 ****         2.0171  -3.0132  -1.0778 O.3            1 S1                 0.0000
     16 ****         2.4623  -3.6274   0.1270 C.3            1 S1                 0.0000
     17 ****         3.4656  -4.7591  -0.1574 C.3            1 S1                 0.0000
     18 ****         2.7755  -5.9525  -0.4616 O.3            1 S1                 0.0000
     19 ****         3.0140  -2.4248   0.9025 C.3            1 S1                 0.0000
     20 ****         4.3234  -2.1046   0.4579 O.3            1 S1                 0.0000
     21 ****         1.9924  -1.3332   0.5788 C.3            1 S1                 0.0000
     22 ****         2.5597  -0.0371   0.5438 O.3            1 S1                 0.0000
     23 ****        -3.4270  -0.8012  -0.2107 C.2            1 S1                 0.0000
     24 ****        -4.5359  -1.3316  -0.1797 O.2            1 S1                 0.0000
     25 ****        -3.1826   0.5338  -0.0489 N.pl3          1 S1                -1.0000
     26 ****         1.5450  -1.0703  -1.5947 H              1 S1                 0.0000
     27 ****         1.6020  -4.0207   0.6723 H              1 S1                 0.0000
     28 ****         3.0604  -2.6246   1.9735 H              1 S1                 0.0000
     29 ****         1.2007  -1.3489   1.3299 H              1 S1                 0.0000
     30 ****        -2.4156   4.9128   2.3313 H              1 S1                 0.0000
     31 ****        -3.5563   5.7346   1.2677 H              1 S1                 0.0000
     32 ****        -2.0048   6.4767   1.6411 H              1 S1                 0.0000
     33 ****        -0.7979   4.6983   0.4343 H              1 S1                 0.0000
     34 ****        -1.5396   5.1950  -1.9098 H              1 S1                 0.0000
     35 ****        -1.4609   6.6454  -0.9194 H              1 S1                 0.0000
     36 ****        -3.0209   5.9165  -1.2841 H              1 S1                 0.0000
     37 ****        -0.6617   2.6684   0.2143 H              1 S1                 0.0000
     38 ****        -0.3016  -4.0915  -0.9665 H              1 S1                 0.0000
     39 ****         4.1432  -4.4969  -0.9709 H              1 S1                 0.0000
     40 ****         4.0745  -4.9521   0.7263 H              1 S1                 0.0000
     41 ****         3.4101  -6.6318  -0.6307 H              1 S1                 0.0000
     42 ****         4.8957  -2.8286   0.6593 H              1 S1                 0.0000
     43 ****         1.8816   0.5771   0.3070 H              1 S1                 0.0000
     44 ****        -4.2493   4.1964  -0.2889 LP             1 S1                 0.0000
     45 ****        -4.1141   2.4730  -0.3956 LP             1 S1                 0.0000
     46 ****         0.1426   0.7475  -0.3230 LP             1 S1                 0.0000
     47 ****        -2.7894  -3.7190  -0.6795 LP             1 S1                 0.0000
     48 ****         2.7974  -2.8670  -1.6859 LP             1 S1                 0.0000
     49 ****         1.3501  -3.6067  -1.5282 LP             1 S1                 0.0000
     50 ****         2.2049  -5.8150  -1.2712 LP             1 S1                 0.0000
     51 ****         2.1987  -6.2150   0.3120 LP             1 S1                 0.0000
     52 ****         4.6455  -1.2808   0.9244 LP             1 S1                 0.0000
     53 ****         4.3147  -1.9467  -0.5295 LP             1 S1                 0.0000
     54 ****         3.2944  -0.0077  -0.1339 LP             1 S1                 0.0000
     55 ****         2.9274   0.1956   1.4442 LP             1 S1                 0.0000
     56 ****        -4.6212  -2.3199  -0.3064 LP             1 S1                 0.0000
     57 ****        -5.3525  -0.7747  -0.0277 LP             1 S1                 0.0000
     58 ****        -3.9453   1.1592   0.1161 LP             1 S1                 0.0000
@<TRIPOS>BOND
    1    1    2 1     
    2    1   30 1     
    3    1   31 1     
    4    1   32 1     
    5    2    3 1     
    6    2    4 1     
    7    2   33 1     
    8    3   34 1     
    9    3   35 1     
   10    3   36 1     
   11    4    5 2     
   12    4    6 am    
   13    6   37 1     
   14    6    7 1     
   15    7   25 1     
   16    7    8 2     
   17    8    9 1     
   18    9   13 1     
   19    9   10 2     
   20   10   11 1     
   21   10   23 1     
   22   11   12 2     
   23   12   13 1     
   24   12   38 1     
   25   13   14 1     
   26   14   26 1     
   27   14   21 1     
   28   14   15 1     
   29   15   16 1     
   30   16   27 1     
   31   16   17 1     
   32   16   19 1     
   33   17   18 1     
   34   17   39 1     
   35   17   40 1     
   36   18   41 1     
   37   19   28 1     
   38   19   20 1     
   39   19   21 1     
   40   20   42 1     
   41   21   29 1     
   42   21   22 1     
   43   22   43 1     
   44   23   24 2     
   45   23   25 1     
   46    5   44 1     
   47    5   45 1     
   48    8   46 1     
   49   11   47 1     
   50   15   48 1     
   51   15   49 1     
   52   18   50 1     
   53   18   51 1     
   54   20   52 1     
   55   20   53 1     
   56   22   54 1     
   57   22   55 1     
   58   24   56 1     
   59   24   57 1     
   60   25   58 1     
@<TRIPOS>SUBSTRUCTURE
      1 S1             1
@<TRIPOS>SET
LONE_PAIRS      STATIC     ATOMS    <user>   **** ""
15 44 45 46 47 48 49 50 51 52 53 54 55 56 57 58
DONOR_HYDROGENS      STATIC     ATOMS    <user>   **** ""
4 37 41 42 43
ATOM$BLUE        STATIC     ATOMS    COLORGROUP SYSTEM
15 44 45 46 47 48 49 50 51 52 53 54 55 56 57 58
ATOM$RED        STATIC     ATOMS    COLORGROUP SYSTEM
4 37 41 42 43
