AV-unprocessed.smi:1643|AV-procd|sdf|6577|dock4
  -GOLD-   22720 7263D 1   1.00000     0.00000
 Structure written by MMmdl.
 53 55  0  0  0  0  0  0  0  0  1 V2000
  142.5486  142.4257  155.2596 C   0  0  0  0  0  0  0  0  0  0  0  0
  143.6454  141.7232  156.0635 C   0  0  0  0  0  0  0  0  0  0  0  0
  143.3796  140.6433  156.5920 O   0  0  0  0  0  0  0  0  0  0  0  0
  144.8613  142.3107  156.1725 N   0  0  0  0  0  0  0  0  0  0  0  0
  145.1864  143.5652  155.4850 C   0  0  0  0  0  0  0  0  0  0  0  0
  145.7651  143.2740  154.0912 C   0  0  0  0  0  0  0  0  0  0  0  0
  146.9991  142.3471  154.0889 C   0  0  0  0  0  0  0  0  0  0  0  0
  146.7077  140.9636  154.4914 N   0  0  0  0  0  0  0  0  0  0  0  0
  147.5462  139.9893  153.7892 C   0  0  0  0  0  0  0  0  0  0  0  0
  148.8827  139.6707  154.4889 C   0  0  1  0  0  0  0  0  0  0  0  0
  149.6337  138.8202  153.6464 O   0  0  0  0  0  0  0  0  0  0  0  0
  149.7056  140.9408  154.7828 C   0  0  0  0  0  0  0  0  0  0  0  0
  150.7616  140.6967  155.7466 N   0  0  0  0  0  0  0  0  0  0  0  0
  151.6868  139.7183  155.7230 C   0  0  0  0  0  0  0  0  0  0  0  0
  152.5640  139.6876  156.7228 N   0  0  0  0  0  0  0  0  0  0  0  0
  152.1634  140.7758  157.4800 C   0  0  0  0  0  0  0  0  0  0  0  0
  152.6829  141.2995  158.6842 C   0  0  0  0  0  0  0  0  0  0  0  0
  152.1040  142.4386  159.2887 C   0  0  0  0  0  0  0  0  0  0  0  0
  152.6948  142.9685  160.5833 C   0  0  0  0  0  0  0  0  0  0  0  0
  150.9859  143.0717  158.6879 C   0  0  0  0  0  0  0  0  0  0  0  0
  150.3455  144.2961  159.3177 C   0  0  0  0  0  0  0  0  0  0  0  0
  150.4546  142.5610  157.4858 C   0  0  0  0  0  0  0  0  0  0  0  0
  151.0398  141.4280  156.8946 C   0  0  0  0  0  0  0  0  0  0  0  0
  146.8283  140.7694  155.9438 C   0  0  0  0  0  0  0  0  0  0  0  0
  146.0131  141.7127  156.8577 C   0  0  0  0  0  0  0  0  0  0  0  0
  142.3543  143.4235  155.6531 H   0  0  0  0  0  0  0  0  0  0  0  0
  141.6163  141.8621  155.3120 H   0  0  0  0  0  0  0  0  0  0  0  0
  142.8294  142.5068  154.2093 H   0  0  0  0  0  0  0  0  0  0  0  0
  144.3061  144.2034  155.3941 H   0  0  0  0  0  0  0  0  0  0  0  0
  145.8990  144.1535  156.0642 H   0  0  0  0  0  0  0  0  0  0  0  0
  144.9901  142.8401  153.4580 H   0  0  0  0  0  0  0  0  0  0  0  0
  146.0343  144.2210  153.6230 H   0  0  0  0  0  0  0  0  0  0  0  0
  147.3981  142.3694  153.0764 H   0  0  0  0  0  0  0  0  0  0  0  0
  147.7922  142.7637  154.7115 H   0  0  0  0  0  0  0  0  0  0  0  0
  146.9783  139.0700  153.6368 H   0  0  0  0  0  0  0  0  0  0  0  0
  147.7810  140.3618  152.7910 H   0  0  0  0  0  0  0  0  0  0  0  0
  148.7104  139.1250  155.4157 H   0  0  0  0  0  0  0  0  0  0  0  0
  149.5801  139.1518  152.7630 H   0  0  0  0  0  0  0  0  0  0  0  0
  150.1429  141.3414  153.8669 H   0  0  0  0  0  0  0  0  0  0  0  0
  149.0637  141.7238  155.1883 H   0  0  0  0  0  0  0  0  0  0  0  0
  151.7158  138.9859  154.9293 H   0  0  0  0  0  0  0  0  0  0  0  0
  153.5339  140.8168  159.1419 H   0  0  0  0  0  0  0  0  0  0  0  0
  153.0053  144.0069  160.4661 H   0  0  0  0  0  0  0  0  0  0  0  0
  153.5685  142.3913  160.8878 H   0  0  0  0  0  0  0  0  0  0  0  0
  151.9603  142.9142  161.3872 H   0  0  0  0  0  0  0  0  0  0  0  0
  149.4963  144.6469  158.7301 H   0  0  0  0  0  0  0  0  0  0  0  0
  151.0651  145.1123  159.3845 H   0  0  0  0  0  0  0  0  0  0  0  0
  149.9864  144.0663  160.3210 H   0  0  0  0  0  0  0  0  0  0  0  0
  149.6036  143.0316  157.0161 H   0  0  0  0  0  0  0  0  0  0  0  0
  146.5199  139.7491  156.1744 H   0  0  0  0  0  0  0  0  0  0  0  0
  147.8777  140.8260  156.2368 H   0  0  0  0  0  0  0  0  0  0  0  0
  146.6764  142.5006  157.2160 H   0  0  0  0  0  0  0  0  0  0  0  0
  145.7137  141.1900  157.7661 H   0  0  0  0  0  0  0  0  0  0  0  0
  1  2  1  0  0  0  0
  1 26  1  0  0  0  0
  1 27  1  0  0  0  0
  1 28  1  0  0  0  0
  2  3  2  0  0  0  0
  2  4  1  0  0  0  0
  4 25  1  0  0  0  0
  4  5  1  0  0  0  0
  5  6  1  0  0  0  0
  5 29  1  0  0  0  0
  5 30  1  0  0  0  0
  6  7  1  0  0  0  0
  6 31  1  0  0  0  0
  6 32  1  0  0  0  0
  7  8  1  0  0  0  0
  7 33  1  0  0  0  0
  7 34  1  0  0  0  0
  8  9  1  0  0  0  0
  8 24  1  0  0  0  0
  9 10  1  0  0  0  0
  9 35  1  0  0  0  0
  9 36  1  0  0  0  0
 10 11  1  0  0  0  0
 10 12  1  0  0  0  0
 10 37  1  0  0  0  0
 11 38  1  0  0  0  0
 12 13  1  0  0  0  0
 12 39  1  0  0  0  0
 12 40  1  0  0  0  0
 13 23  1  0  0  0  0
 13 14  1  0  0  0  0
 14 15  2  0  0  0  0
 14 41  1  0  0  0  0
 15 16  1  0  0  0  0
 16 23  2  0  0  0  0
 16 17  1  0  0  0  0
 17 18  2  0  0  0  0
 17 42  1  0  0  0  0
 18 19  1  0  0  0  0
 18 20  1  0  0  0  0
 19 43  1  0  0  0  0
 19 44  1  0  0  0  0
 19 45  1  0  0  0  0
 20 21  1  0  0  0  0
 20 22  2  0  0  0  0
 21 46  1  0  0  0  0
 21 47  1  0  0  0  0
 21 48  1  0  0  0  0
 22 23  1  0  0  0  0
 22 49  1  0  0  0  0
 24 25  1  0  0  0  0
 24 50  1  0  0  0  0
 24 51  1  0  0  0  0
 25 52  1  0  0  0  0
 25 53  1  0  0  0  0
M  END
> <s_m_source_file>
AV-unprocessed.smi

> <i_m_source_file_index>
1643

> <i_lp_mmshare_version>
43012

> <i_f3d_flags>
0

> <s_epik_input>
W0NIM11DKD1PKU4xW0NIMl1bQ0gyXVtDSDJdTihbQ0gyXVtDSDJdMSlbQ0gyXVtDQEhdKFtPSF0pW0NIMl1uKFtjSF1uMiljKGMyMylbY0hdYyhbQ0gzXSljKFtjSF0zKVtDSDNd

> <s_epik_cmdline>
J2VwaWtfcHl0aG9uJywgJy1waCcsICc3LjAnLCAnLXRuJywgJzgnLCAnLW1hJywgJzIwMCcsICctbWV0YWxfYmluZGluZycsICctaW1hZScsICc8aW5maWxlLm1hZT4nLCAnLW9tYWUnLCAnPG91dGZpbGUubWFlPic=

> <r_epik_Ionization_Penalty>
1.17666

> <r_epik_Ionization_Penalty_Charging>
0

> <r_epik_Ionization_Penalty_Neutral>
1.17666

> <r_epik_State_Penalty>
1.20405

> <r_epik_Charging_Adjusted_Penalty>
1.20405

> <i_epik_Tot_Q>
0

> <i_epik_Tot_abs_Q>
0

> <r_epik_Metal_State_Penalty>
1.13307

> <b_epik_Metal_Only>
0

> <s_lp_Force_Field>
OPLS_2005

> <r_lp_Energy>
45.5249

> <b_lp_Chiralities_Consistent>
1

> <s_lp_Variant>
AV-unprocessed.smi:1643-6

> <Gold.Version>
5.8.1

> <Gold.Id.Protein>
6NUR|6NUR_protein|mol2

> <Gold.PLP.Fitness>
49.7693

> <Gold.PLP.PLP>
-44.9031

> <Gold.PLP.part.hbond>
-2.5125

> <Gold.PLP.part.metal>
0.0000

> <Gold.PLP.part.buried>
-4.4741

> <Gold.PLP.part.nonpolar>
-36.5700

> <Gold.PLP.part.repulsive>
0.1694

> <Gold.PLP.ligand.clash>
0.1187

> <Gold.PLP.ligand.torsion>
0.5350

> <Gold.PLP.Chemscore.Hbond>
2.0000

> <Gold.PLP.Chemscore.CHOScore>
0.0000

> <Gold.PLP.Chemscore.Metal>
0.0000

> <Gold.Chemscore.Hbonds>
donor molecule, donor type, donor heavy atom, donor atom, acceptor molecule, acceptor atom, score
      L1  H    11    38       P1  7957  1.00
      P1  H  7997  8009       L1    15  1.00

> <Gold.PLP.Chemscore.Internal.Correction>
0.0550

> <Gold.Rescore>
     Score         DG    S(hbond)    S(metal)    S(lipo)     H(rot)  DE(clash)    DE(int)     intcor
     18.17     -18.79       1.88        0.00     105.21       2.07       0.12       0.50       ----

> <Gold.Chemscore.Fitness>
18.1653

> <Gold.Chemscore.DG>
-18.7866

> <Gold.Chemscore.ZeroCoef>
-5.4800

> <Gold.Chemscore.Hbond>
1.8814

> <Gold.Chemscore.Metal>
0.0000

> <Gold.Chemscore.Lipo>
105.2068

> <Gold.Chemscore.Internal_Hbond>
0.0000

> <Gold.Chemscore.DEClash>
0.1170

> <Gold.Chemscore.DEInternal>
0.5043

> <Gold.Chemscore.Rot>
2.0650

> <Gold.Chemscore.Internal.Correction>
   9.000000E+99

> <Gold.Chemscore.Hbonds>
donor molecule, donor type, donor heavy atom, donor atom, acceptor molecule, acceptor atom, score
      L1  H    11    38       P1  7957  0.98
      P1  H  7997  8009       L1    15  0.33

> <Gold.Chemscore.Hbond.Weighted>
-6.2839

> <Gold.Chemscore.Metal.Weighted>
-0.0000

> <Gold.Chemscore.Lipo.Weighted>
-12.3092

> <Gold.Chemscore.Internal_Hbond.Weighted>
0.0000

> <Gold.Chemscore.DEClash.Weighted>
0.1170

> <Gold.Chemscore.DEInternal.Weighted>
0.5043

> <Gold.Chemscore.Rot.Weighted>
5.2865

> <Gold.Chemscore.Internal.Correction.Weighted>
   9.000000E+99

> <Gold.Protein.RotatedTorsions>
[ 6907 6896 6895 6894 ] final  112.34 input  -60.11 | X-H torsion
[ 7974 7965 7964 7962 ] final  101.64 input  175.53 | X-H torsion
[ 8008 7997 7996 7995 ] final -159.37 input   59.86 | X-H torsion
[ 10167 10162 10161 10158 ] final   35.63 input  -65.29 | X-H torsion
[ 10718 10713 10712 10709 ] final  152.50 input   66.30 | X-H torsion
[ 10763 10752 10751 10750 ] final  -45.40 input  -60.55 | X-H torsion
[ 11005 11000 10999 10996 ] final   93.86 input  -57.11 | X-H torsion

> <Gold.Protein.ActiveResidues>
 VAL166  LYS551  ARG553  GLY616  TRP617  ASP618  TYR619  PRO620  LYS621  CYS622 
 ASP623  PHE694  ASN695  SER759  ASP760  ASP761  ALA762  ILE779  LEU786  VAL792 
 PHE793  MET794  SER795  GLU796  ALA797  LYS798  CYS799  TRP800  GLU811  SER814 

> <Gold.Protein.RotatedAtoms>
  152.4921  133.8530  159.7210 H   0  0  0  0  0  0  0  0  0  0  0  0  # atno 6907 bound_to 6896
  150.9062  133.7046  159.2873 H   0  0  0  0  0  0  0  0  0  0  0  0  # atno 6908 bound_to 6896
  151.4471  135.1030  159.9739 H   0  0  0  0  0  0  0  0  0  0  0  0  # atno 6909 bound_to 6896
  145.3696  139.2401  143.3462 H   0  0  0  0  0  0  0  0  0  0  0  0  # atno 7974 bound_to 7965
  155.7615  140.0840  157.2153 H   0  0  0  0  0  0  0  0  0  0  0  0  # atno 8008 bound_to 7997
  154.4003  140.1542  156.2895 H   0  0  0  0  0  0  0  0  0  0  0  0  # atno 8009 bound_to 7997
  155.8834  140.3419  155.5907 H   0  0  0  0  0  0  0  0  0  0  0  0  # atno 8010 bound_to 7997
  140.4204  144.1468  150.6147 H   0  0  0  0  0  0  0  0  0  0  0  0  # atno 10167 bound_to 10162
  157.2569  131.0790  151.1692 H   0  0  0  0  0  0  0  0  0  0  0  0  # atno 10718 bound_to 10713
  154.0279  135.6660  153.4778 H   0  0  0  0  0  0  0  0  0  0  0  0  # atno 10763 bound_to 10752
  153.0553  135.5060  154.7961 H   0  0  0  0  0  0  0  0  0  0  0  0  # atno 10764 bound_to 10752
  154.6897  135.3059  154.9463 H   0  0  0  0  0  0  0  0  0  0  0  0  # atno 10765 bound_to 10752
  139.8805  134.8813  156.3779 H   0  0  0  0  0  0  0  0  0  0  0  0  # atno 11005 bound_to 11000
  146.2891  140.4345  142.8746 LP  0  0  0  0  0  0  0  0  0  0  0  0  # atno 17320 bound_to 7965
  144.8586  140.7106  143.6122 LP  0  0  0  0  0  0  0  0  0  0  0  0  # atno 17321 bound_to 7965
  140.4540  143.2475  151.9309 LP  0  0  0  0  0  0  0  0  0  0  0  0  # atno 17342 bound_to 10162
  139.4782  144.5534  151.8351 LP  0  0  0  0  0  0  0  0  0  0  0  0  # atno 17343 bound_to 10162
  157.3217  130.6940  149.6273 LP  0  0  0  0  0  0  0  0  0  0  0  0  # atno 17370 bound_to 10713
  155.9665  130.4333  150.5001 LP  0  0  0  0  0  0  0  0  0  0  0  0  # atno 17371 bound_to 10713
  140.9419  133.7509  156.0158 LP  0  0  0  0  0  0  0  0  0  0  0  0  # atno 17394 bound_to 11000
  140.8209  134.3290  157.5382 LP  0  0  0  0  0  0  0  0  0  0  0  0  # atno 17395 bound_to 11000

$$$$
