AV-unprocessed.smi:1679|AV-procd|sdf|6736|dock10
  -GOLD-   22720 7483D 1   1.00000     0.00000
 Structure written by MMmdl.
 44 45  0  0  0  0  0  0  0  0  2 V2000
  152.9436  141.7149  161.7756 C   0  0  0  0  0  0  0  0  0  0  0  0
  152.2312  142.6925  160.8260 C   0  0  1  0  0  0  0  0  0  0  0  0
  152.1342  144.0945  161.4614 C   0  0  0  0  0  0  0  0  0  0  0  0
  151.4316  145.0946  160.5310 C   0  0  0  0  0  0  0  0  0  0  0  0
  152.1353  145.1673  159.1688 C   0  0  0  0  0  0  0  0  0  0  0  0
  152.2263  143.7780  158.5207 C   0  0  0  0  0  0  0  0  0  0  0  0
  152.9288  142.7637  159.4485 C   0  0  2  0  0  0  0  0  0  0  0  0
  152.8766  141.4648  158.8714 O   0  0  0  0  0  0  0  0  0  0  0  0
  151.5745  141.0246  158.5130 C   0  0  0  0  0  0  0  0  0  0  0  0
  151.5284  140.8033  156.9976 C   0  0  0  0  0  0  0  0  0  0  0  0
  150.6044  139.7271  156.6677 N   0  0  0  0  0  0  0  0  0  0  0  0
  150.3514  139.2953  155.4250 C   0  0  0  0  0  0  0  0  0  0  0  0
  150.9052  139.7573  154.4263 O   0  0  0  0  0  0  0  0  0  0  0  0
  149.3384  138.1481  155.3047 C   0  0  0  0  0  0  0  0  0  0  0  0
  149.8586  136.8637  155.8005 N   0  0  0  0  0  0  0  0  0  0  0  0
  150.1204  135.8557  154.8558 C   0  0  0  0  0  0  0  0  0  0  0  0
  150.5944  134.6483  155.2177 C   0  0  0  0  0  0  0  0  0  0  0  0
  150.8370  134.3979  156.6333 C   0  0  0  0  0  0  0  0  0  0  0  0
  151.2748  133.3030  156.9814 O   0  0  0  0  0  0  0  0  0  0  0  0
  150.5626  135.4059  157.5121 N   0  5  0  0  0  0  0  0  0  0  0  0
  150.0779  136.6283  157.1295 C   0  0  0  0  0  0  0  0  0  0  0  0
  149.8343  137.5234  157.9397 O   0  0  0  0  0  0  0  0  0  0  0  0
  153.9744  142.0197  161.9585 H   0  0  0  0  0  0  0  0  0  0  0  0
  152.9636  140.7046  161.3658 H   0  0  0  0  0  0  0  0  0  0  0  0
  152.4357  141.6640  162.7391 H   0  0  0  0  0  0  0  0  0  0  0  0
  151.2155  142.3239  160.6729 H   0  0  0  0  0  0  0  0  0  0  0  0
  151.5951  144.0382  162.4079 H   0  0  0  0  0  0  0  0  0  0  0  0
  153.1338  144.4616  161.6983 H   0  0  0  0  0  0  0  0  0  0  0  0
  150.3913  144.7974  160.3914 H   0  0  0  0  0  0  0  0  0  0  0  0
  151.4123  146.0821  160.9929 H   0  0  0  0  0  0  0  0  0  0  0  0
  151.5999  145.8510  158.5096 H   0  0  0  0  0  0  0  0  0  0  0  0
  153.1374  145.5790  159.2952 H   0  0  0  0  0  0  0  0  0  0  0  0
  151.2227  143.4221  158.2842 H   0  0  0  0  0  0  0  0  0  0  0  0
  152.7550  143.8611  157.5714 H   0  0  0  0  0  0  0  0  0  0  0  0
  153.9665  143.0661  159.6033 H   0  0  0  0  0  0  0  0  0  0  0  0
  151.3345  140.0933  159.0256 H   0  0  0  0  0  0  0  0  0  0  0  0
  150.8247  141.7619  158.8042 H   0  0  0  0  0  0  0  0  0  0  0  0
  151.2229  141.7193  156.4898 H   0  0  0  0  0  0  0  0  0  0  0  0
  152.5252  140.5490  156.6342 H   0  0  0  0  0  0  0  0  0  0  0  0
  150.1069  139.2977  157.4341 H   0  0  0  0  0  0  0  0  0  0  0  0
  148.4395  138.4317  155.8536 H   0  0  0  0  0  0  0  0  0  0  0  0
  149.0191  138.0465  154.2655 H   0  0  0  0  0  0  0  0  0  0  0  0
  149.9084  136.1204  153.8301 H   0  0  0  0  0  0  0  0  0  0  0  0
  150.7875  133.8838  154.4797 H   0  0  0  0  0  0  0  0  0  0  0  0
  1  2  1  0  0  0  0
  1 23  1  0  0  0  0
  1 24  1  0  0  0  0
  1 25  1  0  0  0  0
  2  7  1  0  0  0  0
  2  3  1  0  0  0  0
  2 26  1  0  0  0  0
  3  4  1  0  0  0  0
  3 27  1  0  0  0  0
  3 28  1  0  0  0  0
  4  5  1  0  0  0  0
  4 29  1  0  0  0  0
  4 30  1  0  0  0  0
  5  6  1  0  0  0  0
  5 31  1  0  0  0  0
  5 32  1  0  0  0  0
  6  7  1  0  0  0  0
  6 33  1  0  0  0  0
  6 34  1  0  0  0  0
  7  8  1  0  0  0  0
  7 35  1  0  0  0  0
  8  9  1  0  0  0  0
  9 10  1  0  0  0  0
  9 36  1  0  0  0  0
  9 37  1  0  0  0  0
 10 11  1  0  0  0  0
 10 38  1  0  0  0  0
 10 39  1  0  0  0  0
 11 12  1  0  0  0  0
 11 40  1  0  0  0  0
 12 13  2  0  0  0  0
 12 14  1  0  0  0  0
 14 15  1  0  0  0  0
 14 41  1  0  0  0  0
 14 42  1  0  0  0  0
 15 21  1  0  0  0  0
 15 16  1  0  0  0  0
 16 17  2  0  0  0  0
 16 43  1  0  0  0  0
 17 18  1  0  0  0  0
 17 44  1  0  0  0  0
 18 19  2  0  0  0  0
 18 20  1  0  0  0  0
 20 21  1  0  0  0  0
 21 22  2  0  0  0  0
M  CHG  1  20  -1
M  END
> <s_m_source_file>
AV-unprocessed.smi

> <i_m_source_file_index>
1679

> <i_lp_mmshare_version>
43012

> <i_f3d_flags>
0

> <s_epik_input>
W0NIM11bQ0BASF0xW0NIMl1bQ0gyXVtDSDJdW0NIMl1bQ0BIXTFPW0NIMl1bQ0gyXVtOSF1DKD1PKVtDSDJdbjJbY0hdW2NIXWMoPU8pW25IXWMyPU8=

> <s_epik_cmdline>
J2VwaWtfcHl0aG9uJywgJy1waCcsICc3LjAnLCAnLXRuJywgJzgnLCAnLW1hJywgJzIwMCcsICctbWV0YWxfYmluZGluZycsICctaW1hZScsICc8aW5maWxlLm1hZT4nLCAnLW9tYWUnLCAnPG91dGZpbGUubWFlPic=

> <r_lp_tautomer_probability>
0.999537

> <r_epik_Ionization_Penalty>
3.07454

> <r_epik_Ionization_Penalty_Charging>
2.80088e-08

> <r_epik_Ionization_Penalty_Neutral>
3.07454

> <r_epik_State_Penalty>
3.07357

> <r_epik_Charging_Adjusted_Penalty>
3.07357

> <i_epik_Tot_Q>
-1

> <i_epik_Tot_abs_Q>
1

> <r_epik_Metal_State_Penalty>
0.45948

> <b_epik_Metal_Only>
1

> <s_lp_Force_Field>
OPLS_2005

> <r_lp_Energy>
20.702

> <b_lp_Chiralities_Consistent>
1

> <s_lp_Variant>
AV-unprocessed.smi:1679-8

> <Gold.Version>
5.8.1

> <Gold.Id.Protein>
6NUR|6NUR_protein|mol2

> <Gold.PLP.Fitness>
51.5122

> <Gold.PLP.PLP>
-42.1536

> <Gold.PLP.part.hbond>
-3.0000

> <Gold.PLP.part.metal>
0.0000

> <Gold.PLP.part.buried>
-4.7931

> <Gold.PLP.part.nonpolar>
-35.1207

> <Gold.PLP.part.repulsive>
0.1585

> <Gold.PLP.ligand.clash>
0.0000

> <Gold.PLP.ligand.torsion>
0.8193

> <Gold.PLP.Chemscore.Hbond>
2.6388

> <Gold.PLP.Chemscore.CHOScore>
1.0000

> <Gold.PLP.Chemscore.Metal>
0.0000

> <Gold.Chemscore.Hbonds>
donor molecule, donor type, donor heavy atom, donor atom, acceptor molecule, acceptor atom, score
      P1  H  6896  6907       L1    19  0.24
      P1  H  6896  6908       L1    20  0.48
      P1  H  7989  7998       L1    13  1.00
      L1  C    16    43       P1  7948  0.90

> <Gold.PLP.Chemscore.Internal.Correction>
0.0809

> <Gold.Rescore>
     Score         DG    S(hbond)    S(metal)    S(lipo)     H(rot)  DE(clash)    DE(int)     intcor
     15.75     -18.20       1.80        0.00     110.85       2.45       0.13       2.33       ----

> <Gold.Chemscore.Fitness>
15.7474

> <Gold.Chemscore.DG>
-18.1986

> <Gold.Chemscore.ZeroCoef>
-5.4800

> <Gold.Chemscore.Hbond>
1.8019

> <Gold.Chemscore.Metal>
0.0000

> <Gold.Chemscore.Lipo>
110.8505

> <Gold.Chemscore.Internal_Hbond>
0.0000

> <Gold.Chemscore.DEClash>
0.1261

> <Gold.Chemscore.DEInternal>
2.3250

> <Gold.Chemscore.Rot>
2.4490

> <Gold.Chemscore.Internal.Correction>
   9.000000E+99

> <Gold.Chemscore.Hbonds>
donor molecule, donor type, donor heavy atom, donor atom, acceptor molecule, acceptor atom, score
      P1  H  6896  6907       L1    19  0.16
      P1  H  6896  6908       L1    20  0.19
      P1  H  7989  7998       L1    13  0.99

> <Gold.Chemscore.Hbond.Weighted>
-6.0184

> <Gold.Chemscore.Metal.Weighted>
-0.0000

> <Gold.Chemscore.Lipo.Weighted>
-12.9695

> <Gold.Chemscore.Internal_Hbond.Weighted>
0.0000

> <Gold.Chemscore.DEClash.Weighted>
0.1261

> <Gold.Chemscore.DEInternal.Weighted>
2.3250

> <Gold.Chemscore.Rot.Weighted>
6.2694

> <Gold.Chemscore.Internal.Correction.Weighted>
   9.000000E+99

> <Gold.Protein.RotatedTorsions>
[ 6907 6896 6895 6894 ] final -175.18 input  -60.11 | X-H torsion
[ 7974 7965 7964 7962 ] final   98.21 input  175.53 | X-H torsion
[ 8008 7997 7996 7995 ] final  165.17 input   59.86 | X-H torsion
[ 10167 10162 10161 10158 ] final  -79.89 input  -65.29 | X-H torsion
[ 10718 10713 10712 10709 ] final   26.80 input   66.30 | X-H torsion
[ 10763 10752 10751 10750 ] final   59.46 input  -60.55 | X-H torsion
[ 11005 11000 10999 10996 ] final  106.59 input  -57.11 | X-H torsion

> <Gold.Protein.ActiveResidues>
 VAL166  LYS551  ARG553  GLY616  TRP617  ASP618  TYR619  PRO620  LYS621  CYS622 
 ASP623  PHE694  ASN695  SER759  ASP760  ASP761  ALA762  ILE779  LEU786  VAL792 
 PHE793  MET794  SER795  GLU796  ALA797  LYS798  CYS799  TRP800  GLU811  SER814 

> <Gold.Protein.RotatedAtoms>
  151.5844  133.3374  159.3014 H   0  0  0  0  0  0  0  0  0  0  0  0  # atno 6907 bound_to 6896
  150.8295  134.7545  159.6853 H   0  0  0  0  0  0  0  0  0  0  0  0  # atno 6908 bound_to 6896
  152.4381  134.5653  159.9957 H   0  0  0  0  0  0  0  0  0  0  0  0  # atno 6909 bound_to 6896
  145.4152  139.2328  143.3226 H   0  0  0  0  0  0  0  0  0  0  0  0  # atno 7974 bound_to 7965
  156.1822  140.1677  156.8252 H   0  0  0  0  0  0  0  0  0  0  0  0  # atno 8008 bound_to 7997
  154.5373  140.0744  156.8482 H   0  0  0  0  0  0  0  0  0  0  0  0  # atno 8009 bound_to 7997
  155.3285  140.3377  155.4242 H   0  0  0  0  0  0  0  0  0  0  0  0  # atno 8010 bound_to 7997
  140.4553  143.2470  151.8429 H   0  0  0  0  0  0  0  0  0  0  0  0  # atno 10167 bound_to 10162
  157.2116  130.6937  149.6231 H   0  0  0  0  0  0  0  0  0  0  0  0  # atno 10718 bound_to 10713
  152.9895  135.5571  154.5717 H   0  0  0  0  0  0  0  0  0  0  0  0  # atno 10763 bound_to 10752
  154.5116  135.2802  155.1340 H   0  0  0  0  0  0  0  0  0  0  0  0  # atno 10764 bound_to 10752
  154.2729  135.6359  153.5370 H   0  0  0  0  0  0  0  0  0  0  0  0  # atno 10765 bound_to 10752
  139.8816  134.9374  156.5690 H   0  0  0  0  0  0  0  0  0  0  0  0  # atno 11005 bound_to 11000
  146.2685  140.4869  142.8824 LP  0  0  0  0  0  0  0  0  0  0  0  0  # atno 17320 bound_to 7965
  144.8282  140.6664  143.6308 LP  0  0  0  0  0  0  0  0  0  0  0  0  # atno 17321 bound_to 7965
  139.4800  144.5072  151.8981 LP  0  0  0  0  0  0  0  0  0  0  0  0  # atno 17342 bound_to 10162
  140.4159  144.2308  150.5888 LP  0  0  0  0  0  0  0  0  0  0  0  0  # atno 17343 bound_to 10162
  155.9690  130.4549  150.5868 LP  0  0  0  0  0  0  0  0  0  0  0  0  # atno 17370 bound_to 10713
  157.3666  131.0758  151.1592 LP  0  0  0  0  0  0  0  0  0  0  0  0  # atno 17371 bound_to 10713
  140.8112  133.8427  155.8812 LP  0  0  0  0  0  0  0  0  0  0  0  0  # atno 17394 bound_to 11000
  140.9504  134.1786  157.4732 LP  0  0  0  0  0  0  0  0  0  0  0  0  # atno 17395 bound_to 11000

$$$$
