AV-unprocessed.smi:1383|AV-procd|sdf|5625|dock3
  -GOLD-   22720 5243D 1   1.00000     0.00000
 Structure written by MMmdl.
 30 30  0  0  0  0  0  0  0  0  2 V2000
  146.0399  135.9057  161.8805 C   0  0  0  0  0  0  0  0  0  0  0  0
  146.0584  134.6140  161.0482 C   0  0  0  0  0  0  0  0  0  0  0  0
  146.1872  134.8420  159.5251 C   0  0  1  0  0  0  0  0  0  0  0  0
  144.8488  135.2934  158.9156 C   0  0  0  0  0  0  0  0  0  0  0  0
  147.2899  135.8640  159.1873 C   0  0  0  0  0  0  0  0  0  0  0  0
  147.1541  137.0367  159.5424 O   0  0  0  0  0  0  0  0  0  0  0  0
  148.3184  135.3010  158.5079 N   0  5  0  0  0  0  0  0  0  0  0  0
  148.5500  135.6649  157.2373 C   0  0  0  0  0  0  0  0  0  0  0  0
  149.7244  136.1518  156.8220 N   0  0  0  0  0  0  0  0  0  0  0  0
  149.7547  136.4560  155.4578 C   0  0  0  0  0  0  0  0  0  0  0  0
  151.0046  137.0159  154.8419 C   0  0  0  0  0  0  0  0  0  0  0  0
  150.7100  138.3367  154.1265 C   0  0  0  0  0  0  0  0  0  0  0  0
  150.0143  138.2742  152.9874 N   0  0  0  0  0  0  0  0  0  0  0  0
  151.1156  139.4006  154.5902 O   0  0  0  0  0  0  0  0  0  0  0  0
  148.5680  136.1917  154.8234 C   0  0  0  0  0  0  0  0  0  0  0  0
  147.3820  135.5436  155.9201 S   0  0  0  0  0  0  0  0  0  0  0  0
  146.0044  135.6779  162.9459 H   0  0  0  0  0  0  0  0  0  0  0  0
  145.1713  136.5229  161.6484 H   0  0  0  0  0  0  0  0  0  0  0  0
  146.9336  136.5029  161.6975 H   0  0  0  0  0  0  0  0  0  0  0  0
  146.8963  134.0030  161.3853 H   0  0  0  0  0  0  0  0  0  0  0  0
  145.1614  134.0323  161.2652 H   0  0  0  0  0  0  0  0  0  0  0  0
  146.4300  133.8779  159.0722 H   0  0  0  0  0  0  0  0  0  0  0  0
  144.9398  135.4626  157.8419 H   0  0  0  0  0  0  0  0  0  0  0  0
  144.4926  136.2184  159.3704 H   0  0  0  0  0  0  0  0  0  0  0  0
  144.0786  134.5355  159.0615 H   0  0  0  0  0  0  0  0  0  0  0  0
  151.7642  137.1813  155.6069 H   0  0  0  0  0  0  0  0  0  0  0  0
  151.4366  136.3133  154.1283 H   0  0  0  0  0  0  0  0  0  0  0  0
  149.8175  139.1222  152.4743 H   0  0  0  0  0  0  0  0  0  0  0  0
  149.7065  137.3805  152.6333 H   0  0  0  0  0  0  0  0  0  0  0  0
  148.3220  136.3333  153.7819 H   0  0  0  0  0  0  0  0  0  0  0  0
  1  2  1  0  0  0  0
  1 17  1  0  0  0  0
  1 18  1  0  0  0  0
  1 19  1  0  0  0  0
  2  3  1  0  0  0  0
  2 20  1  0  0  0  0
  2 21  1  0  0  0  0
  3  4  1  0  0  0  0
  3  5  1  0  0  0  0
  3 22  1  0  0  0  0
  4 23  1  0  0  0  0
  4 24  1  0  0  0  0
  4 25  1  0  0  0  0
  5  6  2  0  0  0  0
  5  7  1  0  0  0  0
  7  8  1  0  0  0  0
  8 16  1  0  0  0  0
  8  9  2  0  0  0  0
  9 10  1  0  0  0  0
 10 11  1  0  0  0  0
 10 15  2  0  0  0  0
 11 12  1  0  0  0  0
 11 26  1  0  0  0  0
 11 27  1  0  0  0  0
 12 13  1  0  0  0  0
 12 14  2  0  0  0  0
 13 28  1  0  0  0  0
 13 29  1  0  0  0  0
 15 16  1  0  0  0  0
 15 30  1  0  0  0  0
M  CHG  1   7  -1
M  END
> <s_m_source_file>
AV-unprocessed.smi

> <i_m_source_file_index>
1383

> <i_lp_mmshare_version>
43012

> <i_f3d_flags>
0

> <s_epik_input>
W0NIM11bQ0gyXVtDQEhdKFtDSDNdKUMoPU8pW05IXWMxbmMoW2NIXXMxKVtDSDJdQyg9TylbTkgyXQ==

> <s_epik_cmdline>
J2VwaWtfcHl0aG9uJywgJy1waCcsICc3LjAnLCAnLXRuJywgJzgnLCAnLW1hJywgJzIwMCcsICctbWV0YWxfYmluZGluZycsICctaW1hZScsICc8aW5maWxlLm1hZT4nLCAnLW9tYWUnLCAnPG91dGZpbGUubWFlPic=

> <r_lp_tautomer_probability>
1

> <r_epik_Ionization_Penalty>
5.3563

> <r_epik_Ionization_Penalty_Charging>
4.90463

> <r_epik_Ionization_Penalty_Neutral>
0.451677

> <r_epik_State_Penalty>
4.90447

> <r_epik_Charging_Adjusted_Penalty>
9.8091

> <i_epik_Tot_Q>
-1

> <i_epik_Tot_abs_Q>
1

> <r_epik_Metal_State_Penalty>
1.05508

> <b_epik_Metal_Only>
1

> <s_lp_Force_Field>
OPLS_2005

> <r_lp_Energy>
-0.48596

> <b_lp_Chiralities_Consistent>
1

> <s_lp_Variant>
AV-unprocessed.smi:1383-4

> <Gold.Version>
5.8.1

> <Gold.Id.Protein>
6NUR|6NUR_protein|mol2

> <Gold.PLP.Fitness>
44.7037

> <Gold.PLP.PLP>
-26.5995

> <Gold.PLP.part.hbond>
-6.2943

> <Gold.PLP.part.metal>
0.0000

> <Gold.PLP.part.buried>
-3.6326

> <Gold.PLP.part.nonpolar>
-16.5493

> <Gold.PLP.part.repulsive>
0.1741

> <Gold.PLP.ligand.clash>
0.0000

> <Gold.PLP.ligand.torsion>
1.4437

> <Gold.PLP.Chemscore.Hbond>
6.0757

> <Gold.PLP.Chemscore.CHOScore>
0.8492

> <Gold.PLP.Chemscore.Metal>
0.0000

> <Gold.Chemscore.Hbonds>
donor molecule, donor type, donor heavy atom, donor atom, acceptor molecule, acceptor atom, score
      L1  H    13    28       P1  7957  1.00
      L1  H    13    29       P1  7948  0.99
      P1  H  6934  6947       L1     6  0.05
      P1  H  7989  7998       L1    14  1.00
      L1  C    15    30       P1  7948  0.97

> <Gold.PLP.Chemscore.Internal.Correction>
0.2167

> <Gold.Rescore>
     Score         DG    S(hbond)    S(metal)    S(lipo)     H(rot)  DE(clash)    DE(int)     intcor
     19.49     -20.87       4.80        0.00      41.49       2.15       0.02       1.36       ----

> <Gold.Chemscore.Fitness>
19.4922

> <Gold.Chemscore.DG>
-20.8674

> <Gold.Chemscore.ZeroCoef>
-5.4800

> <Gold.Chemscore.Hbond>
4.8039

> <Gold.Chemscore.Metal>
0.0000

> <Gold.Chemscore.Lipo>
41.4918

> <Gold.Chemscore.Internal_Hbond>
0.0000

> <Gold.Chemscore.DEClash>
0.0156

> <Gold.Chemscore.DEInternal>
1.3596

> <Gold.Chemscore.Rot>
2.1532

> <Gold.Chemscore.Internal.Correction>
   9.000000E+99

> <Gold.Chemscore.Hbonds>
donor molecule, donor type, donor heavy atom, donor atom, acceptor molecule, acceptor atom, score
      L1  H    13    28       P1  7957  0.79
      L1  H    13    29       P1  7948  0.28
      P1  H  6934  6947       L1     6  0.09
      P1  H  7989  7998       L1    14  0.99

> <Gold.Chemscore.Hbond.Weighted>
-16.0451

> <Gold.Chemscore.Metal.Weighted>
-0.0000

> <Gold.Chemscore.Lipo.Weighted>
-4.8545

> <Gold.Chemscore.Internal_Hbond.Weighted>
0.0000

> <Gold.Chemscore.DEClash.Weighted>
0.0156

> <Gold.Chemscore.DEInternal.Weighted>
1.3596

> <Gold.Chemscore.Rot.Weighted>
5.5123

> <Gold.Chemscore.Internal.Correction.Weighted>
   9.000000E+99

> <Gold.Protein.RotatedTorsions>
[ 6907 6896 6895 6894 ] final  173.52 input  -60.11 | X-H torsion
[ 7974 7965 7964 7962 ] final   69.72 input  175.53 | X-H torsion
[ 8008 7997 7996 7995 ] final  148.98 input   59.86 | X-H torsion
[ 10167 10162 10161 10158 ] final  -81.09 input  -65.29 | X-H torsion
[ 10718 10713 10712 10709 ] final   63.38 input   66.30 | X-H torsion
[ 10763 10752 10751 10750 ] final  -97.81 input  -60.55 | X-H torsion
[ 11005 11000 10999 10996 ] final   35.28 input  -57.11 | X-H torsion

> <Gold.Protein.ActiveResidues>
 VAL166  LYS551  ARG553  GLY616  TRP617  ASP618  TYR619  PRO620  LYS621  CYS622 
 ASP623  PHE694  ASN695  SER759  ASP760  ASP761  ALA762  ILE779  LEU786  VAL792 
 PHE793  MET794  SER795  GLU796  ALA797  LYS798  CYS799  TRP800  GLU811  SER814 

> <Gold.Protein.RotatedAtoms>
  151.7670  133.3338  159.3433 H   0  0  0  0  0  0  0  0  0  0  0  0  # atno 6907 bound_to 6896
  150.7476  134.6053  159.6067 H   0  0  0  0  0  0  0  0  0  0  0  0  # atno 6908 bound_to 6896
  152.3367  134.7191  160.0326 H   0  0  0  0  0  0  0  0  0  0  0  0  # atno 6909 bound_to 6896
  145.7870  139.2915  143.1232 H   0  0  0  0  0  0  0  0  0  0  0  0  # atno 7974 bound_to 7965
  156.2772  140.2114  156.5785 H   0  0  0  0  0  0  0  0  0  0  0  0  # atno 8008 bound_to 7997
  154.7078  140.0515  157.0544 H   0  0  0  0  0  0  0  0  0  0  0  0  # atno 8009 bound_to 7997
  155.0646  140.3170  155.4652 H   0  0  0  0  0  0  0  0  0  0  0  0  # atno 8010 bound_to 7997
  140.4444  143.2504  151.8580 H   0  0  0  0  0  0  0  0  0  0  0  0  # atno 10167 bound_to 10162
  157.5967  130.9102  149.9708 H   0  0  0  0  0  0  0  0  0  0  0  0  # atno 10718 bound_to 10713
  154.7360  135.5032  153.9043 H   0  0  0  0  0  0  0  0  0  0  0  0  # atno 10763 bound_to 10752
  153.0996  135.6681  153.9706 H   0  0  0  0  0  0  0  0  0  0  0  0  # atno 10764 bound_to 10752
  153.9495  135.3059  155.3418 H   0  0  0  0  0  0  0  0  0  0  0  0  # atno 10765 bound_to 10752
  140.2442  134.3379  155.7914 H   0  0  0  0  0  0  0  0  0  0  0  0  # atno 11005 bound_to 11000
  146.0016  140.8515  143.0016 LP  0  0  0  0  0  0  0  0  0  0  0  0  # atno 17320 bound_to 7965
  144.6787  140.2360  143.7349 LP  0  0  0  0  0  0  0  0  0  0  0  0  # atno 17321 bound_to 7965
  139.4792  144.5193  151.8824 LP  0  0  0  0  0  0  0  0  0  0  0  0  # atno 17342 bound_to 10162
  140.4281  144.2153  150.5887 LP  0  0  0  0  0  0  0  0  0  0  0  0  # atno 17343 bound_to 10162
  156.1031  130.3654  150.0182 LP  0  0  0  0  0  0  0  0  0  0  0  0  # atno 17370 bound_to 10713
  156.8294  130.9387  151.3638 LP  0  0  0  0  0  0  0  0  0  0  0  0  # atno 17371 bound_to 10713
  141.2208  133.7316  156.8934 LP  0  0  0  0  0  0  0  0  0  0  0  0  # atno 17394 bound_to 11000
  140.1622  134.9157  157.2729 LP  0  0  0  0  0  0  0  0  0  0  0  0  # atno 17395 bound_to 11000

$$$$
