AV-unprocessed.smi:193|AV-procd|sdf|1507|dock10
  -GOLD-   2262019343D 1   1.00000     0.00000
 Structure written by MMmdl.
 62 66  0  0  0  0  0  0  0  0  2 V2000
  146.9174  128.0077  153.4461 C   0  0  0  0  0  0  0  0  0  0  0  0
  146.7026  129.5290  153.3939 C   0  0  1  0  0  0  0  0  0  0  0  0
  147.9099  130.2401  154.0403 C   0  0  0  0  0  0  0  0  0  0  0  0
  147.6269  131.5936  154.5228 N   0  0  0  0  0  0  0  0  0  0  0  0
  148.4857  132.1432  155.4212 C   0  0  0  0  0  0  0  0  0  0  0  0
  148.5450  131.6270  156.6776 N   0  0  0  0  0  0  0  0  0  0  0  0
  149.3906  132.1346  157.5791 C   0  0  0  0  0  0  0  0  0  0  0  0
  150.2518  133.1435  157.4390 N   0  0  0  0  0  0  0  0  0  0  0  0
  150.1895  133.6761  156.1854 C   0  0  0  0  0  0  0  0  0  0  0  0
  149.3417  133.2440  155.1261 C   0  0  0  0  0  0  0  0  0  0  0  0
  149.5484  134.0396  154.0045 N   0  0  0  0  0  0  0  0  0  0  0  0
  150.4743  134.8816  154.3747 C   0  0  0  0  0  0  0  0  0  0  0  0
  150.9237  134.7279  155.6663 N   0  0  0  0  0  0  0  0  0  0  0  0
  151.9488  135.5181  156.3315 C   0  0  0  0  0  0  0  0  0  0  0  0
  151.6513  137.0378  156.3524 C   0  0  0  0  0  0  0  0  0  0  0  0
  150.3537  137.2137  156.8958 O   0  0  0  0  0  0  0  0  0  0  0  0
  152.6610  137.7727  157.2568 C   0  0  0  0  0  0  0  0  0  0  0  0
  152.5079  139.3019  157.1752 C   0  0  0  0  0  0  0  0  0  0  0  0
  152.6190  139.7303  155.8237 O   0  0  0  0  0  0  0  0  0  0  0  0
  151.5902  139.2047  154.9939 C   0  0  0  0  0  0  0  0  0  0  0  0
  151.6819  137.6692  154.9431 C   0  0  0  0  0  0  0  0  0  0  0  0
  146.6921  132.4886  153.8412 C   0  0  0  0  0  0  0  0  0  0  0  0
  146.7672  132.4004  152.3112 C   0  0  0  0  0  0  0  0  0  0  0  0
  145.8942  131.3207  151.7919 N   0  3  1  0  0  0  0  0  0  0  0  0
  145.4617  131.5793  150.3982 C   0  0  2  0  0  0  0  0  0  0  0  0
  145.3171  133.0474  150.0640 C   0  0  0  0  0  0  0  0  0  0  0  0
  144.0811  132.1960  150.2525 C   0  0  2  0  0  0  0  0  0  0  0  0
  143.1490  132.4566  151.4220 C   0  0  0  0  0  0  0  0  0  0  0  0
  146.4907  129.9693  151.9287 C   0  0  0  0  0  0  0  0  0  0  0  0
  147.8074  127.7133  152.8887 H   0  0  0  0  0  0  0  0  0  0  0  0
  146.0670  127.4723  153.0228 H   0  0  0  0  0  0  0  0  0  0  0  0
  147.0380  127.6615  154.4731 H   0  0  0  0  0  0  0  0  0  0  0  0
  145.8015  129.7389  153.9723 H   0  0  0  0  0  0  0  0  0  0  0  0
  148.2375  129.6530  154.8998 H   0  0  0  0  0  0  0  0  0  0  0  0
  148.7527  130.2631  153.3480 H   0  0  0  0  0  0  0  0  0  0  0  0
  149.3765  131.6636  158.5513 H   0  0  0  0  0  0  0  0  0  0  0  0
  150.8626  135.6399  153.7102 H   0  0  0  0  0  0  0  0  0  0  0  0
  152.0654  135.1396  157.3481 H   0  0  0  0  0  0  0  0  0  0  0  0
  152.8989  135.3312  155.8295 H   0  0  0  0  0  0  0  0  0  0  0  0
  150.0566  138.0859  156.6869 H   0  0  0  0  0  0  0  0  0  0  0  0
  152.5625  137.4408  158.2912 H   0  0  0  0  0  0  0  0  0  0  0  0
  153.6748  137.5134  156.9490 H   0  0  0  0  0  0  0  0  0  0  0  0
  151.5544  139.6262  157.5950 H   0  0  0  0  0  0  0  0  0  0  0  0
  153.2900  139.7855  157.7607 H   0  0  0  0  0  0  0  0  0  0  0  0
  150.6135  139.5282  155.3568 H   0  0  0  0  0  0  0  0  0  0  0  0
  151.7052  139.6167  153.9912 H   0  0  0  0  0  0  0  0  0  0  0  0
  152.6141  137.3947  154.4480 H   0  0  0  0  0  0  0  0  0  0  0  0
  150.8774  137.2753  154.3207 H   0  0  0  0  0  0  0  0  0  0  0  0
  145.6777  132.3019  154.1956 H   0  0  0  0  0  0  0  0  0  0  0  0
  146.9194  133.5212  154.1070 H   0  0  0  0  0  0  0  0  0  0  0  0
  146.4065  133.3521  151.9191 H   0  0  0  0  0  0  0  0  0  0  0  0
  147.7928  132.2983  151.9527 H   0  0  0  0  0  0  0  0  0  0  0  0
  145.8426  130.8891  149.6471 H   0  0  0  0  0  0  0  0  0  0  0  0
  145.5514  133.7771  150.8373 H   0  0  0  0  0  0  0  0  0  0  0  0
  145.5556  133.3574  149.0487 H   0  0  0  0  0  0  0  0  0  0  0  0
  143.5508  131.9263  149.3413 H   0  0  0  0  0  0  0  0  0  0  0  0
  143.6958  132.8076  152.2976 H   0  0  0  0  0  0  0  0  0  0  0  0
  142.6114  131.5458  151.6855 H   0  0  0  0  0  0  0  0  0  0  0  0
  142.4189  133.2189  151.1495 H   0  0  0  0  0  0  0  0  0  0  0  0
  147.4269  129.9169  151.3705 H   0  0  0  0  0  0  0  0  0  0  0  0
  145.8156  129.2608  151.4476 H   0  0  0  0  0  0  0  0  0  0  0  0
  145.0525  131.3331  152.3502 H   0  0  0  0  0  0  0  0  0  0  0  0
  1  2  1  0  0  0  0
  1 30  1  0  0  0  0
  1 31  1  0  0  0  0
  1 32  1  0  0  0  0
  2 29  1  0  0  0  0
  2  3  1  0  0  0  0
  2 33  1  0  0  0  0
  3  4  1  0  0  0  0
  3 34  1  0  0  0  0
  3 35  1  0  0  0  0
  4  5  1  0  0  0  0
  4 22  1  0  0  0  0
  5 10  1  0  0  0  0
  5  6  2  0  0  0  0
  6  7  1  0  0  0  0
  7  8  2  0  0  0  0
  7 36  1  0  0  0  0
  8  9  1  0  0  0  0
  9 13  1  0  0  0  0
  9 10  2  0  0  0  0
 10 11  1  0  0  0  0
 11 12  2  0  0  0  0
 12 13  1  0  0  0  0
 12 37  1  0  0  0  0
 13 14  1  0  0  0  0
 14 15  1  0  0  0  0
 14 38  1  0  0  0  0
 14 39  1  0  0  0  0
 15 21  1  0  0  0  0
 15 16  1  0  0  0  0
 15 17  1  0  0  0  0
 16 40  1  0  0  0  0
 17 18  1  0  0  0  0
 17 41  1  0  0  0  0
 17 42  1  0  0  0  0
 18 19  1  0  0  0  0
 18 43  1  0  0  0  0
 18 44  1  0  0  0  0
 19 20  1  0  0  0  0
 20 21  1  0  0  0  0
 20 45  1  0  0  0  0
 20 46  1  0  0  0  0
 21 47  1  0  0  0  0
 21 48  1  0  0  0  0
 22 23  1  0  0  0  0
 22 49  1  0  0  0  0
 22 50  1  0  0  0  0
 23 24  1  0  0  0  0
 23 51  1  0  0  0  0
 23 52  1  0  0  0  0
 24 25  1  0  0  0  0
 24 29  1  0  0  0  0
 24 62  1  0  0  0  0
 25 27  1  0  0  0  0
 25 26  1  0  0  0  0
 25 53  1  0  0  0  0
 26 27  1  0  0  0  0
 26 54  1  0  0  0  0
 26 55  1  0  0  0  0
 27 28  1  0  0  0  0
 27 56  1  0  0  0  0
 28 57  1  0  0  0  0
 28 58  1  0  0  0  0
 28 59  1  0  0  0  0
 29 60  1  0  0  0  0
 29 61  1  0  0  0  0
M  CHG  1  24   1
M  END
> <s_m_source_file>
AV-unprocessed.smi

> <i_m_source_file_index>
193

> <i_lp_mmshare_version>
43012

> <i_f3d_flags>
0

> <s_epik_input>
W0NIM11bQ0BASF0xW0NIMl1bQ0BIXTFOKFtDSDJdMilbQ0gyXVtDSDJdTihbQ0gyXVtDQEhdMltDSDNdKWMobltjSF1uMyljKGMzNCluW2NIXW40W0NIMl1DNShbT0hdKVtDSDJdW0NIMl1PW0NIMl1bQ0gyXTU=

> <s_epik_cmdline>
J2VwaWtfcHl0aG9uJywgJy1waCcsICc3LjAnLCAnLXRuJywgJzgnLCAnLW1hJywgJzIwMCcsICctbWV0YWxfYmluZGluZycsICctaW1hZScsICc8aW5maWxlLm1hZT4nLCAnLW9tYWUnLCAnPG91dGZpbGUubWFlPic=

> <r_lp_tautomer_probability>
1

> <r_epik_Ionization_Penalty>
0.0540825

> <r_epik_Ionization_Penalty_Charging>
0.0538476

> <r_epik_Ionization_Penalty_Neutral>
0.000234891

> <r_epik_State_Penalty>
0.0200719

> <r_epik_Charging_Adjusted_Penalty>
0.0739194

> <i_epik_Tot_Q>
1

> <i_epik_Tot_abs_Q>
1

> <r_epik_Metal_State_Penalty>
0.0199414

> <b_epik_Metal_Only>
0

> <s_lp_Force_Field>
OPLS_2005

> <r_lp_Energy>
56.3109

> <b_lp_Chiralities_Consistent>
1

> <s_lp_Variant>
AV-unprocessed.smi:193-12

> <Gold.Version>
5.8.1

> <Gold.Id.Protein>
6NUR|6NUR_protein|mol2

> <Gold.PLP.Fitness>
43.0404

> <Gold.PLP.PLP>
-37.7035

> <Gold.PLP.part.hbond>
-2.0000

> <Gold.PLP.part.metal>
0.0000

> <Gold.PLP.part.buried>
-4.2521

> <Gold.PLP.part.nonpolar>
-32.1798

> <Gold.PLP.part.repulsive>
0.1780

> <Gold.PLP.ligand.clash>
0.0000

> <Gold.PLP.ligand.torsion>
2.0420

> <Gold.PLP.Chemscore.Hbond>
2.0000

> <Gold.PLP.Chemscore.CHOScore>
0.6864

> <Gold.PLP.Chemscore.Metal>
0.0000

> <Gold.Chemscore.Hbonds>
donor molecule, donor type, donor heavy atom, donor atom, acceptor molecule, acceptor atom, score
      P1  H  6896  6908       L1     8  1.00
      P1  H  7997  8009       L1    19  0.35
      L1  C    12    37       P1  7949  0.68

> <Gold.PLP.Chemscore.Internal.Correction>
1.3617

> <Gold.Rescore>
     Score         DG    S(hbond)    S(metal)    S(lipo)     H(rot)  DE(clash)    DE(int)     intcor
     16.79     -19.19       1.94        0.00     103.84       1.93       0.20       2.20       ----

> <Gold.Chemscore.Fitness>
16.7880

> <Gold.Chemscore.DG>
-19.1873

> <Gold.Chemscore.ZeroCoef>
-5.4800

> <Gold.Chemscore.Hbond>
1.9449

> <Gold.Chemscore.Metal>
0.0000

> <Gold.Chemscore.Lipo>
103.8428

> <Gold.Chemscore.Internal_Hbond>
0.0000

> <Gold.Chemscore.DEClash>
0.1961

> <Gold.Chemscore.DEInternal>
2.2032

> <Gold.Chemscore.Rot>
1.9290

> <Gold.Chemscore.Internal.Correction>
   9.000000E+99

> <Gold.Chemscore.Hbonds>
donor molecule, donor type, donor heavy atom, donor atom, acceptor molecule, acceptor atom, score
      P1  H  6896  6908       L1     8  0.66
      P1  H  7997  8009       L1    19  0.01

> <Gold.Chemscore.Hbond.Weighted>
-6.4960

> <Gold.Chemscore.Metal.Weighted>
-0.0000

> <Gold.Chemscore.Lipo.Weighted>
-12.1496

> <Gold.Chemscore.Internal_Hbond.Weighted>
0.0000

> <Gold.Chemscore.DEClash.Weighted>
0.1961

> <Gold.Chemscore.DEInternal.Weighted>
2.2032

> <Gold.Chemscore.Rot.Weighted>
4.9383

> <Gold.Chemscore.Internal.Correction.Weighted>
   9.000000E+99

> <Gold.Protein.RotatedTorsions>
[ 6907 6896 6895 6894 ] final  118.54 input  -60.11 | X-H torsion
[ 7974 7965 7964 7962 ] final   67.91 input  175.53 | X-H torsion
[ 8008 7997 7996 7995 ] final -155.30 input   59.86 | X-H torsion
[ 10167 10162 10161 10158 ] final   48.12 input  -65.29 | X-H torsion
[ 10718 10713 10712 10709 ] final -117.19 input   66.30 | X-H torsion
[ 10763 10752 10751 10750 ] final   30.48 input  -60.55 | X-H torsion
[ 11005 11000 10999 10996 ] final  106.68 input  -57.11 | X-H torsion

> <Gold.Protein.ActiveResidues>
 VAL166  LYS551  ARG553  GLY616  TRP617  ASP618  TYR619  PRO620  LYS621  CYS622 
 ASP623  PHE694  ASN695  SER759  ASP760  ASP761  ALA762  ILE779  LEU786  VAL792 
 PHE793  MET794  SER795  GLU796  ALA797  LYS798  CYS799  TRP800  GLU811  SER814 

> <Gold.Protein.RotatedAtoms>
  152.4536  133.7678  159.6781 H   0  0  0  0  0  0  0  0  0  0  0  0  # atno 6907 bound_to 6896
  150.8455  133.7858  159.3051 H   0  0  0  0  0  0  0  0  0  0  0  0  # atno 6908 bound_to 6896
  151.5470  135.1070  159.9992 H   0  0  0  0  0  0  0  0  0  0  0  0  # atno 6909 bound_to 6896
  145.8089  139.3022  143.1111 H   0  0  0  0  0  0  0  0  0  0  0  0  # atno 7974 bound_to 7965
  155.6997  140.0765  157.2415 H   0  0  0  0  0  0  0  0  0  0  0  0  # atno 8008 bound_to 7997
  154.4075  140.1649  156.2230 H   0  0  0  0  0  0  0  0  0  0  0  0  # atno 8009 bound_to 7997
  155.9379  140.3386  155.6305 H   0  0  0  0  0  0  0  0  0  0  0  0  # atno 8010 bound_to 7997
  140.2966  144.2983  150.6228 H   0  0  0  0  0  0  0  0  0  0  0  0  # atno 10167 bound_to 10162
  156.1016  130.6177  150.9133 H   0  0  0  0  0  0  0  0  0  0  0  0  # atno 10718 bound_to 10713
  153.0369  135.6463  154.1051 H   0  0  0  0  0  0  0  0  0  0  0  0  # atno 10763 bound_to 10752
  154.0764  135.2876  155.3300 H   0  0  0  0  0  0  0  0  0  0  0  0  # atno 10764 bound_to 10752
  154.6560  135.5409  153.8023 H   0  0  0  0  0  0  0  0  0  0  0  0  # atno 10765 bound_to 10752
  139.8817  134.9377  156.5703 H   0  0  0  0  0  0  0  0  0  0  0  0  # atno 11005 bound_to 11000
  145.9798  140.8692  143.0120 LP  0  0  0  0  0  0  0  0  0  0  0  0  # atno 17320 bound_to 7965
  144.6759  140.2064  143.7381 LP  0  0  0  0  0  0  0  0  0  0  0  0  # atno 17321 bound_to 7965
  140.5687  143.2183  151.7638 LP  0  0  0  0  0  0  0  0  0  0  0  0  # atno 17342 bound_to 10162
  139.4925  144.4247  151.9938 LP  0  0  0  0  0  0  0  0  0  0  0  0  # atno 17343 bound_to 10162
  157.6187  131.0931  150.8662 LP  0  0  0  0  0  0  0  0  0  0  0  0  # atno 17370 bound_to 10713
  156.8789  130.5172  149.5292 LP  0  0  0  0  0  0  0  0  0  0  0  0  # atno 17371 bound_to 10713
  140.8103  133.8434  155.8804 LP  0  0  0  0  0  0  0  0  0  0  0  0  # atno 17394 bound_to 11000
  140.9512  134.1776  157.4726 LP  0  0  0  0  0  0  0  0  0  0  0  0  # atno 17395 bound_to 11000

$$$$
