AV-unprocessed.smi:743|AV-procd|sdf|3565|dock8
  -GOLD-   22720 0563D 1   1.00000     0.00000
 Structure written by MMmdl.
 28 29  0  0  0  0  0  0  0  0  1 V2000
  151.8569  144.9477  159.9512 C   0  0  0  0  0  0  0  0  0  0  0  0
  151.2529  143.9890  159.0509 N   0  0  0  0  0  0  0  0  0  0  0  0
  151.7738  143.4509  157.8946 C   0  0  0  0  0  0  0  0  0  0  0  0
  150.8394  142.5952  157.3780 C   0  0  0  0  0  0  0  0  0  0  0  0
  150.9029  141.7464  156.1296 C   0  0  1  0  0  0  0  0  0  0  0  0
  151.9853  140.7616  156.2272 N   0  0  0  0  0  0  0  0  0  0  0  0
  151.9694  139.4894  155.7906 C   0  0  0  0  0  0  0  0  0  0  0  0
  152.9588  138.7668  155.8852 O   0  0  0  0  0  0  0  0  0  0  0  0
  150.6753  138.9214  155.1905 C   0  0  0  0  0  0  0  0  0  0  0  0
  149.6837  140.0077  154.7492 C   0  0  0  0  0  0  0  0  0  0  0  0
  149.5384  141.0771  155.8377 C   0  0  2  0  0  0  0  0  0  0  0  0
  148.5515  142.0605  155.4288 N   0  0  0  0  0  0  0  0  0  0  0  0
  149.7679  142.6837  158.3133 C   0  0  0  0  0  0  0  0  0  0  0  0
  150.0161  143.5186  159.3089 N   0  0  0  0  0  0  0  0  0  0  0  0
  149.1719  140.5963  156.7459 H   0  0  0  0  0  0  0  0  0  0  0  0
  152.9396  144.9495  159.8211 H   0  0  0  0  0  0  0  0  0  0  0  0
  151.6269  144.6885  160.9854 H   0  0  0  0  0  0  0  0  0  0  0  0
  151.4708  145.9445  159.7367 H   0  0  0  0  0  0  0  0  0  0  0  0
  152.7576  143.7180  157.5373 H   0  0  0  0  0  0  0  0  0  0  0  0
  151.1649  142.3732  155.2756 H   0  0  0  0  0  0  0  0  0  0  0  0
  152.8476  141.0930  156.6349 H   0  0  0  0  0  0  0  0  0  0  0  0
  150.9176  138.2723  154.3484 H   0  0  0  0  0  0  0  0  0  0  0  0
  150.2099  138.2900  155.9481 H   0  0  0  0  0  0  0  0  0  0  0  0
  150.0264  140.4618  153.8179 H   0  0  0  0  0  0  0  0  0  0  0  0
  148.7171  139.5501  154.5347 H   0  0  0  0  0  0  0  0  0  0  0  0
  148.8120  142.9703  155.7813 H   0  0  0  0  0  0  0  0  0  0  0  0
  148.5449  142.1351  154.4216 H   0  0  0  0  0  0  0  0  0  0  0  0
  148.8194  142.1674  158.2956 H   0  0  0  0  0  0  0  0  0  0  0  0
  1  2  1  0  0  0  0
  1 16  1  0  0  0  0
  1 17  1  0  0  0  0
  1 18  1  0  0  0  0
  2 14  1  0  0  0  0
  2  3  1  0  0  0  0
  3  4  2  0  0  0  0
  3 19  1  0  0  0  0
  4  5  1  0  0  0  0
  4 13  1  0  0  0  0
  5 11  1  0  0  0  0
  5  6  1  0  0  0  0
  5 20  1  0  0  0  0
  6  7  1  0  0  0  0
  6 21  1  0  0  0  0
  7  8  2  0  0  0  0
  7  9  1  0  0  0  0
  9 10  1  0  0  0  0
  9 22  1  0  0  0  0
  9 23  1  0  0  0  0
 10 11  1  0  0  0  0
 10 24  1  0  0  0  0
 10 25  1  0  0  0  0
 11 15  1  0  0  0  0
 11 12  1  0  0  0  0
 12 26  1  0  0  0  0
 12 27  1  0  0  0  0
 13 14  2  0  0  0  0
 13 28  1  0  0  0  0
M  END
> <s_m_source_file>
AV-unprocessed.smi

> <i_m_source_file_index>
743

> <i_lp_mmshare_version>
43012

> <i_f3d_flags>
0

> <s_epik_input>
W0NIM11uMVtjSF1jKFtjSF1uMSlbQ0BASF0yW05IXUMoPU8pW0NIMl1bQ0gyXVtDQEBIXTJbTkgyXQ==

> <s_epik_cmdline>
J2VwaWtfcHl0aG9uJywgJy1waCcsICc3LjAnLCAnLXRuJywgJzgnLCAnLW1hJywgJzIwMCcsICctbWV0YWxfYmluZGluZycsICctaW1hZScsICc8aW5maWxlLm1hZT4nLCAnLW9tYWUnLCAnPG91dGZpbGUubWFlPic=

> <r_lp_tautomer_probability>
1

> <r_epik_Ionization_Penalty>
2.50279

> <r_epik_Ionization_Penalty_Charging>
0

> <r_epik_Ionization_Penalty_Neutral>
2.50279

> <r_epik_State_Penalty>
2.66754

> <r_epik_Charging_Adjusted_Penalty>
2.66754

> <i_epik_Tot_Q>
0

> <i_epik_Tot_abs_Q>
0

> <r_epik_Metal_State_Penalty>
2.66721

> <b_epik_Metal_Only>
0

> <s_lp_Force_Field>
OPLS_2005

> <r_lp_Energy>
8.34042

> <b_lp_Chiralities_Consistent>
1

> <s_lp_Variant>
AV-unprocessed.smi:743-6

> <Gold.Version>
5.8.1

> <Gold.Id.Protein>
6NUR|6NUR_protein|mol2

> <Gold.PLP.Fitness>
34.2006

> <Gold.PLP.PLP>
-28.3094

> <Gold.PLP.part.hbond>
-2.4279

> <Gold.PLP.part.metal>
0.0000

> <Gold.PLP.part.buried>
-2.7454

> <Gold.PLP.part.nonpolar>
-23.4830

> <Gold.PLP.part.repulsive>
0.2918

> <Gold.PLP.ligand.clash>
0.0000

> <Gold.PLP.ligand.torsion>
0.0674

> <Gold.PLP.Chemscore.Hbond>
2.0000

> <Gold.PLP.Chemscore.CHOScore>
0.0000

> <Gold.PLP.Chemscore.Metal>
0.0000

> <Gold.Chemscore.Hbonds>
donor molecule, donor type, donor heavy atom, donor atom, acceptor molecule, acceptor atom, score
      L1  H    12    26       P1  8028  1.00
      P1  H  7997  8009       L1     8  1.00

> <Gold.PLP.Chemscore.Internal.Correction>
0.0260

> <Gold.Rescore>
     Score         DG    S(hbond)    S(metal)    S(lipo)     H(rot)  DE(clash)    DE(int)     intcor
     15.44     -16.74       1.88        0.00      64.45       1.00       1.25       0.04       ----

> <Gold.Chemscore.Fitness>
15.4440

> <Gold.Chemscore.DG>
-16.7358

> <Gold.Chemscore.ZeroCoef>
-5.4800

> <Gold.Chemscore.Hbond>
1.8787

> <Gold.Chemscore.Metal>
0.0000

> <Gold.Chemscore.Lipo>
64.4530

> <Gold.Chemscore.Internal_Hbond>
0.0000

> <Gold.Chemscore.DEClash>
1.2519

> <Gold.Chemscore.DEInternal>
0.0399

> <Gold.Chemscore.Rot>
1.0000

> <Gold.Chemscore.Internal.Correction>
   9.000000E+99

> <Gold.Chemscore.Hbonds>
donor molecule, donor type, donor heavy atom, donor atom, acceptor molecule, acceptor atom, score
      L1  H    12    26       P1  8028  0.95
      P1  H  7997  8009       L1     8  0.25

> <Gold.Chemscore.Hbond.Weighted>
-6.2749

> <Gold.Chemscore.Metal.Weighted>
-0.0000

> <Gold.Chemscore.Lipo.Weighted>
-7.5410

> <Gold.Chemscore.Internal_Hbond.Weighted>
0.0000

> <Gold.Chemscore.DEClash.Weighted>
1.2519

> <Gold.Chemscore.DEInternal.Weighted>
0.0399

> <Gold.Chemscore.Rot.Weighted>
2.5600

> <Gold.Chemscore.Internal.Correction.Weighted>
   9.000000E+99

> <Gold.Protein.RotatedTorsions>
[ 6907 6896 6895 6894 ] final -141.61 input  -60.11 | X-H torsion
[ 7974 7965 7964 7962 ] final  -43.86 input  175.53 | X-H torsion
[ 8008 7997 7996 7995 ] final -153.22 input   59.86 | X-H torsion
[ 10167 10162 10161 10158 ] final  -92.78 input  -65.29 | X-H torsion
[ 10718 10713 10712 10709 ] final  -85.71 input   66.30 | X-H torsion
[ 10763 10752 10751 10750 ] final  -31.57 input  -60.55 | X-H torsion
[ 11005 11000 10999 10996 ] final  143.12 input  -57.11 | X-H torsion

> <Gold.Protein.ActiveResidues>
 VAL166  LYS551  ARG553  GLY616  TRP617  ASP618  TYR619  PRO620  LYS621  CYS622 
 ASP623  PHE694  ASN695  SER759  ASP760  ASP761  ALA762  ILE779  LEU786  VAL792 
 PHE793  MET794  SER795  GLU796  ALA797  LYS798  CYS799  TRP800  GLU811  SER814 

> <Gold.Protein.RotatedAtoms>
  151.0760  133.5427  159.2623 H   0  0  0  0  0  0  0  0  0  0  0  0  # atno 6907 bound_to 6896
  151.2349  135.0567  159.9012 H   0  0  0  0  0  0  0  0  0  0  0  0  # atno 6908 bound_to 6896
  152.5418  134.0544  159.8178 H   0  0  0  0  0  0  0  0  0  0  0  0  # atno 6909 bound_to 6896
  145.9978  140.7109  142.9285 H   0  0  0  0  0  0  0  0  0  0  0  0  # atno 7974 bound_to 7965
  155.6674  140.0729  157.2532 H   0  0  0  0  0  0  0  0  0  0  0  0  # atno 8008 bound_to 7997
  154.4130  140.1705  156.1894 H   0  0  0  0  0  0  0  0  0  0  0  0  # atno 8009 bound_to 7997
  155.9645  140.3367  155.6523 H   0  0  0  0  0  0  0  0  0  0  0  0  # atno 8010 bound_to 7997
  140.3313  143.2993  151.9939 H   0  0  0  0  0  0  0  0  0  0  0  0  # atno 10167 bound_to 10162
  155.9994  130.4740  150.4604 H   0  0  0  0  0  0  0  0  0  0  0  0  # atno 10718 bound_to 10713
  153.7996  135.6891  153.4858 H   0  0  0  0  0  0  0  0  0  0  0  0  # atno 10763 bound_to 10752
  153.1697  135.4547  154.9884 H   0  0  0  0  0  0  0  0  0  0  0  0  # atno 10764 bound_to 10752
  154.8012  135.3338  154.7486 H   0  0  0  0  0  0  0  0  0  0  0  0  # atno 10765 bound_to 10752
  140.0529  134.9246  157.1049 H   0  0  0  0  0  0  0  0  0  0  0  0  # atno 11005 bound_to 11000
  144.6909  140.3180  143.7237 LP  0  0  0  0  0  0  0  0  0  0  0  0  # atno 17320 bound_to 7965
  145.7534  139.1801  143.2308 LP  0  0  0  0  0  0  0  0  0  0  0  0  # atno 17321 bound_to 7965
  139.4856  144.6233  151.7214 LP  0  0  0  0  0  0  0  0  0  0  0  0  # atno 17342 bound_to 10162
  140.5395  144.0603  150.6083 LP  0  0  0  0  0  0  0  0  0  0  0  0  # atno 17343 bound_to 10162
  157.2629  131.0571  151.2309 LP  0  0  0  0  0  0  0  0  0  0  0  0  # atno 17370 bound_to 10713
  157.3417  130.7037  149.6386 LP  0  0  0  0  0  0  0  0  0  0  0  0  # atno 17371 bound_to 10713
  140.3889  134.2206  155.7167 LP  0  0  0  0  0  0  0  0  0  0  0  0  # atno 17394 bound_to 11000
  141.1938  133.8141  157.0781 LP  0  0  0  0  0  0  0  0  0  0  0  0  # atno 17395 bound_to 11000

$$$$
