#       Name:                AV-unprocessed.smi:1203
#       Creating user name   scv26
#       Creation time:       Fri Mar 27 04:05:44 2020


#       File generated by GOLD software.
#

@<TRIPOS>MOLECULE
AV-unprocessed.smi:1203
    43    44     1
SMALL
NO_CHARGES


@<TRIPOS>ATOM
      1 ****        -1.5841   3.4219   0.7319 C.3            1 S1                 0.0000
      2 ****        -1.9010   1.6108   0.7281 S.o2           1 S1                 0.0000
      3 ****        -0.8287   0.9548   1.4914 O.2            1 S1                 0.0000
      4 ****        -3.3077   1.3648   1.0806 O.2            1 S1                 0.0000
      5 ****        -1.6903   1.1884  -0.9372 N.3            1 S1                 0.0000
      6 ****        -2.5895   1.7909  -1.9337 C.3            1 S1                 0.0000
      7 ****        -2.6966   0.7759  -3.0703 C.3            1 S1                 0.0000
      8 ****        -2.4782  -0.5541  -2.3629 C.3            1 S1                 0.0000
      9 ****        -1.4402  -0.2230  -1.2763 C.3            1 S1                 0.0000
     10 ****         0.0152  -0.4766  -1.7020 C.2            1 S1                 0.0000
     11 ****         0.3106  -0.6757  -2.8811 O.2            1 S1                 0.0000
     12 ****         0.9242  -0.4591  -0.7173 N.am           1 S1                 0.0000
     13 ****         2.3543  -0.6707  -0.9023 C.3            1 S1                 0.0000
     14 ****         3.1399  -0.3656   0.3841 C.3            1 S1                 0.0000
     15 ****         2.6330  -1.1297   1.5952 C.ar           1 S1                 0.0000
     16 ****         2.8539  -2.5170   1.7168 C.ar           1 S1                 0.0000
     17 ****         2.3557  -3.1868   2.8507 C.ar           1 S1                 0.0000
     18 ****         1.6574  -2.4378   3.8188 C.ar           1 S1                 0.0000
     19 ****         1.4437  -1.1085   3.7155 N.ar           1 S1                 0.0000
     20 ****         1.9250  -0.4738   2.6252 C.ar           1 S1                 0.0000
     21 ****        -1.6573   3.7990   1.7516 H              1 S1                 0.0000
     22 ****        -2.3216   3.9258   0.1079 H              1 S1                 0.0000
     23 ****        -0.5845   3.6171   0.3441 H              1 S1                 0.0000
     24 ****        -3.5712   1.9553  -1.4882 H              1 S1                 0.0000
     25 ****        -2.2045   2.7535  -2.2712 H              1 S1                 0.0000
     26 ****        -3.6520   0.8259  -3.5929 H              1 S1                 0.0000
     27 ****        -1.9037   0.9464  -3.7996 H              1 S1                 0.0000
     28 ****        -3.4076  -0.8775  -1.8920 H              1 S1                 0.0000
     29 ****        -2.1740  -1.3470  -3.0475 H              1 S1                 0.0000
     30 ****        -1.6412  -0.8498  -0.4059 H              1 S1                 0.0000
     31 ****         0.6029  -0.2867   0.2249 H              1 S1                 0.0000
     32 ****         2.5163  -1.7079  -1.1991 H              1 S1                 0.0000
     33 ****         2.7237  -0.0451  -1.7164 H              1 S1                 0.0000
     34 ****         4.1941  -0.6021   0.2361 H              1 S1                 0.0000
     35 ****         3.0954   0.7042   0.5927 H              1 S1                 0.0000
     36 ****         3.3917  -3.0596   0.9531 H              1 S1                 0.0000
     37 ****         2.5039  -4.2492   2.9755 H              1 S1                 0.0000
     38 ****         1.2608  -2.9194   4.7003 H              1 S1                 0.0000
     39 ****         1.7338   0.5880   2.5720 H              1 S1                 0.0000
     40 ****        -0.8140   1.6625  -1.0221 LP             1 S1                 0.0000
     41 ****        -0.4024  -0.6744  -3.5823 LP             1 S1                 0.0000
     42 ****         1.2634  -0.8387  -3.1372 LP             1 S1                 0.0000
     43 ****         0.9446  -0.6098   4.4242 LP             1 S1                 0.0000
@<TRIPOS>BOND
    1    1    2 1     
    2    1   21 1     
    3    1   22 1     
    4    1   23 1     
    5    2    3 2     
    6    2    4 2     
    7    2    5 1     
    8    5    9 1     
    9    5    6 1     
   10    6    7 1     
   11    6   24 1     
   12    6   25 1     
   13    7    8 1     
   14    7   26 1     
   15    7   27 1     
   16    8    9 1     
   17    8   28 1     
   18    8   29 1     
   19    9   10 1     
   20    9   30 1     
   21   10   11 2     
   22   10   12 am    
   23   12   13 1     
   24   12   31 1     
   25   13   14 1     
   26   13   32 1     
   27   13   33 1     
   28   14   15 1     
   29   14   34 1     
   30   14   35 1     
   31   15   20 ar    
   32   15   16 ar    
   33   16   17 ar    
   34   16   36 1     
   35   17   18 ar    
   36   17   37 1     
   37   18   19 ar    
   38   18   38 1     
   39   19   20 ar    
   40   20   39 1     
   41    5   40 1     
   42   11   41 1     
   43   11   42 1     
   44   19   43 1     
@<TRIPOS>SUBSTRUCTURE
      1 S1             1
@<TRIPOS>SET
LONE_PAIRS      STATIC     ATOMS    <user>   **** ""
6 3 4 40 41 42 43
DONOR_HYDROGENS      STATIC     ATOMS    <user>   **** ""
1 31
ATOM$BLUE        STATIC     ATOMS    COLORGROUP SYSTEM
6 3 4 40 41 42 43
ATOM$RED        STATIC     ATOMS    COLORGROUP SYSTEM
1 31
