AV-unprocessed.smi:1952|AV-procd|sdf|7890|dock7
  -GOLD-   2272010 43D 1   1.00000     0.00000
 Structure written by MMmdl.
 39 40  0  0  0  0  0  0  0  0  3 V2000
  146.7198  134.0824  162.5318 C   0  0  0  0  0  0  0  0  0  0  0  0
  147.2640  135.1059  161.5953 C   0  0  0  0  0  0  0  0  0  0  0  0
  147.6723  135.0514  160.2928 C   0  0  0  0  0  0  0  0  0  0  0  0
  148.0804  136.3861  160.0248 C   0  0  0  0  0  0  0  0  0  0  0  0
  148.5598  136.8454  158.8586 N   0  5  0  0  0  0  0  0  0  0  0  0
  148.8131  135.9881  157.8450 C   0  0  0  0  0  0  0  0  0  0  0  0
  149.3265  134.8718  157.9451 O   0  0  0  0  0  0  0  0  0  0  0  0
  148.4819  136.4699  156.6372 N   0  0  0  0  0  0  0  0  0  0  0  0
  148.7280  135.8324  155.3422 C   0  0  1  0  0  0  0  0  0  0  0  0
  150.1621  135.2871  155.3105 C   0  0  0  0  0  0  0  0  0  0  0  0
  147.6921  134.7161  155.0770 C   0  0  0  0  0  0  0  0  0  0  0  0
  147.1919  134.7209  153.6793 N   0  3  0  0  0  0  0  0  0  0  0  0
  146.9557  133.3662  153.1273 C   0  0  0  0  0  0  0  0  0  0  0  0
  146.5548  133.4672  151.6467 C   0  0  0  0  0  0  0  0  0  0  0  0
  145.3948  134.2822  151.5242 O   0  0  0  0  0  0  0  0  0  0  0  0
  145.6225  135.6081  151.9876 C   0  0  0  0  0  0  0  0  0  0  0  0
  146.0020  135.5785  153.4782 C   0  0  0  0  0  0  0  0  0  0  0  0
  147.9212  137.1836  161.0680 N   0  0  0  0  0  0  0  0  0  0  0  0
  147.4041  136.3683  162.0816 O   0  0  0  0  0  0  0  0  0  0  0  0
  145.8152  134.4456  163.0195 H   0  0  0  0  0  0  0  0  0  0  0  0
  147.4491  133.8412  163.3051 H   0  0  0  0  0  0  0  0  0  0  0  0
  146.4715  133.1629  162.0015 H   0  0  0  0  0  0  0  0  0  0  0  0
  147.6809  134.1938  159.6372 H   0  0  0  0  0  0  0  0  0  0  0  0
  148.0547  137.3847  156.6147 H   0  0  0  0  0  0  0  0  0  0  0  0
  148.6568  136.5791  154.5502 H   0  0  0  0  0  0  0  0  0  0  0  0
  150.3856  134.8282  154.3469 H   0  0  0  0  0  0  0  0  0  0  0  0
  150.3189  134.5331  156.0828 H   0  0  0  0  0  0  0  0  0  0  0  0
  150.8886  136.0844  155.4712 H   0  0  0  0  0  0  0  0  0  0  0  0
  148.1024  133.7355  155.3228 H   0  0  0  0  0  0  0  0  0  0  0  0
  146.8505  134.8711  155.7540 H   0  0  0  0  0  0  0  0  0  0  0  0
  147.8534  132.7558  153.2216 H   0  0  0  0  0  0  0  0  0  0  0  0
  146.1694  132.8678  153.6960 H   0  0  0  0  0  0  0  0  0  0  0  0
  147.3707  133.8783  151.0495 H   0  0  0  0  0  0  0  0  0  0  0  0
  146.3354  132.4765  151.2484 H   0  0  0  0  0  0  0  0  0  0  0  0
  146.4072  136.0826  151.3960 H   0  0  0  0  0  0  0  0  0  0  0  0
  144.7151  136.1944  151.8420 H   0  0  0  0  0  0  0  0  0  0  0  0
  145.1700  135.2010  154.0745 H   0  0  0  0  0  0  0  0  0  0  0  0
  146.2127  136.5922  153.8205 H   0  0  0  0  0  0  0  0  0  0  0  0
  147.9293  135.1362  153.1260 H   0  0  0  0  0  0  0  0  0  0  0  0
  1  2  1  0  0  0  0
  1 20  1  0  0  0  0
  1 21  1  0  0  0  0
  1 22  1  0  0  0  0
  2 19  1  0  0  0  0
  2  3  2  0  0  0  0
  3  4  1  0  0  0  0
  3 23  1  0  0  0  0
  4  5  1  0  0  0  0
  4 18  2  0  0  0  0
  5  6  1  0  0  0  0
  6  7  2  0  0  0  0
  6  8  1  0  0  0  0
  8  9  1  0  0  0  0
  8 24  1  0  0  0  0
  9 10  1  0  0  0  0
  9 11  1  0  0  0  0
  9 25  1  0  0  0  0
 10 26  1  0  0  0  0
 10 27  1  0  0  0  0
 10 28  1  0  0  0  0
 11 12  1  0  0  0  0
 11 29  1  0  0  0  0
 11 30  1  0  0  0  0
 12 17  1  0  0  0  0
 12 13  1  0  0  0  0
 12 39  1  0  0  0  0
 13 14  1  0  0  0  0
 13 31  1  0  0  0  0
 13 32  1  0  0  0  0
 14 15  1  0  0  0  0
 14 33  1  0  0  0  0
 14 34  1  0  0  0  0
 15 16  1  0  0  0  0
 16 17  1  0  0  0  0
 16 35  1  0  0  0  0
 16 36  1  0  0  0  0
 17 37  1  0  0  0  0
 17 38  1  0  0  0  0
 18 19  1  0  0  0  0
M  CHG  1   5  -1
M  CHG  1  12   1
M  END
> <s_m_source_file>
AV-unprocessed.smi

> <i_m_source_file_index>
1952

> <i_lp_mmshare_version>
43012

> <i_f3d_flags>
0

> <s_epik_input>
W0NIM11jMVtjSF1jKG5vMSlbTkhdQyg9TylbTkhdW0NASF0oW0NIM10pW0NIMl1OMltDSDJdW0NIMl1PW0NIMl1bQ0gyXTI=

> <s_epik_cmdline>
J2VwaWtfcHl0aG9uJywgJy1waCcsICc3LjAnLCAnLXRuJywgJzgnLCAnLW1hJywgJzIwMCcsICctbWV0YWxfYmluZGluZycsICctaW1hZScsICc8aW5maWxlLm1hZT4nLCAnLW9tYWUnLCAnPG91dGZpbGUubWFlPic=

> <r_epik_Ionization_Penalty>
6.62152

> <r_epik_Ionization_Penalty_Charging>
6.62142

> <r_epik_Ionization_Penalty_Neutral>
9.8734e-05

> <r_epik_State_Penalty>
6.82189

> <r_epik_Charging_Adjusted_Penalty>
13.4433

> <i_epik_Tot_Q>
0

> <i_epik_Tot_abs_Q>
2

> <r_epik_Metal_State_Penalty>
2.76365

> <b_epik_Metal_Only>
1

> <s_lp_Force_Field>
OPLS_2005

> <r_lp_Energy>
7.85101

> <b_lp_Chiralities_Consistent>
1

> <s_lp_Variant>
AV-unprocessed.smi:1952-8

> <Gold.Version>
5.8.1

> <Gold.Id.Protein>
6NUR|6NUR_protein|mol2

> <Gold.PLP.Fitness>
37.9151

> <Gold.PLP.PLP>
-26.5104

> <Gold.PLP.part.hbond>
-4.0000

> <Gold.PLP.part.metal>
0.0000

> <Gold.PLP.part.buried>
-3.8200

> <Gold.PLP.part.nonpolar>
-18.4344

> <Gold.PLP.part.repulsive>
0.1360

> <Gold.PLP.ligand.clash>
0.0000

> <Gold.PLP.ligand.torsion>
1.5595

> <Gold.PLP.Chemscore.Hbond>
4.8080

> <Gold.PLP.Chemscore.CHOScore>
0.0000

> <Gold.PLP.Chemscore.Metal>
0.0000

> <Gold.Chemscore.Hbonds>
donor molecule, donor type, donor heavy atom, donor atom, acceptor molecule, acceptor atom, score
      L1  H    12    39       P1  7948  2.00
      P1  H  6896  6908       L1     7  0.94
      P1  H  6931  6943       L1    18  0.96
      P1  H  6934  6947       L1    18  0.77

> <Gold.PLP.Chemscore.Internal.Correction>
0.0997

> <Gold.Rescore>
     Score         DG    S(hbond)    S(metal)    S(lipo)     H(rot)  DE(clash)    DE(int)     intcor
     15.12     -18.99       3.62        0.00      46.58       1.58       0.04       3.82       ----

> <Gold.Chemscore.Fitness>
15.1226

> <Gold.Chemscore.DG>
-18.9900

> <Gold.Chemscore.ZeroCoef>
-5.4800

> <Gold.Chemscore.Hbond>
3.6241

> <Gold.Chemscore.Metal>
0.0000

> <Gold.Chemscore.Lipo>
46.5781

> <Gold.Chemscore.Internal_Hbond>
0.0000

> <Gold.Chemscore.DEClash>
0.0440

> <Gold.Chemscore.DEInternal>
3.8233

> <Gold.Chemscore.Rot>
1.5798

> <Gold.Chemscore.Internal.Correction>
   9.000000E+99

> <Gold.Chemscore.Hbonds>
donor molecule, donor type, donor heavy atom, donor atom, acceptor molecule, acceptor atom, score
      L1  H    12    39       P1  7948  0.99
      P1  H  6896  6908       L1     7  0.90
      P1  H  6931  6943       L1    18  0.41
      P1  H  6934  6947       L1    18  0.69

> <Gold.Chemscore.Hbond.Weighted>
-12.1046

> <Gold.Chemscore.Metal.Weighted>
-0.0000

> <Gold.Chemscore.Lipo.Weighted>
-5.4496

> <Gold.Chemscore.Internal_Hbond.Weighted>
0.0000

> <Gold.Chemscore.DEClash.Weighted>
0.0440

> <Gold.Chemscore.DEInternal.Weighted>
3.8233

> <Gold.Chemscore.Rot.Weighted>
4.0442

> <Gold.Chemscore.Internal.Correction.Weighted>
   9.000000E+99

> <Gold.Protein.RotatedTorsions>
[ 6907 6896 6895 6894 ] final  147.97 input  -60.11 | X-H torsion
[ 7974 7965 7964 7962 ] final  144.63 input  175.53 | X-H torsion
[ 8008 7997 7996 7995 ] final  -31.76 input   59.86 | X-H torsion
[ 10167 10162 10161 10158 ] final   13.16 input  -65.29 | X-H torsion
[ 10718 10713 10712 10709 ] final   92.07 input   66.30 | X-H torsion
[ 10763 10752 10751 10750 ] final  118.51 input  -60.55 | X-H torsion
[ 11005 11000 10999 10996 ] final  -62.04 input  -57.11 | X-H torsion

> <Gold.Protein.ActiveResidues>
 VAL166  LYS551  ARG553  GLY616  TRP617  ASP618  TYR619  PRO620  LYS621  CYS622 
 ASP623  PHE694  ASN695  SER759  ASP760  ASP761  ALA762  ILE779  LEU786  VAL792 
 PHE793  MET794  SER795  GLU796  ALA797  LYS798  CYS799  TRP800  GLU811  SER814 

> <Gold.Protein.RotatedAtoms>
  152.1476  133.4502  159.4797 H   0  0  0  0  0  0  0  0  0  0  0  0  # atno 6907 bound_to 6896
  150.6892  134.2228  159.4412 H   0  0  0  0  0  0  0  0  0  0  0  0  # atno 6908 bound_to 6896
  152.0123  134.9869  160.0619 H   0  0  0  0  0  0  0  0  0  0  0  0  # atno 6909 bound_to 6896
  144.8819  139.5686  143.5838 H   0  0  0  0  0  0  0  0  0  0  0  0  # atno 7974 bound_to 7965
  154.4202  140.1755  156.1619 H   0  0  0  0  0  0  0  0  0  0  0  0  # atno 8008 bound_to 7997
  155.9831  140.3375  155.6658 H   0  0  0  0  0  0  0  0  0  0  0  0  # atno 8009 bound_to 7997
  155.6473  140.0686  157.2589 H   0  0  0  0  0  0  0  0  0  0  0  0  # atno 8010 bound_to 7997
  140.6020  143.8584  150.6975 H   0  0  0  0  0  0  0  0  0  0  0  0  # atno 10167 bound_to 10162
  157.6959  131.0430  150.3825 H   0  0  0  0  0  0  0  0  0  0  0  0  # atno 10718 bound_to 10713
  153.5688  135.3506  155.2829 H   0  0  0  0  0  0  0  0  0  0  0  0  # atno 10763 bound_to 10752
  154.8685  135.4154  154.2748 H   0  0  0  0  0  0  0  0  0  0  0  0  # atno 10764 bound_to 10752
  153.3510  135.7055  153.6858 H   0  0  0  0  0  0  0  0  0  0  0  0  # atno 10765 bound_to 10752
  141.1346  133.6636  156.5466 H   0  0  0  0  0  0  0  0  0  0  0  0  # atno 11005 bound_to 11000
  146.3000  139.7397  142.9098 LP  0  0  0  0  0  0  0  0  0  0  0  0  # atno 17320 bound_to 7965
  145.3938  141.0376  143.3109 LP  0  0  0  0  0  0  0  0  0  0  0  0  # atno 17321 bound_to 7965
  140.2132  143.3867  152.1701 LP  0  0  0  0  0  0  0  0  0  0  0  0  # atno 17342 bound_to 10162
  139.5298  144.7146  151.5097 LP  0  0  0  0  0  0  0  0  0  0  0  0  # atno 17343 bound_to 10162
  156.4237  130.3958  149.6807 LP  0  0  0  0  0  0  0  0  0  0  0  0  # atno 17370 bound_to 10713
  156.4049  130.7693  151.2703 LP  0  0  0  0  0  0  0  0  0  0  0  0  # atno 17371 bound_to 10713
  140.4097  134.7283  157.4828 LP  0  0  0  0  0  0  0  0  0  0  0  0  # atno 17394 bound_to 11000
  140.0436  134.6231  155.8949 LP  0  0  0  0  0  0  0  0  0  0  0  0  # atno 17395 bound_to 11000

$$$$
