AV-unprocessed.smi:2226|AV-procd|sdf|9008|dock1
  -GOLD-   2272012213D 1   1.00000     0.00000
 Structure written by MMmdl.
 41 43  0  0  0  0  0  0  0  0  3 V2000
  148.9076  141.3729  156.9875 C   0  0  0  0  0  0  0  0  0  0  0  0
  147.9307  141.9496  156.0330 N   0  3  2  0  0  0  0  0  0  0  0  0
  146.5826  142.1998  156.5964 C   0  0  1  0  0  0  0  0  0  0  0  0
  145.8172  143.1682  155.6658 C   0  0  0  0  0  0  0  0  0  0  0  0
  145.7681  142.7096  154.1961 C   0  0  0  0  0  0  0  0  0  0  0  0
  147.1155  142.1400  153.7119 C   0  0  0  0  0  0  0  0  0  0  0  0
  147.8173  141.2265  154.7439 C   0  0  2  0  0  0  0  0  0  0  0  0
  147.1742  139.8290  154.9320 C   0  0  0  0  0  0  0  0  0  0  0  0
  145.9001  139.7819  155.8123 C   0  0  2  0  0  0  0  0  0  0  0  0
  144.6864  139.7169  154.9990 N   0  0  0  0  0  0  0  0  0  0  0  0
  143.7346  138.7744  155.0875 C   0  0  0  0  0  0  0  0  0  0  0  0
  143.7678  137.8459  155.8954 O   0  0  0  0  0  0  0  0  0  0  0  0
  142.7539  138.9735  154.1936 N   0  0  0  0  0  0  0  0  0  0  0  0
  141.6025  138.1671  154.0408 C   0  0  0  0  0  0  0  0  0  0  0  0
  140.6335  138.4106  153.1599 N   0  3  0  0  0  0  0  0  0  0  0  0
  139.6718  137.4385  153.2830 C   0  0  0  0  0  0  0  0  0  0  0  0
  140.1124  136.6016  154.2801 C   0  0  0  0  0  0  0  0  0  0  0  0
  141.3255  137.0465  154.7662 O   0  0  0  0  0  0  0  0  0  0  0  0
  145.8442  140.8753  156.9141 C   0  0  0  0  0  0  0  0  0  0  0  0
  148.6191  140.3775  157.3247 H   0  0  0  0  0  0  0  0  0  0  0  0
  149.0023  142.0117  157.8658 H   0  0  0  0  0  0  0  0  0  0  0  0
  149.8925  141.3005  156.5258 H   0  0  0  0  0  0  0  0  0  0  0  0
  146.7132  142.7286  157.5418 H   0  0  0  0  0  0  0  0  0  0  0  0
  144.8068  143.3386  156.0391 H   0  0  0  0  0  0  0  0  0  0  0  0
  146.3148  144.1385  155.7020 H   0  0  0  0  0  0  0  0  0  0  0  0
  144.9765  141.9819  154.0554 H   0  0  0  0  0  0  0  0  0  0  0  0
  145.4808  143.5499  153.5632 H   0  0  0  0  0  0  0  0  0  0  0  0
  146.9825  141.6161  152.7649 H   0  0  0  0  0  0  0  0  0  0  0  0
  147.7788  142.9787  153.4958 H   0  0  0  0  0  0  0  0  0  0  0  0
  148.8280  141.0651  154.3663 H   0  0  0  0  0  0  0  0  0  0  0  0
  146.9927  139.3634  153.9623 H   0  0  0  0  0  0  0  0  0  0  0  0
  147.9200  139.1892  155.4053 H   0  0  0  0  0  0  0  0  0  0  0  0
  145.9340  138.8199  156.3283 H   0  0  0  0  0  0  0  0  0  0  0  0
  144.5735  140.4394  154.3026 H   0  0  0  0  0  0  0  0  0  0  0  0
  140.5763  139.1711  152.4942 H   0  0  0  0  0  0  0  0  0  0  0  0
  138.7874  137.4390  152.6621 H   0  0  0  0  0  0  0  0  0  0  0  0
  139.7125  135.7069  154.7349 H   0  0  0  0  0  0  0  0  0  0  0  0
  146.3043  140.4540  157.8086 H   0  0  0  0  0  0  0  0  0  0  0  0
  144.8166  141.0849  157.2134 H   0  0  0  0  0  0  0  0  0  0  0  0
  148.3039  142.8600  155.8035 H   0  0  0  0  0  0  0  0  0  0  0  0
  142.8342  139.7665  153.5745 H   0  0  0  0  0  0  0  0  0  0  0  0
  1  2  1  0  0  0  0
  1 20  1  0  0  0  0
  1 21  1  0  0  0  0
  1 22  1  0  0  0  0
  2  7  1  0  0  0  0
  2  3  1  0  0  0  0
  2 40  1  0  0  0  0
  3 19  1  0  0  0  0
  3  4  1  0  0  0  0
  3 23  1  0  0  0  0
  4  5  1  0  0  0  0
  4 24  1  0  0  0  0
  4 25  1  0  0  0  0
  5  6  1  0  0  0  0
  5 26  1  0  0  0  0
  5 27  1  0  0  0  0
  6  7  1  0  0  0  0
  6 28  1  0  0  0  0
  6 29  1  0  0  0  0
  7  8  1  0  0  0  0
  7 30  1  0  0  0  0
  8  9  1  0  0  0  0
  8 31  1  0  0  0  0
  8 32  1  0  0  0  0
  9 10  1  0  0  0  0
  9 19  1  0  0  0  0
  9 33  1  0  0  0  0
 10 34  1  0  0  0  0
 10 11  1  0  0  0  0
 11 13  1  0  0  0  0
 11 12  2  0  0  0  0
 13 14  1  0  0  0  0
 13 41  1  0  0  0  0
 14 18  1  0  0  0  0
 14 15  2  0  0  0  0
 15 35  1  0  0  0  0
 15 16  1  0  0  0  0
 16 36  1  0  0  0  0
 16 17  2  0  0  0  0
 17 37  1  0  0  0  0
 17 18  1  0  0  0  0
 19 38  1  0  0  0  0
 19 39  1  0  0  0  0
M  CHG  1   2   1
M  CHG  1  15   1
M  END
> <s_m_source_file>
AV-unprocessed.smi

> <i_m_source_file_index>
2226

> <i_lp_mmshare_version>
43012

> <i_f3d_flags>
0

> <s_epik_input>
W0NIMl0xW0NIMl1bQ0gyXVtDQEhdKE4oW0NIM10pW0NIXTEyKVtDSDJdW0NASF0oW0NIMl0yKVtOSF1DKD1PKVtOSF1jM25bY0hdW2NIXW8z

> <s_epik_cmdline>
J2VwaWtfcHl0aG9uJywgJy1waCcsICc3LjAnLCAnLXRuJywgJzgnLCAnLW1hJywgJzIwMCcsICctbWV0YWxfYmluZGluZycsICctaW1hZScsICc8aW5maWxlLm1hZT4nLCAnLW9tYWUnLCAnPG91dGZpbGUubWFlPic=

> <r_epik_Ionization_Penalty>
6.92532

> <r_epik_Ionization_Penalty_Charging>
6.82059

> <r_epik_Ionization_Penalty_Neutral>
0.104727

> <r_epik_State_Penalty>
2.17671

> <r_epik_Charging_Adjusted_Penalty>
8.99731

> <i_epik_Tot_Q>
2

> <i_epik_Tot_abs_Q>
2

> <r_epik_Metal_State_Penalty>
2.20618

> <b_epik_Metal_Only>
0

> <s_lp_Force_Field>
OPLS_2005

> <r_lp_Energy>
48.5107

> <b_lp_Chiralities_Consistent>
1

> <s_lp_Variant>
AV-unprocessed.smi:2226-8

> <Gold.Version>
5.8.1

> <Gold.Id.Protein>
6NUR|6NUR_protein|mol2

> <Gold.PLP.Fitness>
39.1830

> <Gold.PLP.PLP>
-23.1119

> <Gold.PLP.part.hbond>
-3.4060

> <Gold.PLP.part.metal>
0.0000

> <Gold.PLP.part.buried>
-4.8325

> <Gold.PLP.part.nonpolar>
-15.6301

> <Gold.PLP.part.repulsive>
0.0914

> <Gold.PLP.ligand.clash>
0.0000

> <Gold.PLP.ligand.torsion>
0.1046

> <Gold.PLP.Chemscore.Hbond>
4.4456

> <Gold.PLP.Chemscore.CHOScore>
0.9616

> <Gold.PLP.Chemscore.Metal>
0.0000

> <Gold.Chemscore.Hbonds>
donor molecule, donor type, donor heavy atom, donor atom, acceptor molecule, acceptor atom, score
      L1  H     2    40       P1  8028  2.00
      L1  H    10    34       P1 10175  0.67
      L1  H    13    41       P1 10175  0.89
      L1  H    15    35       P1 10160  0.80
      L1  C    17    37       P1 11000  0.97

> <Gold.PLP.Chemscore.Internal.Correction>
0.0590

> <Gold.Rescore>
     Score         DG    S(hbond)    S(metal)    S(lipo)     H(rot)  DE(clash)    DE(int)     intcor
     17.98     -19.64       3.37        0.00      46.57       1.00       0.14       1.52       ----

> <Gold.Chemscore.Fitness>
17.9791

> <Gold.Chemscore.DG>
-19.6394

> <Gold.Chemscore.ZeroCoef>
-5.4800

> <Gold.Chemscore.Hbond>
3.3744

> <Gold.Chemscore.Metal>
0.0000

> <Gold.Chemscore.Lipo>
46.5735

> <Gold.Chemscore.Internal_Hbond>
0.0000

> <Gold.Chemscore.DEClash>
0.1417

> <Gold.Chemscore.DEInternal>
1.5187

> <Gold.Chemscore.Rot>
1.0000

> <Gold.Chemscore.Internal.Correction>
   9.000000E+99

> <Gold.Chemscore.Hbonds>
donor molecule, donor type, donor heavy atom, donor atom, acceptor molecule, acceptor atom, score
      L1  H     2    40       P1  8028  0.95
      L1  H    10    34       P1 10175  0.62
      L1  H    13    41       P1 10175  0.81
      L1  H    15    35       P1 10160  0.79

> <Gold.Chemscore.Hbond.Weighted>
-11.2703

> <Gold.Chemscore.Metal.Weighted>
-0.0000

> <Gold.Chemscore.Lipo.Weighted>
-5.4491

> <Gold.Chemscore.Internal_Hbond.Weighted>
0.0000

> <Gold.Chemscore.DEClash.Weighted>
0.1417

> <Gold.Chemscore.DEInternal.Weighted>
1.5187

> <Gold.Chemscore.Rot.Weighted>
2.5600

> <Gold.Chemscore.Internal.Correction.Weighted>
   9.000000E+99

> <Gold.Protein.RotatedTorsions>
[ 6907 6896 6895 6894 ] final -177.48 input  -60.11 | X-H torsion
[ 7974 7965 7964 7962 ] final    9.75 input  175.53 | X-H torsion
[ 8008 7997 7996 7995 ] final -162.91 input   59.86 | X-H torsion
[ 10167 10162 10161 10158 ] final -129.61 input  -65.29 | X-H torsion
[ 10718 10713 10712 10709 ] final   37.41 input   66.30 | X-H torsion
[ 10763 10752 10751 10750 ] final   39.54 input  -60.55 | X-H torsion
[ 11005 11000 10999 10996 ] final -108.91 input  -57.11 | X-H torsion

> <Gold.Protein.ActiveResidues>
 VAL166  LYS551  ARG553  GLY616  TRP617  ASP618  TYR619  PRO620  LYS621  CYS622 
 ASP623  PHE694  ASN695  SER759  ASP760  ASP761  ALA762  ILE779  LEU786  VAL792 
 PHE793  MET794  SER795  GLU796  ALA797  LYS798  CYS799  TRP800  GLU811  SER814 

> <Gold.Protein.RotatedAtoms>
  151.6216  133.3338  159.3089 H   0  0  0  0  0  0  0  0  0  0  0  0  # atno 6907 bound_to 6896
  150.8103  134.7257  159.6693 H   0  0  0  0  0  0  0  0  0  0  0  0  # atno 6908 bound_to 6896
  152.4199  134.5979  160.0043 H   0  0  0  0  0  0  0  0  0  0  0  0  # atno 6909 bound_to 6896
  146.2399  139.9737  142.8444 H   0  0  0  0  0  0  0  0  0  0  0  0  # atno 7974 bound_to 7965
  155.8136  140.0909  157.1889 H   0  0  0  0  0  0  0  0  0  0  0  0  # atno 8008 bound_to 7997
  154.3979  140.1450  156.3476 H   0  0  0  0  0  0  0  0  0  0  0  0  # atno 8009 bound_to 7997
  155.8339  140.3441  155.5592 H   0  0  0  0  0  0  0  0  0  0  0  0  # atno 8010 bound_to 7997
  139.9380  143.6196  152.2512 H   0  0  0  0  0  0  0  0  0  0  0  0  # atno 10167 bound_to 10162
  157.3466  130.7576  149.6949 H   0  0  0  0  0  0  0  0  0  0  0  0  # atno 10718 bound_to 10713
  152.9964  135.6217  154.2482 H   0  0  0  0  0  0  0  0  0  0  0  0  # atno 10763 bound_to 10752
  154.2221  135.2795  155.2922 H   0  0  0  0  0  0  0  0  0  0  0  0  # atno 10764 bound_to 10752
  154.5520  135.5730  153.6988 H   0  0  0  0  0  0  0  0  0  0  0  0  # atno 10765 bound_to 10752
  141.0876  133.9111  157.2149 H   0  0  0  0  0  0  0  0  0  0  0  0  # atno 11005 bound_to 11000
  145.1657  140.9695  143.4351 LP  0  0  0  0  0  0  0  0  0  0  0  0  # atno 17320 bound_to 7965
  145.0075  139.3541  143.6137 LP  0  0  0  0  0  0  0  0  0  0  0  0  # atno 17321 bound_to 7965
  139.6728  144.7660  151.1751 LP  0  0  0  0  0  0  0  0  0  0  0  0  # atno 17342 bound_to 10162
  140.7619  143.5839  150.8866 LP  0  0  0  0  0  0  0  0  0  0  0  0  # atno 17343 bound_to 10162
  155.9715  130.4152  150.4171 LP  0  0  0  0  0  0  0  0  0  0  0  0  # atno 17370 bound_to 10713
  157.2228  131.0486  151.2537 LP  0  0  0  0  0  0  0  0  0  0  0  0  # atno 17371 bound_to 10713
  139.9697  135.0132  156.9479 LP  0  0  0  0  0  0  0  0  0  0  0  0  # atno 17394 bound_to 11000
  140.5326  134.0798  155.7320 LP  0  0  0  0  0  0  0  0  0  0  0  0  # atno 17395 bound_to 11000

$$$$
