AV-unprocessed.smi:1883|AV-procd|sdf|7643|dock4
  -GOLD-   22720 9373D 1   1.00000     0.00000
 Structure written by MMmdl.
 35 37  0  0  0  0  0  0  0  0  1 V2000
  152.1861  138.4928  155.4486 C   0  0  0  0  0  0  0  0  0  0  0  0
  150.9183  139.1103  154.9499 C   0  0  0  0  0  0  0  0  0  0  0  0
  150.0938  138.4702  154.1207 N   0  0  0  0  0  0  0  0  0  0  0  0
  149.0792  139.3892  153.9340 C   0  0  0  0  0  0  0  0  0  0  0  0
  147.9014  139.3106  153.1567 C   0  0  0  0  0  0  0  0  0  0  0  0
  146.9976  140.3925  153.1193 C   0  0  0  0  0  0  0  0  0  0  0  0
  147.2579  141.5660  153.8562 C   0  0  0  0  0  0  0  0  0  0  0  0
  148.4257  141.6651  154.6371 C   0  0  0  0  0  0  0  0  0  0  0  0
  149.3247  140.5823  154.6718 C   0  0  0  0  0  0  0  0  0  0  0  0
  150.5361  140.3573  155.3192 N   0  0  0  0  0  0  0  0  0  0  0  0
  151.2325  141.2798  156.2059 C   0  0  0  0  0  0  0  0  0  0  0  0
  150.3663  141.7322  157.3987 C   0  0  1  0  0  0  0  0  0  0  0  0
  149.5829  140.6495  157.8652 O   0  0  0  0  0  0  0  0  0  0  0  0
  151.2226  142.3501  158.4963 C   0  0  0  0  0  0  0  0  0  0  0  0
  151.1223  143.7274  158.7979 C   0  0  0  0  0  0  0  0  0  0  0  0
  151.9133  144.2929  159.8163 C   0  0  0  0  0  0  0  0  0  0  0  0
  151.8136  145.6139  160.0956 F   0  0  0  0  0  0  0  0  0  0  0  0
  152.8068  143.4852  160.5447 C   0  0  0  0  0  0  0  0  0  0  0  0
  152.9047  142.1105  160.2574 C   0  0  0  0  0  0  0  0  0  0  0  0
  152.1142  141.5429  159.2389 C   0  0  0  0  0  0  0  0  0  0  0  0
  152.2142  140.2166  158.9816 F   0  0  0  0  0  0  0  0  0  0  0  0
  152.3459  137.5196  154.9830 H   0  0  0  0  0  0  0  0  0  0  0  0
  152.1369  138.3523  156.5284 H   0  0  0  0  0  0  0  0  0  0  0  0
  153.0393  139.1283  155.2133 H   0  0  0  0  0  0  0  0  0  0  0  0
  147.6936  138.4164  152.5879 H   0  0  0  0  0  0  0  0  0  0  0  0
  146.1008  140.3221  152.5215 H   0  0  0  0  0  0  0  0  0  0  0  0
  146.5611  142.3908  153.8210 H   0  0  0  0  0  0  0  0  0  0  0  0
  148.6302  142.5639  155.1997 H   0  0  0  0  0  0  0  0  0  0  0  0
  152.1453  140.7997  156.5608 H   0  0  0  0  0  0  0  0  0  0  0  0
  151.5543  142.1441  155.6242 H   0  0  0  0  0  0  0  0  0  0  0  0
  149.6572  142.4860  157.0569 H   0  0  0  0  0  0  0  0  0  0  0  0
  148.6709  140.8652  157.7438 H   0  0  0  0  0  0  0  0  0  0  0  0
  150.4363  144.3576  158.2509 H   0  0  0  0  0  0  0  0  0  0  0  0
  153.4136  143.9189  161.3260 H   0  0  0  0  0  0  0  0  0  0  0  0
  153.5858  141.4896  160.8205 H   0  0  0  0  0  0  0  0  0  0  0  0
  1  2  1  0  0  0  0
  1 22  1  0  0  0  0
  1 23  1  0  0  0  0
  1 24  1  0  0  0  0
  2 10  1  0  0  0  0
  2  3  2  0  0  0  0
  3  4  1  0  0  0  0
  4  9  2  0  0  0  0
  4  5  1  0  0  0  0
  5  6  2  0  0  0  0
  5 25  1  0  0  0  0
  6  7  1  0  0  0  0
  6 26  1  0  0  0  0
  7  8  2  0  0  0  0
  7 27  1  0  0  0  0
  8  9  1  0  0  0  0
  8 28  1  0  0  0  0
  9 10  1  0  0  0  0
 10 11  1  0  0  0  0
 11 12  1  0  0  0  0
 11 29  1  0  0  0  0
 11 30  1  0  0  0  0
 12 13  1  0  0  0  0
 12 14  1  0  0  0  0
 12 31  1  0  0  0  0
 13 32  1  0  0  0  0
 14 20  1  0  0  0  0
 14 15  2  0  0  0  0
 15 16  1  0  0  0  0
 15 33  1  0  0  0  0
 16 17  1  0  0  0  0
 16 18  2  0  0  0  0
 18 19  1  0  0  0  0
 18 34  1  0  0  0  0
 19 20  2  0  0  0  0
 19 35  1  0  0  0  0
 20 21  1  0  0  0  0
M  END
> <s_m_source_file>
AV-unprocessed.smi

> <i_m_source_file_index>
1883

> <i_lp_mmshare_version>
43012

> <i_f3d_flags>
0

> <s_epik_input>
W2NIXTFbY0hdW2NIXVtjSF1jKGMxMiluKGMobjIpW0NIM10pW0NIMl1bQ0BIXShbT0hdKWMzW2NIXWMoRilbY0hdW2NIXWMzRg==

> <s_epik_cmdline>
J2VwaWtfcHl0aG9uJywgJy1waCcsICc3LjAnLCAnLXRuJywgJzgnLCAnLW1hJywgJzIwMCcsICctbWV0YWxfYmluZGluZycsICctaW1hZScsICc8aW5maWxlLm1hZT4nLCAnLW9tYWUnLCAnPG91dGZpbGUubWFlPic=

> <r_epik_Ionization_Penalty>
0.129664

> <r_epik_Ionization_Penalty_Charging>
0

> <r_epik_Ionization_Penalty_Neutral>
0.129664

> <r_epik_State_Penalty>
0.119073

> <r_epik_Charging_Adjusted_Penalty>
0.119073

> <i_epik_Tot_Q>
0

> <i_epik_Tot_abs_Q>
0

> <r_epik_Metal_State_Penalty>
0.000131867

> <b_epik_Metal_Only>
0

> <s_lp_Force_Field>
OPLS_2005

> <r_lp_Energy>
10.6561

> <b_lp_Chiralities_Consistent>
1

> <s_lp_Variant>
AV-unprocessed.smi:1883-2

> <Gold.Version>
5.8.1

> <Gold.Id.Protein>
6NUR|6NUR_protein|mol2

> <Gold.PLP.Fitness>
49.0034

> <Gold.PLP.PLP>
-49.5124

> <Gold.PLP.part.hbond>
0.0000

> <Gold.PLP.part.metal>
0.0000

> <Gold.PLP.part.buried>
0.3583

> <Gold.PLP.part.nonpolar>
-49.5033

> <Gold.PLP.part.repulsive>
0.2407

> <Gold.PLP.ligand.clash>
0.0000

> <Gold.PLP.ligand.torsion>
0.2678

> <Gold.PLP.Chemscore.Hbond>
0.0000

> <Gold.PLP.Chemscore.CHOScore>
0.0000

> <Gold.PLP.Chemscore.Metal>
0.0000

> <Gold.PLP.Chemscore.Internal.Correction>
0.0265

> <Gold.Rescore>
     Score         DG    S(hbond)    S(metal)    S(lipo)     H(rot)  DE(clash)    DE(int)     intcor
     13.30     -15.24       0.00        0.00     124.62       1.88       0.41       1.52       ----

> <Gold.Chemscore.Fitness>
13.3032

> <Gold.Chemscore.DG>
-15.2380

> <Gold.Chemscore.ZeroCoef>
-5.4800

> <Gold.Chemscore.Hbond>
0.0000

> <Gold.Chemscore.Metal>
0.0000

> <Gold.Chemscore.Lipo>
124.6220

> <Gold.Chemscore.Internal_Hbond>
0.0000

> <Gold.Chemscore.DEClash>
0.4149

> <Gold.Chemscore.DEInternal>
1.5199

> <Gold.Chemscore.Rot>
1.8839

> <Gold.Chemscore.Internal.Correction>
   9.000000E+99

> <Gold.Chemscore.Hbond.Weighted>
-0.0000

> <Gold.Chemscore.Metal.Weighted>
-0.0000

> <Gold.Chemscore.Lipo.Weighted>
-14.5808

> <Gold.Chemscore.Internal_Hbond.Weighted>
0.0000

> <Gold.Chemscore.DEClash.Weighted>
0.4149

> <Gold.Chemscore.DEInternal.Weighted>
1.5199

> <Gold.Chemscore.Rot.Weighted>
4.8227

> <Gold.Chemscore.Internal.Correction.Weighted>
   9.000000E+99

> <Gold.Protein.RotatedTorsions>
[ 6907 6896 6895 6894 ] final   49.31 input  -60.11 | X-H torsion
[ 7974 7965 7964 7962 ] final -129.25 input  175.53 | X-H torsion
[ 8008 7997 7996 7995 ] final  153.27 input   59.86 | X-H torsion
[ 10167 10162 10161 10158 ] final  -19.67 input  -65.29 | X-H torsion
[ 10718 10713 10712 10709 ] final  -82.06 input   66.30 | X-H torsion
[ 10763 10752 10751 10750 ] final -148.24 input  -60.55 | X-H torsion
[ 11005 11000 10999 10996 ] final  -96.69 input  -57.11 | X-H torsion

> <Gold.Protein.ActiveResidues>
 VAL166  LYS551  ARG553  GLY616  TRP617  ASP618  TYR619  PRO620  LYS621  CYS622 
 ASP623  PHE694  ASN695  SER759  ASP760  ASP761  ALA762  ILE779  LEU786  VAL792 
 PHE793  MET794  SER795  GLU796  ALA797  LYS798  CYS799  TRP800  GLU811  SER814 

> <Gold.Protein.RotatedAtoms>
  152.2893  134.7740  160.0380 H   0  0  0  0  0  0  0  0  0  0  0  0  # atno 6907 bound_to 6896
  151.8291  133.3400  159.3616 H   0  0  0  0  0  0  0  0  0  0  0  0  # atno 6908 bound_to 6896
  150.7223  134.5429  159.5800 H   0  0  0  0  0  0  0  0  0  0  0  0  # atno 6909 bound_to 6896
  144.9590  140.7426  143.4741 H   0  0  0  0  0  0  0  0  0  0  0  0  # atno 7974 bound_to 7965
  156.2589  140.1998  156.6464 H   0  0  0  0  0  0  0  0  0  0  0  0  # atno 8008 bound_to 7997
  154.6570  140.0565  157.0044 H   0  0  0  0  0  0  0  0  0  0  0  0  # atno 8009 bound_to 7997
  155.1333  140.3236  155.4472 H   0  0  0  0  0  0  0  0  0  0  0  0  # atno 8010 bound_to 7997
  140.7270  143.4796  151.0136 H   0  0  0  0  0  0  0  0  0  0  0  0  # atno 10167 bound_to 10162
  156.0039  130.4622  150.4047 H   0  0  0  0  0  0  0  0  0  0  0  0  # atno 10718 bound_to 10713
  154.8243  135.3339  154.6943 H   0  0  0  0  0  0  0  0  0  0  0  0  # atno 10763 bound_to 10752
  153.7571  135.6935  153.4938 H   0  0  0  0  0  0  0  0  0  0  0  0  # atno 10764 bound_to 10752
  153.2136  135.4473  155.0358 H   0  0  0  0  0  0  0  0  0  0  0  0  # atno 10765 bound_to 10752
  141.1403  133.8116  157.0606 H   0  0  0  0  0  0  0  0  0  0  0  0  # atno 11005 bound_to 11000
  145.2729  139.1948  143.4832 LP  0  0  0  0  0  0  0  0  0  0  0  0  # atno 17320 bound_to 7965
  146.3347  140.2678  142.8604 LP  0  0  0  0  0  0  0  0  0  0  0  0  # atno 17321 bound_to 7965
  139.8494  143.7459  152.3178 LP  0  0  0  0  0  0  0  0  0  0  0  0  # atno 17342 bound_to 10162
  139.7635  144.7499  151.0328 LP  0  0  0  0  0  0  0  0  0  0  0  0  # atno 17343 bound_to 10162
  157.2113  131.0461  151.2597 LP  0  0  0  0  0  0  0  0  0  0  0  0  # atno 17370 bound_to 10713
  157.3886  130.7269  149.6681 LP  0  0  0  0  0  0  0  0  0  0  0  0  # atno 17371 bound_to 10713
  140.0574  134.9773  157.1244 LP  0  0  0  0  0  0  0  0  0  0  0  0  # atno 17394 bound_to 11000
  140.3899  134.2196  155.7166 LP  0  0  0  0  0  0  0  0  0  0  0  0  # atno 17395 bound_to 11000

$$$$
