AV-unprocessed.smi:703|AV-procd|sdf|3434|dock5
  -GOLD-   22720 0423D 1   1.00000     0.00000
 Structure written by MMmdl.
 37 38  0  0  0  0  0  0  0  0  3 V2000
  146.8730  141.7812  154.1514 C   0  0  0  0  0  0  0  0  0  0  0  0
  147.3682  141.3267  155.5310 C   0  0  0  0  0  0  0  0  0  0  0  0
  148.6319  141.9971  155.9236 N   0  3  1  0  0  0  0  0  0  0  0  0
  149.0568  141.7530  157.3230 C   0  0  0  0  0  0  0  0  0  0  0  0
  150.5885  141.7650  157.2924 C   0  0  1  0  0  0  0  0  0  0  0  0
  151.2657  141.1417  158.5314 C   0  0  0  0  0  0  0  0  0  0  0  0
  150.9198  141.1587  155.9162 C   0  0  1  0  0  0  0  0  0  0  0  0
  150.8500  139.7021  155.9508 N   0  5  0  0  0  0  0  0  0  0  0  0
  152.1510  138.8325  155.5311 S   0  0  0  0  0  0  0  0  0  0  0  0
  153.0787  139.5902  154.6758 O   0  0  0  0  0  0  0  0  0  0  0  0
  152.7342  138.1053  156.6703 O   0  0  0  0  0  0  0  0  0  0  0  0
  151.3724  137.5582  154.4504 C   0  0  0  0  0  0  0  0  0  0  0  0
  150.8064  136.4452  155.2871 C   0  0  0  0  0  0  0  0  0  0  0  0
  149.4735  135.9488  155.3172 C   0  0  0  0  0  0  0  0  0  0  0  0
  149.5266  134.9468  156.2422 C   0  0  0  0  0  0  0  0  0  0  0  0
  150.7837  134.8231  156.7373 O   0  0  0  0  0  0  0  0  0  0  0  0
  151.5946  135.7815  156.1187 N   0  0  0  0  0  0  0  0  0  0  0  0
  149.7824  141.6956  155.0326 C   0  0  0  0  0  0  0  0  0  0  0  0
  145.9813  141.2254  153.8606 H   0  0  0  0  0  0  0  0  0  0  0  0
  147.6312  141.6156  153.3856 H   0  0  0  0  0  0  0  0  0  0  0  0
  146.6138  142.8402  154.1451 H   0  0  0  0  0  0  0  0  0  0  0  0
  146.6033  141.5036  156.2887 H   0  0  0  0  0  0  0  0  0  0  0  0
  147.5392  140.2498  155.5027 H   0  0  0  0  0  0  0  0  0  0  0  0
  148.6547  142.5153  157.9912 H   0  0  0  0  0  0  0  0  0  0  0  0
  148.6854  140.7861  157.6732 H   0  0  0  0  0  0  0  0  0  0  0  0
  150.8995  142.8106  157.2550 H   0  0  0  0  0  0  0  0  0  0  0  0
  150.9672  140.1044  158.6930 H   0  0  0  0  0  0  0  0  0  0  0  0
  150.9943  141.6950  159.4308 H   0  0  0  0  0  0  0  0  0  0  0  0
  152.3540  141.1671  158.4537 H   0  0  0  0  0  0  0  0  0  0  0  0
  151.8840  141.5216  155.5584 H   0  0  0  0  0  0  0  0  0  0  0  0
  150.5919  138.0397  153.8617 H   0  0  0  0  0  0  0  0  0  0  0  0
  152.1307  137.1894  153.7593 H   0  0  0  0  0  0  0  0  0  0  0  0
  148.6146  136.2823  154.7538 H   0  0  0  0  0  0  0  0  0  0  0  0
  148.7909  134.2619  156.6372 H   0  0  0  0  0  0  0  0  0  0  0  0
  149.5252  141.0149  154.2185 H   0  0  0  0  0  0  0  0  0  0  0  0
  150.0906  142.6333  154.5691 H   0  0  0  0  0  0  0  0  0  0  0  0
  148.4765  142.9911  155.8375 H   0  0  0  0  0  0  0  0  0  0  0  0
  1  2  1  0  0  0  0
  1 19  1  0  0  0  0
  1 20  1  0  0  0  0
  1 21  1  0  0  0  0
  2  3  1  0  0  0  0
  2 22  1  0  0  0  0
  2 23  1  0  0  0  0
  3 18  1  0  0  0  0
  3  4  1  0  0  0  0
  3 37  1  0  0  0  0
  4  5  1  0  0  0  0
  4 24  1  0  0  0  0
  4 25  1  0  0  0  0
  5  6  1  0  0  0  0
  5  7  1  0  0  0  0
  5 26  1  0  0  0  0
  6 27  1  0  0  0  0
  6 28  1  0  0  0  0
  6 29  1  0  0  0  0
  7  8  1  0  0  0  0
  7 18  1  0  0  0  0
  7 30  1  0  0  0  0
  8  9  1  0  0  0  0
  9 10  2  0  0  0  0
  9 11  2  0  0  0  0
  9 12  1  0  0  0  0
 12 13  1  0  0  0  0
 12 31  1  0  0  0  0
 12 32  1  0  0  0  0
 13 17  2  0  0  0  0
 13 14  1  0  0  0  0
 14 15  2  0  0  0  0
 14 33  1  0  0  0  0
 15 16  1  0  0  0  0
 15 34  1  0  0  0  0
 16 17  1  0  0  0  0
 18 35  1  0  0  0  0
 18 36  1  0  0  0  0
M  CHG  1   3   1
M  CHG  1   8  -1
M  END
> <s_m_source_file>
AV-unprocessed.smi

> <i_m_source_file_index>
703

> <i_lp_mmshare_version>
43012

> <i_f3d_flags>
0

> <s_epik_input>
W0NIM11bQ0gyXU4xW0NIMl1bQ0BASF0oW0NIM10pW0NASF0oW0NIMl0xKVtOSF1TKD1PKSg9TylbQ0gyXWMyW2NIXVtjSF1vbjI=

> <s_epik_cmdline>
J2VwaWtfcHl0aG9uJywgJy1waCcsICc3LjAnLCAnLXRuJywgJzgnLCAnLW1hJywgJzIwMCcsICctbWV0YWxfYmluZGluZycsICctaW1hZScsICc8aW5maWxlLm1hZT4nLCAnLW9tYWUnLCAnPG91dGZpbGUubWFlPic=

> <r_epik_Ionization_Penalty>
3.62494

> <r_epik_Ionization_Penalty_Charging>
3.62494

> <r_epik_Ionization_Penalty_Neutral>
2.0321e-10

> <r_epik_State_Penalty>
3.62558

> <r_epik_Charging_Adjusted_Penalty>
7.25052

> <i_epik_Tot_Q>
0

> <i_epik_Tot_abs_Q>
2

> <r_epik_Metal_State_Penalty>
0.530836

> <b_epik_Metal_Only>
1

> <s_lp_Force_Field>
OPLS_2005

> <r_lp_Energy>
18.2255

> <b_lp_Chiralities_Consistent>
1

> <s_lp_Variant>
AV-unprocessed.smi:703-9

> <Gold.Version>
5.8.1

> <Gold.Id.Protein>
6NUR|6NUR_protein|mol2

> <Gold.PLP.Fitness>
41.2817

> <Gold.PLP.PLP>
-29.9129

> <Gold.PLP.part.hbond>
-4.0183

> <Gold.PLP.part.metal>
0.0000

> <Gold.PLP.part.buried>
-3.9345

> <Gold.PLP.part.nonpolar>
-21.5387

> <Gold.PLP.part.repulsive>
0.1168

> <Gold.PLP.ligand.clash>
0.0000

> <Gold.PLP.ligand.torsion>
1.0955

> <Gold.PLP.Chemscore.Hbond>
4.1716

> <Gold.PLP.Chemscore.CHOScore>
0.0000

> <Gold.PLP.Chemscore.Metal>
0.0000

> <Gold.Chemscore.Hbonds>
donor molecule, donor type, donor heavy atom, donor atom, acceptor molecule, acceptor atom, score
      L1  H     3    37       P1  8028  2.00
      P1  H  7989  7998       L1    10  0.19
      P1  H  7997  8008       L1    10  1.00
      P1  H 10752 10765       L1    17  1.00

> <Gold.PLP.Chemscore.Internal.Correction>
1.0450

> <Gold.Rescore>
     Score         DG    S(hbond)    S(metal)    S(lipo)     H(rot)  DE(clash)    DE(int)     intcor
     15.54     -18.28       2.88        0.00      62.84       1.63       0.24       2.50       ----

> <Gold.Chemscore.Fitness>
15.5363

> <Gold.Chemscore.DG>
-18.2843

> <Gold.Chemscore.ZeroCoef>
-5.4800

> <Gold.Chemscore.Hbond>
2.8847

> <Gold.Chemscore.Metal>
0.0000

> <Gold.Chemscore.Lipo>
62.8377

> <Gold.Chemscore.Internal_Hbond>
0.0000

> <Gold.Chemscore.DEClash>
0.2449

> <Gold.Chemscore.DEInternal>
2.5030

> <Gold.Chemscore.Rot>
1.6338

> <Gold.Chemscore.Internal.Correction>
   9.000000E+99

> <Gold.Chemscore.Hbonds>
donor molecule, donor type, donor heavy atom, donor atom, acceptor molecule, acceptor atom, score
      L1  H     3    37       P1  8028  0.98
      P1  H  7989  7998       L1    10  0.07
      P1  H  7997  8008       L1    10  0.87
      P1  H 10752 10765       L1    17  0.30

> <Gold.Chemscore.Hbond.Weighted>
-9.6348

> <Gold.Chemscore.Metal.Weighted>
-0.0000

> <Gold.Chemscore.Lipo.Weighted>
-7.3520

> <Gold.Chemscore.Internal_Hbond.Weighted>
0.0000

> <Gold.Chemscore.DEClash.Weighted>
0.2449

> <Gold.Chemscore.DEInternal.Weighted>
2.5030

> <Gold.Chemscore.Rot.Weighted>
4.1825

> <Gold.Chemscore.Internal.Correction.Weighted>
   9.000000E+99

> <Gold.Protein.RotatedTorsions>
[ 6907 6896 6895 6894 ] final   30.30 input  -60.11 | X-H torsion
[ 7974 7965 7964 7962 ] final   40.63 input  175.53 | X-H torsion
[ 8008 7997 7996 7995 ] final    7.59 input   59.86 | X-H torsion
[ 10167 10162 10161 10158 ] final  -38.86 input  -65.29 | X-H torsion
[ 10718 10713 10712 10709 ] final  -18.87 input   66.30 | X-H torsion
[ 10763 10752 10751 10750 ] final -152.06 input  -60.55 | X-H torsion
[ 11005 11000 10999 10996 ] final -120.55 input  -57.11 | X-H torsion

> <Gold.Protein.ActiveResidues>
 VAL166  LYS551  ARG553  GLY616  TRP617  ASP618  TYR619  PRO620  LYS621  CYS622 
 ASP623  PHE694  ASN695  SER759  ASP760  ASP761  ALA762  ILE779  LEU786  VAL792 
 PHE793  MET794  SER795  GLU796  ALA797  LYS798  CYS799  TRP800  GLU811  SER814 

> <Gold.Protein.RotatedAtoms>
  152.0440  134.9694  160.0573 H   0  0  0  0  0  0  0  0  0  0  0  0  # atno 6907 bound_to 6896
  152.1121  133.4302  159.4644 H   0  0  0  0  0  0  0  0  0  0  0  0  # atno 6908 bound_to 6896
  150.6844  134.2555  159.4571 H   0  0  0  0  0  0  0  0  0  0  0  0  # atno 6909 bound_to 6896
  146.0889  139.5510  142.9489 H   0  0  0  0  0  0  0  0  0  0  0  0  # atno 7974 bound_to 7965
  154.7558  140.2775  155.6255 H   0  0  0  0  0  0  0  0  0  0  0  0  # atno 8008 bound_to 7997
  156.2905  140.2669  156.2250 H   0  0  0  0  0  0  0  0  0  0  0  0  # atno 8009 bound_to 7997
  155.0079  140.0372  157.2377 H   0  0  0  0  0  0  0  0  0  0  0  0  # atno 8010 bound_to 7997
  140.7080  143.3251  151.2700 H   0  0  0  0  0  0  0  0  0  0  0  0  # atno 10167 bound_to 10162
  156.5535  130.4707  149.6440 H   0  0  0  0  0  0  0  0  0  0  0  0  # atno 10718 bound_to 10713
  154.8018  135.3245  154.7531 H   0  0  0  0  0  0  0  0  0  0  0  0  # atno 10763 bound_to 10752
  153.8197  135.6888  153.4833 H   0  0  0  0  0  0  0  0  0  0  0  0  # atno 10764 bound_to 10752
  153.1739  135.4612  154.9883 H   0  0  0  0  0  0  0  0  0  0  0  0  # atno 10765 bound_to 10752
  141.0135  134.0229  157.3381 H   0  0  0  0  0  0  0  0  0  0  0  0  # atno 11005 bound_to 11000
  145.6077  141.0345  143.1984 LP  0  0  0  0  0  0  0  0  0  0  0  0  # atno 17320 bound_to 7965
  144.7346  139.7625  143.7334 LP  0  0  0  0  0  0  0  0  0  0  0  0  # atno 17321 bound_to 7965
  139.6716  144.0010  152.2756 LP  0  0  0  0  0  0  0  0  0  0  0  0  # atno 17342 bound_to 10162
  139.9610  144.6557  150.8079 LP  0  0  0  0  0  0  0  0  0  0  0  0  # atno 17343 bound_to 10162
  156.2863  130.7099  151.1936 LP  0  0  0  0  0  0  0  0  0  0  0  0  # atno 17370 bound_to 10713
  157.7383  131.0542  150.5304 LP  0  0  0  0  0  0  0  0  0  0  0  0  # atno 17371 bound_to 10713
  139.9103  135.0189  156.7665 LP  0  0  0  0  0  0  0  0  0  0  0  0  # atno 17394 bound_to 11000
  140.6693  133.9574  155.7848 LP  0  0  0  0  0  0  0  0  0  0  0  0  # atno 17395 bound_to 11000

$$$$
