AV-unprocessed.smi:3166|AV-procd|sdf|12094|dock1
  -GOLD-   2272017523D 1   1.00000     0.00000
 Structure written by MMmdl.
 41 42  0  0  0  0  0  0  0  0  2 V2000
  145.2826  136.1265  151.6347 C   0  0  0  0  0  0  0  0  0  0  0  0
  145.7633  135.5093  152.9586 C   0  0  1  0  0  0  0  0  0  0  0  0
  146.3847  134.1189  152.7141 C   0  0  0  0  0  0  0  0  0  0  0  0
  145.4577  133.1813  152.1026 N   0  0  0  0  0  0  0  0  0  0  0  0
  145.6931  131.8826  151.7020 C   0  0  0  0  0  0  0  0  0  0  0  0
  144.5321  131.4060  151.1640 C   0  0  0  0  0  0  0  0  0  0  0  0
  143.6333  132.5034  151.2724 C   0  0  0  0  0  0  0  0  0  0  0  0
  144.1915  133.5654  151.8307 N   0  0  0  0  0  0  0  0  0  0  0  0
  146.7420  136.3902  153.6358 N   0  3  0  0  0  0  0  0  0  0  0  0
  146.2672  137.7587  153.9368 C   0  0  0  0  0  0  0  0  0  0  0  0
  147.3275  138.8304  153.6000 C   0  0  0  0  0  0  0  0  0  0  0  0
  147.6407  138.6902  152.2254 O   0  0  0  0  0  0  0  0  0  0  0  0
  146.8085  140.2657  153.8664 C   0  0  0  0  0  0  0  0  0  0  0  0
  147.8914  141.3405  153.6631 C   0  0  0  0  0  0  0  0  0  0  0  0
  149.1356  141.0496  154.5131 C   0  0  0  0  0  0  0  0  0  0  0  0
  149.6909  139.6507  154.2124 C   0  0  0  0  0  0  0  0  0  0  0  0
  148.6171  138.5663  154.4134 C   0  0  0  0  0  0  0  0  0  0  0  0
  144.5884  135.4588  151.1237 H   0  0  0  0  0  0  0  0  0  0  0  0
  146.1171  136.3157  150.9585 H   0  0  0  0  0  0  0  0  0  0  0  0
  144.7590  137.0691  151.7922 H   0  0  0  0  0  0  0  0  0  0  0  0
  144.8988  135.3880  153.6133 H   0  0  0  0  0  0  0  0  0  0  0  0
  147.2532  134.2043  152.0596 H   0  0  0  0  0  0  0  0  0  0  0  0
  146.7428  133.6932  153.6528 H   0  0  0  0  0  0  0  0  0  0  0  0
  146.6556  131.4095  151.8304 H   0  0  0  0  0  0  0  0  0  0  0  0
  144.3529  130.4244  150.7508 H   0  0  0  0  0  0  0  0  0  0  0  0
  142.6004  132.5601  150.9619 H   0  0  0  0  0  0  0  0  0  0  0  0
  146.9710  135.9624  154.5224 H   0  0  0  0  0  0  0  0  0  0  0  0
  145.3550  137.9570  153.3739 H   0  0  0  0  0  0  0  0  0  0  0  0
  146.0046  137.8176  154.9943 H   0  0  0  0  0  0  0  0  0  0  0  0
  147.7127  137.7683  152.0274 H   0  0  0  0  0  0  0  0  0  0  0  0
  145.9558  140.4927  153.2257 H   0  0  0  0  0  0  0  0  0  0  0  0
  146.4411  140.3304  154.8918 H   0  0  0  0  0  0  0  0  0  0  0  0
  148.1707  141.3901  152.6098 H   0  0  0  0  0  0  0  0  0  0  0  0
  147.4906  142.3218  153.9191 H   0  0  0  0  0  0  0  0  0  0  0  0
  149.9008  141.8028  154.3229 H   0  0  0  0  0  0  0  0  0  0  0  0
  148.8829  141.1250  155.5715 H   0  0  0  0  0  0  0  0  0  0  0  0
  150.0662  139.6168  153.1890 H   0  0  0  0  0  0  0  0  0  0  0  0
  150.5458  139.4470  154.8578 H   0  0  0  0  0  0  0  0  0  0  0  0
  148.3684  138.5193  155.4747 H   0  0  0  0  0  0  0  0  0  0  0  0
  149.0326  137.5899  154.1601 H   0  0  0  0  0  0  0  0  0  0  0  0
  147.5834  136.4428  153.0803 H   0  0  0  0  0  0  0  0  0  0  0  0
  1  2  1  0  0  0  0
  1 18  1  0  0  0  0
  1 19  1  0  0  0  0
  1 20  1  0  0  0  0
  2  3  1  0  0  0  0
  2  9  1  0  0  0  0
  2 21  1  0  0  0  0
  3  4  1  0  0  0  0
  3 22  1  0  0  0  0
  3 23  1  0  0  0  0
  4  8  1  0  0  0  0
  4  5  1  0  0  0  0
  5  6  2  0  0  0  0
  5 24  1  0  0  0  0
  6  7  1  0  0  0  0
  6 25  1  0  0  0  0
  7  8  2  0  0  0  0
  7 26  1  0  0  0  0
  9 10  1  0  0  0  0
  9 27  1  0  0  0  0
  9 41  1  0  0  0  0
 10 11  1  0  0  0  0
 10 28  1  0  0  0  0
 10 29  1  0  0  0  0
 11 17  1  0  0  0  0
 11 12  1  0  0  0  0
 11 13  1  0  0  0  0
 12 30  1  0  0  0  0
 13 14  1  0  0  0  0
 13 31  1  0  0  0  0
 13 32  1  0  0  0  0
 14 15  1  0  0  0  0
 14 33  1  0  0  0  0
 14 34  1  0  0  0  0
 15 16  1  0  0  0  0
 15 35  1  0  0  0  0
 15 36  1  0  0  0  0
 16 17  1  0  0  0  0
 16 37  1  0  0  0  0
 16 38  1  0  0  0  0
 17 39  1  0  0  0  0
 17 40  1  0  0  0  0
M  CHG  1   9   1
M  END
> <s_m_source_file>
AV-unprocessed.smi

> <i_m_source_file_index>
3166

> <i_lp_mmshare_version>
43012

> <i_f3d_flags>
0

> <s_epik_input>
bjFbY0hdW2NIXVtjSF1uMVtDSDJdW0NAQEhdKFtDSDNdKVtOSF1bQ0gyXUMyKFtPSF0pW0NIMl1bQ0gyXVtDSDJdW0NIMl1bQ0gyXTI=

> <s_epik_cmdline>
J2VwaWtfcHl0aG9uJywgJy1waCcsICc3LjAnLCAnLXRuJywgJzgnLCAnLW1hJywgJzIwMCcsICctbWV0YWxfYmluZGluZycsICctaW1hZScsICc8aW5maWxlLm1hZT4nLCAnLW9tYWUnLCAnPG91dGZpbGUubWFlPic=

> <r_lp_tautomer_probability>
1

> <r_epik_Ionization_Penalty>
0.0111521

> <r_epik_Ionization_Penalty_Charging>
0.0111472

> <r_epik_Ionization_Penalty_Neutral>
4.96355e-06

> <r_epik_State_Penalty>
0.00856328

> <r_epik_Charging_Adjusted_Penalty>
0.0197104

> <i_epik_Tot_Q>
1

> <i_epik_Tot_abs_Q>
1

> <r_epik_Metal_State_Penalty>
0.00856387

> <b_epik_Metal_Only>
0

> <s_lp_Force_Field>
OPLS_2005

> <r_lp_Energy>
16.9358

> <b_lp_Chiralities_Consistent>
1

> <s_lp_Variant>
AV-unprocessed.smi:3166-2

> <Gold.Version>
5.8.1

> <Gold.Id.Protein>
6NUR|6NUR_protein|mol2

> <Gold.PLP.Fitness>
48.1266

> <Gold.PLP.PLP>
-33.6070

> <Gold.PLP.part.hbond>
-2.4370

> <Gold.PLP.part.metal>
0.0000

> <Gold.PLP.part.buried>
-2.9360

> <Gold.PLP.part.nonpolar>
-27.0450

> <Gold.PLP.part.repulsive>
0.1343

> <Gold.PLP.ligand.clash>
0.0000

> <Gold.PLP.ligand.torsion>
0.3218

> <Gold.PLP.Chemscore.Hbond>
3.0000

> <Gold.PLP.Chemscore.CHOScore>
2.0000

> <Gold.PLP.Chemscore.Metal>
0.0000

> <Gold.Chemscore.Hbonds>
donor molecule, donor type, donor heavy atom, donor atom, acceptor molecule, acceptor atom, score
      L1  H     9    41       P1  7948  2.00
      L1  H    12    30       P1  7948  0.90
      L1  C     5    24       P1 10747  0.21
      L1  C     7    26       P1 10186  0.28

> <Gold.PLP.Chemscore.Internal.Correction>
0.1633

> <Gold.Rescore>
     Score         DG    S(hbond)    S(metal)    S(lipo)     H(rot)  DE(clash)    DE(int)     intcor
     14.66     -16.55       1.97        0.00      86.44       2.20       0.20       1.70       ----

> <Gold.Chemscore.Fitness>
14.6568

> <Gold.Chemscore.DG>
-16.5532

> <Gold.Chemscore.ZeroCoef>
-5.4800

> <Gold.Chemscore.Hbond>
1.9730

> <Gold.Chemscore.Metal>
0.0000

> <Gold.Chemscore.Lipo>
86.4368

> <Gold.Chemscore.Internal_Hbond>
0.0000

> <Gold.Chemscore.DEClash>
0.2011

> <Gold.Chemscore.DEInternal>
1.6953

> <Gold.Chemscore.Rot>
2.1991

> <Gold.Chemscore.Internal.Correction>
   9.000000E+99

> <Gold.Chemscore.Hbonds>
donor molecule, donor type, donor heavy atom, donor atom, acceptor molecule, acceptor atom, score
      L1  H     9    41       P1  7948  1.00
      L1  H    12    30       P1  7948  0.87

> <Gold.Chemscore.Hbond.Weighted>
-6.5899

> <Gold.Chemscore.Metal.Weighted>
-0.0000

> <Gold.Chemscore.Lipo.Weighted>
-10.1131

> <Gold.Chemscore.Internal_Hbond.Weighted>
0.0000

> <Gold.Chemscore.DEClash.Weighted>
0.2011

> <Gold.Chemscore.DEInternal.Weighted>
1.6953

> <Gold.Chemscore.Rot.Weighted>
5.6298

> <Gold.Chemscore.Internal.Correction.Weighted>
   9.000000E+99

> <Gold.Protein.RotatedTorsions>
[ 6907 6896 6895 6894 ] final -171.79 input  -60.11 | X-H torsion
[ 7974 7965 7964 7962 ] final  153.85 input  175.53 | X-H torsion
[ 8008 7997 7996 7995 ] final  -54.70 input   59.86 | X-H torsion
[ 10167 10162 10161 10158 ] final  101.56 input  -65.29 | X-H torsion
[ 10718 10713 10712 10709 ] final  145.38 input   66.30 | X-H torsion
[ 10763 10752 10751 10750 ] final   55.86 input  -60.55 | X-H torsion
[ 11005 11000 10999 10996 ] final -124.10 input  -57.11 | X-H torsion

> <Gold.Protein.ActiveResidues>
 VAL166  LYS551  ARG553  GLY616  TRP617  ASP618  TYR619  PRO620  LYS621  CYS622 
 ASP623  PHE694  ASN695  SER759  ASP760  ASP761  ALA762  ILE779  LEU786  VAL792 
 PHE793  MET794  SER795  GLU796  ALA797  LYS798  CYS799  TRP800  GLU811  SER814 

> <Gold.Protein.RotatedAtoms>
  151.5295  133.3451  159.2915 H   0  0  0  0  0  0  0  0  0  0  0  0  # atno 6907 bound_to 6896
  150.8602  134.7954  159.7088 H   0  0  0  0  0  0  0  0  0  0  0  0  # atno 6908 bound_to 6896
  152.4624  134.5163  159.9821 H   0  0  0  0  0  0  0  0  0  0  0  0  # atno 6909 bound_to 6896
  144.8127  139.6855  143.6134 H   0  0  0  0  0  0  0  0  0  0  0  0  # atno 7974 bound_to 7965
  154.4171  140.1170  156.5357 H   0  0  0  0  0  0  0  0  0  0  0  0  # atno 8008 bound_to 7997
  155.6560  140.3496  155.4746 H   0  0  0  0  0  0  0  0  0  0  0  0  # atno 8009 bound_to 7997
  155.9753  140.1149  157.0765 H   0  0  0  0  0  0  0  0  0  0  0  0  # atno 8010 bound_to 7997
  139.7427  144.7006  151.0550 H   0  0  0  0  0  0  0  0  0  0  0  0  # atno 10167 bound_to 10162
  157.3459  131.0943  151.1042 H   0  0  0  0  0  0  0  0  0  0  0  0  # atno 10718 bound_to 10713
  152.9823  135.5696  154.5136 H   0  0  0  0  0  0  0  0  0  0  0  0  # atno 10763 bound_to 10752
  154.4635  135.2782  155.1697 H   0  0  0  0  0  0  0  0  0  0  0  0  # atno 10764 bound_to 10752
  154.3275  135.6256  153.5589 H   0  0  0  0  0  0  0  0  0  0  0  0  # atno 10765 bound_to 10752
  140.9867  134.0596  157.3702 H   0  0  0  0  0  0  0  0  0  0  0  0  # atno 11005 bound_to 11000
  146.2428  139.6035  142.9480 LP  0  0  0  0  0  0  0  0  0  0  0  0  # atno 17320 bound_to 7965
  145.5286  141.0428  143.2396 LP  0  0  0  0  0  0  0  0  0  0  0  0  # atno 17321 bound_to 7965
  140.7788  143.4904  150.9900 LP  0  0  0  0  0  0  0  0  0  0  0  0  # atno 17342 bound_to 10162
  139.8592  143.7336  152.3174 LP  0  0  0  0  0  0  0  0  0  0  0  0  # atno 17343 bound_to 10162
  157.2236  130.6492  149.5821 LP  0  0  0  0  0  0  0  0  0  0  0  0  # atno 17370 bound_to 10713
  155.9714  130.4621  150.6134 LP  0  0  0  0  0  0  0  0  0  0  0  0  # atno 17371 bound_to 10713
  139.8974  135.0150  156.7097 LP  0  0  0  0  0  0  0  0  0  0  0  0  # atno 17394 bound_to 11000
  140.7103  133.9229  155.8080 LP  0  0  0  0  0  0  0  0  0  0  0  0  # atno 17395 bound_to 11000

$$$$
