AV-unprocessed.smi:97|AV-procd|sdf|862|dock4
  -GOLD-   2262017313D 1   1.00000     0.00000
 Structure written by MMmdl.
 46 49  0  0  0  0  0  0  0  0  1 V2000
  151.1110  136.8935  159.5158 O   0  0  0  0  0  0  0  0  0  0  0  0
  150.5067  137.6252  158.7329 C   0  0  0  0  0  0  0  0  0  0  0  0
  149.1404  137.1731  158.1866 C   0  0  0  0  0  0  0  0  0  0  0  0
  148.5233  136.0467  158.9256 N   0  0  0  0  0  0  0  0  0  0  0  0
  148.5812  134.7445  158.3692 C   0  0  0  0  0  0  0  0  0  0  0  0
  149.1331  134.5358  157.2882 O   0  0  0  0  0  0  0  0  0  0  0  0
  147.9594  133.6914  159.1646 C   0  0  0  0  0  0  0  0  0  0  0  0
  147.9461  132.4292  158.7039 F   0  0  0  0  0  0  0  0  0  0  0  0
  147.3975  133.9641  160.3601 C   0  0  0  0  0  0  0  0  0  0  0  0
  147.3740  135.2349  160.9034 N   0  0  0  0  0  0  0  0  0  0  0  0
  146.7444  135.4964  162.2526 C   0  0  1  0  0  0  0  0  0  0  0  0
  145.6622  136.5760  162.1338 C   0  0  0  0  0  0  0  0  0  0  0  0
  144.3983  135.7483  162.0422 C   0  0  0  0  0  0  0  0  0  0  0  0
  144.7454  134.5598  162.9301 C   0  0  0  0  0  0  0  0  0  0  0  0
  146.1305  134.3221  162.7005 O   0  0  0  0  0  0  0  0  0  0  0  0
  147.9261  136.3142  160.1814 C   0  0  0  0  0  0  0  0  0  0  0  0
  147.8945  137.4596  160.6365 O   0  0  0  0  0  0  0  0  0  0  0  0
  151.0008  138.7982  158.3025 N   0  0  0  0  0  0  0  0  0  0  0  0
  152.3320  139.3126  158.5984 C   0  0  0  0  0  0  0  0  0  0  0  0
  152.3293  140.7720  159.0308 C   0  0  0  0  0  0  0  0  0  0  0  0
  152.9916  141.1797  160.2220 C   0  0  0  0  0  0  0  0  0  0  0  0
  152.9932  142.5342  160.6241 C   0  0  0  0  0  0  0  0  0  0  0  0
  152.3265  143.4599  159.8061 C   0  0  0  0  0  0  0  0  0  0  0  0
  151.6879  143.0722  158.6464 C   0  0  0  0  0  0  0  0  0  0  0  0
  151.6710  141.7324  158.2254 C   0  0  0  0  0  0  0  0  0  0  0  0
  151.1302  144.1570  158.0506 O   0  0  0  0  0  0  0  0  0  0  0  0
  151.4386  145.2499  158.8767 C   0  0  0  0  0  0  0  0  0  0  0  0
  152.1902  144.7998  159.9744 O   0  0  0  0  0  0  0  0  0  0  0  0
  148.4697  138.0341  158.1868 H   0  0  0  0  0  0  0  0  0  0  0  0
  149.2636  136.9400  157.1283 H   0  0  0  0  0  0  0  0  0  0  0  0
  146.9488  133.1471  160.9053 H   0  0  0  0  0  0  0  0  0  0  0  0
  147.5570  135.7600  162.9313 H   0  0  0  0  0  0  0  0  0  0  0  0
  145.6638  137.1713  163.0477 H   0  0  0  0  0  0  0  0  0  0  0  0
  145.8243  137.2365  161.2811 H   0  0  0  0  0  0  0  0  0  0  0  0
  143.5095  136.2849  162.3754 H   0  0  0  0  0  0  0  0  0  0  0  0
  144.2349  135.4197  161.0152 H   0  0  0  0  0  0  0  0  0  0  0  0
  144.6016  134.8150  163.9809 H   0  0  0  0  0  0  0  0  0  0  0  0
  144.1451  133.6773  162.7081 H   0  0  0  0  0  0  0  0  0  0  0  0
  150.4351  139.3428  157.6683 H   0  0  0  0  0  0  0  0  0  0  0  0
  152.7533  138.7177  159.4088 H   0  0  0  0  0  0  0  0  0  0  0  0
  152.9915  139.1745  157.7397 H   0  0  0  0  0  0  0  0  0  0  0  0
  153.5044  140.4544  160.8365 H   0  0  0  0  0  0  0  0  0  0  0  0
  153.4927  142.8471  161.5290 H   0  0  0  0  0  0  0  0  0  0  0  0
  151.1655  141.4485  157.3139 H   0  0  0  0  0  0  0  0  0  0  0  0
  152.0173  145.9823  158.3129 H   0  0  0  0  0  0  0  0  0  0  0  0
  150.5163  145.7123  159.2307 H   0  0  0  0  0  0  0  0  0  0  0  0
  1  2  2  0  0  0  0
  2  3  1  0  0  0  0
  2 18  1  0  0  0  0
  3  4  1  0  0  0  0
  3 29  1  0  0  0  0
  3 30  1  0  0  0  0
  4 16  1  0  0  0  0
  4  5  1  0  0  0  0
  5  6  2  0  0  0  0
  5  7  1  0  0  0  0
  7  8  1  0  0  0  0
  7  9  2  0  0  0  0
  9 10  1  0  0  0  0
  9 31  1  0  0  0  0
 10 11  1  0  0  0  0
 10 16  1  0  0  0  0
 11 15  1  0  0  0  0
 11 12  1  0  0  0  0
 11 32  1  0  0  0  0
 12 13  1  0  0  0  0
 12 33  1  0  0  0  0
 12 34  1  0  0  0  0
 13 14  1  0  0  0  0
 13 35  1  0  0  0  0
 13 36  1  0  0  0  0
 14 15  1  0  0  0  0
 14 37  1  0  0  0  0
 14 38  1  0  0  0  0
 16 17  2  0  0  0  0
 18 19  1  0  0  0  0
 18 39  1  0  0  0  0
 19 20  1  0  0  0  0
 19 40  1  0  0  0  0
 19 41  1  0  0  0  0
 20 25  1  0  0  0  0
 20 21  2  0  0  0  0
 21 22  1  0  0  0  0
 21 42  1  0  0  0  0
 22 23  2  0  0  0  0
 22 43  1  0  0  0  0
 23 28  1  0  0  0  0
 23 24  1  0  0  0  0
 24 25  2  0  0  0  0
 24 26  1  0  0  0  0
 25 44  1  0  0  0  0
 26 27  1  0  0  0  0
 27 28  1  0  0  0  0
 27 45  1  0  0  0  0
 27 46  1  0  0  0  0
M  END
> <s_m_source_file>
AV-unprocessed.smi

> <i_m_source_file_index>
97

> <i_lp_mmshare_version>
43012

> <i_f3d_flags>
0

> <s_epik_input>
TzFbQ0gyXU9jKGMxMilbY0hdYyhbY0hdW2NIXTIpW0NIMl1bTkhdQyg9TylbQ0gyXW4zYyg9TyljKEYpW2NIXW4oYzM9TylbQ0BASF00W0NIMl1bQ0gyXVtDSDJdTzQ=

> <s_epik_cmdline>
J2VwaWtfcHl0aG9uJywgJy1waCcsICc3LjAnLCAnLXRuJywgJzgnLCAnLW1hJywgJzIwMCcsICctbWV0YWxfYmluZGluZycsICctaW1hZScsICc8aW5maWxlLm1hZT4nLCAnLW9tYWUnLCAnPG91dGZpbGUubWFlPic=

> <r_lp_tautomer_probability>
1

> <r_epik_Ionization_Penalty>
3.79042e-08

> <r_epik_Ionization_Penalty_Charging>
3.81036e-09

> <r_epik_Ionization_Penalty_Neutral>
3.40938e-08

> <r_epik_State_Penalty>
-0

> <r_epik_Charging_Adjusted_Penalty>
3.81036e-09

> <i_epik_Tot_Q>
0

> <i_epik_Tot_abs_Q>
0

> <r_epik_Metal_State_Penalty>
-0

> <b_epik_Metal_Only>
0

> <s_epik_Chemistry_Notes>
This compound contains an acetal/aminal-like group ( X-CH(R)-Y where X, Y are N, S, or O) that may be acid/base labile, releasing an aldehyde.

> <s_lp_Force_Field>
OPLS_2005

> <r_lp_Energy>
39.492

> <b_lp_Chiralities_Consistent>
1

> <s_lp_Variant>
AV-unprocessed.smi:97-2

> <Gold.Version>
5.8.1

> <Gold.Id.Protein>
6NUR|6NUR_protein|mol2

> <Gold.PLP.Fitness>
55.8020

> <Gold.PLP.PLP>
-49.5751

> <Gold.PLP.part.hbond>
-3.3400

> <Gold.PLP.part.metal>
0.0000

> <Gold.PLP.part.buried>
-7.0861

> <Gold.PLP.part.nonpolar>
-39.3425

> <Gold.PLP.part.repulsive>
0.3158

> <Gold.PLP.ligand.clash>
0.0000

> <Gold.PLP.ligand.torsion>
0.6025

> <Gold.PLP.Chemscore.Hbond>
2.4560

> <Gold.PLP.Chemscore.CHOScore>
0.0000

> <Gold.PLP.Chemscore.Metal>
0.0000

> <Gold.Chemscore.Hbonds>
donor molecule, donor type, donor heavy atom, donor atom, acceptor molecule, acceptor atom, score
      P1  H  6896  6909       L1     1  1.00
      P1  H  6931  6943       L1    17  0.67
      P1  H  6934  6947       L1    17  0.75

> <Gold.PLP.Chemscore.Internal.Correction>
0.0638

> <Gold.Rescore>
     Score         DG    S(hbond)    S(metal)    S(lipo)     H(rot)  DE(clash)    DE(int)     intcor
     17.03     -18.99       2.69        0.00      95.13       2.58       0.30       1.66       ----

> <Gold.Chemscore.Fitness>
17.0259

> <Gold.Chemscore.DG>
-18.9946

> <Gold.Chemscore.ZeroCoef>
-5.4800

> <Gold.Chemscore.Hbond>
2.6916

> <Gold.Chemscore.Metal>
0.0000

> <Gold.Chemscore.Lipo>
95.1255

> <Gold.Chemscore.Internal_Hbond>
0.0000

> <Gold.Chemscore.DEClash>
0.3039

> <Gold.Chemscore.DEInternal>
1.6648

> <Gold.Chemscore.Rot>
2.5801

> <Gold.Chemscore.Internal.Correction>
   9.000000E+99

> <Gold.Chemscore.Hbonds>
donor molecule, donor type, donor heavy atom, donor atom, acceptor molecule, acceptor atom, score
      P1  H  6896  6909       L1     1  0.97
      P1  H  6931  6943       L1    17  0.68
      P1  H  6934  6947       L1    17  0.76

> <Gold.Chemscore.Hbond.Weighted>
-8.9900

> <Gold.Chemscore.Metal.Weighted>
-0.0000

> <Gold.Chemscore.Lipo.Weighted>
-11.1297

> <Gold.Chemscore.Internal_Hbond.Weighted>
0.0000

> <Gold.Chemscore.DEClash.Weighted>
0.3039

> <Gold.Chemscore.DEInternal.Weighted>
1.6648

> <Gold.Chemscore.Rot.Weighted>
6.6050

> <Gold.Chemscore.Internal.Correction.Weighted>
   9.000000E+99

> <Gold.Protein.RotatedTorsions>
[ 6907 6896 6895 6894 ] final   88.56 input  -60.11 | X-H torsion
[ 7974 7965 7964 7962 ] final -166.00 input  175.53 | X-H torsion
[ 8008 7997 7996 7995 ] final   81.70 input   59.86 | X-H torsion
[ 10167 10162 10161 10158 ] final   30.39 input  -65.29 | X-H torsion
[ 10718 10713 10712 10709 ] final  -72.40 input   66.30 | X-H torsion
[ 10763 10752 10751 10750 ] final   -0.75 input  -60.55 | X-H torsion
[ 11005 11000 10999 10996 ] final  127.44 input  -57.11 | X-H torsion

> <Gold.Protein.ActiveResidues>
 VAL166  LYS551  ARG553  GLY616  TRP617  ASP618  TYR619  PRO620  LYS621  CYS622 
 ASP623  PHE694  ASN695  SER759  ASP760  ASP761  ALA762  ILE779  LEU786  VAL792 
 PHE793  MET794  SER795  GLU796  ALA797  LYS798  CYS799  TRP800  GLU811  SER814 

> <Gold.Protein.RotatedAtoms>
  152.5426  134.2102  159.8746 H   0  0  0  0  0  0  0  0  0  0  0  0  # atno 6907 bound_to 6896
  151.2085  133.4563  159.2605 H   0  0  0  0  0  0  0  0  0  0  0  0  # atno 6908 bound_to 6896
  151.0920  134.9934  159.8463 H   0  0  0  0  0  0  0  0  0  0  0  0  # atno 6909 bound_to 6896
  144.7256  140.2730  143.6247 H   0  0  0  0  0  0  0  0  0  0  0  0  # atno 7974 bound_to 7965
  155.9007  140.3433  155.6024 H   0  0  0  0  0  0  0  0  0  0  0  0  # atno 8008 bound_to 7997
  155.7503  140.0819  157.2223 H   0  0  0  0  0  0  0  0  0  0  0  0  # atno 8009 bound_to 7997
  154.4043  140.1554  156.2704 H   0  0  0  0  0  0  0  0  0  0  0  0  # atno 8010 bound_to 7997
  140.4682  144.0803  150.6230 H   0  0  0  0  0  0  0  0  0  0  0  0  # atno 10167 bound_to 10162
  156.0322  130.4371  150.2587 H   0  0  0  0  0  0  0  0  0  0  0  0  # atno 10718 bound_to 10713
  153.3360  135.6978  153.6907 H   0  0  0  0  0  0  0  0  0  0  0  0  # atno 10763 bound_to 10752
  153.5691  135.3520  155.2831 H   0  0  0  0  0  0  0  0  0  0  0  0  # atno 10764 bound_to 10752
  154.8627  135.4268  154.2560 H   0  0  0  0  0  0  0  0  0  0  0  0  # atno 10765 bound_to 10752
  139.9508  134.9622  156.8856 H   0  0  0  0  0  0  0  0  0  0  0  0  # atno 11005 bound_to 11000
  145.8024  139.1969  143.2040 LP  0  0  0  0  0  0  0  0  0  0  0  0  # atno 17320 bound_to 7965
  146.0665  140.7915  142.9709 LP  0  0  0  0  0  0  0  0  0  0  0  0  # atno 17321 bound_to 7965
  140.4010  143.2704  151.9948 LP  0  0  0  0  0  0  0  0  0  0  0  0  # atno 17342 bound_to 10162
  139.4815  144.5998  151.7626 LP  0  0  0  0  0  0  0  0  0  0  0  0  # atno 17343 bound_to 10162
  157.0689  131.0111  151.3197 LP  0  0  0  0  0  0  0  0  0  0  0  0  # atno 17370 bound_to 10713
  157.5014  130.7882  149.7609 LP  0  0  0  0  0  0  0  0  0  0  0  0  # atno 17371 bound_to 10713
  140.5724  134.0430  155.7435 LP  0  0  0  0  0  0  0  0  0  0  0  0  # atno 17394 bound_to 11000
  141.1170  133.9524  157.2803 LP  0  0  0  0  0  0  0  0  0  0  0  0  # atno 17395 bound_to 11000

$$$$
