AV-unprocessed.smi:2390|AV-procd|sdf|9477|dock4
  -GOLD-   2272013103D 1   1.00000     0.00000
 Structure written by MMmdl.
 46 47  0  0  0  0  0  0  0  0  2 V2000
  153.1685  141.8082  160.5195 C   0  0  0  0  0  0  0  0  0  0  0  0
  152.4875  142.7521  159.5504 C   0  0  0  0  0  0  0  0  0  0  0  0
  152.5026  144.1430  159.7699 C   0  0  0  0  0  0  0  0  0  0  0  0
  151.8658  144.9693  158.8276 C   0  0  0  0  0  0  0  0  0  0  0  0
  151.2383  144.3759  157.7155 C   0  0  0  0  0  0  0  0  0  0  0  0
  151.2534  142.9637  157.5802 C   0  0  0  0  0  0  0  0  0  0  0  0
  150.6530  142.3392  156.4551 N   0  0  0  0  0  0  0  0  0  0  0  0
  150.1483  141.0967  156.3662 C   0  0  0  0  0  0  0  0  0  0  0  0
  150.1251  140.2716  157.2804 O   0  0  0  0  0  0  0  0  0  0  0  0
  149.6636  140.8528  155.1391 N   0  0  0  0  0  0  0  0  0  0  0  0
  149.0511  139.6001  154.6908 C   0  0  2  0  0  0  0  0  0  0  0  0
  150.1572  138.5700  154.4077 C   0  0  0  0  0  0  0  0  0  0  0  0
  148.0868  139.8169  153.4847 C   0  0  2  0  0  0  0  0  0  0  0  0
  147.1297  141.0101  153.7306 C   0  0  0  0  0  0  0  0  0  0  0  0
  147.3840  138.5364  153.1414 N   0  3  0  0  0  0  0  0  0  0  0  0
  146.6419  137.8602  154.2392 C   0  0  0  0  0  0  0  0  0  0  0  0
  146.0637  136.5193  153.7541 C   0  0  0  0  0  0  0  0  0  0  0  0
  145.2289  136.7307  152.6241 O   0  0  0  0  0  0  0  0  0  0  0  0
  145.9500  137.2922  151.5362 C   0  0  0  0  0  0  0  0  0  0  0  0
  146.5061  138.6642  151.9484 C   0  0  0  0  0  0  0  0  0  0  0  0
  151.8885  142.1810  158.4826 N   0  0  0  0  0  0  0  0  0  0  0  0
  153.2286  142.2491  161.5151 H   0  0  0  0  0  0  0  0  0  0  0  0
  154.1808  141.5876  160.1801 H   0  0  0  0  0  0  0  0  0  0  0  0
  152.6202  140.8687  160.5997 H   0  0  0  0  0  0  0  0  0  0  0  0
  152.9948  144.5680  160.6324 H   0  0  0  0  0  0  0  0  0  0  0  0
  151.8639  146.0423  158.9511 H   0  0  0  0  0  0  0  0  0  0  0  0
  150.7685  145.0125  156.9813 H   0  0  0  0  0  0  0  0  0  0  0  0
  150.7028  142.8638  155.5941 H   0  0  0  0  0  0  0  0  0  0  0  0
  149.7309  141.5904  154.4525 H   0  0  0  0  0  0  0  0  0  0  0  0
  148.4871  139.1841  155.5256 H   0  0  0  0  0  0  0  0  0  0  0  0
  149.7369  137.6289  154.0523 H   0  0  0  0  0  0  0  0  0  0  0  0
  150.7228  138.3510  155.3143 H   0  0  0  0  0  0  0  0  0  0  0  0
  150.8693  138.9223  153.6619 H   0  0  0  0  0  0  0  0  0  0  0  0
  148.6891  140.0903  152.6166 H   0  0  0  0  0  0  0  0  0  0  0  0
  147.6774  141.9207  153.9690 H   0  0  0  0  0  0  0  0  0  0  0  0
  146.4418  140.8191  154.5548 H   0  0  0  0  0  0  0  0  0  0  0  0
  146.5398  141.2454  152.8447 H   0  0  0  0  0  0  0  0  0  0  0  0
  147.2988  137.6489  155.0825 H   0  0  0  0  0  0  0  0  0  0  0  0
  145.8406  138.5084  154.5977 H   0  0  0  0  0  0  0  0  0  0  0  0
  146.8634  135.8197  153.5038 H   0  0  0  0  0  0  0  0  0  0  0  0
  145.4744  136.0567  154.5460 H   0  0  0  0  0  0  0  0  0  0  0  0
  146.7530  136.6217  151.2253 H   0  0  0  0  0  0  0  0  0  0  0  0
  145.2770  137.3998  150.6852 H   0  0  0  0  0  0  0  0  0  0  0  0
  145.6838  139.3463  152.1703 H   0  0  0  0  0  0  0  0  0  0  0  0
  147.0506  139.0908  151.1072 H   0  0  0  0  0  0  0  0  0  0  0  0
  148.1184  137.8918  152.8826 H   0  0  0  0  0  0  0  0  0  0  0  0
  1  2  1  0  0  0  0
  1 22  1  0  0  0  0
  1 23  1  0  0  0  0
  1 24  1  0  0  0  0
  2 21  1  0  0  0  0
  2  3  2  0  0  0  0
  3  4  1  0  0  0  0
  3 25  1  0  0  0  0
  4  5  2  0  0  0  0
  4 26  1  0  0  0  0
  5  6  1  0  0  0  0
  5 27  1  0  0  0  0
  6  7  1  0  0  0  0
  6 21  2  0  0  0  0
  7  8  1  0  0  0  0
  7 28  1  0  0  0  0
  8  9  2  0  0  0  0
  8 10  1  0  0  0  0
 10 11  1  0  0  0  0
 10 29  1  0  0  0  0
 11 12  1  0  0  0  0
 11 13  1  0  0  0  0
 11 30  1  0  0  0  0
 12 31  1  0  0  0  0
 12 32  1  0  0  0  0
 12 33  1  0  0  0  0
 13 14  1  0  0  0  0
 13 15  1  0  0  0  0
 13 34  1  0  0  0  0
 14 35  1  0  0  0  0
 14 36  1  0  0  0  0
 14 37  1  0  0  0  0
 15 20  1  0  0  0  0
 15 16  1  0  0  0  0
 15 46  1  0  0  0  0
 16 17  1  0  0  0  0
 16 38  1  0  0  0  0
 16 39  1  0  0  0  0
 17 18  1  0  0  0  0
 17 40  1  0  0  0  0
 17 41  1  0  0  0  0
 18 19  1  0  0  0  0
 19 20  1  0  0  0  0
 19 42  1  0  0  0  0
 19 43  1  0  0  0  0
 20 44  1  0  0  0  0
 20 45  1  0  0  0  0
M  CHG  1  15   1
M  END
> <s_m_source_file>
AV-unprocessed.smi

> <i_m_source_file_index>
2390

> <i_lp_mmshare_version>
43012

> <i_f3d_flags>
0

> <s_epik_input>
W0NIM11jMVtjSF1bY0hdW2NIXWMobjEpW05IXUMoPU8pW05IXVtDQEhdKFtDSDNdKVtDQEhdKFtDSDNdKU4yW0NIMl1bQ0gyXU9bQ0gyXVtDSDJdMg==

> <s_epik_cmdline>
J2VwaWtfcHl0aG9uJywgJy1waCcsICc3LjAnLCAnLXRuJywgJzgnLCAnLW1hJywgJzIwMCcsICctbWV0YWxfYmluZGluZycsICctaW1hZScsICc8aW5maWxlLm1hZT4nLCAnLW9tYWUnLCAnPG91dGZpbGUubWFlPic=

> <r_epik_Ionization_Penalty>
0.60259

> <r_epik_Ionization_Penalty_Charging>
0.602531

> <r_epik_Ionization_Penalty_Neutral>
5.9516e-05

> <r_epik_State_Penalty>
0.617039

> <r_epik_Charging_Adjusted_Penalty>
1.21957

> <i_epik_Tot_Q>
1

> <i_epik_Tot_abs_Q>
1

> <r_epik_Metal_State_Penalty>
0.617047

> <b_epik_Metal_Only>
0

> <s_lp_Force_Field>
OPLS_2005

> <r_lp_Energy>
33.8136

> <b_lp_Chiralities_Consistent>
1

> <s_lp_Variant>
AV-unprocessed.smi:2390-5

> <Gold.Version>
5.8.1

> <Gold.Id.Protein>
6NUR|6NUR_protein|mol2

> <Gold.PLP.Fitness>
47.3648

> <Gold.PLP.PLP>
-42.3646

> <Gold.PLP.part.hbond>
-2.7476

> <Gold.PLP.part.metal>
0.0000

> <Gold.PLP.part.buried>
3.3097

> <Gold.PLP.part.nonpolar>
-44.4623

> <Gold.PLP.part.repulsive>
0.5299

> <Gold.PLP.ligand.clash>
0.0000

> <Gold.PLP.ligand.torsion>
0.5642

> <Gold.PLP.Chemscore.Hbond>
2.0000

> <Gold.PLP.Chemscore.CHOScore>
0.0000

> <Gold.PLP.Chemscore.Metal>
0.0000

> <Gold.Chemscore.Hbonds>
donor molecule, donor type, donor heavy atom, donor atom, acceptor molecule, acceptor atom, score
      L1  H    15    46       P1  7948  1.62

> <Gold.PLP.Chemscore.Internal.Correction>
0.1286

> <Gold.Rescore>
     Score         DG    S(hbond)    S(metal)    S(lipo)     H(rot)  DE(clash)    DE(int)     intcor
     14.11     -18.60       0.98        0.00     116.69       1.48       2.61       1.88       ----

> <Gold.Chemscore.Fitness>
14.1123

> <Gold.Chemscore.DG>
-18.5959

> <Gold.Chemscore.ZeroCoef>
-5.4800

> <Gold.Chemscore.Hbond>
0.9769

> <Gold.Chemscore.Metal>
0.0000

> <Gold.Chemscore.Lipo>
116.6914

> <Gold.Chemscore.Internal_Hbond>
0.0000

> <Gold.Chemscore.DEClash>
2.6084

> <Gold.Chemscore.DEInternal>
1.8752

> <Gold.Chemscore.Rot>
1.4844

> <Gold.Chemscore.Internal.Correction>
   9.000000E+99

> <Gold.Chemscore.Hbonds>
donor molecule, donor type, donor heavy atom, donor atom, acceptor molecule, acceptor atom, score
      L1  H    15    46       P1  7948  0.79

> <Gold.Chemscore.Hbond.Weighted>
-3.2630

> <Gold.Chemscore.Metal.Weighted>
-0.0000

> <Gold.Chemscore.Lipo.Weighted>
-13.6529

> <Gold.Chemscore.Internal_Hbond.Weighted>
0.0000

> <Gold.Chemscore.DEClash.Weighted>
2.6084

> <Gold.Chemscore.DEInternal.Weighted>
1.8752

> <Gold.Chemscore.Rot.Weighted>
3.8000

> <Gold.Chemscore.Internal.Correction.Weighted>
   9.000000E+99

> <Gold.Protein.RotatedTorsions>
[ 6907 6896 6895 6894 ] final -166.73 input  -60.11 | X-H torsion
[ 7974 7965 7964 7962 ] final   26.60 input  175.53 | X-H torsion
[ 8008 7997 7996 7995 ] final -100.96 input   59.86 | X-H torsion
[ 10167 10162 10161 10158 ] final   47.75 input  -65.29 | X-H torsion
[ 10718 10713 10712 10709 ] final  -45.41 input   66.30 | X-H torsion
[ 10763 10752 10751 10750 ] final   96.58 input  -60.55 | X-H torsion
[ 11005 11000 10999 10996 ] final  -76.67 input  -57.11 | X-H torsion

> <Gold.Protein.ActiveResidues>
 VAL166  LYS551  ARG553  GLY616  TRP617  ASP618  TYR619  PRO620  LYS621  CYS622 
 ASP623  PHE694  ASN695  SER759  ASP760  ASP761  ALA762  ILE779  LEU786  VAL792 
 PHE793  MET794  SER795  GLU796  ALA797  LYS798  CYS799  TRP800  GLU811  SER814 

> <Gold.Protein.RotatedAtoms>
  151.4483  133.3624  159.2791 H   0  0  0  0  0  0  0  0  0  0  0  0  # atno 6907 bound_to 6896
  150.9109  134.8527  159.7435 H   0  0  0  0  0  0  0  0  0  0  0  0  # atno 6908 bound_to 6896
  152.4932  134.4412  159.9596 H   0  0  0  0  0  0  0  0  0  0  0  0  # atno 6909 bound_to 6896
  146.1829  139.7306  142.8887 H   0  0  0  0  0  0  0  0  0  0  0  0  # atno 7974 bound_to 7965
  154.8359  140.0437  157.1508 H   0  0  0  0  0  0  0  0  0  0  0  0  # atno 8008 bound_to 7997
  154.9101  140.3012  155.5251 H   0  0  0  0  0  0  0  0  0  0  0  0  # atno 8009 bound_to 7997
  156.2990  140.2360  156.4139 H   0  0  0  0  0  0  0  0  0  0  0  0  # atno 8010 bound_to 7997
  140.3004  144.2940  150.6220 H   0  0  0  0  0  0  0  0  0  0  0  0  # atno 10167 bound_to 10162
  156.2286  130.4171  149.8903 H   0  0  0  0  0  0  0  0  0  0  0  0  # atno 10718 bound_to 10713
  153.2666  135.4213  155.0947 H   0  0  0  0  0  0  0  0  0  0  0  0  # atno 10763 bound_to 10752
  154.8440  135.3462  154.6303 H   0  0  0  0  0  0  0  0  0  0  0  0  # atno 10764 bound_to 10752
  153.6723  135.7043  153.5200 H   0  0  0  0  0  0  0  0  0  0  0  0  # atno 10765 bound_to 10752
  141.1655  133.6992  156.7704 H   0  0  0  0  0  0  0  0  0  0  0  0  # atno 11005 bound_to 11000
  145.4024  141.0387  143.3063 LP  0  0  0  0  0  0  0  0  0  0  0  0  # atno 17320 bound_to 7965
  144.8346  139.5572  143.6928 LP  0  0  0  0  0  0  0  0  0  0  0  0  # atno 17321 bound_to 7965
  140.5656  143.2186  151.7690 LP  0  0  0  0  0  0  0  0  0  0  0  0  # atno 17342 bound_to 10162
  139.4916  144.4289  151.9895 LP  0  0  0  0  0  0  0  0  0  0  0  0  # atno 17343 bound_to 10162
  156.6525  130.8749  151.3534 LP  0  0  0  0  0  0  0  0  0  0  0  0  # atno 17370 bound_to 10713
  157.7122  130.9454  150.1129 LP  0  0  0  0  0  0  0  0  0  0  0  0  # atno 17371 bound_to 10713
  140.2468  134.8571  157.3628 LP  0  0  0  0  0  0  0  0  0  0  0  0  # atno 17394 bound_to 11000
  140.1741  134.4571  155.7812 LP  0  0  0  0  0  0  0  0  0  0  0  0  # atno 17395 bound_to 11000

$$$$
