AV-unprocessed.smi:1385|AV-procd|sdf|5632|dock5
  -GOLD-   22720 5253D 1   1.00000     0.00000
 Structure written by MMmdl.
 38 39  0  0  0  0  0  0  0  0  3 V2000
  154.3967  129.2008  155.2865 C   0  0  0  0  0  0  0  0  0  0  0  0
  153.0765  129.7963  155.6376 C   0  0  0  0  0  0  0  0  0  0  0  0
  152.8938  130.5681  156.7119 N   0  0  0  0  0  0  0  0  0  0  0  0
  151.5815  131.0034  156.8254 N   0  0  0  0  0  0  0  0  0  0  0  0
  150.7942  130.5650  155.8329 C   0  0  0  0  0  0  0  0  0  0  0  0
  149.4884  130.8719  155.7616 N   0  5  0  0  0  0  0  0  0  0  0  0
  148.8813  130.9665  154.5575 C   0  0  0  0  0  0  0  0  0  0  0  0
  149.2728  130.4693  153.4991 O   0  0  0  0  0  0  0  0  0  0  0  0
  147.7500  131.6858  154.5813 N   0  0  0  0  0  0  0  0  0  0  0  0
  146.8881  131.9661  153.4372 C   0  0  2  0  0  0  0  0  0  0  0  0
  146.5229  130.6671  152.6951 C   0  0  0  0  0  0  0  0  0  0  0  0
  145.7091  130.9610  151.4249 C   0  0  0  0  0  0  0  0  0  0  0  0
  146.4384  131.8907  150.5254 N   0  3  1  0  0  0  0  0  0  0  0  0
  145.7456  132.0824  149.2254 C   0  0  0  0  0  0  0  0  0  0  0  0
  144.2879  132.5282  149.3818 C   0  0  0  0  0  0  0  0  0  0  0  0
  143.9602  133.7108  148.8566 N   0  0  0  0  0  0  0  0  0  0  0  0
  143.4719  131.8282  149.9788 O   0  0  0  0  0  0  0  0  0  0  0  0
  146.7606  133.1713  151.2103 C   0  0  0  0  0  0  0  0  0  0  0  0
  147.6024  132.9259  152.4727 C   0  0  0  0  0  0  0  0  0  0  0  0
  151.6353  129.5426  154.6680 S   0  0  0  0  0  0  0  0  0  0  0  0
  154.9765  129.9066  154.6916 H   0  0  0  0  0  0  0  0  0  0  0  0
  154.2566  128.2869  154.7090 H   0  0  0  0  0  0  0  0  0  0  0  0
  154.9570  128.9590  156.1900 H   0  0  0  0  0  0  0  0  0  0  0  0
  147.4700  132.0716  155.4712 H   0  0  0  0  0  0  0  0  0  0  0  0
  145.9741  132.4494  153.7882 H   0  0  0  0  0  0  0  0  0  0  0  0
  147.4317  130.1261  152.4264 H   0  0  0  0  0  0  0  0  0  0  0  0
  145.9524  130.0053  153.3479 H   0  0  0  0  0  0  0  0  0  0  0  0
  145.5110  130.0231  150.9049 H   0  0  0  0  0  0  0  0  0  0  0  0
  144.7408  131.3900  151.6878 H   0  0  0  0  0  0  0  0  0  0  0  0
  146.2492  132.8625  148.6531 H   0  0  0  0  0  0  0  0  0  0  0  0
  145.8060  131.1690  148.6312 H   0  0  0  0  0  0  0  0  0  0  0  0
  143.0131  134.0542  148.9270 H   0  0  0  0  0  0  0  0  0  0  0  0
  144.6643  134.2605  148.3849 H   0  0  0  0  0  0  0  0  0  0  0  0
  147.3107  133.8306  150.5384 H   0  0  0  0  0  0  0  0  0  0  0  0
  145.8361  133.6885  151.4719 H   0  0  0  0  0  0  0  0  0  0  0  0
  147.8048  133.8749  152.9709 H   0  0  0  0  0  0  0  0  0  0  0  0
  148.5714  132.5138  152.1863 H   0  0  0  0  0  0  0  0  0  0  0  0
  147.3182  131.4429  150.3100 H   0  0  0  0  0  0  0  0  0  0  0  0
  1  2  1  0  0  0  0
  1 21  1  0  0  0  0
  1 22  1  0  0  0  0
  1 23  1  0  0  0  0
  2 20  1  0  0  0  0
  2  3  2  0  0  0  0
  3  4  1  0  0  0  0
  4  5  2  0  0  0  0
  5  6  1  0  0  0  0
  5 20  1  0  0  0  0
  6  7  1  0  0  0  0
  7  8  2  0  0  0  0
  7  9  1  0  0  0  0
  9 10  1  0  0  0  0
  9 24  1  0  0  0  0
 10 19  1  0  0  0  0
 10 11  1  0  0  0  0
 10 25  1  0  0  0  0
 11 12  1  0  0  0  0
 11 26  1  0  0  0  0
 11 27  1  0  0  0  0
 12 13  1  0  0  0  0
 12 28  1  0  0  0  0
 12 29  1  0  0  0  0
 13 14  1  0  0  0  0
 13 18  1  0  0  0  0
 13 38  1  0  0  0  0
 14 15  1  0  0  0  0
 14 30  1  0  0  0  0
 14 31  1  0  0  0  0
 15 16  1  0  0  0  0
 15 17  2  0  0  0  0
 16 32  1  0  0  0  0
 16 33  1  0  0  0  0
 18 19  1  0  0  0  0
 18 34  1  0  0  0  0
 18 35  1  0  0  0  0
 19 36  1  0  0  0  0
 19 37  1  0  0  0  0
M  CHG  1   6  -1
M  CHG  1  13   1
M  END
> <s_m_source_file>
AV-unprocessed.smi

> <i_m_source_file_index>
1385

> <i_lp_mmshare_version>
43012

> <i_f3d_flags>
0

> <s_epik_input>
W0NIM11jMW5uYyhzMSlbTkhdQyg9TylbTkhdW0NIXTJbQ0gyXVtDSDJdTihbQ0gyXVtDSDJdMilbQ0gyXUMoPU8pW05IMl0=

> <s_epik_cmdline>
J2VwaWtfcHl0aG9uJywgJy1waCcsICc3LjAnLCAnLXRuJywgJzgnLCAnLW1hJywgJzIwMCcsICctbWV0YWxfYmluZGluZycsICctaW1hZScsICc8aW5maWxlLm1hZT4nLCAnLW9tYWUnLCAnPG91dGZpbGUubWFlPic=

> <r_lp_tautomer_probability>
1

> <r_epik_Ionization_Penalty>
3.90109

> <r_epik_Ionization_Penalty_Charging>
3.79141

> <r_epik_Ionization_Penalty_Neutral>
0.109679

> <r_epik_State_Penalty>
3.87237

> <r_epik_Charging_Adjusted_Penalty>
7.66378

> <i_epik_Tot_Q>
0

> <i_epik_Tot_abs_Q>
2

> <r_epik_Metal_State_Penalty>
1.33354

> <b_epik_Metal_Only>
1

> <s_lp_Force_Field>
OPLS_2005

> <r_lp_Energy>
4.67367

> <b_lp_Chiralities_Consistent>
1

> <s_lp_Variant>
AV-unprocessed.smi:1385-5

> <Gold.Version>
5.8.1

> <Gold.Id.Protein>
6NUR|6NUR_protein|mol2

> <Gold.PLP.Fitness>
43.1195

> <Gold.PLP.PLP>
-31.8995

> <Gold.PLP.part.hbond>
-4.0000

> <Gold.PLP.part.metal>
0.0000

> <Gold.PLP.part.buried>
-4.6994

> <Gold.PLP.part.nonpolar>
-24.9904

> <Gold.PLP.part.repulsive>
1.3098

> <Gold.PLP.ligand.clash>
0.0000

> <Gold.PLP.ligand.torsion>
0.4169

> <Gold.PLP.Chemscore.Hbond>
3.9913

> <Gold.PLP.Chemscore.CHOScore>
0.0000

> <Gold.PLP.Chemscore.Metal>
0.0000

> <Gold.Chemscore.Hbonds>
donor molecule, donor type, donor heavy atom, donor atom, acceptor molecule, acceptor atom, score
      L1  H    13    38       P1 10747  1.00
      L1  H    16    32       P1 10186  0.78
      L1  H    16    33       P1  7921  1.00
      P1  H 10785 10796       L1    17  0.81

> <Gold.PLP.Chemscore.Internal.Correction>
0.0801

> <Gold.Rescore>
     Score         DG    S(hbond)    S(metal)    S(lipo)     H(rot)  DE(clash)    DE(int)     intcor
     13.20     -18.01       3.16        0.00      61.57       2.04       0.46       4.34       ----

> <Gold.Chemscore.Fitness>
13.2030

> <Gold.Chemscore.DG>
-18.0055

> <Gold.Chemscore.ZeroCoef>
-5.4800

> <Gold.Chemscore.Hbond>
3.1581

> <Gold.Chemscore.Metal>
0.0000

> <Gold.Chemscore.Lipo>
61.5698

> <Gold.Chemscore.Internal_Hbond>
0.0000

> <Gold.Chemscore.DEClash>
0.4640

> <Gold.Chemscore.DEInternal>
4.3385

> <Gold.Chemscore.Rot>
2.0415

> <Gold.Chemscore.Internal.Correction>
   9.000000E+99

> <Gold.Chemscore.Hbonds>
donor molecule, donor type, donor heavy atom, donor atom, acceptor molecule, acceptor atom, score
      L1  H    13    38       P1 10747  1.00
      L1  H    16    32       P1 10186  0.77
      L1  H    16    33       P1  7921  1.00
      P1  H 10785 10796       L1    17  0.38

> <Gold.Chemscore.Hbond.Weighted>
-10.5481

> <Gold.Chemscore.Metal.Weighted>
-0.0000

> <Gold.Chemscore.Lipo.Weighted>
-7.2037

> <Gold.Chemscore.Internal_Hbond.Weighted>
0.0000

> <Gold.Chemscore.DEClash.Weighted>
0.4640

> <Gold.Chemscore.DEInternal.Weighted>
4.3385

> <Gold.Chemscore.Rot.Weighted>
5.2262

> <Gold.Chemscore.Internal.Correction.Weighted>
   9.000000E+99

> <Gold.Protein.RotatedTorsions>
[ 6907 6896 6895 6894 ] final  110.69 input  -60.11 | X-H torsion
[ 7974 7965 7964 7962 ] final   76.76 input  175.53 | X-H torsion
[ 8008 7997 7996 7995 ] final  -25.89 input   59.86 | X-H torsion
[ 10167 10162 10161 10158 ] final  -36.50 input  -65.29 | X-H torsion
[ 10718 10713 10712 10709 ] final -145.64 input   66.30 | X-H torsion
[ 10763 10752 10751 10750 ] final -155.25 input  -60.55 | X-H torsion
[ 11005 11000 10999 10996 ] final  137.55 input  -57.11 | X-H torsion

> <Gold.Protein.ActiveResidues>
 VAL166  LYS551  ARG553  GLY616  TRP617  ASP618  TYR619  PRO620  LYS621  CYS622 
 ASP623  PHE694  ASN695  SER759  ASP760  ASP761  ALA762  ILE779  LEU786  VAL792 
 PHE793  MET794  SER795  GLU796  ALA797  LYS798  CYS799  TRP800  GLU811  SER814 

> <Gold.Protein.RotatedAtoms>
  152.5007  133.8764  159.7323 H   0  0  0  0  0  0  0  0  0  0  0  0  # atno 6907 bound_to 6896
  150.9237  133.6840  159.2833 H   0  0  0  0  0  0  0  0  0  0  0  0  # atno 6908 bound_to 6896
  151.4208  135.1002  159.9666 H   0  0  0  0  0  0  0  0  0  0  0  0  # atno 6909 bound_to 6896
  145.6988  139.2576  143.1717 H   0  0  0  0  0  0  0  0  0  0  0  0  # atno 7974 bound_to 7965
  154.4453  140.1914  156.0690 H   0  0  0  0  0  0  0  0  0  0  0  0  # atno 8008 bound_to 7997
  156.0526  140.3306  155.7341 H   0  0  0  0  0  0  0  0  0  0  0  0  # atno 8009 bound_to 7997
  155.5534  140.0597  157.2835 H   0  0  0  0  0  0  0  0  0  0  0  0  # atno 8010 bound_to 7997
  140.7141  143.3405  151.2368 H   0  0  0  0  0  0  0  0  0  0  0  0  # atno 10167 bound_to 10162
  156.3849  130.7856  151.2052 H   0  0  0  0  0  0  0  0  0  0  0  0  # atno 10718 bound_to 10713
  154.7800  135.3172  154.8009 H   0  0  0  0  0  0  0  0  0  0  0  0  # atno 10763 bound_to 10752
  153.8723  135.6843  153.4777 H   0  0  0  0  0  0  0  0  0  0  0  0  # atno 10764 bound_to 10752
  153.1434  135.4729  154.9467 H   0  0  0  0  0  0  0  0  0  0  0  0  # atno 10765 bound_to 10752
  140.0122  134.9434  157.0300 H   0  0  0  0  0  0  0  0  0  0  0  0  # atno 11005 bound_to 11000
  146.0817  140.7757  142.9638 LP  0  0  0  0  0  0  0  0  0  0  0  0  # atno 17320 bound_to 7965
  144.6975  140.3498  143.7184 LP  0  0  0  0  0  0  0  0  0  0  0  0  # atno 17321 bound_to 7965
  139.6911  143.9691  152.2859 LP  0  0  0  0  0  0  0  0  0  0  0  0  # atno 17342 bound_to 10162
  139.9352  144.6716  150.8322 LP  0  0  0  0  0  0  0  0  0  0  0  0  # atno 17343 bound_to 10162
  157.7495  131.0333  150.4264 LP  0  0  0  0  0  0  0  0  0  0  0  0  # atno 17370 bound_to 10713
  156.4515  130.4012  149.6633 LP  0  0  0  0  0  0  0  0  0  0  0  0  # atno 17371 bound_to 10713
  140.4535  134.1558  155.7184 LP  0  0  0  0  0  0  0  0  0  0  0  0  # atno 17394 bound_to 11000
  141.1718  133.8593  157.1546 LP  0  0  0  0  0  0  0  0  0  0  0  0  # atno 17395 bound_to 11000

$$$$
