#       Name:                AV-unprocessed.smi:3236
#       Creating user name   scv26
#       Creation time:       Fri Mar 27 18:22:19 2020


#       File generated by GOLD software.
#

@<TRIPOS>MOLECULE
AV-unprocessed.smi:3236
    44    45     1
SMALL
NO_CHARGES


@<TRIPOS>ATOM
      1 ****        -4.5503   1.2377  -2.0768 C.3            1 S1                 0.0000
      2 ****        -3.8454   1.5300  -0.7453 C.3            1 S1                 0.0000
      3 ****        -2.6855   2.5341  -0.9230 C.3            1 S1                 0.0000
      4 ****        -1.9130   2.7364   0.3936 C.3            1 S1                 0.0000
      5 ****        -1.4388   1.4303   0.8674 N.am           1 S1                 0.0000
      6 ****        -0.1302   1.0776   0.8565 C.2            1 S1                 0.0000
      7 ****         0.7583   1.8561   0.5049 O.2            1 S1                 0.0000
      8 ****         0.2621  -0.3419   1.2943 C.3            1 S1                 0.0000
      9 ****         1.7085  -0.6002   1.1409 N.4            1 S1                 1.0000
     10 ****         2.1276  -1.9557   1.5496 C.3            1 S1                 0.0000
     11 ****         3.6341  -2.1725   1.3232 C.3            1 S1                 0.0000
     12 ****         4.0239  -2.0382  -0.0705 N.pl3          1 S1                 0.0000
     13 ****         5.0060  -1.2340  -0.6104 C.2            1 S1                 0.0000
     14 ****         5.0238  -1.4611  -1.9567 C.2            1 S1                 0.0000
     15 ****         4.0129  -2.4439  -2.1477 C.2            1 S1                 0.0000
     16 ****         3.4199  -2.7903  -1.0165 N.2            1 S1                 0.0000
     17 ****        -2.5589   0.5463   1.2156 C.3            1 S1                 0.0000
     18 ****        -3.3562   0.2338  -0.0634 C.3            1 S1                 0.0000
     19 ****        -3.8715   0.7688  -2.7898 H              1 S1                 0.0000
     20 ****        -4.9280   2.1546  -2.5302 H              1 S1                 0.0000
     21 ****        -5.3981   0.5674  -1.9334 H              1 S1                 0.0000
     22 ****        -4.5779   1.9916  -0.0813 H              1 S1                 0.0000
     23 ****        -1.9993   2.1747  -1.6914 H              1 S1                 0.0000
     24 ****        -3.0707   3.4911  -1.2766 H              1 S1                 0.0000
     25 ****        -1.1044   3.4529   0.2424 H              1 S1                 0.0000
     26 ****        -2.5645   3.1808   1.1472 H              1 S1                 0.0000
     27 ****        -0.0146  -0.4851   2.3397 H              1 S1                 0.0000
     28 ****        -0.2862  -1.0702   0.6950 H              1 S1                 0.0000
     29 ****         1.9504  -0.4700   0.1686 H              1 S1                 0.0000
     30 ****         1.8939  -2.0946   2.6057 H              1 S1                 0.0000
     31 ****         1.5491  -2.6988   0.9988 H              1 S1                 0.0000
     32 ****         4.2099  -1.4618   1.9177 H              1 S1                 0.0000
     33 ****         3.9223  -3.1688   1.6607 H              1 S1                 0.0000
     34 ****         5.6036  -0.5727  -0.0002 H              1 S1                 0.0000
     35 ****         5.6657  -1.0000  -2.6929 H              1 S1                 0.0000
     36 ****         3.6963  -2.9137  -3.0674 H              1 S1                 0.0000
     37 ****        -2.2552  -0.3804   1.6995 H              1 S1                 0.0000
     38 ****        -3.2014   1.0508   1.9390 H              1 S1                 0.0000
     39 ****        -4.2068  -0.4048   0.1770 H              1 S1                 0.0000
     40 ****        -2.7283  -0.3335  -0.7523 H              1 S1                 0.0000
     41 ****         2.2155   0.0788   1.6905 H              1 S1                 0.0000
     42 ****         0.5241   2.7838   0.2144 LP             1 S1                 0.0000
     43 ****         1.7135   1.5599   0.5100 LP             1 S1                 0.0000
     44 ****         2.6878  -3.4597  -0.8901 LP             1 S1                 0.0000
@<TRIPOS>BOND
    1    1    2 1     
    2    1   19 1     
    3    1   20 1     
    4    1   21 1     
    5    2   18 1     
    6    2    3 1     
    7    2   22 1     
    8    3    4 1     
    9    3   23 1     
   10    3   24 1     
   11    4    5 1     
   12    4   25 1     
   13    4   26 1     
   14    5    6 am    
   15    5   17 1     
   16    6    7 2     
   17    6    8 1     
   18    8    9 1     
   19    8   27 1     
   20    8   28 1     
   21    9   10 1     
   22    9   29 1     
   23    9   41 1     
   24   10   11 1     
   25   10   30 1     
   26   10   31 1     
   27   11   12 1     
   28   11   32 1     
   29   11   33 1     
   30   12   16 1     
   31   12   13 1     
   32   13   14 2     
   33   13   34 1     
   34   14   15 1     
   35   14   35 1     
   36   15   16 2     
   37   15   36 1     
   38   17   18 1     
   39   17   37 1     
   40   17   38 1     
   41   18   39 1     
   42   18   40 1     
   43    7   42 1     
   44    7   43 1     
   45   16   44 1     
@<TRIPOS>SUBSTRUCTURE
      1 S1             1
@<TRIPOS>SET
LONE_PAIRS      STATIC     ATOMS    <user>   **** ""
3 42 43 44
DONOR_HYDROGENS      STATIC     ATOMS    <user>   **** ""
2 29 41
ATOM$BLUE        STATIC     ATOMS    COLORGROUP SYSTEM
3 42 43 44
ATOM$RED        STATIC     ATOMS    COLORGROUP SYSTEM
2 29 41
