AV-unprocessed.smi:3178|AV-procd|sdf|12130|dock6
  -GOLD-   2272017573D 1   1.00000     0.00000
 Structure written by MMmdl.
 35 35  0  0  0  0  0  0  0  0  1 V2000
  149.4571  136.5844  155.1704 C   0  0  0  0  0  0  0  0  0  0  0  0
  149.1426  137.9605  155.3435 O   0  0  0  0  0  0  0  0  0  0  0  0
  150.1499  138.8231  155.8841 C   0  0  0  0  0  0  0  0  0  0  0  0
  151.4783  138.5668  155.1457 C   0  0  0  0  0  0  0  0  0  0  0  0
  149.7526  140.3148  155.7812 C   0  0  0  0  0  0  0  0  0  0  0  0
  150.3056  138.3959  157.3642 C   0  0  0  0  0  0  0  0  0  0  0  0
  151.1370  139.3311  158.1156 N   0  0  0  0  0  0  0  0  0  0  0  0
  152.4690  139.2466  158.2566 C   0  0  0  0  0  0  0  0  0  0  0  0
  153.1748  138.4672  157.6168 O   0  0  0  0  0  0  0  0  0  0  0  0
  153.0940  140.1527  159.3176 C   0  0  0  0  0  0  0  0  0  0  0  0
  152.6258  141.5708  159.1110 C   0  0  0  0  0  0  0  0  0  0  0  0
  152.9645  142.7293  159.8727 C   0  0  0  0  0  0  0  0  0  0  0  0
  152.2439  143.7369  159.2974 C   0  0  0  0  0  0  0  0  0  0  0  0
  152.1405  145.1858  159.6340 C   0  0  0  0  0  0  0  0  0  0  0  0
  151.5477  143.1648  158.2578 N   0  0  0  0  0  0  0  0  0  0  0  0
  151.7732  141.8439  158.1331 N   0  0  0  0  0  0  0  0  0  0  0  0
  150.9233  143.6569  157.6345 H   0  0  0  0  0  0  0  0  0  0  0  0
  148.5614  136.0580  154.8419 H   0  0  0  0  0  0  0  0  0  0  0  0
  149.7928  136.1142  156.0938 H   0  0  0  0  0  0  0  0  0  0  0  0
  150.2144  136.4378  154.4003 H   0  0  0  0  0  0  0  0  0  0  0  0
  152.2969  139.1179  155.6100 H   0  0  0  0  0  0  0  0  0  0  0  0
  151.4365  138.8781  154.1024 H   0  0  0  0  0  0  0  0  0  0  0  0
  151.7417  137.5087  155.1648 H   0  0  0  0  0  0  0  0  0  0  0  0
  150.4569  140.9443  156.3258 H   0  0  0  0  0  0  0  0  0  0  0  0
  148.7593  140.4990  156.1919 H   0  0  0  0  0  0  0  0  0  0  0  0
  149.7490  140.6639  154.7486 H   0  0  0  0  0  0  0  0  0  0  0  0
  149.3282  138.2813  157.8364 H   0  0  0  0  0  0  0  0  0  0  0  0
  150.7840  137.4175  157.4195 H   0  0  0  0  0  0  0  0  0  0  0  0
  150.6507  140.0151  158.6772 H   0  0  0  0  0  0  0  0  0  0  0  0
  152.8111  139.8025  160.3109 H   0  0  0  0  0  0  0  0  0  0  0  0
  154.1809  140.0789  159.2557 H   0  0  0  0  0  0  0  0  0  0  0  0
  153.6247  142.8020  160.7243 H   0  0  0  0  0  0  0  0  0  0  0  0
  153.1252  145.6532  159.6329 H   0  0  0  0  0  0  0  0  0  0  0  0
  151.7042  145.3196  160.6239 H   0  0  0  0  0  0  0  0  0  0  0  0
  151.5148  145.7162  158.9157 H   0  0  0  0  0  0  0  0  0  0  0  0
  1  2  1  0  0  0  0
  1 18  1  0  0  0  0
  1 19  1  0  0  0  0
  1 20  1  0  0  0  0
  2  3  1  0  0  0  0
  3  4  1  0  0  0  0
  3  5  1  0  0  0  0
  3  6  1  0  0  0  0
  4 21  1  0  0  0  0
  4 22  1  0  0  0  0
  4 23  1  0  0  0  0
  5 24  1  0  0  0  0
  5 25  1  0  0  0  0
  5 26  1  0  0  0  0
  6  7  1  0  0  0  0
  6 27  1  0  0  0  0
  6 28  1  0  0  0  0
  7  8  1  0  0  0  0
  7 29  1  0  0  0  0
  8  9  2  0  0  0  0
  8 10  1  0  0  0  0
 10 11  1  0  0  0  0
 10 30  1  0  0  0  0
 10 31  1  0  0  0  0
 11 16  2  0  0  0  0
 11 12  1  0  0  0  0
 12 13  2  0  0  0  0
 12 32  1  0  0  0  0
 13 14  1  0  0  0  0
 13 15  1  0  0  0  0
 14 33  1  0  0  0  0
 14 34  1  0  0  0  0
 14 35  1  0  0  0  0
 15 17  1  0  0  0  0
 15 16  1  0  0  0  0
M  END
> <s_m_source_file>
AV-unprocessed.smi

> <i_m_source_file_index>
3178

> <i_lp_mmshare_version>
43012

> <i_f3d_flags>
0

> <s_epik_input>
W0NIM11PQyhbQ0gzXSkoW0NIM10pW0NIMl1bTkhdQyg9TylbQ0gyXWMxW2NIXWMoW0NIM10pW25IXW4x

> <s_epik_cmdline>
J2VwaWtfcHl0aG9uJywgJy1waCcsICc3LjAnLCAnLXRuJywgJzgnLCAnLW1hJywgJzIwMCcsICctbWV0YWxfYmluZGluZycsICctaW1hZScsICc8aW5maWxlLm1hZT4nLCAnLW9tYWUnLCAnPG91dGZpbGUubWFlPic=

> <r_lp_tautomer_probability>
0.5

> <r_epik_Ionization_Penalty>
8.10473e-05

> <r_epik_Ionization_Penalty_Charging>
0

> <r_epik_Ionization_Penalty_Neutral>
8.10473e-05

> <r_epik_State_Penalty>
0.41068

> <r_epik_Charging_Adjusted_Penalty>
0.41068

> <i_epik_Tot_Q>
0

> <i_epik_Tot_abs_Q>
0

> <r_epik_Metal_State_Penalty>
0.410702

> <b_epik_Metal_Only>
0

> <s_lp_Force_Field>
OPLS_2005

> <r_lp_Energy>
5.73531

> <b_lp_Chiralities_Consistent>
1

> <s_lp_Variant>
AV-unprocessed.smi:3178-1

> <Gold.Version>
5.8.1

> <Gold.Id.Protein>
6NUR|6NUR_protein|mol2

> <Gold.PLP.Fitness>
35.5840

> <Gold.PLP.PLP>
-33.4827

> <Gold.PLP.part.hbond>
-1.0000

> <Gold.PLP.part.metal>
0.0000

> <Gold.PLP.part.buried>
-3.4960

> <Gold.PLP.part.nonpolar>
-28.6631

> <Gold.PLP.part.repulsive>
0.2486

> <Gold.PLP.ligand.clash>
0.0000

> <Gold.PLP.ligand.torsion>
0.4626

> <Gold.PLP.Chemscore.Hbond>
1.0000

> <Gold.PLP.Chemscore.CHOScore>
0.0000

> <Gold.PLP.Chemscore.Metal>
0.0000

> <Gold.Chemscore.Hbonds>
donor molecule, donor type, donor heavy atom, donor atom, acceptor molecule, acceptor atom, score
      P1  H  7997  8010       L1     9  0.44

> <Gold.PLP.Chemscore.Internal.Correction>
0.0265

> <Gold.Rescore>
     Score         DG    S(hbond)    S(metal)    S(lipo)     H(rot)  DE(clash)    DE(int)     intcor
     11.87     -13.78       0.91        0.00      86.37       1.89       0.03       1.87       ----

> <Gold.Chemscore.Fitness>
11.8741

> <Gold.Chemscore.DG>
-13.7759

> <Gold.Chemscore.ZeroCoef>
-5.4800

> <Gold.Chemscore.Hbond>
0.9051

> <Gold.Chemscore.Metal>
0.0000

> <Gold.Chemscore.Lipo>
86.3697

> <Gold.Chemscore.Internal_Hbond>
0.0000

> <Gold.Chemscore.DEClash>
0.0310

> <Gold.Chemscore.DEInternal>
1.8708

> <Gold.Chemscore.Rot>
1.8877

> <Gold.Chemscore.Internal.Correction>
   9.000000E+99

> <Gold.Chemscore.Hbonds>
donor molecule, donor type, donor heavy atom, donor atom, acceptor molecule, acceptor atom, score
      P1  H  7997  8010       L1     9  0.05

> <Gold.Chemscore.Hbond.Weighted>
-3.0232

> <Gold.Chemscore.Metal.Weighted>
-0.0000

> <Gold.Chemscore.Lipo.Weighted>
-10.1053

> <Gold.Chemscore.Internal_Hbond.Weighted>
0.0000

> <Gold.Chemscore.DEClash.Weighted>
0.0310

> <Gold.Chemscore.DEInternal.Weighted>
1.8708

> <Gold.Chemscore.Rot.Weighted>
4.8325

> <Gold.Chemscore.Internal.Correction.Weighted>
   9.000000E+99

> <Gold.Protein.RotatedTorsions>
[ 6907 6896 6895 6894 ] final -151.74 input  -60.11 | X-H torsion
[ 7974 7965 7964 7962 ] final  -32.25 input  175.53 | X-H torsion
[ 8008 7997 7996 7995 ] final   37.84 input   59.86 | X-H torsion
[ 10167 10162 10161 10158 ] final  -48.51 input  -65.29 | X-H torsion
[ 10718 10713 10712 10709 ] final   -3.50 input   66.30 | X-H torsion
[ 10763 10752 10751 10750 ] final  113.23 input  -60.55 | X-H torsion
[ 11005 11000 10999 10996 ] final   43.46 input  -57.11 | X-H torsion

> <Gold.Protein.ActiveResidues>
 VAL166  LYS551  ARG553  GLY616  TRP617  ASP618  TYR619  PRO620  LYS621  CYS622 
 ASP623  PHE694  ASN695  SER759  ASP760  ASP761  ALA762  ILE779  LEU786  VAL792 
 PHE793  MET794  SER795  GLU796  ALA797  LYS798  CYS799  TRP800  GLU811  SER814 

> <Gold.Protein.RotatedAtoms>
  151.2175  133.4521  159.2599 H   0  0  0  0  0  0  0  0  0  0  0  0  # atno 6907 bound_to 6896
  151.0916  134.9920  159.8416 H   0  0  0  0  0  0  0  0  0  0  0  0  # atno 6908 bound_to 6896
  152.5435  134.2108  159.8802 H   0  0  0  0  0  0  0  0  0  0  0  0  # atno 6909 bound_to 6896
  146.1004  140.5769  142.8823 H   0  0  0  0  0  0  0  0  0  0  0  0  # atno 7974 bound_to 7965
  155.2103  140.3323  155.4330 H   0  0  0  0  0  0  0  0  0  0  0  0  # atno 8008 bound_to 7997
  156.2373  140.1878  156.7133 H   0  0  0  0  0  0  0  0  0  0  0  0  # atno 8009 bound_to 7997
  154.6082  140.0613  156.9445 H   0  0  0  0  0  0  0  0  0  0  0  0  # atno 8010 bound_to 7997
  140.6727  143.2737  151.4081 H   0  0  0  0  0  0  0  0  0  0  0  0  # atno 10167 bound_to 10162
  156.7751  130.5312  149.5760 H   0  0  0  0  0  0  0  0  0  0  0  0  # atno 10718 bound_to 10713
  153.4894  135.3662  155.2484 H   0  0  0  0  0  0  0  0  0  0  0  0  # atno 10763 bound_to 10752
  154.8752  135.3973  154.3607 H   0  0  0  0  0  0  0  0  0  0  0  0  # atno 10764 bound_to 10752
  153.4224  135.7080  153.6351 H   0  0  0  0  0  0  0  0  0  0  0  0  # atno 10765 bound_to 10752
  140.1643  134.4302  155.8297 H   0  0  0  0  0  0  0  0  0  0  0  0  # atno 11005 bound_to 11000
  144.7428  140.4988  143.6857 LP  0  0  0  0  0  0  0  0  0  0  0  0  # atno 17320 bound_to 7965
  145.5865  139.1492  143.3206 LP  0  0  0  0  0  0  0  0  0  0  0  0  # atno 17321 bound_to 7965
  139.6004  144.1308  152.2191 LP  0  0  0  0  0  0  0  0  0  0  0  0  # atno 17342 bound_to 10162
  140.0690  144.5794  150.7206 LP  0  0  0  0  0  0  0  0  0  0  0  0  # atno 17343 bound_to 10162
  156.1253  130.6139  151.0254 LP  0  0  0  0  0  0  0  0  0  0  0  0  # atno 17370 bound_to 10713
  157.6672  131.0869  150.7699 LP  0  0  0  0  0  0  0  0  0  0  0  0  # atno 17371 bound_to 10713
  141.2212  133.6927  156.7650 LP  0  0  0  0  0  0  0  0  0  0  0  0  # atno 17394 bound_to 11000
  140.2452  134.8582  157.3613 LP  0  0  0  0  0  0  0  0  0  0  0  0  # atno 17395 bound_to 11000

$$$$
