AV-unprocessed.smi:2799|AV-procd|sdf|10792|dock2
  -GOLD-   2272015223D 1   1.00000     0.00000
 Structure written by MMmdl.
 52 53  0  0  0  0  0  0  0  0  2 V2000
  146.8601  127.3516  153.6149 C   0  0  0  0  0  0  0  0  0  0  0  0
  146.5660  128.3893  152.5205 C   0  0  0  0  0  0  0  0  0  0  0  0
  147.4184  128.1045  151.2721 C   0  0  0  0  0  0  0  0  0  0  0  0
  146.7914  129.8214  153.0623 C   0  0  0  0  0  0  0  0  0  0  0  0
  146.6653  130.9010  152.0354 N   0  3  1  0  0  0  0  0  0  0  0  0
  145.3304  130.8657  151.3671 C   0  0  0  0  0  0  0  0  0  0  0  0
  145.2343  131.8634  150.2063 C   0  0  0  0  0  0  0  0  0  0  0  0
  145.5168  133.2800  150.6974 C   0  0  0  0  0  0  0  0  0  0  0  0
  146.8841  133.3130  151.3811 C   0  0  0  0  0  0  0  0  0  0  0  0
  146.9934  132.2818  152.5351 C   0  0  2  0  0  0  0  0  0  0  0  0
  148.3970  132.3847  153.2015 C   0  0  0  0  0  0  0  0  0  0  0  0
  148.7738  133.7547  153.5414 N   0  0  0  0  0  0  0  0  0  0  0  0
  149.2933  134.1406  154.7158 C   0  0  0  0  0  0  0  0  0  0  0  0
  149.5179  133.3578  155.6384 O   0  0  0  0  0  0  0  0  0  0  0  0
  149.5263  135.4660  154.7252 N   0  0  0  0  0  0  0  0  0  0  0  0
  150.0268  136.2835  155.7545 C   0  0  0  0  0  0  0  0  0  0  0  0
  149.5731  136.2868  157.0337 C   0  0  0  0  0  0  0  0  0  0  0  0
  150.1439  137.1711  158.0210 C   0  0  0  0  0  0  0  0  0  0  0  0
  151.1292  137.9974  157.6435 C   0  0  0  0  0  0  0  0  0  0  0  0
  151.6087  138.0178  156.3231 N   0  0  0  0  0  0  0  0  0  0  0  0
  152.6885  138.9568  156.0085 C   0  0  0  0  0  0  0  0  0  0  0  0
  151.1100  137.2008  155.3481 C   0  0  0  0  0  0  0  0  0  0  0  0
  151.5508  137.2391  154.1966 O   0  0  0  0  0  0  0  0  0  0  0  0
  147.9020  127.3931  153.9347 H   0  0  0  0  0  0  0  0  0  0  0  0
  146.6620  126.3394  153.2610 H   0  0  0  0  0  0  0  0  0  0  0  0
  146.2359  127.5186  154.4933 H   0  0  0  0  0  0  0  0  0  0  0  0
  145.5193  128.2512  152.2559 H   0  0  0  0  0  0  0  0  0  0  0  0
  148.4823  128.2164  151.4839 H   0  0  0  0  0  0  0  0  0  0  0  0
  147.1689  128.7800  150.4536 H   0  0  0  0  0  0  0  0  0  0  0  0
  147.2576  127.0879  150.9120 H   0  0  0  0  0  0  0  0  0  0  0  0
  146.1037  130.0306  153.8833 H   0  0  0  0  0  0  0  0  0  0  0  0
  147.7866  129.8079  153.4956 H   0  0  0  0  0  0  0  0  0  0  0  0
  145.1226  129.8799  150.9575 H   0  0  0  0  0  0  0  0  0  0  0  0
  144.5502  131.0703  152.1022 H   0  0  0  0  0  0  0  0  0  0  0  0
  145.9441  131.5915  149.4239 H   0  0  0  0  0  0  0  0  0  0  0  0
  144.2423  131.8174  149.7559 H   0  0  0  0  0  0  0  0  0  0  0  0
  145.4941  133.9816  149.8629 H   0  0  0  0  0  0  0  0  0  0  0  0
  144.7420  133.5968  151.3968 H   0  0  0  0  0  0  0  0  0  0  0  0
  147.6639  133.1207  150.6427 H   0  0  0  0  0  0  0  0  0  0  0  0
  147.0523  134.3263  151.7457 H   0  0  0  0  0  0  0  0  0  0  0  0
  146.2422  132.5330  153.2858 H   0  0  0  0  0  0  0  0  0  0  0  0
  148.4581  131.8196  154.1299 H   0  0  0  0  0  0  0  0  0  0  0  0
  149.1588  131.9788  152.5354 H   0  0  0  0  0  0  0  0  0  0  0  0
  148.6253  134.4586  152.8327 H   0  0  0  0  0  0  0  0  0  0  0  0
  149.3341  135.9578  153.8644 H   0  0  0  0  0  0  0  0  0  0  0  0
  148.7698  135.6470  157.3588 H   0  0  0  0  0  0  0  0  0  0  0  0
  149.7855  137.1670  159.0399 H   0  0  0  0  0  0  0  0  0  0  0  0
  151.6071  138.6879  158.3231 H   0  0  0  0  0  0  0  0  0  0  0  0
  152.4012  139.6147  155.1870 H   0  0  0  0  0  0  0  0  0  0  0  0
  153.5883  138.4157  155.7127 H   0  0  0  0  0  0  0  0  0  0  0  0
  152.9532  139.5934  156.8535 H   0  0  0  0  0  0  0  0  0  0  0  0
  147.3513  130.6929  151.3239 H   0  0  0  0  0  0  0  0  0  0  0  0
  1  2  1  0  0  0  0
  1 24  1  0  0  0  0
  1 25  1  0  0  0  0
  1 26  1  0  0  0  0
  2  3  1  0  0  0  0
  2  4  1  0  0  0  0
  2 27  1  0  0  0  0
  3 28  1  0  0  0  0
  3 29  1  0  0  0  0
  3 30  1  0  0  0  0
  4  5  1  0  0  0  0
  4 31  1  0  0  0  0
  4 32  1  0  0  0  0
  5 10  1  0  0  0  0
  5  6  1  0  0  0  0
  5 52  1  0  0  0  0
  6  7  1  0  0  0  0
  6 33  1  0  0  0  0
  6 34  1  0  0  0  0
  7  8  1  0  0  0  0
  7 35  1  0  0  0  0
  7 36  1  0  0  0  0
  8  9  1  0  0  0  0
  8 37  1  0  0  0  0
  8 38  1  0  0  0  0
  9 10  1  0  0  0  0
  9 39  1  0  0  0  0
  9 40  1  0  0  0  0
 10 11  1  0  0  0  0
 10 41  1  0  0  0  0
 11 12  1  0  0  0  0
 11 42  1  0  0  0  0
 11 43  1  0  0  0  0
 12 13  1  0  0  0  0
 12 44  1  0  0  0  0
 13 14  2  0  0  0  0
 13 15  1  0  0  0  0
 15 16  1  0  0  0  0
 15 45  1  0  0  0  0
 16 22  1  0  0  0  0
 16 17  2  0  0  0  0
 17 18  1  0  0  0  0
 17 46  1  0  0  0  0
 18 19  2  0  0  0  0
 18 47  1  0  0  0  0
 19 20  1  0  0  0  0
 19 48  1  0  0  0  0
 20 21  1  0  0  0  0
 20 22  1  0  0  0  0
 21 49  1  0  0  0  0
 21 50  1  0  0  0  0
 21 51  1  0  0  0  0
 22 23  2  0  0  0  0
M  CHG  1   5   1
M  END
> <s_m_source_file>
AV-unprocessed.smi

> <i_m_source_file_index>
2799

> <i_lp_mmshare_version>
43012

> <i_f3d_flags>
0

> <s_epik_input>
W0NIM11bQ0hdKFtDSDNdKVtDSDJdTjFbQ0gyXVtDSDJdW0NIMl1bQ0gyXVtDQEhdMVtDSDJdW05IXUMoPU8pW05IXWMyW2NIXVtjSF1bY0hdbihbQ0gzXSljMj1P

> <s_epik_cmdline>
J2VwaWtfcHl0aG9uJywgJy1waCcsICc3LjAnLCAnLXRuJywgJzgnLCAnLW1hJywgJzIwMCcsICctbWV0YWxfYmluZGluZycsICctaW1hZScsICc8aW5maWxlLm1hZT4nLCAnLW9tYWUnLCAnPG91dGZpbGUubWFlPic=

> <r_lp_tautomer_probability>
1

> <r_epik_Ionization_Penalty>
0.0010885

> <r_epik_Ionization_Penalty_Charging>
0.00106921

> <r_epik_Ionization_Penalty_Neutral>
1.92865e-05

> <r_epik_State_Penalty>
0.000697184

> <r_epik_Charging_Adjusted_Penalty>
0.0017664

> <i_epik_Tot_Q>
1

> <i_epik_Tot_abs_Q>
1

> <r_epik_Metal_State_Penalty>
-0

> <b_epik_Metal_Only>
0

> <s_lp_Force_Field>
OPLS_2005

> <r_lp_Energy>
36.993

> <b_lp_Chiralities_Consistent>
1

> <s_lp_Variant>
AV-unprocessed.smi:2799-4

> <Gold.Version>
5.8.1

> <Gold.Id.Protein>
6NUR|6NUR_protein|mol2

> <Gold.PLP.Fitness>
48.1841

> <Gold.PLP.PLP>
-38.0703

> <Gold.PLP.part.hbond>
-4.0000

> <Gold.PLP.part.metal>
0.0000

> <Gold.PLP.part.buried>
-5.3715

> <Gold.PLP.part.nonpolar>
-31.1087

> <Gold.PLP.part.repulsive>
1.2851

> <Gold.PLP.ligand.clash>
0.0000

> <Gold.PLP.ligand.torsion>
0.5773

> <Gold.PLP.Chemscore.Hbond>
3.6913

> <Gold.PLP.Chemscore.CHOScore>
0.0000

> <Gold.PLP.Chemscore.Metal>
0.0000

> <Gold.Chemscore.Hbonds>
donor molecule, donor type, donor heavy atom, donor atom, acceptor molecule, acceptor atom, score
      L1  H     5    52       P1 10747  1.00
      L1  H    12    44       P1  7948  0.75
      L1  H    15    45       P1  7948  1.00
      P1  H 10752 10763       L1    23  0.81

> <Gold.PLP.Chemscore.Internal.Correction>
0.1946

> <Gold.Rescore>
     Score         DG    S(hbond)    S(metal)    S(lipo)     H(rot)  DE(clash)    DE(int)     intcor
     21.15     -21.85       2.71        0.00      97.03       1.57       0.04       0.66       ----

> <Gold.Chemscore.Fitness>
21.1520

> <Gold.Chemscore.DG>
-21.8537

> <Gold.Chemscore.ZeroCoef>
-5.4800

> <Gold.Chemscore.Hbond>
2.7059

> <Gold.Chemscore.Metal>
0.0000

> <Gold.Chemscore.Lipo>
97.0263

> <Gold.Chemscore.Internal_Hbond>
0.0000

> <Gold.Chemscore.DEClash>
0.0411

> <Gold.Chemscore.DEInternal>
0.6606

> <Gold.Chemscore.Rot>
1.5688

> <Gold.Chemscore.Internal.Correction>
   9.000000E+99

> <Gold.Chemscore.Hbonds>
donor molecule, donor type, donor heavy atom, donor atom, acceptor molecule, acceptor atom, score
      L1  H     5    52       P1 10747  0.99
      L1  H    12    44       P1  7948  0.09
      L1  H    15    45       P1  7948  0.69
      P1  H 10752 10763       L1    23  0.36

> <Gold.Chemscore.Hbond.Weighted>
-9.0377

> <Gold.Chemscore.Metal.Weighted>
-0.0000

> <Gold.Chemscore.Lipo.Weighted>
-11.3521

> <Gold.Chemscore.Internal_Hbond.Weighted>
0.0000

> <Gold.Chemscore.DEClash.Weighted>
0.0411

> <Gold.Chemscore.DEInternal.Weighted>
0.6606

> <Gold.Chemscore.Rot.Weighted>
4.0161

> <Gold.Chemscore.Internal.Correction.Weighted>
   9.000000E+99

> <Gold.Protein.RotatedTorsions>
[ 6907 6896 6895 6894 ] final  -54.74 input  -60.11 | X-H torsion
[ 7974 7965 7964 7962 ] final   99.04 input  175.53 | X-H torsion
[ 8008 7997 7996 7995 ] final  127.00 input   59.86 | X-H torsion
[ 10167 10162 10161 10158 ] final    8.67 input  -65.29 | X-H torsion
[ 10718 10713 10712 10709 ] final  -99.49 input   66.30 | X-H torsion
[ 10763 10752 10751 10750 ] final   32.53 input  -60.55 | X-H torsion
[ 11005 11000 10999 10996 ] final  174.95 input  -57.11 | X-H torsion

> <Gold.Protein.ActiveResidues>
 VAL166  LYS551  ARG553  GLY616  TRP617  ASP618  TYR619  PRO620  LYS621  CYS622 
 ASP623  PHE694  ASN695  SER759  ASP760  ASP761  ALA762  ILE779  LEU786  VAL792 
 PHE793  MET794  SER795  GLU796  ALA797  LYS798  CYS799  TRP800  GLU811  SER814 

> <Gold.Protein.RotatedAtoms>
  150.8311  134.7565  159.6854 H   0  0  0  0  0  0  0  0  0  0  0  0  # atno 6907 bound_to 6896
  152.4415  134.5577  159.9895 H   0  0  0  0  0  0  0  0  0  0  0  0  # atno 6908 bound_to 6896
  151.5738  133.3349  159.3030 H   0  0  0  0  0  0  0  0  0  0  0  0  # atno 6909 bound_to 6896
  145.4042  139.2343  143.3283 H   0  0  0  0  0  0  0  0  0  0  0  0  # atno 7974 bound_to 7965
  156.2879  140.2679  156.2202 H   0  0  0  0  0  0  0  0  0  0  0  0  # atno 8008 bound_to 7997
  155.0175  140.0387  157.2442 H   0  0  0  0  0  0  0  0  0  0  0  0  # atno 8009 bound_to 7997
  154.7464  140.2735  155.6334 H   0  0  0  0  0  0  0  0  0  0  0  0  # atno 8010 bound_to 7997
  140.6300  143.8015  150.7283 H   0  0  0  0  0  0  0  0  0  0  0  0  # atno 10167 bound_to 10162
  156.0135  130.5285  150.6678 H   0  0  0  0  0  0  0  0  0  0  0  0  # atno 10718 bound_to 10713
  153.0257  135.6410  154.1370 H   0  0  0  0  0  0  0  0  0  0  0  0  # atno 10763 bound_to 10752
  154.1099  135.2853  155.3234 H   0  0  0  0  0  0  0  0  0  0  0  0  # atno 10764 bound_to 10752
  154.6339  135.5483  153.7774 H   0  0  0  0  0  0  0  0  0  0  0  0  # atno 10765 bound_to 10752
  140.3569  134.7146  157.4305 H   0  0  0  0  0  0  0  0  0  0  0  0  # atno 11005 bound_to 11000
  146.2737  140.4744  142.8804 LP  0  0  0  0  0  0  0  0  0  0  0  0  # atno 17320 bound_to 7965
  144.8353  140.6772  143.6264 LP  0  0  0  0  0  0  0  0  0  0  0  0  # atno 17321 bound_to 7965
  140.1624  143.4264  152.2058 LP  0  0  0  0  0  0  0  0  0  0  0  0  # atno 17342 bound_to 10162
  139.5515  144.7341  151.4420 LP  0  0  0  0  0  0  0  0  0  0  0  0  # atno 17343 bound_to 10162
  157.4407  131.0861  151.0946 LP  0  0  0  0  0  0  0  0  0  0  0  0  # atno 17370 bound_to 10713
  157.1491  130.6176  149.5577 LP  0  0  0  0  0  0  0  0  0  0  0  0  # atno 17371 bound_to 10713
  140.0657  134.5932  155.8697 LP  0  0  0  0  0  0  0  0  0  0  0  0  # atno 17394 bound_to 11000
  141.1995  133.6607  156.5850 LP  0  0  0  0  0  0  0  0  0  0  0  0  # atno 17395 bound_to 11000

$$$$
