#       Name:                AV-unprocessed.smi:2412
#       Creating user name   scv26
#       Creation time:       Fri Mar 27 13:16:31 2020


#       File generated by GOLD software.
#

@<TRIPOS>MOLECULE
AV-unprocessed.smi:2412
    42    43     1
SMALL
NO_CHARGES


@<TRIPOS>ATOM
      1 ****        -3.1378  -4.1214  -0.0266 C.3            1 S1                 0.0000
      2 ****        -3.8982  -2.8083   0.0382 C.ar           1 S1                 0.0000
      3 ****        -5.3080  -2.8149   0.1109 C.ar           1 S1                 0.0000
      4 ****        -6.0573  -1.6952   0.1754 N.ar           1 S1                 0.0000
      5 ****        -5.4156  -0.5091   0.1752 C.ar           1 S1                 0.0000
      6 ****        -4.0144  -0.3854   0.1066 C.ar           1 S1                 0.0000
      7 ****        -3.2286  -1.5604   0.0230 C.ar           1 S1                 0.0000
      8 ****        -1.8056  -1.5470  -0.0289 N.am           1 S1                 0.0000
      9 ****        -0.9853  -0.5591  -0.4270 C.2            1 S1                 0.0000
     10 ****        -1.3429   0.5350  -0.8635 O.2            1 S1                 0.0000
     11 ****         0.3012  -0.9196  -0.3057 N.am           1 S1                 0.0000
     12 ****         1.4463  -0.0697  -0.6279 C.3            1 S1                 0.0000
     13 ****         1.8485   0.8746   0.5205 C.2            1 S1                 0.0000
     14 ****         1.2652   0.8091   1.6043 O.2            1 S1                 0.0000
     15 ****         2.8527   1.7492   0.3030 N.am           1 S1                 0.0000
     16 ****         3.6112   1.8904  -0.9399 C.3            1 S1                 0.0000
     17 ****         4.4846   3.1320  -0.7540 C.3            1 S1                 0.0000
     18 ****         4.6441   3.2560   0.7546 C.3            1 S1                 0.0000
     19 ****         3.3436   2.6814   1.3161 C.3            1 S1                 0.0000
     20 ****        -3.8180  -4.9735  -0.0378 H              1 S1                 0.0000
     21 ****        -2.4823  -4.2248   0.8385 H              1 S1                 0.0000
     22 ****        -2.5293  -4.1653  -0.9303 H              1 S1                 0.0000
     23 ****        -5.8542  -3.7468   0.1206 H              1 S1                 0.0000
     24 ****        -6.0380   0.3711   0.2394 H              1 S1                 0.0000
     25 ****        -3.5760   0.6000   0.1336 H              1 S1                 0.0000
     26 ****        -1.3591  -2.4165   0.2221 H              1 S1                 0.0000
     27 ****         0.5067  -1.8376   0.0603 H              1 S1                 0.0000
     28 ****         2.2913  -0.7172  -0.8629 H              1 S1                 0.0000
     29 ****         1.2296   0.5075  -1.5279 H              1 S1                 0.0000
     30 ****         4.2321   1.0046  -1.0815 H              1 S1                 0.0000
     31 ****         2.9664   1.9995  -1.8128 H              1 S1                 0.0000
     32 ****         5.4392   3.0598  -1.2760 H              1 S1                 0.0000
     33 ****         3.9601   4.0083  -1.1373 H              1 S1                 0.0000
     34 ****         5.4861   2.6452   1.0831 H              1 S1                 0.0000
     35 ****         4.8281   4.2808   1.0784 H              1 S1                 0.0000
     36 ****         2.6044   3.4713   1.4569 H              1 S1                 0.0000
     37 ****         3.5088   2.1959   2.2794 H              1 S1                 0.0000
     38 ****        -7.0551  -1.7430   0.2218 LP             1 S1                 0.0000
     39 ****        -2.3168   0.7468  -0.9449 LP             1 S1                 0.0000
     40 ****        -0.6595   1.2120  -1.1367 LP             1 S1                 0.0000
     41 ****         0.5313   0.1431   1.7377 LP             1 S1                 0.0000
     42 ****         1.5259   1.4219   2.3503 LP             1 S1                 0.0000
@<TRIPOS>BOND
    1    1    2 1     
    2    1   20 1     
    3    1   21 1     
    4    1   22 1     
    5    2    7 ar    
    6    2    3 ar    
    7    3    4 ar    
    8    3   23 1     
    9    4    5 ar    
   10    5    6 ar    
   11    5   24 1     
   12    6    7 ar    
   13    6   25 1     
   14    7    8 1     
   15    8    9 am    
   16    8   26 1     
   17    9   10 2     
   18    9   11 am    
   19   11   12 1     
   20   11   27 1     
   21   12   13 1     
   22   12   28 1     
   23   12   29 1     
   24   13   14 2     
   25   13   15 am    
   26   15   19 1     
   27   15   16 1     
   28   16   17 1     
   29   16   30 1     
   30   16   31 1     
   31   17   18 1     
   32   17   32 1     
   33   17   33 1     
   34   18   19 1     
   35   18   34 1     
   36   18   35 1     
   37   19   36 1     
   38   19   37 1     
   39    4   38 1     
   40   10   39 1     
   41   10   40 1     
   42   14   41 1     
   43   14   42 1     
@<TRIPOS>SUBSTRUCTURE
      1 S1             1
@<TRIPOS>SET
LONE_PAIRS      STATIC     ATOMS    <user>   **** ""
5 38 39 40 41 42
DONOR_HYDROGENS      STATIC     ATOMS    <user>   **** ""
2 26 27
ATOM$BLUE        STATIC     ATOMS    COLORGROUP SYSTEM
5 38 39 40 41 42
ATOM$RED        STATIC     ATOMS    COLORGROUP SYSTEM
2 26 27
