AV-unprocessed.smi:1251|AV-procd|sdf|5263|dock3
  -GOLD-   22720 4373D 1   1.00000     0.00000
 Structure written by MMmdl.
 38 39  0  0  0  0  0  0  0  0  2 V2000
  145.2691  133.8335  161.8945 C   0  0  0  0  0  0  0  0  0  0  0  0
  146.3677  134.4012  162.7998 C   0  0  0  0  0  0  0  0  0  0  0  0
  146.6667  135.8782  162.5064 C   0  0  0  0  0  0  0  0  0  0  0  0
  147.5784  136.0576  161.3387 C   0  0  0  0  0  0  0  0  0  0  0  0
  148.0751  137.2452  160.9832 N   0  0  0  0  0  0  0  0  0  0  0  0
  148.8722  137.1607  159.8510 N   0  0  0  0  0  0  0  0  0  0  0  0
  148.9478  135.9185  159.3528 C   0  0  0  0  0  0  0  0  0  0  0  0
  149.6700  135.6245  158.2589 N   0  5  0  0  0  0  0  0  0  0  0  0
  150.6361  136.4725  157.8388 C   0  0  0  0  0  0  0  0  0  0  0  0
  151.7480  136.6216  158.3506 O   0  0  0  0  0  0  0  0  0  0  0  0
  150.2854  137.1956  156.7648 N   0  0  0  0  0  0  0  0  0  0  0  0
  151.0982  138.2005  156.0796 C   0  0  1  0  0  0  0  0  0  0  0  0
  151.2319  137.8027  154.6026 C   0  0  0  0  0  0  0  0  0  0  0  0
  150.4692  139.6000  156.2401 C   0  0  1  0  0  0  0  0  0  0  0  0
  150.5709  140.2024  157.6428 C   0  0  0  0  0  0  0  0  0  0  0  0
  150.4770  141.6997  157.3965 C   0  0  0  0  0  0  0  0  0  0  0  0
  150.7492  141.8484  155.8968 C   0  0  0  0  0  0  0  0  0  0  0  0
  151.1653  140.5614  155.4614 O   0  0  0  0  0  0  0  0  0  0  0  0
  148.0331  134.7313  160.2821 S   0  0  0  0  0  0  0  0  0  0  0  0
  145.0793  132.7849  162.1248 H   0  0  0  0  0  0  0  0  0  0  0  0
  145.5531  133.8977  160.8436 H   0  0  0  0  0  0  0  0  0  0  0  0
  144.3330  134.3775  162.0235 H   0  0  0  0  0  0  0  0  0  0  0  0
  146.0673  134.2891  163.8422 H   0  0  0  0  0  0  0  0  0  0  0  0
  147.2773  133.8120  162.6755 H   0  0  0  0  0  0  0  0  0  0  0  0
  145.7390  136.4182  162.3130 H   0  0  0  0  0  0  0  0  0  0  0  0
  147.1246  136.3475  163.3778 H   0  0  0  0  0  0  0  0  0  0  0  0
  149.3626  137.0331  156.3895 H   0  0  0  0  0  0  0  0  0  0  0  0
  152.1033  138.2202  156.5042 H   0  0  0  0  0  0  0  0  0  0  0  0
  151.8615  138.5081  154.0597 H   0  0  0  0  0  0  0  0  0  0  0  0
  150.2601  137.7751  154.1084 H   0  0  0  0  0  0  0  0  0  0  0  0
  151.6850  136.8158  154.5026 H   0  0  0  0  0  0  0  0  0  0  0  0
  149.4243  139.5830  155.9233 H   0  0  0  0  0  0  0  0  0  0  0  0
  149.7980  139.8333  158.3176 H   0  0  0  0  0  0  0  0  0  0  0  0
  151.5409  139.9670  158.0828 H   0  0  0  0  0  0  0  0  0  0  0  0
  149.4869  142.0829  157.6458 H   0  0  0  0  0  0  0  0  0  0  0  0
  151.2083  142.2409  157.9976 H   0  0  0  0  0  0  0  0  0  0  0  0
  149.8368  142.1279  155.3683 H   0  0  0  0  0  0  0  0  0  0  0  0
  151.5103  142.5988  155.6818 H   0  0  0  0  0  0  0  0  0  0  0  0
  1  2  1  0  0  0  0
  1 20  1  0  0  0  0
  1 21  1  0  0  0  0
  1 22  1  0  0  0  0
  2  3  1  0  0  0  0
  2 23  1  0  0  0  0
  2 24  1  0  0  0  0
  3  4  1  0  0  0  0
  3 25  1  0  0  0  0
  3 26  1  0  0  0  0
  4 19  1  0  0  0  0
  4  5  2  0  0  0  0
  5  6  1  0  0  0  0
  6  7  2  0  0  0  0
  7  8  1  0  0  0  0
  7 19  1  0  0  0  0
  8  9  1  0  0  0  0
  9 10  2  0  0  0  0
  9 11  1  0  0  0  0
 11 12  1  0  0  0  0
 11 27  1  0  0  0  0
 12 13  1  0  0  0  0
 12 14  1  0  0  0  0
 12 28  1  0  0  0  0
 13 29  1  0  0  0  0
 13 30  1  0  0  0  0
 13 31  1  0  0  0  0
 14 18  1  0  0  0  0
 14 15  1  0  0  0  0
 14 32  1  0  0  0  0
 15 16  1  0  0  0  0
 15 33  1  0  0  0  0
 15 34  1  0  0  0  0
 16 17  1  0  0  0  0
 16 35  1  0  0  0  0
 16 36  1  0  0  0  0
 17 18  1  0  0  0  0
 17 37  1  0  0  0  0
 17 38  1  0  0  0  0
M  CHG  1   8  -1
M  END
> <s_m_source_file>
AV-unprocessed.smi

> <i_m_source_file_index>
1251

> <i_lp_mmshare_version>
43012

> <i_f3d_flags>
0

> <s_epik_input>
W0NIM11bQ0gyXVtDSDJdYzFubmMoczEpW05IXUMoPU8pW05IXVtDQEhdKFtDSDNdKVtDQEBIXTJbQ0gyXVtDSDJdW0NIMl1PMg==

> <s_epik_cmdline>
J2VwaWtfcHl0aG9uJywgJy1waCcsICc3LjAnLCAnLXRuJywgJzgnLCAnLW1hJywgJzIwMCcsICctbWV0YWxfYmluZGluZycsICctaW1hZScsICc8aW5maWxlLm1hZT4nLCAnLW9tYWUnLCAnPG91dGZpbGUubWFlPic=

> <r_lp_tautomer_probability>
1

> <r_epik_Ionization_Penalty>
4.22551

> <r_epik_Ionization_Penalty_Charging>
4.21437

> <r_epik_Ionization_Penalty_Neutral>
0.0111434

> <r_epik_State_Penalty>
4.21389

> <r_epik_Charging_Adjusted_Penalty>
8.42826

> <i_epik_Tot_Q>
-1

> <i_epik_Tot_abs_Q>
1

> <r_epik_Metal_State_Penalty>
0.69377

> <b_epik_Metal_Only>
1

> <s_lp_Force_Field>
OPLS_2005

> <r_lp_Energy>
11.5683

> <b_lp_Chiralities_Consistent>
1

> <s_lp_Variant>
AV-unprocessed.smi:1251-8

> <Gold.Version>
5.8.1

> <Gold.Id.Protein>
6NUR|6NUR_protein|mol2

> <Gold.PLP.Fitness>
37.0626

> <Gold.PLP.PLP>
-29.8715

> <Gold.PLP.part.hbond>
-6.0000

> <Gold.PLP.part.metal>
0.0000

> <Gold.PLP.part.buried>
-2.6949

> <Gold.PLP.part.nonpolar>
-22.1426

> <Gold.PLP.part.repulsive>
0.0588

> <Gold.PLP.ligand.clash>
0.0000

> <Gold.PLP.ligand.torsion>
1.0721

> <Gold.PLP.Chemscore.Hbond>
3.0571

> <Gold.PLP.Chemscore.CHOScore>
0.0000

> <Gold.PLP.Chemscore.Metal>
0.0000

> <Gold.Chemscore.Hbonds>
donor molecule, donor type, donor heavy atom, donor atom, acceptor molecule, acceptor atom, score
      P1  H  6896  6907       L1    10  0.24
      P1  H  6896  6909       L1     8  0.45
      P1  H  6931  6943       L1     5  0.88
      P1  H  6934  6947       L1     5  0.69
      P1  H  7989  7998       L1    18  0.87

> <Gold.PLP.Chemscore.Internal.Correction>
0.1641

> <Gold.Rescore>
     Score         DG    S(hbond)    S(metal)    S(lipo)     H(rot)  DE(clash)    DE(int)     intcor
     14.21     -15.28       1.59        0.00      72.29       1.55       0.05       1.02       ----

> <Gold.Chemscore.Fitness>
14.2127

> <Gold.Chemscore.DG>
-15.2813

> <Gold.Chemscore.ZeroCoef>
-5.4800

> <Gold.Chemscore.Hbond>
1.5879

> <Gold.Chemscore.Metal>
0.0000

> <Gold.Chemscore.Lipo>
72.2888

> <Gold.Chemscore.Internal_Hbond>
0.0000

> <Gold.Chemscore.DEClash>
0.0451

> <Gold.Chemscore.DEInternal>
1.0236

> <Gold.Chemscore.Rot>
1.5469

> <Gold.Chemscore.Internal.Correction>
   9.000000E+99

> <Gold.Chemscore.Hbonds>
donor molecule, donor type, donor heavy atom, donor atom, acceptor molecule, acceptor atom, score
      P1  H  6896  6907       L1    10  0.12
      P1  H  6896  6909       L1     8  0.01
      P1  H  6931  6943       L1     5  0.19
      P1  H  6934  6947       L1     5  0.40
      P1  H  7989  7998       L1    18  0.28

> <Gold.Chemscore.Hbond.Weighted>
-5.3035

> <Gold.Chemscore.Metal.Weighted>
-0.0000

> <Gold.Chemscore.Lipo.Weighted>
-8.4578

> <Gold.Chemscore.Internal_Hbond.Weighted>
0.0000

> <Gold.Chemscore.DEClash.Weighted>
0.0451

> <Gold.Chemscore.DEInternal.Weighted>
1.0236

> <Gold.Chemscore.Rot.Weighted>
3.9600

> <Gold.Chemscore.Internal.Correction.Weighted>
   9.000000E+99

> <Gold.Protein.RotatedTorsions>
[ 6907 6896 6895 6894 ] final   17.07 input  -60.11 | X-H torsion
[ 7974 7965 7964 7962 ] final  147.22 input  175.53 | X-H torsion
[ 8008 7997 7996 7995 ] final  -82.94 input   59.86 | X-H torsion
[ 10167 10162 10161 10158 ] final -167.58 input  -65.29 | X-H torsion
[ 10718 10713 10712 10709 ] final -175.14 input   66.30 | X-H torsion
[ 10763 10752 10751 10750 ] final  -88.09 input  -60.55 | X-H torsion
[ 11005 11000 10999 10996 ] final   25.74 input  -57.11 | X-H torsion

> <Gold.Protein.ActiveResidues>
 VAL166  LYS551  ARG553  GLY616  TRP617  ASP618  TYR619  PRO620  LYS621  CYS622 
 ASP623  PHE694  ASN695  SER759  ASP760  ASP761  ALA762  ILE779  LEU786  VAL792 
 PHE793  MET794  SER795  GLU796  ALA797  LYS798  CYS799  TRP800  GLU811  SER814 

> <Gold.Protein.RotatedAtoms>
  151.8438  135.0581  160.0450 H   0  0  0  0  0  0  0  0  0  0  0  0  # atno 6907 bound_to 6896
  152.2789  133.5447  159.5493 H   0  0  0  0  0  0  0  0  0  0  0  0  # atno 6908 bound_to 6896
  150.7181  134.0508  159.3840 H   0  0  0  0  0  0  0  0  0  0  0  0  # atno 6909 bound_to 6896
  144.8609  139.6001  143.5931 H   0  0  0  0  0  0  0  0  0  0  0  0  # atno 7974 bound_to 7965
  154.6138  140.0626  156.9528 H   0  0  0  0  0  0  0  0  0  0  0  0  # atno 8008 bound_to 7997
  155.1929  140.3308  155.4337 H   0  0  0  0  0  0  0  0  0  0  0  0  # atno 8009 bound_to 7997
  156.2392  140.1878  156.7017 H   0  0  0  0  0  0  0  0  0  0  0  0  # atno 8010 bound_to 7997
  139.6040  144.0951  152.1773 H   0  0  0  0  0  0  0  0  0  0  0  0  # atno 10167 bound_to 10162
  156.7954  130.9533  151.3119 H   0  0  0  0  0  0  0  0  0  0  0  0  # atno 10718 bound_to 10713
  154.6408  135.5389  153.7787 H   0  0  0  0  0  0  0  0  0  0  0  0  # atno 10763 bound_to 10752
  153.0332  135.6458  154.1163 H   0  0  0  0  0  0  0  0  0  0  0  0  # atno 10764 bound_to 10752
  154.1087  135.2928  155.3215 H   0  0  0  0  0  0  0  0  0  0  0  0  # atno 10765 bound_to 10752
  140.3446  134.2295  155.7686 H   0  0  0  0  0  0  0  0  0  0  0  0  # atno 11005 bound_to 11000
  146.2859  139.7004  142.9195 LP  0  0  0  0  0  0  0  0  0  0  0  0  # atno 17320 bound_to 7965
  145.4314  141.0415  143.2908 LP  0  0  0  0  0  0  0  0  0  0  0  0  # atno 17321 bound_to 7965
  140.0554  144.5899  150.7303 LP  0  0  0  0  0  0  0  0  0  0  0  0  # atno 17342 bound_to 10162
  140.7271  143.2648  151.4082 LP  0  0  0  0  0  0  0  0  0  0  0  0  # atno 17343 bound_to 10162
  157.6580  130.8941  149.9769 LP  0  0  0  0  0  0  0  0  0  0  0  0  # atno 17370 bound_to 10713
  156.1133  130.3649  150.0011 LP  0  0  0  0  0  0  0  0  0  0  0  0  # atno 17371 bound_to 10713
  141.2029  133.7926  157.0367 LP  0  0  0  0  0  0  0  0  0  0  0  0  # atno 17394 bound_to 11000
  140.0753  134.9679  157.1535 LP  0  0  0  0  0  0  0  0  0  0  0  0  # atno 17395 bound_to 11000

$$$$
