#       Name:                AV-unprocessed.smi:104
#       Creating user name   scv26
#       Creation time:       Thu Mar 26 17:58:01 2020


#       File generated by GOLD software.
#

@<TRIPOS>MOLECULE
AV-unprocessed.smi:104
    58    60     1
SMALL
NO_CHARGES


@<TRIPOS>ATOM
      1 ****        -3.9119   4.0394   2.3477 C.3            1 S1                 0.0000
      2 ****        -3.7913   2.5305   2.1760 C.2            1 S1                 0.0000
      3 ****        -4.7559   1.7861   2.3521 O.2            1 S1                 0.0000
      4 ****        -2.5542   2.1484   1.8246 O.3            1 S1                 0.0000
      5 ****        -2.2765   0.7720   1.6293 C.3            1 S1                 0.0000
      6 ****        -0.8039   0.5976   1.2351 C.3            1 S1                 0.0000
      7 ****        -0.6186   1.0318  -0.1094 O.3            1 S1                 0.0000
      8 ****        -0.5542  -0.0836  -0.9302 C.3            1 S1                 0.0000
      9 ****         0.2159   0.2556  -2.1619 N.pl3          1 S1                 0.0000
     10 ****        -0.0558  -0.0660  -3.4717 C.2            1 S1                 0.0000
     11 ****        -1.5805  -1.0916  -3.9727 Br             1 S1                 0.0000
     12 ****         0.7915   0.3455  -4.3731 N.2            1 S1                 0.0000
     13 ****         1.7476   1.0092  -3.6136 C.ar           1 S1                 0.0000
     14 ****         2.9502   1.6933  -3.9222 C.ar           1 S1                 0.0000
     15 ****         3.4148   1.8277  -5.1721 N.pl3          1 S1                 0.0000
     16 ****         3.6656   2.2338  -2.9082 N.ar           1 S1                 0.0000
     17 ****         3.2260   2.1104  -1.6514 C.ar           1 S1                 0.0000
     18 ****         2.1235   1.5008  -1.2071 N.ar           1 S1                 0.0000
     19 ****         1.4012   0.9585  -2.2315 C.ar           1 S1                 0.0000
     20 ****         0.1623  -1.1573  -0.1288 C.3            1 S1                 0.0000
     21 ****        -0.2143  -2.4430  -0.6004 O.3            1 S1                 0.0000
     22 ****         0.5681  -3.5056  -0.3541 C.2            1 S1                 0.0000
     23 ****         0.0103  -4.7884  -0.9560 C.3            1 S1                 0.0000
     24 ****         1.6236  -3.4981   0.2795 O.2            1 S1                 0.0000
     25 ****        -0.3628  -0.8798   1.2719 C.3            1 S1                 0.0000
     26 ****         0.6839  -1.0883   2.2109 O.3            1 S1                 0.0000
     27 ****         0.3977  -1.3997   3.4858 C.2            1 S1                 0.0000
     28 ****         1.6493  -1.5833   4.3336 C.3            1 S1                 0.0000
     29 ****        -0.7286  -1.5305   3.9650 O.2            1 S1                 0.0000
     30 ****        -2.9276   4.5037   2.4157 H              1 S1                 0.0000
     31 ****        -4.4656   4.2722   3.2573 H              1 S1                 0.0000
     32 ****        -4.4417   4.4738   1.4998 H              1 S1                 0.0000
     33 ****        -2.4735   0.2402   2.5612 H              1 S1                 0.0000
     34 ****        -2.9323   0.3501   0.8663 H              1 S1                 0.0000
     35 ****        -0.1718   1.2056   1.8842 H              1 S1                 0.0000
     36 ****        -1.5561  -0.3672  -1.2543 H              1 S1                 0.0000
     37 ****         2.9003   1.4311  -5.9454 H              1 S1                 0.0000
     38 ****         4.2789   2.3231  -5.3381 H              1 S1                 0.0000
     39 ****         3.8471   2.5637  -0.8929 H              1 S1                 0.0000
     40 ****         1.2379  -0.9804  -0.1891 H              1 S1                 0.0000
     41 ****         0.1884  -4.8079  -2.0312 H              1 S1                 0.0000
     42 ****        -1.0634  -4.8580  -0.7805 H              1 S1                 0.0000
     43 ****         0.4896  -5.6597  -0.5097 H              1 S1                 0.0000
     44 ****        -1.2183  -1.5278   1.4723 H              1 S1                 0.0000
     45 ****         2.0820  -2.5685   4.1594 H              1 S1                 0.0000
     46 ****         1.4095  -1.4921   5.3931 H              1 S1                 0.0000
     47 ****         2.3943  -0.8277   4.0832 H              1 S1                 0.0000
     48 ****        -5.6419   2.1691   2.6136 LP             1 S1                 0.0000
     49 ****        -4.6535   0.7984   2.2338 LP             1 S1                 0.0000
     50 ****         0.2323   1.5522  -0.1810 LP             1 S1                 0.0000
     51 ****        -1.3868   1.6094  -0.3857 LP             1 S1                 0.0000
     52 ****         0.7610   0.2159  -5.3642 LP             1 S1                 0.0000
     53 ****         4.5174   2.7222  -3.0977 LP             1 S1                 0.0000
     54 ****         1.8598   1.4481  -0.2439 LP             1 S1                 0.0000
     55 ****         1.9691  -2.6426   0.6653 LP             1 S1                 0.0000
     56 ****         2.1354  -4.3474   0.4084 LP             1 S1                 0.0000
     57 ****        -1.5354  -1.4022   3.3882 LP             1 S1                 0.0000
     58 ****        -0.8368  -1.7650   4.9311 LP             1 S1                 0.0000
@<TRIPOS>BOND
    1    1    2 1     
    2    1   30 1     
    3    1   31 1     
    4    1   32 1     
    5    2    3 2     
    6    2    4 1     
    7    4    5 1     
    8    5    6 1     
    9    5   33 1     
   10    5   34 1     
   11    6   25 1     
   12    6    7 1     
   13    6   35 1     
   14    7    8 1     
   15    8    9 1     
   16    8   20 1     
   17    8   36 1     
   18    9   19 1     
   19    9   10 1     
   20   10   11 1     
   21   10   12 2     
   22   12   13 1     
   23   13   19 ar    
   24   13   14 ar    
   25   14   15 1     
   26   14   16 ar    
   27   15   37 1     
   28   15   38 1     
   29   16   17 ar    
   30   17   18 ar    
   31   17   39 1     
   32   18   19 ar    
   33   20   21 1     
   34   20   25 1     
   35   20   40 1     
   36   21   22 1     
   37   22   23 1     
   38   22   24 2     
   39   23   41 1     
   40   23   42 1     
   41   23   43 1     
   42   25   26 1     
   43   25   44 1     
   44   26   27 1     
   45   27   28 1     
   46   27   29 2     
   47   28   45 1     
   48   28   46 1     
   49   28   47 1     
   50    3   48 1     
   51    3   49 1     
   52    7   50 1     
   53    7   51 1     
   54   12   52 1     
   55   16   53 1     
   56   18   54 1     
   57   24   55 1     
   58   24   56 1     
   59   29   57 1     
   60   29   58 1     
@<TRIPOS>SUBSTRUCTURE
      1 S1             1
@<TRIPOS>SET
LONE_PAIRS      STATIC     ATOMS    <user>   **** ""
11 48 49 50 51 52 53 54 55 56 57 58
DONOR_HYDROGENS      STATIC     ATOMS    <user>   **** ""
2 37 38
ATOM$BLUE        STATIC     ATOMS    COLORGROUP SYSTEM
11 48 49 50 51 52 53 54 55 56 57 58
ATOM$RED        STATIC     ATOMS    COLORGROUP SYSTEM
2 37 38
