AV-unprocessed.smi:2491|AV-procd|sdf|9810|dock1
  -GOLD-   2272013443D 1   1.00000     0.00000
 Structure written by MMmdl.
 27 28  0  0  0  0  0  0  0  0  1 V2000
  150.1288  136.9824  156.6817 N   0  0  0  0  0  0  0  0  0  0  0  0
  151.2547  137.4623  156.1423 C   0  0  0  0  0  0  0  0  0  0  0  0
  152.2655  136.7706  156.0423 O   0  0  0  0  0  0  0  0  0  0  0  0
  151.2721  138.9243  155.6467 C   0  0  1  0  0  0  0  0  0  0  0  0
  150.1986  139.0408  154.5364 C   0  0  0  0  0  0  0  0  0  0  0  0
  150.1317  140.3640  154.0239 O   0  0  0  0  0  0  0  0  0  0  0  0
  149.7558  141.2858  155.0345 C   0  0  0  0  0  0  0  0  0  0  0  0
  150.8436  141.3019  156.1151 C   0  0  0  0  0  0  0  0  0  0  0  0
  151.0667  139.9671  156.6715 N   0  0  0  0  0  0  0  0  0  0  0  0
  151.8416  139.9789  157.8303 C   0  0  0  0  0  0  0  0  0  0  0  0
  152.8263  139.0764  157.9412 N   0  0  0  0  0  0  0  0  0  0  0  0
  153.5762  139.1128  159.0638 C   0  0  0  0  0  0  0  0  0  0  0  0
  153.3400  140.0629  160.0766 C   0  0  0  0  0  0  0  0  0  0  0  0
  154.2951  140.1163  161.5122 Cl  0  0  0  0  0  0  0  0  0  0  0  0
  152.2837  140.9681  159.8550 C   0  0  0  0  0  0  0  0  0  0  0  0
  151.5386  140.9233  158.7292 N   0  0  0  0  0  0  0  0  0  0  0  0
  150.0966  136.0278  157.0090 H   0  0  0  0  0  0  0  0  0  0  0  0
  149.3149  137.5755  156.7567 H   0  0  0  0  0  0  0  0  0  0  0  0
  152.2473  139.1043  155.1904 H   0  0  0  0  0  0  0  0  0  0  0  0
  150.4342  138.3709  153.7081 H   0  0  0  0  0  0  0  0  0  0  0  0
  149.2143  138.7458  154.9061 H   0  0  0  0  0  0  0  0  0  0  0  0
  149.6532  142.2759  154.5901 H   0  0  0  0  0  0  0  0  0  0  0  0
  148.7841  141.0212  155.4551 H   0  0  0  0  0  0  0  0  0  0  0  0
  151.7799  141.6701  155.6930 H   0  0  0  0  0  0  0  0  0  0  0  0
  150.5540  142.0052  156.8970 H   0  0  0  0  0  0  0  0  0  0  0  0
  154.3672  138.3825  159.1514 H   0  0  0  0  0  0  0  0  0  0  0  0
  152.0355  141.7299  160.5793 H   0  0  0  0  0  0  0  0  0  0  0  0
  1  2  1  0  0  0  0
  1 17  1  0  0  0  0
  1 18  1  0  0  0  0
  2  3  2  0  0  0  0
  2  4  1  0  0  0  0
  4  9  1  0  0  0  0
  4  5  1  0  0  0  0
  4 19  1  0  0  0  0
  5  6  1  0  0  0  0
  5 20  1  0  0  0  0
  5 21  1  0  0  0  0
  6  7  1  0  0  0  0
  7  8  1  0  0  0  0
  7 22  1  0  0  0  0
  7 23  1  0  0  0  0
  8  9  1  0  0  0  0
  8 24  1  0  0  0  0
  8 25  1  0  0  0  0
  9 10  1  0  0  0  0
 10 16  1  0  0  0  0
 10 11  2  0  0  0  0
 11 12  1  0  0  0  0
 12 13  2  0  0  0  0
 12 26  1  0  0  0  0
 13 14  1  0  0  0  0
 13 15  1  0  0  0  0
 15 16  2  0  0  0  0
 15 27  1  0  0  0  0
M  END
> <s_m_source_file>
AV-unprocessed.smi

> <i_m_source_file_index>
2491

> <i_lp_mmshare_version>
43012

> <i_f3d_flags>
0

> <s_epik_input>
W05IMl1DKD1PKVtDQEBIXTFbQ0gyXU9bQ0gyXVtDSDJdTjFjMm5bY0hdYyhDbClbY0hdbjI=

> <s_epik_cmdline>
J2VwaWtfcHl0aG9uJywgJy1waCcsICc3LjAnLCAnLXRuJywgJzgnLCAnLW1hJywgJzIwMCcsICctbWV0YWxfYmluZGluZycsICctaW1hZScsICc8aW5maWxlLm1hZT4nLCAnLW9tYWUnLCAnPG91dGZpbGUubWFlPic=

> <r_lp_tautomer_probability>
1

> <r_epik_Ionization_Penalty>
2.68452e-07

> <r_epik_Ionization_Penalty_Charging>
0

> <r_epik_Ionization_Penalty_Neutral>
2.68452e-07

> <r_epik_State_Penalty>
-0

> <r_epik_Charging_Adjusted_Penalty>
0

> <i_epik_Tot_Q>
0

> <i_epik_Tot_abs_Q>
0

> <r_epik_Metal_State_Penalty>
-0

> <b_epik_Metal_Only>
0

> <s_lp_Force_Field>
OPLS_2005

> <r_lp_Energy>
11.1739

> <b_lp_Chiralities_Consistent>
1

> <s_lp_Variant>
AV-unprocessed.smi:2491-2

> <Gold.Version>
5.8.1

> <Gold.Id.Protein>
6NUR|6NUR_protein|mol2

> <Gold.PLP.Fitness>
34.0666

> <Gold.PLP.PLP>
-25.7463

> <Gold.PLP.part.hbond>
-2.7944

> <Gold.PLP.part.metal>
0.0000

> <Gold.PLP.part.buried>
-2.2279

> <Gold.PLP.part.nonpolar>
-20.4970

> <Gold.PLP.part.repulsive>
0.5766

> <Gold.PLP.ligand.clash>
0.0000

> <Gold.PLP.ligand.torsion>
0.2229

> <Gold.PLP.Chemscore.Hbond>
2.8000

> <Gold.PLP.Chemscore.CHOScore>
0.0000

> <Gold.PLP.Chemscore.Metal>
0.0000

> <Gold.Chemscore.Hbonds>
donor molecule, donor type, donor heavy atom, donor atom, acceptor molecule, acceptor atom, score
      P1  H  7989  7998       L1     6  0.83
      P1  H  7997  8008       L1    11  0.28
      P1  H 10752 10765       L1     3  0.85

> <Gold.PLP.Chemscore.Internal.Correction>
0.3662

> <Gold.Rescore>
     Score         DG    S(hbond)    S(metal)    S(lipo)     H(rot)  DE(clash)    DE(int)     intcor
     13.77     -15.19       1.99        0.00      58.89       1.49       0.00       1.43       ----

> <Gold.Chemscore.Fitness>
13.7679

> <Gold.Chemscore.DG>
-15.1937

> <Gold.Chemscore.ZeroCoef>
-5.4800

> <Gold.Chemscore.Hbond>
1.9853

> <Gold.Chemscore.Metal>
0.0000

> <Gold.Chemscore.Lipo>
58.8932

> <Gold.Chemscore.Internal_Hbond>
0.0000

> <Gold.Chemscore.DEClash>
0.0000

> <Gold.Chemscore.DEInternal>
1.4257

> <Gold.Chemscore.Rot>
1.4874

> <Gold.Chemscore.Internal.Correction>
   9.000000E+99

> <Gold.Chemscore.Hbonds>
donor molecule, donor type, donor heavy atom, donor atom, acceptor molecule, acceptor atom, score
      P1  H  7989  7998       L1     6  0.37
      P1  H 10752 10765       L1     3  0.83

> <Gold.Chemscore.Hbond.Weighted>
-6.6309

> <Gold.Chemscore.Metal.Weighted>
-0.0000

> <Gold.Chemscore.Lipo.Weighted>
-6.8905

> <Gold.Chemscore.Internal_Hbond.Weighted>
0.0000

> <Gold.Chemscore.DEClash.Weighted>
0.0000

> <Gold.Chemscore.DEInternal.Weighted>
1.4257

> <Gold.Chemscore.Rot.Weighted>
3.8077

> <Gold.Chemscore.Internal.Correction.Weighted>
   9.000000E+99

> <Gold.Protein.RotatedTorsions>
[ 6907 6896 6895 6894 ] final   63.04 input  -60.11 | X-H torsion
[ 7974 7965 7964 7962 ] final  120.21 input  175.53 | X-H torsion
[ 8008 7997 7996 7995 ] final  -69.99 input   59.86 | X-H torsion
[ 10167 10162 10161 10158 ] final   18.53 input  -65.29 | X-H torsion
[ 10718 10713 10712 10709 ] final  154.71 input   66.30 | X-H torsion
[ 10763 10752 10751 10750 ] final -132.00 input  -60.55 | X-H torsion
[ 11005 11000 10999 10996 ] final   49.33 input  -57.11 | X-H torsion

> <Gold.Protein.ActiveResidues>
 VAL166  LYS551  ARG553  GLY616  TRP617  ASP618  TYR619  PRO620  LYS621  CYS622 
 ASP623  PHE694  ASN695  SER759  ASP760  ASP761  ALA762  ILE779  LEU786  VAL792 
 PHE793  MET794  SER795  GLU796  ALA797  LYS798  CYS799  TRP800  GLU811  SER814 

> <Gold.Protein.RotatedAtoms>
  152.4221  134.5937  159.9980 H   0  0  0  0  0  0  0  0  0  0  0  0  # atno 6907 bound_to 6896
  151.6083  133.3344  159.3070 H   0  0  0  0  0  0  0  0  0  0  0  0  # atno 6908 bound_to 6896
  150.8109  134.7301  159.6752 H   0  0  0  0  0  0  0  0  0  0  0  0  # atno 6909 bound_to 6896
  145.1338  139.3310  143.4651 H   0  0  0  0  0  0  0  0  0  0  0  0  # atno 7974 bound_to 7965
  154.4979  140.0843  156.7736 H   0  0  0  0  0  0  0  0  0  0  0  0  # atno 8008 bound_to 7997
  155.4072  140.3440  155.4243 H   0  0  0  0  0  0  0  0  0  0  0  0  # atno 8009 bound_to 7997
  156.1418  140.1532  156.8896 H   0  0  0  0  0  0  0  0  0  0  0  0  # atno 8010 bound_to 7997
  140.5646  143.9274  150.6667 H   0  0  0  0  0  0  0  0  0  0  0  0  # atno 10167 bound_to 10162
  157.2281  131.0733  151.1870 H   0  0  0  0  0  0  0  0  0  0  0  0  # atno 10718 bound_to 10713
  154.8747  135.3812  154.4338 H   0  0  0  0  0  0  0  0  0  0  0  0  # atno 10763 bound_to 10752
  153.5030  135.7030  153.5827 H   0  0  0  0  0  0  0  0  0  0  0  0  # atno 10764 bound_to 10752
  153.4150  135.3915  155.2041 H   0  0  0  0  0  0  0  0  0  0  0  0  # atno 10765 bound_to 10752
  140.1112  134.4952  155.8676 H   0  0  0  0  0  0  0  0  0  0  0  0  # atno 11005 bound_to 11000
  146.3511  140.1348  142.8596 LP  0  0  0  0  0  0  0  0  0  0  0  0  # atno 17320 bound_to 7965
  145.0606  140.9085  143.4941 LP  0  0  0  0  0  0  0  0  0  0  0  0  # atno 17321 bound_to 7965
  140.2734  143.3440  152.1217 LP  0  0  0  0  0  0  0  0  0  0  0  0  # atno 17342 bound_to 10162
  139.5087  144.6854  151.5901 LP  0  0  0  0  0  0  0  0  0  0  0  0  # atno 17343 bound_to 10162
  157.3507  130.7080  149.6439 LP  0  0  0  0  0  0  0  0  0  0  0  0  # atno 17370 bound_to 10713
  155.9677  130.4253  150.4649 LP  0  0  0  0  0  0  0  0  0  0  0  0  # atno 17371 bound_to 10713
  141.2131  133.6728  156.6709 LP  0  0  0  0  0  0  0  0  0  0  0  0  # atno 17394 bound_to 11000
  140.3088  134.8103  157.4159 LP  0  0  0  0  0  0  0  0  0  0  0  0  # atno 17395 bound_to 11000

$$$$
