#       Name:                AV-unprocessed.smi:379
#       Creating user name   scv26
#       Creation time:       Thu Mar 26 22:39:57 2020


#       File generated by GOLD software.
#

@<TRIPOS>MOLECULE
AV-unprocessed.smi:379
    46    47     1
SMALL
NO_CHARGES


@<TRIPOS>ATOM
      1 ****        -3.1647  -1.9702   2.2141 C.3            1 S1                 0.0000
      2 ****        -3.5739  -2.7632   0.9640 C.3            1 S1                 0.0000
      3 ****        -3.1110  -2.1258  -0.3613 C.3            1 S1                 0.0000
      4 ****        -3.6416  -2.8985  -1.5765 C.3            1 S1                 0.0000
      5 ****        -1.6513  -2.0766  -0.4260 N.am           1 S1                 0.0000
      6 ****        -0.8926  -0.9726  -0.3436 C.2            1 S1                 0.0000
      7 ****        -1.3558   0.1623  -0.2210 O.2            1 S1                 0.0000
      8 ****         0.6244  -1.2032  -0.4107 C.3            1 S1                 0.0000
      9 ****         1.4156  -0.0507   0.0735 N.am           1 S1                 0.0000
     10 ****         1.6547   0.0639   1.4670 C.2            1 S1                 0.0000
     11 ****         1.2112  -0.7712   2.2576 O.2            1 S1                 0.0000
     12 ****         2.4492   1.2196   1.8761 C.2            1 S1                 0.0000
     13 ****         2.7445   1.3483   3.2646 C.1            1 S1                 0.0000
     14 ****         2.9988   1.4726   4.3869 N.1            1 S1                 0.0000
     15 ****         2.8860   2.1183   0.9701 C.2            1 S1                 0.0000
     16 ****         2.5987   2.0161  -0.3736 N.am           1 S1                 0.0000
     17 ****         3.2042   2.8913  -1.3375 C.3            1 S1                 0.0000
     18 ****         3.0494   4.3874  -1.1721 C.3            1 S1                 0.0000
     19 ****         2.3411   3.6810  -2.3021 C.3            1 S1                 0.0000
     20 ****         1.8858   0.9004  -0.8647 C.2            1 S1                 0.0000
     21 ****         1.6834   0.7553  -2.0727 O.2            1 S1                 0.0000
     22 ****        -3.5626  -2.4368   3.1155 H              1 S1                 0.0000
     23 ****        -3.5450  -0.9493   2.1732 H              1 S1                 0.0000
     24 ****        -2.0811  -1.9200   2.3227 H              1 S1                 0.0000
     25 ****        -3.1865  -3.7799   1.0404 H              1 S1                 0.0000
     26 ****        -4.6604  -2.8547   0.9545 H              1 S1                 0.0000
     27 ****        -3.5246  -1.1173  -0.4146 H              1 S1                 0.0000
     28 ****        -4.7313  -2.9354  -1.5727 H              1 S1                 0.0000
     29 ****        -3.2739  -3.9252  -1.5881 H              1 S1                 0.0000
     30 ****        -3.3333  -2.4233  -2.5083 H              1 S1                 0.0000
     31 ****        -1.1766  -2.9617  -0.5287 H              1 S1                 0.0000
     32 ****         0.8717  -2.0985   0.1626 H              1 S1                 0.0000
     33 ****         0.8822  -1.4687  -1.4368 H              1 S1                 0.0000
     34 ****         3.4782   2.9560   1.3095 H              1 S1                 0.0000
     35 ****         4.1639   2.5567  -1.7276 H              1 S1                 0.0000
     36 ****         2.4347   4.7531  -0.3518 H              1 S1                 0.0000
     37 ****         3.9054   5.0094  -1.4253 H              1 S1                 0.0000
     38 ****         2.7246   3.8307  -3.3093 H              1 S1                 0.0000
     39 ****         1.2599   3.5823  -2.2257 H              1 S1                 0.0000
     40 ****        -2.3459   0.2963  -0.1781 LP             1 S1                 0.0000
     41 ****        -0.7418   0.9495  -0.1645 LP             1 S1                 0.0000
     42 ****         0.6739  -1.5439   1.9195 LP             1 S1                 0.0000
     43 ****         1.3886  -0.6761   3.2371 LP             1 S1                 0.0000
     44 ****         3.2185   1.5799   5.3565 LP             1 S1                 0.0000
     45 ****         1.1804  -0.0434  -2.4030 LP             1 S1                 0.0000
     46 ****         2.0223   1.4363  -2.7218 LP             1 S1                 0.0000
@<TRIPOS>BOND
    1    1    2 1     
    2    1   22 1     
    3    1   23 1     
    4    1   24 1     
    5    2    3 1     
    6    2   25 1     
    7    2   26 1     
    8    3    4 1     
    9    3    5 1     
   10    3   27 1     
   11    4   28 1     
   12    4   29 1     
   13    4   30 1     
   14    5    6 am    
   15    5   31 1     
   16    6    7 2     
   17    6    8 1     
   18    8    9 1     
   19    8   32 1     
   20    8   33 1     
   21    9   20 am    
   22    9   10 am    
   23   10   11 2     
   24   10   12 1     
   25   12   13 1     
   26   12   15 2     
   27   13   14 3     
   28   15   16 1     
   29   15   34 1     
   30   16   17 1     
   31   16   20 am    
   32   17   19 1     
   33   17   18 1     
   34   17   35 1     
   35   18   19 1     
   36   18   36 1     
   37   18   37 1     
   38   19   38 1     
   39   19   39 1     
   40   20   21 2     
   41    7   40 1     
   42    7   41 1     
   43   11   42 1     
   44   11   43 1     
   45   14   44 1     
   46   21   45 1     
   47   21   46 1     
@<TRIPOS>SUBSTRUCTURE
      1 S1             1
@<TRIPOS>SET
LONE_PAIRS      STATIC     ATOMS    <user>   **** ""
7 40 41 42 43 44 45 46
DONOR_HYDROGENS      STATIC     ATOMS    <user>   **** ""
1 31
ATOM$BLUE        STATIC     ATOMS    COLORGROUP SYSTEM
7 40 41 42 43 44 45 46
ATOM$RED        STATIC     ATOMS    COLORGROUP SYSTEM
1 31
