AV-unprocessed.smi:39|AV-procd|sdf|358|dock5
  -GOLD-   2262016193D 1   1.00000     0.00000
 Structure written by MMmdl.
 32 33  0  0  0  0  0  0  0  0  3 V2000
  152.8332  142.3227  160.0344 C   0  0  0  0  0  0  0  0  0  0  0  0
  152.1059  142.2103  158.7047 C   0  0  0  0  0  0  0  0  0  0  0  0
  152.0083  141.0391  158.0251 C   0  0  0  0  0  0  0  0  0  0  0  0
  151.3471  140.9051  156.8115 N   0  0  0  0  0  0  0  0  0  0  0  0
  151.2550  139.5696  156.1089 C   0  0  2  0  0  0  0  0  0  0  0  0
  151.6958  138.4390  157.0464 C   0  0  0  0  0  0  0  0  0  0  0  0
  153.0806  138.1106  156.5112 C   0  0  1  0  0  0  0  0  0  0  0  0
  153.5511  136.7543  156.8391 N   0  0  0  0  0  0  0  0  0  0  0  0
  153.4689  136.3698  158.0148 N   0  3  0  0  0  0  0  0  0  0  0  0
  153.4969  136.0840  159.1159 N   0  5  0  0  0  0  0  0  0  0  0  0
  152.9173  138.3989  155.0120 C   0  0  2  0  0  0  0  0  0  0  0  0
  154.2460  138.6669  154.2889 C   0  0  0  0  0  0  0  0  0  0  0  0
  155.1891  137.6732  154.6280 O   0  0  0  0  0  0  0  0  0  0  0  0
  152.1170  139.5772  155.0083 O   0  0  0  0  0  0  0  0  0  0  0  0
  150.7112  142.0287  156.2436 C   0  0  0  0  0  0  0  0  0  0  0  0
  150.0773  141.9793  155.1904 O   0  0  0  0  0  0  0  0  0  0  0  0
  150.8171  143.2328  156.9373 N   0  0  0  0  0  0  0  0  0  0  0  0
  151.4849  143.4167  158.1506 C   0  0  0  0  0  0  0  0  0  0  0  0
  151.5104  144.5329  158.6666 O   0  0  0  0  0  0  0  0  0  0  0  0
  150.2303  139.4614  155.7494 H   0  0  0  0  0  0  0  0  0  0  0  0
  153.7802  138.8367  156.9273 H   0  0  0  0  0  0  0  0  0  0  0  0
  152.3585  137.5965  154.5265 H   0  0  0  0  0  0  0  0  0  0  0  0
  150.3685  144.0406  156.5307 H   0  0  0  0  0  0  0  0  0  0  0  0
  153.2589  141.3681  160.3449 H   0  0  0  0  0  0  0  0  0  0  0  0
  152.1482  142.6529  160.8162 H   0  0  0  0  0  0  0  0  0  0  0  0
  153.6474  143.0449  159.9645 H   0  0  0  0  0  0  0  0  0  0  0  0
  152.4686  140.1648  158.4611 H   0  0  0  0  0  0  0  0  0  0  0  0
  151.6936  138.7456  158.0932 H   0  0  0  0  0  0  0  0  0  0  0  0
  151.0008  137.6073  156.9249 H   0  0  0  0  0  0  0  0  0  0  0  0
  154.1090  138.7105  153.2080 H   0  0  0  0  0  0  0  0  0  0  0  0
  154.6578  139.6264  154.6026 H   0  0  0  0  0  0  0  0  0  0  0  0
  155.9965  137.8564  154.1722 H   0  0  0  0  0  0  0  0  0  0  0  0
  1  2  1  0  0  0  0
  1 24  1  0  0  0  0
  1 25  1  0  0  0  0
  1 26  1  0  0  0  0
  2 18  1  0  0  0  0
  2  3  2  0  0  0  0
  3  4  1  0  0  0  0
  3 27  1  0  0  0  0
  4  5  1  0  0  0  0
  4 15  1  0  0  0  0
  5 20  1  0  0  0  0
  5 14  1  0  0  0  0
  5  6  1  0  0  0  0
  6  7  1  0  0  0  0
  6 28  1  0  0  0  0
  6 29  1  0  0  0  0
  7 21  1  0  0  0  0
  7  8  1  0  0  0  0
  7 11  1  0  0  0  0
  8  9  2  0  0  0  0
  9 10  2  0  0  0  0
 11 22  1  0  0  0  0
 11 12  1  0  0  0  0
 11 14  1  0  0  0  0
 12 13  1  0  0  0  0
 12 30  1  0  0  0  0
 12 31  1  0  0  0  0
 13 32  1  0  0  0  0
 15 16  2  0  0  0  0
 15 17  1  0  0  0  0
 17 23  1  0  0  0  0
 17 18  1  0  0  0  0
 18 19  2  0  0  0  0
M  CHG  1   9   1
M  CHG  1  10  -1
M  END
> <s_m_source_file>
AV-unprocessed.smi

> <i_m_source_file_index>
39

> <i_lp_mmshare_version>
43012

> <i_f3d_flags>
0

> <s_epik_input>
Tz1jMVtuSF1jKD1PKW4oW2NIXWMxW0NIM10pW0NASF0yW0NIMl1bQ0BIXShOPVtOK109W04tXSlbQ0BIXShPMilbQ0gyXVtPSF0=

> <s_epik_cmdline>
J2VwaWtfcHl0aG9uJywgJy1waCcsICc3LjAnLCAnLXRuJywgJzgnLCAnLW1hJywgJzIwMCcsICctbWV0YWxfYmluZGluZycsICctaW1hZScsICc8aW5maWxlLm1hZT4nLCAnLW9tYWUnLCAnPG91dGZpbGUubWFlPic=

> <r_lp_tautomer_probability>
0.999537

> <r_epik_Ionization_Penalty>
0.00127512

> <r_epik_Ionization_Penalty_Charging>
0.00127507

> <r_epik_Ionization_Penalty_Neutral>
5.43433e-08

> <r_epik_State_Penalty>
0.000844892

> <r_epik_Charging_Adjusted_Penalty>
0.00211996

> <i_epik_Tot_Q>
0

> <i_epik_Tot_abs_Q>
2

> <r_epik_Metal_State_Penalty>
0.680636

> <b_epik_Metal_Only>
0

> <s_epik_Chemistry_Notes>
This compound contains an acetal/aminal-like group ( X-CH(R)-Y where X, Y are N, S, or O) that may be acid/base labile, releasing an aldehyde.

> <s_lp_Force_Field>
OPLS_2005

> <r_lp_Energy>
25.9236

> <b_lp_Chiralities_Consistent>
1

> <s_lp_Variant>
AV-unprocessed.smi:39-8

> <Gold.Version>
5.8.1

> <Gold.Id.Protein>
6NUR|6NUR_protein|mol2

> <Gold.PLP.Fitness>
40.6515

> <Gold.PLP.PLP>
-30.1553

> <Gold.PLP.part.hbond>
-5.5838

> <Gold.PLP.part.metal>
0.0000

> <Gold.PLP.part.buried>
-3.5103

> <Gold.PLP.part.nonpolar>
-22.0777

> <Gold.PLP.part.repulsive>
1.0859

> <Gold.PLP.ligand.clash>
0.0000

> <Gold.PLP.ligand.torsion>
0.5779

> <Gold.PLP.Chemscore.Hbond>
3.8772

> <Gold.PLP.Chemscore.CHOScore>
0.0000

> <Gold.PLP.Chemscore.Metal>
0.0000

> <Gold.Chemscore.Hbonds>
donor molecule, donor type, donor heavy atom, donor atom, acceptor molecule, acceptor atom, score
      L1  H    17    23       P1  8028  0.98
      P1  H  6896  6907       L1    10  0.96
      P1  H  7989  7998       L1    14  0.86
      P1  H 10752 10763       L1     8  0.90
      P1  H 10752 10764       L1    13  0.11

> <Gold.PLP.Chemscore.Internal.Correction>
0.0204

> <Gold.Rescore>
     Score         DG    S(hbond)    S(metal)    S(lipo)     H(rot)  DE(clash)    DE(int)     intcor
     15.53     -17.22       3.63        0.00      57.04       2.75       1.13       0.56       ----

> <Gold.Chemscore.Fitness>
15.5341

> <Gold.Chemscore.DG>
-17.2245

> <Gold.Chemscore.ZeroCoef>
-5.4800

> <Gold.Chemscore.Hbond>
3.6278

> <Gold.Chemscore.Metal>
0.0000

> <Gold.Chemscore.Lipo>
57.0391

> <Gold.Chemscore.Internal_Hbond>
0.0000

> <Gold.Chemscore.DEClash>
1.1345

> <Gold.Chemscore.DEInternal>
0.5559

> <Gold.Chemscore.Rot>
2.7524

> <Gold.Chemscore.Internal.Correction>
   9.000000E+99

> <Gold.Chemscore.Hbonds>
donor molecule, donor type, donor heavy atom, donor atom, acceptor molecule, acceptor atom, score
      L1  H    17    23       P1  8028  0.93
      P1  H  6896  6907       L1    10  0.91
      P1  H  7989  7998       L1    14  0.75
      P1  H 10752 10763       L1     8  0.76
      P1  H 10752 10764       L1    13  0.05

> <Gold.Chemscore.Hbond.Weighted>
-12.1170

> <Gold.Chemscore.Metal.Weighted>
-0.0000

> <Gold.Chemscore.Lipo.Weighted>
-6.6736

> <Gold.Chemscore.Internal_Hbond.Weighted>
0.0000

> <Gold.Chemscore.DEClash.Weighted>
1.1345

> <Gold.Chemscore.DEInternal.Weighted>
0.5559

> <Gold.Chemscore.Rot.Weighted>
7.0461

> <Gold.Chemscore.Internal.Correction.Weighted>
   9.000000E+99

> <Gold.Protein.RotatedTorsions>
[ 6907 6896 6895 6894 ] final   46.72 input  -60.11 | X-H torsion
[ 7974 7965 7964 7962 ] final  -54.49 input  175.53 | X-H torsion
[ 8008 7997 7996 7995 ] final  -57.75 input   59.86 | X-H torsion
[ 10167 10162 10161 10158 ] final   92.28 input  -65.29 | X-H torsion
[ 10718 10713 10712 10709 ] final -174.75 input   66.30 | X-H torsion
[ 10763 10752 10751 10750 ] final  118.23 input  -60.55 | X-H torsion
[ 11005 11000 10999 10996 ] final  -28.27 input  -57.11 | X-H torsion

> <Gold.Protein.ActiveResidues>
 VAL166  LYS551  ARG553  GLY616  TRP617  ASP618  TYR619  PRO620  LYS621  CYS622 
 ASP623  PHE694  ASN695  SER759  ASP760  ASP761  ALA762  ILE779  LEU786  VAL792 
 PHE793  MET794  SER795  GLU796  ALA797  LYS798  CYS799  TRP800  GLU811  SER814 

> <Gold.Protein.RotatedAtoms>
  152.2597  134.8047  160.0432 H   0  0  0  0  0  0  0  0  0  0  0  0  # atno 6907 bound_to 6896
  151.8698  133.3468  159.3739 H   0  0  0  0  0  0  0  0  0  0  0  0  # atno 6908 bound_to 6896
  150.7112  134.5051  159.5624 H   0  0  0  0  0  0  0  0  0  0  0  0  # atno 6909 bound_to 6896
  145.8850  140.8115  142.9820 H   0  0  0  0  0  0  0  0  0  0  0  0  # atno 7974 bound_to 7965
  154.4280  140.1100  156.5847 H   0  0  0  0  0  0  0  0  0  0  0  0  # atno 8008 bound_to 7997
  155.6075  140.3494  155.4593 H   0  0  0  0  0  0  0  0  0  0  0  0  # atno 8009 bound_to 7997
  156.0125  140.1222  157.0429 H   0  0  0  0  0  0  0  0  0  0  0  0  # atno 8010 bound_to 7997
  139.8292  144.6695  150.9420 H   0  0  0  0  0  0  0  0  0  0  0  0  # atno 10167 bound_to 10162
  156.7897  130.9513  151.3120 H   0  0  0  0  0  0  0  0  0  0  0  0  # atno 10718 bound_to 10713
  153.5645  135.3514  155.2812 H   0  0  0  0  0  0  0  0  0  0  0  0  # atno 10763 bound_to 10752
  154.8690  135.4144  154.2794 H   0  0  0  0  0  0  0  0  0  0  0  0  # atno 10764 bound_to 10752
  153.3547  135.7057  153.6830 H   0  0  0  0  0  0  0  0  0  0  0  0  # atno 10765 bound_to 10752
  140.9193  133.7409  156.0779 H   0  0  0  0  0  0  0  0  0  0  0  0  # atno 11005 bound_to 11000
  144.6728  140.1442  143.7435 LP  0  0  0  0  0  0  0  0  0  0  0  0  # atno 17320 bound_to 7965
  145.8978  139.2412  143.1512 LP  0  0  0  0  0  0  0  0  0  0  0  0  # atno 17321 bound_to 7965
  140.7808  143.4017  151.1139 LP  0  0  0  0  0  0  0  0  0  0  0  0  # atno 17342 bound_to 10162
  139.7671  143.8548  152.3113 LP  0  0  0  0  0  0  0  0  0  0  0  0  # atno 17343 bound_to 10162
  157.6606  130.8963  149.9822 LP  0  0  0  0  0  0  0  0  0  0  0  0  # atno 17370 bound_to 10713
  156.1166  130.3647  149.9957 LP  0  0  0  0  0  0  0  0  0  0  0  0  # atno 17371 bound_to 10713
  140.8009  134.3510  157.5440 LP  0  0  0  0  0  0  0  0  0  0  0  0  # atno 17394 bound_to 11000
  139.8772  134.9197  156.3232 LP  0  0  0  0  0  0  0  0  0  0  0  0  # atno 17395 bound_to 11000

$$$$
