AV-unprocessed.smi:3060|AV-procd|sdf|11678|dock4
  -GOLD-   2272017 83D 1   1.00000     0.00000
 Structure written by MMmdl.
 42 43  0  0  0  0  0  0  0  0  1 V2000
  145.9099  142.9852  153.8889 C   0  0  0  0  0  0  0  0  0  0  0  0
  147.1536  142.1024  154.0352 C   0  0  0  0  0  0  0  0  0  0  0  0
  147.1845  141.3618  155.3350 C   0  0  0  0  0  0  0  0  0  0  0  0
  146.2660  141.4553  156.2877 N   0  0  0  0  0  0  0  0  0  0  0  0
  146.7324  140.6132  157.2794 N   0  0  0  0  0  0  0  0  0  0  0  0
  147.8619  140.0618  156.9403 N   0  0  0  0  0  0  0  0  0  0  0  0
  148.1695  140.5299  155.7052 N   0  0  0  0  0  0  0  0  0  0  0  0
  149.3872  140.1059  155.0289 C   0  0  0  0  0  0  0  0  0  0  0  0
  150.6539  140.6473  155.7022 C   0  0  0  0  0  0  0  0  0  0  0  0
  151.7582  140.2955  155.2890 O   0  0  0  0  0  0  0  0  0  0  0  0
  150.4875  141.4784  156.7454 N   0  0  0  0  0  0  0  0  0  0  0  0
  151.5505  142.1028  157.5288 C   0  0  0  0  0  0  0  0  0  0  0  0
  151.6068  141.4124  158.9138 C   0  0  0  0  0  0  0  0  0  0  0  0
  152.8125  141.7980  159.7941 C   0  0  0  0  0  0  0  0  0  0  0  0
  152.5153  142.8023  160.9247 C   0  0  0  0  0  0  0  0  0  0  0  0
  151.6300  144.0100  160.5685 C   0  0  0  0  0  0  0  0  0  0  0  0
  152.2080  145.0076  159.5488 C   0  0  0  0  0  0  0  0  0  0  0  0
  152.4329  144.4878  158.1156 C   0  0  0  0  0  0  0  0  0  0  0  0
  151.2927  143.6284  157.5331 C   0  0  0  0  0  0  0  0  0  0  0  0
  145.9151  143.5076  152.9320 H   0  0  0  0  0  0  0  0  0  0  0  0
  145.8652  143.7358  154.6785 H   0  0  0  0  0  0  0  0  0  0  0  0
  144.9973  142.3903  153.9390 H   0  0  0  0  0  0  0  0  0  0  0  0
  147.1848  141.3762  153.2223 H   0  0  0  0  0  0  0  0  0  0  0  0
  148.0557  142.7065  153.9373 H   0  0  0  0  0  0  0  0  0  0  0  0
  149.4260  139.0168  155.0036 H   0  0  0  0  0  0  0  0  0  0  0  0
  149.3475  140.4433  153.9919 H   0  0  0  0  0  0  0  0  0  0  0  0
  149.5418  141.7067  157.0149 H   0  0  0  0  0  0  0  0  0  0  0  0
  152.5026  141.9339  157.0224 H   0  0  0  0  0  0  0  0  0  0  0  0
  150.6690  141.5419  159.4546 H   0  0  0  0  0  0  0  0  0  0  0  0
  151.6785  140.3378  158.7377 H   0  0  0  0  0  0  0  0  0  0  0  0
  153.1899  140.8909  160.2680 H   0  0  0  0  0  0  0  0  0  0  0  0
  153.6437  142.1389  159.1794 H   0  0  0  0  0  0  0  0  0  0  0  0
  152.0181  142.2609  161.7305 H   0  0  0  0  0  0  0  0  0  0  0  0
  153.4576  143.1525  161.3470 H   0  0  0  0  0  0  0  0  0  0  0  0
  150.6413  143.6774  160.2563 H   0  0  0  0  0  0  0  0  0  0  0  0
  151.4490  144.5609  161.4920 H   0  0  0  0  0  0  0  0  0  0  0  0
  151.5201  145.8522  159.4940 H   0  0  0  0  0  0  0  0  0  0  0  0
  153.1436  145.4184  159.9299 H   0  0  0  0  0  0  0  0  0  0  0  0
  152.5577  145.3633  157.4774 H   0  0  0  0  0  0  0  0  0  0  0  0
  153.3852  143.9667  158.0363 H   0  0  0  0  0  0  0  0  0  0  0  0
  151.1671  143.9359  156.4934 H   0  0  0  0  0  0  0  0  0  0  0  0
  150.3402  143.8649  158.0081 H   0  0  0  0  0  0  0  0  0  0  0  0
  1  2  1  0  0  0  0
  1 20  1  0  0  0  0
  1 21  1  0  0  0  0
  1 22  1  0  0  0  0
  2  3  1  0  0  0  0
  2 23  1  0  0  0  0
  2 24  1  0  0  0  0
  3  7  1  0  0  0  0
  3  4  2  0  0  0  0
  4  5  1  0  0  0  0
  5  6  2  0  0  0  0
  6  7  1  0  0  0  0
  7  8  1  0  0  0  0
  8  9  1  0  0  0  0
  8 25  1  0  0  0  0
  8 26  1  0  0  0  0
  9 10  2  0  0  0  0
  9 11  1  0  0  0  0
 11 12  1  0  0  0  0
 11 27  1  0  0  0  0
 12 19  1  0  0  0  0
 12 13  1  0  0  0  0
 12 28  1  0  0  0  0
 13 14  1  0  0  0  0
 13 29  1  0  0  0  0
 13 30  1  0  0  0  0
 14 15  1  0  0  0  0
 14 31  1  0  0  0  0
 14 32  1  0  0  0  0
 15 16  1  0  0  0  0
 15 33  1  0  0  0  0
 15 34  1  0  0  0  0
 16 17  1  0  0  0  0
 16 35  1  0  0  0  0
 16 36  1  0  0  0  0
 17 18  1  0  0  0  0
 17 37  1  0  0  0  0
 17 38  1  0  0  0  0
 18 19  1  0  0  0  0
 18 39  1  0  0  0  0
 18 40  1  0  0  0  0
 19 41  1  0  0  0  0
 19 42  1  0  0  0  0
M  END
> <s_m_source_file>
AV-unprocessed.smi

> <i_m_source_file_index>
3060

> <i_lp_mmshare_version>
43012

> <i_f3d_flags>
0

> <s_epik_input>
W0NIM11bQ0gyXWMxbm5ubjFbQ0gyXUMoPU8pW05IXVtDSF0yW0NIMl1bQ0gyXVtDSDJdW0NIMl1bQ0gyXVtDSDJdW0NIMl0y

> <s_epik_cmdline>
J2VwaWtfcHl0aG9uJywgJy1waCcsICc3LjAnLCAnLXRuJywgJzgnLCAnLW1hJywgJzIwMCcsICctbWV0YWxfYmluZGluZycsICctaW1hZScsICc8aW5maWxlLm1hZT4nLCAnLW9tYWUnLCAnPG91dGZpbGUubWFlPic=

> <r_lp_tautomer_probability>
1

> <r_epik_Ionization_Penalty>
4.54698e-07

> <r_epik_Ionization_Penalty_Charging>
0

> <r_epik_Ionization_Penalty_Neutral>
4.54698e-07

> <r_epik_State_Penalty>
-0

> <r_epik_Charging_Adjusted_Penalty>
0

> <i_epik_Tot_Q>
0

> <i_epik_Tot_abs_Q>
0

> <r_epik_Metal_State_Penalty>
-0

> <b_epik_Metal_Only>
0

> <s_lp_Force_Field>
OPLS_2005

> <r_lp_Energy>
19.51

> <b_lp_Chiralities_Consistent>
1

> <s_lp_Variant>
AV-unprocessed.smi:3060-1

> <Gold.Version>
5.8.1

> <Gold.Id.Protein>
6NUR|6NUR_protein|mol2

> <Gold.PLP.Fitness>
44.4741

> <Gold.PLP.PLP>
-42.2601

> <Gold.PLP.part.hbond>
-1.0000

> <Gold.PLP.part.metal>
0.0000

> <Gold.PLP.part.buried>
-6.1160

> <Gold.PLP.part.nonpolar>
-35.9702

> <Gold.PLP.part.repulsive>
0.1299

> <Gold.PLP.ligand.clash>
0.0000

> <Gold.PLP.ligand.torsion>
0.1787

> <Gold.PLP.Chemscore.Hbond>
0.8480

> <Gold.PLP.Chemscore.CHOScore>
0.0000

> <Gold.PLP.Chemscore.Metal>
0.0000

> <Gold.Chemscore.Hbonds>
donor molecule, donor type, donor heavy atom, donor atom, acceptor molecule, acceptor atom, score
      P1  H  7989  7998       L1    10  0.83

> <Gold.PLP.Chemscore.Internal.Correction>
0.0274

> <Gold.Rescore>
     Score         DG    S(hbond)    S(metal)    S(lipo)     H(rot)  DE(clash)    DE(int)     intcor
     15.98     -16.39       0.80        0.00     106.88       1.66       0.29       0.12       ----

> <Gold.Chemscore.Fitness>
15.9836

> <Gold.Chemscore.DG>
-16.3945

> <Gold.Chemscore.ZeroCoef>
-5.4800

> <Gold.Chemscore.Hbond>
0.7969

> <Gold.Chemscore.Metal>
0.0000

> <Gold.Chemscore.Lipo>
106.8768

> <Gold.Chemscore.Internal_Hbond>
0.0000

> <Gold.Chemscore.DEClash>
0.2882

> <Gold.Chemscore.DEInternal>
0.1227

> <Gold.Chemscore.Rot>
1.6609

> <Gold.Chemscore.Internal.Correction>
   9.000000E+99

> <Gold.Chemscore.Hbonds>
donor molecule, donor type, donor heavy atom, donor atom, acceptor molecule, acceptor atom, score
      P1  H  7989  7998       L1    10  0.25

> <Gold.Chemscore.Hbond.Weighted>
-2.6617

> <Gold.Chemscore.Metal.Weighted>
-0.0000

> <Gold.Chemscore.Lipo.Weighted>
-12.5046

> <Gold.Chemscore.Internal_Hbond.Weighted>
0.0000

> <Gold.Chemscore.DEClash.Weighted>
0.2882

> <Gold.Chemscore.DEInternal.Weighted>
0.1227

> <Gold.Chemscore.Rot.Weighted>
4.2518

> <Gold.Chemscore.Internal.Correction.Weighted>
   9.000000E+99

> <Gold.Protein.RotatedTorsions>
[ 6907 6896 6895 6894 ] final  -15.44 input  -60.11 | X-H torsion
[ 7974 7965 7964 7962 ] final -102.33 input  175.53 | X-H torsion
[ 8008 7997 7996 7995 ] final    6.52 input   59.86 | X-H torsion
[ 10167 10162 10161 10158 ] final  -68.80 input  -65.29 | X-H torsion
[ 10718 10713 10712 10709 ] final   95.65 input   66.30 | X-H torsion
[ 10763 10752 10751 10750 ] final  -76.30 input  -60.55 | X-H torsion
[ 11005 11000 10999 10996 ] final  128.29 input  -57.11 | X-H torsion

> <Gold.Protein.ActiveResidues>
 VAL166  LYS551  ARG553  GLY616  TRP617  ASP618  TYR619  PRO620  LYS621  CYS622 
 ASP623  PHE694  ASN695  SER759  ASP760  ASP761  ALA762  ILE779  LEU786  VAL792 
 PHE793  MET794  SER795  GLU796  ALA797  LYS798  CYS799  TRP800  GLU811  SER814 

> <Gold.Protein.RotatedAtoms>
  151.3238  135.0825  159.9314 H   0  0  0  0  0  0  0  0  0  0  0  0  # atno 6907 bound_to 6896
  152.5250  133.9611  159.7728 H   0  0  0  0  0  0  0  0  0  0  0  0  # atno 6908 bound_to 6896
  150.9937  133.6071  159.2734 H   0  0  0  0  0  0  0  0  0  0  0  0  # atno 6909 bound_to 6896
  145.2701  140.9296  143.2991 H   0  0  0  0  0  0  0  0  0  0  0  0  # atno 7974 bound_to 7965
  154.7420  140.2751  155.6365 H   0  0  0  0  0  0  0  0  0  0  0  0  # atno 8008 bound_to 7997
  156.2876  140.2695  156.2076 H   0  0  0  0  0  0  0  0  0  0  0  0  # atno 8009 bound_to 7997
  155.0246  140.0371  157.2440 H   0  0  0  0  0  0  0  0  0  0  0  0  # atno 8010 bound_to 7997
  140.5480  143.2312  151.6966 H   0  0  0  0  0  0  0  0  0  0  0  0  # atno 10167 bound_to 10162
  157.6936  131.0552  150.4372 H   0  0  0  0  0  0  0  0  0  0  0  0  # atno 10718 bound_to 10713
  154.4980  135.5802  153.6509 H   0  0  0  0  0  0  0  0  0  0  0  0  # atno 10763 bound_to 10752
  152.9874  135.6129  154.3039 H   0  0  0  0  0  0  0  0  0  0  0  0  # atno 10764 bound_to 10752
  154.2944  135.2848  155.2619 H   0  0  0  0  0  0  0  0  0  0  0  0  # atno 10765 bound_to 10752
  139.9552  134.9614  156.8980 H   0  0  0  0  0  0  0  0  0  0  0  0  # atno 11005 bound_to 11000
  144.9343  139.4263  143.6480 LP  0  0  0  0  0  0  0  0  0  0  0  0  # atno 17320 bound_to 7965
  146.3249  139.8269  142.8916 LP  0  0  0  0  0  0  0  0  0  0  0  0  # atno 17321 bound_to 7965
  139.5015  144.3864  152.0324 LP  0  0  0  0  0  0  0  0  0  0  0  0  # atno 17342 bound_to 10162
  140.2979  144.3680  150.6069 LP  0  0  0  0  0  0  0  0  0  0  0  0  # atno 17343 bound_to 10162
  156.4733  130.4057  149.6505 LP  0  0  0  0  0  0  0  0  0  0  0  0  # atno 17370 bound_to 10713
  156.3577  130.7465  151.2433 LP  0  0  0  0  0  0  0  0  0  0  0  0  # atno 17371 bound_to 10713
  140.5625  134.0521  155.7403 LP  0  0  0  0  0  0  0  0  0  0  0  0  # atno 17394 bound_to 11000
  141.1223  133.9441  157.2705 LP  0  0  0  0  0  0  0  0  0  0  0  0  # atno 17395 bound_to 11000

$$$$
