#       Name:                AV-unprocessed.smi:2925
#       Creating user name   scv26
#       Creation time:       Fri Mar 27 16:11:13 2020


#       File generated by GOLD software.
#

@<TRIPOS>MOLECULE
AV-unprocessed.smi:2925
    50    51     1
SMALL
NO_CHARGES


@<TRIPOS>ATOM
      1 ****        -1.8216  -1.1541  -2.8361 C.3            1 S1                 0.0000
      2 ****        -2.3466  -1.7977  -1.5443 C.3            1 S1                 0.0000
      3 ****        -2.0513  -0.9854  -0.2636 C.3            1 S1                 0.0000
      4 ****        -0.6074  -0.8522  -0.0706 N.am           1 S1                 0.0000
      5 ****         0.1182   0.2492  -0.3127 C.2            1 S1                 0.0000
      6 ****        -0.3486   1.2937  -0.7692 O.2            1 S1                 0.0000
      7 ****         1.4168   0.0507  -0.0252 N.am           1 S1                 0.0000
      8 ****         2.4601   0.9696  -0.2195 C.2            1 S1                 0.0000
      9 ****         3.5469   0.5852  -0.9396 C.2            1 S1                 0.0000
     10 ****         3.6403  -0.7939  -1.5732 C.3            1 S1                 0.0000
     11 ****         4.6350   1.5222  -1.1277 C.2            1 S1                 0.0000
     12 ****         4.5553   2.7427  -0.5813 C.2            1 S1                 0.0000
     13 ****         3.4484   3.1362   0.1843 N.am           1 S1                 0.0000
     14 ****         3.4627   4.4862   0.7541 C.3            1 S1                 0.0000
     15 ****         2.3965   2.3025   0.4287 C.2            1 S1                 0.0000
     16 ****         1.4707   2.6544   1.1633 O.2            1 S1                 0.0000
     17 ****        -2.6579  -1.6445   0.9916 C.3            1 S1                 0.0000
     18 ****        -4.1859  -1.7302   1.0012 C.3            1 S1                 0.0000
     19 ****        -4.5411  -1.7531   2.4805 C.3            1 S1                 0.0000
     20 ****        -3.2441  -1.3448   3.1832 C.3            1 S1                 0.0000
     21 ****        -2.4042  -0.8587   2.1468 O.3            1 S1                 0.0000
     22 ****        -2.1290  -1.7321  -3.7076 H              1 S1                 0.0000
     23 ****        -0.7330  -1.1021  -2.8465 H              1 S1                 0.0000
     24 ****        -2.2079  -0.1415  -2.9556 H              1 S1                 0.0000
     25 ****        -3.4237  -1.9278  -1.6489 H              1 S1                 0.0000
     26 ****        -1.9304  -2.8013  -1.4491 H              1 S1                 0.0000
     27 ****        -2.5025   0.0028  -0.3710 H              1 S1                 0.0000
     28 ****        -0.1281  -1.6601   0.2987 H              1 S1                 0.0000
     29 ****         1.6966  -0.8845   0.2306 H              1 S1                 0.0000
     30 ****         4.5720  -0.9122  -2.1271 H              1 S1                 0.0000
     31 ****         2.8153  -0.9525  -2.2685 H              1 S1                 0.0000
     32 ****         3.6037  -1.5699  -0.8082 H              1 S1                 0.0000
     33 ****         5.5032   1.2473  -1.7087 H              1 S1                 0.0000
     34 ****         5.3334   3.4842  -0.6897 H              1 S1                 0.0000
     35 ****         2.5905   5.0515   0.4224 H              1 S1                 0.0000
     36 ****         4.3467   5.0563   0.4666 H              1 S1                 0.0000
     37 ****         3.4442   4.4414   1.8439 H              1 S1                 0.0000
     38 ****        -2.2305  -2.6378   1.1441 H              1 S1                 0.0000
     39 ****        -4.6169  -0.8412   0.5385 H              1 S1                 0.0000
     40 ****        -4.5610  -2.6026   0.4653 H              1 S1                 0.0000
     41 ****        -5.3504  -1.0537   2.6939 H              1 S1                 0.0000
     42 ****        -4.8595  -2.7447   2.8030 H              1 S1                 0.0000
     43 ****        -3.4019  -0.5875   3.9514 H              1 S1                 0.0000
     44 ****        -2.7728  -2.2108   3.6504 H              1 S1                 0.0000
     45 ****        -1.3238   1.3545  -0.9820 LP             1 S1                 0.0000
     46 ****         0.2476   2.0809  -0.9269 LP             1 S1                 0.0000
     47 ****         0.7128   2.0285   1.3473 LP             1 S1                 0.0000
     48 ****         1.4778   3.5657   1.5751 LP             1 S1                 0.0000
     49 ****        -2.6126   0.1013   1.9598 LP             1 S1                 0.0000
     50 ****        -1.4448  -0.9453   2.4153 LP             1 S1                 0.0000
@<TRIPOS>BOND
    1    1    2 1     
    2    1   22 1     
    3    1   23 1     
    4    1   24 1     
    5    2    3 1     
    6    2   25 1     
    7    2   26 1     
    8    3    4 1     
    9    3   17 1     
   10    3   27 1     
   11    4    5 am    
   12    4   28 1     
   13    5    6 2     
   14    5    7 am    
   15    7    8 1     
   16    7   29 1     
   17    8   15 1     
   18    8    9 2     
   19    9   10 1     
   20    9   11 1     
   21   10   30 1     
   22   10   31 1     
   23   10   32 1     
   24   11   12 2     
   25   11   33 1     
   26   12   13 1     
   27   12   34 1     
   28   13   14 1     
   29   13   15 am    
   30   14   35 1     
   31   14   36 1     
   32   14   37 1     
   33   15   16 2     
   34   17   21 1     
   35   17   18 1     
   36   17   38 1     
   37   18   19 1     
   38   18   39 1     
   39   18   40 1     
   40   19   20 1     
   41   19   41 1     
   42   19   42 1     
   43   20   21 1     
   44   20   43 1     
   45   20   44 1     
   46    6   45 1     
   47    6   46 1     
   48   16   47 1     
   49   16   48 1     
   50   21   49 1     
   51   21   50 1     
@<TRIPOS>SUBSTRUCTURE
      1 S1             1
@<TRIPOS>SET
LONE_PAIRS      STATIC     ATOMS    <user>   **** ""
6 45 46 47 48 49 50
DONOR_HYDROGENS      STATIC     ATOMS    <user>   **** ""
2 28 29
ATOM$BLUE        STATIC     ATOMS    COLORGROUP SYSTEM
6 45 46 47 48 49 50
ATOM$RED        STATIC     ATOMS    COLORGROUP SYSTEM
2 28 29
