AV-unprocessed.smi:336|AV-procd|sdf|2371|dock1
  -GOLD-   2262022293D 1   1.00000     0.00000
 Structure written by MMmdl.
 34 36  0  0  0  0  0  0  0  0  1 V2000
  150.4360  140.7282  158.4390 O   0  0  0  0  0  0  0  0  0  0  0  0
  151.5434  141.0613  158.0180 C   0  0  0  0  0  0  0  0  0  0  0  0
  152.1542  140.5338  156.9428 N   0  0  0  0  0  0  0  0  0  0  0  0
  151.7006  139.4898  156.0916 C   0  0  0  0  0  0  0  0  0  0  0  0
  152.4008  139.0325  154.9488 C   0  0  0  0  0  0  0  0  0  0  0  0
  151.8370  138.0004  154.1741 C   0  0  0  0  0  0  0  0  0  0  0  0
  150.5927  137.4689  154.5646 C   0  0  0  0  0  0  0  0  0  0  0  0
  149.9073  137.9050  155.6423 N   0  0  0  0  0  0  0  0  0  0  0  0
  150.4535  138.8956  156.3797 C   0  0  0  0  0  0  0  0  0  0  0  0
  152.2932  142.0257  158.5738 N   0  0  0  0  0  0  0  0  0  0  0  0
  151.9551  142.8294  159.7478 C   0  0  0  0  0  0  0  0  0  0  0  0
  151.3607  144.1896  159.4131 C   0  0  0  0  0  0  0  0  0  0  0  0
  152.1575  145.2289  158.6605 C   0  0  0  0  0  0  0  0  0  0  0  0
  151.8222  145.4408  160.1200 C   0  0  0  0  0  0  0  0  0  0  0  0
  153.0951  142.9676  160.7463 C   0  0  0  0  0  0  0  0  0  0  0  0
  153.7542  141.7525  161.3532 C   0  0  0  0  0  0  0  0  0  0  0  0
  152.8955  142.6550  162.2107 C   0  0  0  0  0  0  0  0  0  0  0  0
  153.0227  140.9686  156.6680 H   0  0  0  0  0  0  0  0  0  0  0  0
  153.3440  139.4581  154.6436 H   0  0  0  0  0  0  0  0  0  0  0  0
  152.3454  137.6278  153.2971 H   0  0  0  0  0  0  0  0  0  0  0  0
  150.1331  136.6765  153.9923 H   0  0  0  0  0  0  0  0  0  0  0  0
  149.8757  139.2206  157.2328 H   0  0  0  0  0  0  0  0  0  0  0  0
  153.1847  142.2251  158.1442 H   0  0  0  0  0  0  0  0  0  0  0  0
  151.1695  142.2604  160.2470 H   0  0  0  0  0  0  0  0  0  0  0  0
  150.3015  144.1540  159.1656 H   0  0  0  0  0  0  0  0  0  0  0  0
  153.1928  145.0019  158.4146 H   0  0  0  0  0  0  0  0  0  0  0  0
  151.6261  145.8329  157.9280 H   0  0  0  0  0  0  0  0  0  0  0  0
  151.0681  146.1873  160.3607 H   0  0  0  0  0  0  0  0  0  0  0  0
  152.6320  145.3465  160.8408 H   0  0  0  0  0  0  0  0  0  0  0  0
  153.7561  143.8075  160.5404 H   0  0  0  0  0  0  0  0  0  0  0  0
  153.3526  140.7751  161.0939 H   0  0  0  0  0  0  0  0  0  0  0  0
  154.8310  141.7894  161.5043 H   0  0  0  0  0  0  0  0  0  0  0  0
  153.3999  143.2940  162.9328 H   0  0  0  0  0  0  0  0  0  0  0  0
  151.9263  142.2724  162.5244 H   0  0  0  0  0  0  0  0  0  0  0  0
  1  2  2  0  0  0  0
  2  3  1  0  0  0  0
  2 10  1  0  0  0  0
  3  4  1  0  0  0  0
  3 18  1  0  0  0  0
  4  9  1  0  0  0  0
  4  5  2  0  0  0  0
  5  6  1  0  0  0  0
  5 19  1  0  0  0  0
  6  7  2  0  0  0  0
  6 20  1  0  0  0  0
  7  8  1  0  0  0  0
  7 21  1  0  0  0  0
  8  9  2  0  0  0  0
  9 22  1  0  0  0  0
 10 11  1  0  0  0  0
 10 23  1  0  0  0  0
 11 12  1  0  0  0  0
 11 15  1  0  0  0  0
 11 24  1  0  0  0  0
 12 14  1  0  0  0  0
 12 13  1  0  0  0  0
 12 25  1  0  0  0  0
 13 14  1  0  0  0  0
 13 26  1  0  0  0  0
 13 27  1  0  0  0  0
 14 28  1  0  0  0  0
 14 29  1  0  0  0  0
 15 17  1  0  0  0  0
 15 16  1  0  0  0  0
 15 30  1  0  0  0  0
 16 17  1  0  0  0  0
 16 31  1  0  0  0  0
 16 32  1  0  0  0  0
 17 33  1  0  0  0  0
 17 34  1  0  0  0  0
M  END
> <s_m_source_file>
AV-unprocessed.smi

> <i_m_source_file_index>
336

> <i_lp_mmshare_version>
43012

> <i_f3d_flags>
0

> <s_epik_input>
W0NIMl0xW0NIMl1bQ0hdMVtDSF0oW0NIXTJbQ0gyXVtDSDJdMilbTkhdQyg9TylbTkhdYzNbY0hdW2NIXVtjSF1uW2NIXTM=

> <s_epik_cmdline>
J2VwaWtfcHl0aG9uJywgJy1waCcsICc3LjAnLCAnLXRuJywgJzgnLCAnLW1hJywgJzIwMCcsICctbWV0YWxfYmluZGluZycsICctaW1hZScsICc8aW5maWxlLm1hZT4nLCAnLW9tYWUnLCAnPG91dGZpbGUubWFlPic=

> <r_epik_Ionization_Penalty>
0.00498677

> <r_epik_Ionization_Penalty_Charging>
0

> <r_epik_Ionization_Penalty_Neutral>
0.00498677

> <r_epik_State_Penalty>
0.00359262

> <r_epik_Charging_Adjusted_Penalty>
0.00359262

> <i_epik_Tot_Q>
0

> <i_epik_Tot_abs_Q>
0

> <r_epik_Metal_State_Penalty>
-0

> <b_epik_Metal_Only>
0

> <s_lp_Force_Field>
OPLS_2005

> <r_lp_Energy>
27.0567

> <b_lp_Chiralities_Consistent>
1

> <s_lp_Variant>
AV-unprocessed.smi:336-1

> <Gold.Version>
5.8.1

> <Gold.Id.Protein>
6NUR|6NUR_protein|mol2

> <Gold.PLP.Fitness>
43.5270

> <Gold.PLP.PLP>
-41.4750

> <Gold.PLP.part.hbond>
0.0000

> <Gold.PLP.part.metal>
0.0000

> <Gold.PLP.part.buried>
-4.8261

> <Gold.PLP.part.nonpolar>
-37.0053

> <Gold.PLP.part.repulsive>
0.2698

> <Gold.PLP.ligand.clash>
0.0000

> <Gold.PLP.ligand.torsion>
1.6212

> <Gold.PLP.Chemscore.Hbond>
0.0000

> <Gold.PLP.Chemscore.CHOScore>
1.0410

> <Gold.PLP.Chemscore.Metal>
0.0000

> <Gold.Chemscore.Hbonds>
donor molecule, donor type, donor heavy atom, donor atom, acceptor molecule, acceptor atom, score
      L1  C     7    21       P1  7948  0.98
      L1  C     7    21       P1  7949  0.05

> <Gold.PLP.Chemscore.Internal.Correction>
2.1712

> <Gold.Rescore>
     Score         DG    S(hbond)    S(metal)    S(lipo)     H(rot)  DE(clash)    DE(int)     intcor
     12.90     -15.91       0.00        0.00     118.17       1.33       0.05       2.96       ----

> <Gold.Chemscore.Fitness>
12.8984

> <Gold.Chemscore.DG>
-15.9127

> <Gold.Chemscore.ZeroCoef>
-5.4800

> <Gold.Chemscore.Hbond>
0.0000

> <Gold.Chemscore.Metal>
0.0000

> <Gold.Chemscore.Lipo>
118.1665

> <Gold.Chemscore.Internal_Hbond>
0.0000

> <Gold.Chemscore.DEClash>
0.0538

> <Gold.Chemscore.DEInternal>
2.9605

> <Gold.Chemscore.Rot>
1.3253

> <Gold.Chemscore.Internal.Correction>
   9.000000E+99

> <Gold.Chemscore.Hbond.Weighted>
-0.0000

> <Gold.Chemscore.Metal.Weighted>
-0.0000

> <Gold.Chemscore.Lipo.Weighted>
-13.8255

> <Gold.Chemscore.Internal_Hbond.Weighted>
0.0000

> <Gold.Chemscore.DEClash.Weighted>
0.0538

> <Gold.Chemscore.DEInternal.Weighted>
2.9605

> <Gold.Chemscore.Rot.Weighted>
3.3928

> <Gold.Chemscore.Internal.Correction.Weighted>
   9.000000E+99

> <Gold.Protein.RotatedTorsions>
[ 6907 6896 6895 6894 ] final -111.19 input  -60.11 | X-H torsion
[ 7974 7965 7964 7962 ] final -111.14 input  175.53 | X-H torsion
[ 8008 7997 7996 7995 ] final  -20.95 input   59.86 | X-H torsion
[ 10167 10162 10161 10158 ] final -143.66 input  -65.29 | X-H torsion
[ 10718 10713 10712 10709 ] final -113.48 input   66.30 | X-H torsion
[ 10763 10752 10751 10750 ] final -107.20 input  -60.55 | X-H torsion
[ 11005 11000 10999 10996 ] final  -74.67 input  -57.11 | X-H torsion

> <Gold.Protein.ActiveResidues>
 VAL166  LYS551  ARG553  GLY616  TRP617  ASP618  TYR619  PRO620  LYS621  CYS622 
 ASP623  PHE694  ASN695  SER759  ASP760  ASP761  ALA762  ILE779  LEU786  VAL792 
 PHE793  MET794  SER795  GLU796  ALA797  LYS798  CYS799  TRP800  GLU811  SER814 

> <Gold.Protein.RotatedAtoms>
  150.7674  133.9272  159.3415 H   0  0  0  0  0  0  0  0  0  0  0  0  # atno 6907 bound_to 6896
  151.7166  135.0900  160.0286 H   0  0  0  0  0  0  0  0  0  0  0  0  # atno 6908 bound_to 6896
  152.3676  133.6339  159.6098 H   0  0  0  0  0  0  0  0  0  0  0  0  # atno 6909 bound_to 6896
  145.1597  140.8872  143.3598 H   0  0  0  0  0  0  0  0  0  0  0  0  # atno 7974 bound_to 7965
  154.4737  140.2048  155.9931 H   0  0  0  0  0  0  0  0  0  0  0  0  # atno 8008 bound_to 7997
  156.1053  140.3237  155.7968 H   0  0  0  0  0  0  0  0  0  0  0  0  # atno 8009 bound_to 7997
  155.4727  140.0532  157.2968 H   0  0  0  0  0  0  0  0  0  0  0  0  # atno 8010 bound_to 7997
  139.7972  143.7883  152.2655 H   0  0  0  0  0  0  0  0  0  0  0  0  # atno 10167 bound_to 10162
  156.0770  130.5975  150.8648 H   0  0  0  0  0  0  0  0  0  0  0  0  # atno 10718 bound_to 10713
  154.8060  135.4683  154.0394 H   0  0  0  0  0  0  0  0  0  0  0  0  # atno 10763 bound_to 10752
  153.1863  135.6848  153.8418 H   0  0  0  0  0  0  0  0  0  0  0  0  # atno 10764 bound_to 10752
  153.7952  135.3237  155.3361 H   0  0  0  0  0  0  0  0  0  0  0  0  # atno 10765 bound_to 10752
  141.1637  133.6919  156.7400 H   0  0  0  0  0  0  0  0  0  0  0  0  # atno 11005 bound_to 11000
  145.0344  139.3313  143.6008 LP  0  0  0  0  0  0  0  0  0  0  0  0  # atno 17320 bound_to 7965
  146.3484  139.9694  142.8708 LP  0  0  0  0  0  0  0  0  0  0  0  0  # atno 17321 bound_to 7965
  139.7992  144.7380  150.9847 LP  0  0  0  0  0  0  0  0  0  0  0  0  # atno 17342 bound_to 10162
  140.7820  143.4362  151.0620 LP  0  0  0  0  0  0  0  0  0  0  0  0  # atno 17343 bound_to 10162
  157.5869  131.0945  150.9181 LP  0  0  0  0  0  0  0  0  0  0  0  0  # atno 17370 bound_to 10713
  156.9365  130.5369  149.5279 LP  0  0  0  0  0  0  0  0  0  0  0  0  # atno 17371 bound_to 10713
  140.2681  134.8413  157.3822 LP  0  0  0  0  0  0  0  0  0  0  0  0  # atno 17394 bound_to 11000
  140.1547  134.4805  155.7936 LP  0  0  0  0  0  0  0  0  0  0  0  0  # atno 17395 bound_to 11000

$$$$
