#       Name:                AV-unprocessed.smi:838
#       Creating user name   scv26
#       Creation time:       Fri Mar 27 01:37:14 2020


#       File generated by GOLD software.
#

@<TRIPOS>MOLECULE
AV-unprocessed.smi:838
    51    52     1
SMALL
NO_CHARGES


@<TRIPOS>ATOM
      1 ****        -4.8181   4.6757   0.8356 C.3            1 S1                 0.0000
      2 ****        -3.2986   4.8126   0.9559 C.2            1 S1                 0.0000
      3 ****        -2.8466   5.3987   1.9392 O.2            1 S1                 0.0000
      4 ****        -2.5063   4.2910  -0.0114 N.am           1 S1                 0.0000
      5 ****        -2.9684   3.5087  -1.1619 C.3            1 S1                 0.0000
      6 ****        -2.4652   2.0606  -1.0189 C.3            1 S1                 0.0000
      7 ****        -0.9866   2.0086  -0.8612 N.4            1 S1                 1.0000
      8 ****        -0.4861   0.6168  -0.7382 C.3            1 S1                 0.0000
      9 ****         0.9949   0.4849  -1.1430 C.3            1 S1                 0.0000
     10 ****         1.4486  -0.8990  -1.0664 N.am           1 S1                 0.0000
     11 ****         1.7619  -1.5395   0.0693 C.2            1 S1                 0.0000
     12 ****         1.6930  -1.0133   1.1805 O.2            1 S1                 0.0000
     13 ****         2.1448  -2.8054  -0.1743 N.am           1 S1                 0.0000
     14 ****         2.5550  -3.8011   0.7569 C.ar           1 S1                 0.0000
     15 ****         2.6404  -3.5644   2.0902 N.ar           1 S1                 0.0000
     16 ****         3.0406  -4.5519   2.9169 C.ar           1 S1                 0.0000
     17 ****         3.3804  -5.8392   2.4670 C.ar           1 S1                 0.0000
     18 ****         3.2963  -6.1018   1.0890 C.ar           1 S1                 0.0000
     19 ****         2.8790  -5.0744   0.2161 C.ar           1 S1                 0.0000
     20 ****         2.7877  -5.3575  -1.2748 C.3            1 S1                 0.0000
     21 ****        -0.4937   2.9113   0.2164 C.3            1 S1                 0.0000
     22 ****        -1.0426   4.3401   0.0479 C.3            1 S1                 0.0000
     23 ****        -5.1129   3.6261   0.8214 H              1 S1                 0.0000
     24 ****        -5.1799   5.1595  -0.0720 H              1 S1                 0.0000
     25 ****        -5.3144   5.1485   1.6838 H              1 S1                 0.0000
     26 ****        -4.0501   3.5084  -1.2871 H              1 S1                 0.0000
     27 ****        -2.5695   3.9530  -2.0750 H              1 S1                 0.0000
     28 ****        -2.9373   1.5880  -0.1558 H              1 S1                 0.0000
     29 ****        -2.7603   1.4857  -1.8974 H              1 S1                 0.0000
     30 ****        -0.6513   0.2593   0.2794 H              1 S1                 0.0000
     31 ****        -1.0719  -0.0331  -1.3903 H              1 S1                 0.0000
     32 ****         1.1324   0.8299  -2.1681 H              1 S1                 0.0000
     33 ****         1.6378   1.1049  -0.5175 H              1 S1                 0.0000
     34 ****         1.5354  -1.4018  -1.9378 H              1 S1                 0.0000
     35 ****         2.1436  -3.0955  -1.1409 H              1 S1                 0.0000
     36 ****         3.0918  -4.3074   3.9676 H              1 S1                 0.0000
     37 ****         3.6970  -6.6040   3.1606 H              1 S1                 0.0000
     38 ****         3.5506  -7.0807   0.7099 H              1 S1                 0.0000
     39 ****         3.0537  -6.3907  -1.5001 H              1 S1                 0.0000
     40 ****         3.4666  -4.7083  -1.8285 H              1 S1                 0.0000
     41 ****         1.7726  -5.1876  -1.6348 H              1 S1                 0.0000
     42 ****        -0.7947   2.5145   1.1874 H              1 S1                 0.0000
     43 ****         0.5950   2.9464   0.2134 H              1 S1                 0.0000
     44 ****        -0.6628   4.7813  -0.8749 H              1 S1                 0.0000
     45 ****        -0.6709   4.9744   0.8538 H              1 S1                 0.0000
     46 ****        -0.6104   2.3688  -1.7265 H              1 S1                 0.0000
     47 ****        -3.4678   5.7687   2.6300 LP             1 S1                 0.0000
     48 ****        -1.8582   5.5049   2.0473 LP             1 S1                 0.0000
     49 ****         1.3916  -0.0637   1.2662 LP             1 S1                 0.0000
     50 ****         1.9384  -1.5357   1.9971 LP             1 S1                 0.0000
     51 ****         2.4081  -2.6637   2.4574 LP             1 S1                 0.0000
@<TRIPOS>BOND
    1    1    2 1     
    2    1   23 1     
    3    1   24 1     
    4    1   25 1     
    5    2    3 2     
    6    2    4 am    
    7    4   22 1     
    8    4    5 1     
    9    5    6 1     
   10    5   26 1     
   11    5   27 1     
   12    6    7 1     
   13    6   28 1     
   14    6   29 1     
   15    7    8 1     
   16    7   21 1     
   17    7   46 1     
   18    8    9 1     
   19    8   30 1     
   20    8   31 1     
   21    9   10 1     
   22    9   32 1     
   23    9   33 1     
   24   10   11 am    
   25   10   34 1     
   26   11   12 2     
   27   11   13 am    
   28   13   14 1     
   29   13   35 1     
   30   14   19 ar    
   31   14   15 ar    
   32   15   16 ar    
   33   16   17 ar    
   34   16   36 1     
   35   17   18 ar    
   36   17   37 1     
   37   18   19 ar    
   38   18   38 1     
   39   19   20 1     
   40   20   39 1     
   41   20   40 1     
   42   20   41 1     
   43   21   22 1     
   44   21   42 1     
   45   21   43 1     
   46   22   44 1     
   47   22   45 1     
   48    3   47 1     
   49    3   48 1     
   50   12   49 1     
   51   12   50 1     
   52   15   51 1     
@<TRIPOS>SUBSTRUCTURE
      1 S1             1
@<TRIPOS>SET
LONE_PAIRS      STATIC     ATOMS    <user>   **** ""
5 47 48 49 50 51
DONOR_HYDROGENS      STATIC     ATOMS    <user>   **** ""
3 46 34 35
ATOM$BLUE        STATIC     ATOMS    COLORGROUP SYSTEM
5 47 48 49 50 51
ATOM$RED        STATIC     ATOMS    COLORGROUP SYSTEM
3 46 34 35
