AV-unprocessed.smi:678|AV-procd|sdf|3317|dock4
  -GOLD-   22720 0283D 1   1.00000     0.00000
 Structure written by MMmdl.
 50 51  0  0  0  0  0  0  0  0  1 V2000
  151.3710  130.4050  156.1125 C   0  0  0  0  0  0  0  0  0  0  0  0
  150.6373  131.5831  155.4959 C   0  0  0  0  0  0  0  0  0  0  0  0
  149.9857  131.4696  154.3180 C   0  0  0  0  0  0  0  0  0  0  0  0
  149.2918  132.5937  153.7387 C   0  0  0  0  0  0  0  0  0  0  0  0
  149.3066  133.7573  154.4036 C   0  0  0  0  0  0  0  0  0  0  0  0
  149.9728  133.9014  155.6352 N   0  0  0  0  0  0  0  0  0  0  0  0
  149.9194  135.2371  156.2585 C   0  0  0  0  0  0  0  0  0  0  0  0
  151.1712  136.1001  156.0257 C   0  0  0  0  0  0  0  0  0  0  0  0
  152.2737  135.6526  156.3388 O   0  0  0  0  0  0  0  0  0  0  0  0
  151.0036  137.3338  155.5214 N   0  0  0  0  0  0  0  0  0  0  0  0
  152.0455  138.3455  155.3933 C   0  0  0  0  0  0  0  0  0  0  0  0
  151.4379  139.7590  155.3622 C   0  0  2  0  0  0  0  0  0  0  0  0
  151.4429  140.4409  156.7476 C   0  0  0  0  0  0  0  0  0  0  0  0
  150.8211  141.7607  156.7104 N   0  0  0  0  0  0  0  0  0  0  0  0
  150.8098  142.4205  158.0174 C   0  0  0  0  0  0  0  0  0  0  0  0
  152.1835  142.8767  158.5576 C   0  0  0  0  0  0  0  0  0  0  0  0
  152.9856  141.6740  159.0738 C   0  0  0  0  0  0  0  0  0  0  0  0
  152.0500  143.9473  159.6530 C   0  0  0  0  0  0  0  0  0  0  0  0
  149.4700  141.6312  156.1761 C   0  0  0  0  0  0  0  0  0  0  0  0
  149.4574  140.9404  154.8016 C   0  0  0  0  0  0  0  0  0  0  0  0
  150.0937  139.6695  154.8988 O   0  0  0  0  0  0  0  0  0  0  0  0
  150.6540  132.8679  156.2204 C   0  0  0  0  0  0  0  0  0  0  0  0
  151.2524  133.0147  157.2874 O   0  0  0  0  0  0  0  0  0  0  0  0
  151.2909  129.5139  155.4888 H   0  0  0  0  0  0  0  0  0  0  0  0
  150.9559  130.1681  157.0928 H   0  0  0  0  0  0  0  0  0  0  0  0
  152.4297  130.6364  156.2339 H   0  0  0  0  0  0  0  0  0  0  0  0
  149.9795  130.5244  153.7947 H   0  0  0  0  0  0  0  0  0  0  0  0
  148.7797  132.5024  152.7919 H   0  0  0  0  0  0  0  0  0  0  0  0
  148.8209  134.6500  154.0358 H   0  0  0  0  0  0  0  0  0  0  0  0
  149.0540  135.7809  155.8761 H   0  0  0  0  0  0  0  0  0  0  0  0
  149.7478  135.1634  157.3337 H   0  0  0  0  0  0  0  0  0  0  0  0
  150.0664  137.6180  155.2759 H   0  0  0  0  0  0  0  0  0  0  0  0
  152.7683  138.2578  156.2061 H   0  0  0  0  0  0  0  0  0  0  0  0
  152.5934  138.1550  154.4702 H   0  0  0  0  0  0  0  0  0  0  0  0
  152.0064  140.3688  154.6572 H   0  0  0  0  0  0  0  0  0  0  0  0
  150.9261  139.8071  157.4699 H   0  0  0  0  0  0  0  0  0  0  0  0
  152.4733  140.5282  157.0879 H   0  0  0  0  0  0  0  0  0  0  0  0
  150.1652  143.2989  157.9600 H   0  0  0  0  0  0  0  0  0  0  0  0
  150.3426  141.7588  158.7484 H   0  0  0  0  0  0  0  0  0  0  0  0
  152.7631  143.3011  157.7390 H   0  0  0  0  0  0  0  0  0  0  0  0
  152.4808  141.1891  159.9098 H   0  0  0  0  0  0  0  0  0  0  0  0
  153.9756  141.9790  159.4139 H   0  0  0  0  0  0  0  0  0  0  0  0
  153.1241  140.9287  158.2899 H   0  0  0  0  0  0  0  0  0  0  0  0
  151.4685  143.5787  160.4984 H   0  0  0  0  0  0  0  0  0  0  0  0
  151.5581  144.8440  159.2747 H   0  0  0  0  0  0  0  0  0  0  0  0
  153.0283  144.2496  160.0275 H   0  0  0  0  0  0  0  0  0  0  0  0
  148.8515  141.0598  156.8701 H   0  0  0  0  0  0  0  0  0  0  0  0
  149.0102  142.6162  156.0880 H   0  0  0  0  0  0  0  0  0  0  0  0
  148.4330  140.8014  154.4569 H   0  0  0  0  0  0  0  0  0  0  0  0
  149.9659  141.5539  154.0564 H   0  0  0  0  0  0  0  0  0  0  0  0
  1  2  1  0  0  0  0
  1 24  1  0  0  0  0
  1 25  1  0  0  0  0
  1 26  1  0  0  0  0
  2 22  1  0  0  0  0
  2  3  2  0  0  0  0
  3  4  1  0  0  0  0
  3 27  1  0  0  0  0
  4  5  2  0  0  0  0
  4 28  1  0  0  0  0
  5  6  1  0  0  0  0
  5 29  1  0  0  0  0
  6  7  1  0  0  0  0
  6 22  1  0  0  0  0
  7  8  1  0  0  0  0
  7 30  1  0  0  0  0
  7 31  1  0  0  0  0
  8  9  2  0  0  0  0
  8 10  1  0  0  0  0
 10 11  1  0  0  0  0
 10 32  1  0  0  0  0
 11 12  1  0  0  0  0
 11 33  1  0  0  0  0
 11 34  1  0  0  0  0
 12 21  1  0  0  0  0
 12 13  1  0  0  0  0
 12 35  1  0  0  0  0
 13 14  1  0  0  0  0
 13 36  1  0  0  0  0
 13 37  1  0  0  0  0
 14 15  1  0  0  0  0
 14 19  1  0  0  0  0
 15 16  1  0  0  0  0
 15 38  1  0  0  0  0
 15 39  1  0  0  0  0
 16 17  1  0  0  0  0
 16 18  1  0  0  0  0
 16 40  1  0  0  0  0
 17 41  1  0  0  0  0
 17 42  1  0  0  0  0
 17 43  1  0  0  0  0
 18 44  1  0  0  0  0
 18 45  1  0  0  0  0
 18 46  1  0  0  0  0
 19 20  1  0  0  0  0
 19 47  1  0  0  0  0
 19 48  1  0  0  0  0
 20 21  1  0  0  0  0
 20 49  1  0  0  0  0
 20 50  1  0  0  0  0
 22 23  2  0  0  0  0
M  END
> <s_m_source_file>
AV-unprocessed.smi

> <i_m_source_file_index>
678

> <i_lp_mmshare_version>
43012

> <i_f3d_flags>
0

> <s_epik_input>
W0NIM11jMVtjSF1bY0hdW2NIXW4oYzE9TylbQ0gyXUMoPU8pW05IXVtDSDJdW0NAQEhdMltDSDJdTihbQ0gyXVtDSDJdTzIpW0NIMl1bQ0hdKFtDSDNdKVtDSDNd

> <s_epik_cmdline>
J2VwaWtfcHl0aG9uJywgJy1waCcsICc3LjAnLCAnLXRuJywgJzgnLCAnLW1hJywgJzIwMCcsICctbWV0YWxfYmluZGluZycsICctaW1hZScsICc8aW5maWxlLm1hZT4nLCAnLW9tYWUnLCAnPG91dGZpbGUubWFlPic=

> <r_lp_tautomer_probability>
1

> <r_epik_Ionization_Penalty>
1.11669

> <r_epik_Ionization_Penalty_Charging>
7.32459e-07

> <r_epik_Ionization_Penalty_Neutral>
1.11669

> <r_epik_State_Penalty>
1.17516

> <r_epik_Charging_Adjusted_Penalty>
1.17516

> <i_epik_Tot_Q>
0

> <i_epik_Tot_abs_Q>
0

> <r_epik_Metal_State_Penalty>
1.17513

> <b_epik_Metal_Only>
0

> <s_lp_Force_Field>
OPLS_2005

> <r_lp_Energy>
32.9221

> <b_lp_Chiralities_Consistent>
1

> <s_lp_Variant>
AV-unprocessed.smi:678-5

> <Gold.Version>
5.8.1

> <Gold.Id.Protein>
6NUR|6NUR_protein|mol2

> <Gold.PLP.Fitness>
48.6261

> <Gold.PLP.PLP>
-42.0757

> <Gold.PLP.part.hbond>
-2.1405

> <Gold.PLP.part.metal>
0.0000

> <Gold.PLP.part.buried>
-3.0112

> <Gold.PLP.part.nonpolar>
-37.6855

> <Gold.PLP.part.repulsive>
0.2153

> <Gold.PLP.ligand.clash>
0.0000

> <Gold.PLP.ligand.torsion>
1.1945

> <Gold.PLP.Chemscore.Hbond>
1.9600

> <Gold.PLP.Chemscore.CHOScore>
1.0000

> <Gold.PLP.Chemscore.Metal>
0.0000

> <Gold.Chemscore.Hbonds>
donor molecule, donor type, donor heavy atom, donor atom, acceptor molecule, acceptor atom, score
      P1  H  6896  6907       L1    23  0.86
      P1  H 10752 10765       L1     9  1.00
      L1  C     5    29       P1  7948  0.68

> <Gold.PLP.Chemscore.Internal.Correction>
0.0595

> <Gold.Rescore>
     Score         DG    S(hbond)    S(metal)    S(lipo)     H(rot)  DE(clash)    DE(int)     intcor
     18.32     -19.65       1.97        0.00     104.90       1.82       0.03       1.30       ----

> <Gold.Chemscore.Fitness>
18.3249

> <Gold.Chemscore.DG>
-19.6536

> <Gold.Chemscore.ZeroCoef>
-5.4800

> <Gold.Chemscore.Hbond>
1.9674

> <Gold.Chemscore.Metal>
0.0000

> <Gold.Chemscore.Lipo>
104.8961

> <Gold.Chemscore.Internal_Hbond>
0.0000

> <Gold.Chemscore.DEClash>
0.0270

> <Gold.Chemscore.DEInternal>
1.3017

> <Gold.Chemscore.Rot>
1.8243

> <Gold.Chemscore.Internal.Correction>
   9.000000E+99

> <Gold.Chemscore.Hbonds>
donor molecule, donor type, donor heavy atom, donor atom, acceptor molecule, acceptor atom, score
      P1  H  6896  6907       L1    23  0.83
      P1  H 10752 10765       L1     9  0.96

> <Gold.Chemscore.Hbond.Weighted>
-6.5710

> <Gold.Chemscore.Metal.Weighted>
-0.0000

> <Gold.Chemscore.Lipo.Weighted>
-12.2728

> <Gold.Chemscore.Internal_Hbond.Weighted>
0.0000

> <Gold.Chemscore.DEClash.Weighted>
0.0270

> <Gold.Chemscore.DEInternal.Weighted>
1.3017

> <Gold.Chemscore.Rot.Weighted>
4.6703

> <Gold.Chemscore.Internal.Correction.Weighted>
   9.000000E+99

> <Gold.Protein.RotatedTorsions>
[ 6907 6896 6895 6894 ] final -146.53 input  -60.11 | X-H torsion
[ 7974 7965 7964 7962 ] final  128.30 input  175.53 | X-H torsion
[ 8008 7997 7996 7995 ] final   87.54 input   59.86 | X-H torsion
[ 10167 10162 10161 10158 ] final  -75.78 input  -65.29 | X-H torsion
[ 10718 10713 10712 10709 ] final  -65.73 input   66.30 | X-H torsion
[ 10763 10752 10751 10750 ] final -129.45 input  -60.55 | X-H torsion
[ 11005 11000 10999 10996 ] final  -13.14 input  -57.11 | X-H torsion

> <Gold.Protein.ActiveResidues>
 VAL166  LYS551  ARG553  GLY616  TRP617  ASP618  TYR619  PRO620  LYS621  CYS622 
 ASP623  PHE694  ASN695  SER759  ASP760  ASP761  ALA762  ILE779  LEU786  VAL792 
 PHE793  MET794  SER795  GLU796  ALA797  LYS798  CYS799  TRP800  GLU811  SER814 

> <Gold.Protein.RotatedAtoms>
  151.1430  133.4958  159.2596 H   0  0  0  0  0  0  0  0  0  0  0  0  # atno 6907 bound_to 6896
  151.1635  135.0284  159.8730 H   0  0  0  0  0  0  0  0  0  0  0  0  # atno 6908 bound_to 6896
  152.5462  134.1301  159.8489 H   0  0  0  0  0  0  0  0  0  0  0  0  # atno 6909 bound_to 6896
  145.0410  139.3963  143.5102 H   0  0  0  0  0  0  0  0  0  0  0  0  # atno 7974 bound_to 7965
  155.9766  140.3381  155.6624 H   0  0  0  0  0  0  0  0  0  0  0  0  # atno 8008 bound_to 7997
  155.6604  140.0715  157.2574 H   0  0  0  0  0  0  0  0  0  0  0  0  # atno 8009 bound_to 7997
  154.4180  140.1709  156.1758 H   0  0  0  0  0  0  0  0  0  0  0  0  # atno 8010 bound_to 7997
  140.4913  143.2380  151.7902 H   0  0  0  0  0  0  0  0  0  0  0  0  # atno 10167 bound_to 10162
  156.0653  130.4251  150.1606 H   0  0  0  0  0  0  0  0  0  0  0  0  # atno 10718 bound_to 10713
  154.8757  135.3895  154.3921 H   0  0  0  0  0  0  0  0  0  0  0  0  # atno 10763 bound_to 10752
  153.4656  135.7029  153.6029 H   0  0  0  0  0  0  0  0  0  0  0  0  # atno 10764 bound_to 10752
  153.4509  135.3834  155.2251 H   0  0  0  0  0  0  0  0  0  0  0  0  # atno 10765 bound_to 10752
  140.7730  133.8423  155.9224 H   0  0  0  0  0  0  0  0  0  0  0  0  # atno 11005 bound_to 11000
  146.3509  140.0011  142.8676 LP  0  0  0  0  0  0  0  0  0  0  0  0  # atno 17320 bound_to 7965
  145.1647  140.9691  143.4356 LP  0  0  0  0  0  0  0  0  0  0  0  0  # atno 17321 bound_to 7965
  139.4852  144.4645  151.9501 LP  0  0  0  0  0  0  0  0  0  0  0  0  # atno 17342 bound_to 10162
  140.3732  144.2830  150.5917 LP  0  0  0  0  0  0  0  0  0  0  0  0  # atno 17343 bound_to 10162
  156.9667  130.9822  151.3467 LP  0  0  0  0  0  0  0  0  0  0  0  0  # atno 17370 bound_to 10713
  157.5690  130.8297  149.8366 LP  0  0  0  0  0  0  0  0  0  0  0  0  # atno 17371 bound_to 10713
  140.9555  134.1723  157.4694 LP  0  0  0  0  0  0  0  0  0  0  0  0  # atno 17394 bound_to 11000
  139.8753  134.9925  156.5601 LP  0  0  0  0  0  0  0  0  0  0  0  0  # atno 17395 bound_to 11000

$$$$
