AV-unprocessed.smi:2083|AV-procd|sdf|8501|dock9
  -GOLD-   2272011213D 1   1.00000     0.00000
 Structure written by MMmdl.
 44 45  0  0  0  0  0  0  0  0  3 V2000
  152.9767  141.8648  159.5895 C   0  0  0  0  0  0  0  0  0  0  0  0
  152.1871  141.3431  158.4381 C   0  0  0  0  0  0  0  0  0  0  0  0
  151.0027  141.7275  157.8769 C   0  0  0  0  0  0  0  0  0  0  0  0
  150.8321  140.8012  156.8122 C   0  0  0  0  0  0  0  0  0  0  0  0
  149.7923  140.7577  155.9652 N   0  5  0  0  0  0  0  0  0  0  0  0
  149.6488  139.7166  155.1145 C   0  0  0  0  0  0  0  0  0  0  0  0
  150.3580  139.4660  154.1373 O   0  0  0  0  0  0  0  0  0  0  0  0
  148.6075  138.9246  155.4091 N   0  0  0  0  0  0  0  0  0  0  0  0
  148.1863  137.7334  154.6757 C   0  0  0  0  0  0  0  0  0  0  0  0
  146.8517  137.9367  153.9144 C   0  0  1  0  0  0  0  0  0  0  0  0
  146.8697  139.2545  153.1012 C   0  0  0  0  0  0  0  0  0  0  0  0
  146.5591  136.7147  153.0956 N   0  3  2  0  0  0  0  0  0  0  0  0
  145.6048  136.8877  151.9617 C   0  0  0  0  0  0  0  0  0  0  0  0
  145.5031  135.6121  151.1081 C   0  0  0  0  0  0  0  0  0  0  0  0
  145.1295  134.3930  151.9595 C   0  0  0  0  0  0  0  0  0  0  0  0
  146.0869  134.2402  153.1526 C   0  0  1  0  0  0  0  0  0  0  0  0
  147.4796  133.7265  152.7466 C   0  0  0  0  0  0  0  0  0  0  0  0
  146.1606  135.5577  153.9490 C   0  0  0  0  0  0  0  0  0  0  0  0
  151.8189  139.9236  156.7418 N   0  0  0  0  0  0  0  0  0  0  0  0
  152.6959  140.2684  157.7773 O   0  0  0  0  0  0  0  0  0  0  0  0
  152.3807  141.8505  160.5021 H   0  0  0  0  0  0  0  0  0  0  0  0
  153.2911  142.8922  159.4065 H   0  0  0  0  0  0  0  0  0  0  0  0
  153.8695  141.2629  159.7602 H   0  0  0  0  0  0  0  0  0  0  0  0
  150.3612  142.5418  158.1785 H   0  0  0  0  0  0  0  0  0  0  0  0
  148.0614  139.1744  156.2207 H   0  0  0  0  0  0  0  0  0  0  0  0
  148.9633  137.4026  153.9845 H   0  0  0  0  0  0  0  0  0  0  0  0
  148.0974  136.9393  155.4151 H   0  0  0  0  0  0  0  0  0  0  0  0
  146.0501  138.0443  154.6472 H   0  0  0  0  0  0  0  0  0  0  0  0
  147.0529  140.1176  153.7406 H   0  0  0  0  0  0  0  0  0  0  0  0
  145.9137  139.4519  152.6163 H   0  0  0  0  0  0  0  0  0  0  0  0
  147.6492  139.2441  152.3386 H   0  0  0  0  0  0  0  0  0  0  0  0
  144.6226  137.1650  152.3475 H   0  0  0  0  0  0  0  0  0  0  0  0
  145.9311  137.6856  151.2956 H   0  0  0  0  0  0  0  0  0  0  0  0
  144.7611  135.7528  150.3214 H   0  0  0  0  0  0  0  0  0  0  0  0
  146.4518  135.4343  150.6008 H   0  0  0  0  0  0  0  0  0  0  0  0
  144.1104  134.5155  152.3289 H   0  0  0  0  0  0  0  0  0  0  0  0
  145.1269  133.4889  151.3493 H   0  0  0  0  0  0  0  0  0  0  0  0
  145.6609  133.4831  153.8126 H   0  0  0  0  0  0  0  0  0  0  0  0
  148.0028  134.4313  152.1004 H   0  0  0  0  0  0  0  0  0  0  0  0
  147.4072  132.7781  152.2135 H   0  0  0  0  0  0  0  0  0  0  0  0
  148.1049  133.5611  153.6245 H   0  0  0  0  0  0  0  0  0  0  0  0
  146.8499  135.4282  154.7822 H   0  0  0  0  0  0  0  0  0  0  0  0
  145.1867  135.7694  154.3937 H   0  0  0  0  0  0  0  0  0  0  0  0
  147.4385  136.4662  152.6653 H   0  0  0  0  0  0  0  0  0  0  0  0
  1  2  1  0  0  0  0
  1 21  1  0  0  0  0
  1 22  1  0  0  0  0
  1 23  1  0  0  0  0
  2 20  1  0  0  0  0
  2  3  2  0  0  0  0
  3  4  1  0  0  0  0
  3 24  1  0  0  0  0
  4  5  1  0  0  0  0
  4 19  2  0  0  0  0
  5  6  1  0  0  0  0
  6  7  2  0  0  0  0
  6  8  1  0  0  0  0
  8  9  1  0  0  0  0
  8 25  1  0  0  0  0
  9 10  1  0  0  0  0
  9 26  1  0  0  0  0
  9 27  1  0  0  0  0
 10 11  1  0  0  0  0
 10 12  1  0  0  0  0
 10 28  1  0  0  0  0
 11 29  1  0  0  0  0
 11 30  1  0  0  0  0
 11 31  1  0  0  0  0
 12 18  1  0  0  0  0
 12 13  1  0  0  0  0
 12 44  1  0  0  0  0
 13 14  1  0  0  0  0
 13 32  1  0  0  0  0
 13 33  1  0  0  0  0
 14 15  1  0  0  0  0
 14 34  1  0  0  0  0
 14 35  1  0  0  0  0
 15 16  1  0  0  0  0
 15 36  1  0  0  0  0
 15 37  1  0  0  0  0
 16 17  1  0  0  0  0
 16 18  1  0  0  0  0
 16 38  1  0  0  0  0
 17 39  1  0  0  0  0
 17 40  1  0  0  0  0
 17 41  1  0  0  0  0
 18 42  1  0  0  0  0
 18 43  1  0  0  0  0
 19 20  1  0  0  0  0
M  CHG  1   5  -1
M  CHG  1  12   1
M  END
> <s_m_source_file>
AV-unprocessed.smi

> <i_m_source_file_index>
2083

> <i_lp_mmshare_version>
43012

> <i_f3d_flags>
0

> <s_epik_input>
W0NIM11jMVtjSF1jKG5vMSlbTkhdQyg9TylbTkhdW0NIMl1bQ0BIXShbQ0gzXSlOMltDSDJdW0NIMl1bQ0gyXVtDQEBIXShbQ0gzXSlbQ0gyXTI=

> <s_epik_cmdline>
J2VwaWtfcHl0aG9uJywgJy1waCcsICc3LjAnLCAnLXRuJywgJzgnLCAnLW1hJywgJzIwMCcsICctbWV0YWxfYmluZGluZycsICctaW1hZScsICc8aW5maWxlLm1hZT4nLCAnLW9tYWUnLCAnPG91dGZpbGUubWFlPic=

> <r_epik_Ionization_Penalty>
6.22434

> <r_epik_Ionization_Penalty_Charging>
6.22425

> <r_epik_Ionization_Penalty_Neutral>
9.62407e-05

> <r_epik_State_Penalty>
6.22423

> <r_epik_Charging_Adjusted_Penalty>
12.4485

> <i_epik_Tot_Q>
0

> <i_epik_Tot_abs_Q>
2

> <r_epik_Metal_State_Penalty>
2.16764

> <b_epik_Metal_Only>
1

> <s_lp_Force_Field>
OPLS_2005

> <r_lp_Energy>
14.1674

> <b_lp_Chiralities_Consistent>
1

> <s_lp_Variant>
AV-unprocessed.smi:2083-12

> <Gold.Version>
5.8.1

> <Gold.Id.Protein>
6NUR|6NUR_protein|mol2

> <Gold.PLP.Fitness>
36.8765

> <Gold.PLP.PLP>
-26.9324

> <Gold.PLP.part.hbond>
-3.0000

> <Gold.PLP.part.metal>
0.0000

> <Gold.PLP.part.buried>
-2.2329

> <Gold.PLP.part.nonpolar>
-21.6519

> <Gold.PLP.part.repulsive>
0.4236

> <Gold.PLP.ligand.clash>
0.0000

> <Gold.PLP.ligand.torsion>
1.1024

> <Gold.PLP.Chemscore.Hbond>
3.9920

> <Gold.PLP.Chemscore.CHOScore>
0.0000

> <Gold.PLP.Chemscore.Metal>
0.0000

> <Gold.Chemscore.Hbonds>
donor molecule, donor type, donor heavy atom, donor atom, acceptor molecule, acceptor atom, score
      L1  H    12    44       P1  7948  2.00
      P1  H  7989  7998       L1     7  1.00
      P1  H  7997  8008       L1    20  0.96

> <Gold.PLP.Chemscore.Internal.Correction>
0.1729

> <Gold.Rescore>
     Score         DG    S(hbond)    S(metal)    S(lipo)     H(rot)  DE(clash)    DE(int)     intcor
     16.33     -17.55       2.62        0.00      61.54       1.52       0.05       1.17       ----

> <Gold.Chemscore.Fitness>
16.3300

> <Gold.Chemscore.DG>
-17.5495

> <Gold.Chemscore.ZeroCoef>
-5.4800

> <Gold.Chemscore.Hbond>
2.6221

> <Gold.Chemscore.Metal>
0.0000

> <Gold.Chemscore.Lipo>
61.5420

> <Gold.Chemscore.Internal_Hbond>
0.0000

> <Gold.Chemscore.DEClash>
0.0462

> <Gold.Chemscore.DEInternal>
1.1732

> <Gold.Chemscore.Rot>
1.5190

> <Gold.Chemscore.Internal.Correction>
   9.000000E+99

> <Gold.Chemscore.Hbonds>
donor molecule, donor type, donor heavy atom, donor atom, acceptor molecule, acceptor atom, score
      L1  H    12    44       P1  7948  1.00
      P1  H  7989  7998       L1     7  0.93
      P1  H  7997  8008       L1    20  0.31

> <Gold.Chemscore.Hbond.Weighted>
-8.7577

> <Gold.Chemscore.Metal.Weighted>
-0.0000

> <Gold.Chemscore.Lipo.Weighted>
-7.2004

> <Gold.Chemscore.Internal_Hbond.Weighted>
0.0000

> <Gold.Chemscore.DEClash.Weighted>
0.0462

> <Gold.Chemscore.DEInternal.Weighted>
1.1732

> <Gold.Chemscore.Rot.Weighted>
3.8886

> <Gold.Chemscore.Internal.Correction.Weighted>
   9.000000E+99

> <Gold.Protein.RotatedTorsions>
[ 6907 6896 6895 6894 ] final -134.74 input  -60.11 | X-H torsion
[ 7974 7965 7964 7962 ] final   14.83 input  175.53 | X-H torsion
[ 8008 7997 7996 7995 ] final  -74.78 input   59.86 | X-H torsion
[ 10167 10162 10161 10158 ] final  -75.53 input  -65.29 | X-H torsion
[ 10718 10713 10712 10709 ] final  -18.02 input   66.30 | X-H torsion
[ 10763 10752 10751 10750 ] final  -98.41 input  -60.55 | X-H torsion
[ 11005 11000 10999 10996 ] final  156.77 input  -57.11 | X-H torsion

> <Gold.Protein.ActiveResidues>
 VAL166  LYS551  ARG553  GLY616  TRP617  ASP618  TYR619  PRO620  LYS621  CYS622 
 ASP623  PHE694  ASN695  SER759  ASP760  ASP761  ALA762  ILE779  LEU786  VAL792 
 PHE793  MET794  SER795  GLU796  ALA797  LYS798  CYS799  TRP800  GLU811  SER814 

> <Gold.Protein.RotatedAtoms>
  150.9895  133.6164  159.2710 H   0  0  0  0  0  0  0  0  0  0  0  0  # atno 6907 bound_to 6896
  151.3390  135.0858  159.9374 H   0  0  0  0  0  0  0  0  0  0  0  0  # atno 6908 bound_to 6896
  152.5241  133.9510  159.7726 H   0  0  0  0  0  0  0  0  0  0  0  0  # atno 6909 bound_to 6896
  146.2295  139.8983  142.8543 H   0  0  0  0  0  0  0  0  0  0  0  0  # atno 7974 bound_to 7965
  154.5360  140.0755  156.8429 H   0  0  0  0  0  0  0  0  0  0  0  0  # atno 8008 bound_to 7997
  155.3276  140.3400  155.4222 H   0  0  0  0  0  0  0  0  0  0  0  0  # atno 8009 bound_to 7997
  156.1829  140.1658  156.8227 H   0  0  0  0  0  0  0  0  0  0  0  0  # atno 8010 bound_to 7997
  140.4935  143.2375  151.7869 H   0  0  0  0  0  0  0  0  0  0  0  0  # atno 10167 bound_to 10162
  156.5654  130.4736  149.6387 H   0  0  0  0  0  0  0  0  0  0  0  0  # atno 10718 bound_to 10713
  154.7412  135.5010  153.9126 H   0  0  0  0  0  0  0  0  0  0  0  0  # atno 10763 bound_to 10752
  153.1045  135.6693  153.9620 H   0  0  0  0  0  0  0  0  0  0  0  0  # atno 10764 bound_to 10752
  153.9397  135.3069  155.3422 H   0  0  0  0  0  0  0  0  0  0  0  0  # atno 10765 bound_to 10752
  140.1706  134.8546  157.2686 H   0  0  0  0  0  0  0  0  0  0  0  0  # atno 11005 bound_to 11000
  145.2348  140.9987  143.3969 LP  0  0  0  0  0  0  0  0  0  0  0  0  # atno 17320 bound_to 7965
  144.9500  139.4093  143.6407 LP  0  0  0  0  0  0  0  0  0  0  0  0  # atno 17321 bound_to 7965
  139.4856  144.4618  151.9532 LP  0  0  0  0  0  0  0  0  0  0  0  0  # atno 17342 bound_to 10162
  140.3705  144.2861  150.5920 LP  0  0  0  0  0  0  0  0  0  0  0  0  # atno 17343 bound_to 10162
  156.2762  130.7045  151.1856 LP  0  0  0  0  0  0  0  0  0  0  0  0  # atno 17370 bound_to 10713
  157.7360  131.0567  150.5440 LP  0  0  0  0  0  0  0  0  0  0  0  0  # atno 17371 bound_to 10713
  140.2382  134.3828  155.7492 LP  0  0  0  0  0  0  0  0  0  0  0  0  # atno 17394 bound_to 11000
  141.2217  133.7251  156.8747 LP  0  0  0  0  0  0  0  0  0  0  0  0  # atno 17395 bound_to 11000

$$$$
