AV-unprocessed.smi:37|AV-procd|sdf|308|dock1
  -GOLD-   2262016123D 1   1.00000     0.00000
 Structure written by MMmdl.
 44 45  0  0  0  0  0  0  0  0  1 V2000
  147.1645  135.1618  162.6163 C   0  0  0  0  0  0  0  0  0  0  0  0
  147.9892  136.3980  162.2349 C   0  0  0  0  0  0  0  0  0  0  0  0
  147.8698  136.7357  160.7507 C   0  0  0  0  0  0  0  0  0  0  0  0
  146.8026  136.6140  160.1493 O   0  0  0  0  0  0  0  0  0  0  0  0
  149.0256  137.1757  160.2271 O   0  0  0  0  0  0  0  0  0  0  0  0
  149.1017  137.5111  158.8503 C   0  0  0  0  0  0  0  0  0  0  0  0
  150.5621  137.4177  158.3734 C   0  0  1  0  0  0  0  0  0  0  0  0
  150.7977  136.0542  158.0133 O   0  0  0  0  0  0  0  0  0  0  0  0
  151.1102  135.9645  156.6575 C   0  0  1  0  0  0  0  0  0  0  0  0
  150.4158  134.7508  156.0885 N   0  0  0  0  0  0  0  0  0  0  0  0
  149.3232  134.8985  155.2456 C   0  0  0  0  0  0  0  0  0  0  0  0
  148.6440  133.8487  154.7267 C   0  0  0  0  0  0  0  0  0  0  0  0
  147.5960  134.0717  153.9157 F   0  0  0  0  0  0  0  0  0  0  0  0
  149.0370  132.4789  155.0437 C   0  0  0  0  0  0  0  0  0  0  0  0
  148.4874  131.4634  154.6217 O   0  0  0  0  0  0  0  0  0  0  0  0
  150.1342  132.3784  155.9043 N   0  0  0  0  0  0  0  0  0  0  0  0
  150.8426  133.4524  156.4473 C   0  0  0  0  0  0  0  0  0  0  0  0
  151.7971  133.2389  157.1932 O   0  0  0  0  0  0  0  0  0  0  0  0
  150.6286  137.2523  156.0013 C   0  0  2  0  0  0  0  0  0  0  0  0
  151.6686  137.6833  154.3597 Br  0  0  0  0  0  0  0  0  0  0  0  0
  150.8919  138.2428  157.1128 C   0  0  1  0  0  0  0  0  0  0  0  0
  150.0962  139.4076  156.9335 O   0  0  0  0  0  0  0  0  0  0  0  0
  150.3902  140.2876  155.9589 C   0  0  0  0  0  0  0  0  0  0  0  0
  150.9418  140.0245  154.8904 O   0  0  0  0  0  0  0  0  0  0  0  0
  149.9922  141.7174  156.3176 C   0  0  0  0  0  0  0  0  0  0  0  0
  150.7018  142.2193  157.5821 C   0  0  0  0  0  0  0  0  0  0  0  0
  150.4404  131.4493  156.1543 H   0  0  0  0  0  0  0  0  0  0  0  0
  147.2460  134.9623  163.6847 H   0  0  0  0  0  0  0  0  0  0  0  0
  147.5086  134.2720  162.0880 H   0  0  0  0  0  0  0  0  0  0  0  0
  146.1080  135.3037  162.3867 H   0  0  0  0  0  0  0  0  0  0  0  0
  147.6619  137.2572  162.8207 H   0  0  0  0  0  0  0  0  0  0  0  0
  149.0402  136.2334  162.4741 H   0  0  0  0  0  0  0  0  0  0  0  0
  148.4841  136.8009  158.2995 H   0  0  0  0  0  0  0  0  0  0  0  0
  148.7031  138.5068  158.6514 H   0  0  0  0  0  0  0  0  0  0  0  0
  151.2329  137.6836  159.1910 H   0  0  0  0  0  0  0  0  0  0  0  0
  152.1900  135.8316  156.5785 H   0  0  0  0  0  0  0  0  0  0  0  0
  148.9917  135.8940  154.9884 H   0  0  0  0  0  0  0  0  0  0  0  0
  149.5683  137.1947  155.7530 H   0  0  0  0  0  0  0  0  0  0  0  0
  151.9566  138.4830  157.1109 H   0  0  0  0  0  0  0  0  0  0  0  0
  150.2241  142.3697  155.4754 H   0  0  0  0  0  0  0  0  0  0  0  0
  148.9118  141.7564  156.4593 H   0  0  0  0  0  0  0  0  0  0  0  0
  150.3602  143.2214  157.8417 H   0  0  0  0  0  0  0  0  0  0  0  0
  151.7824  142.2664  157.4426 H   0  0  0  0  0  0  0  0  0  0  0  0
  150.4999  141.5704  158.4351 H   0  0  0  0  0  0  0  0  0  0  0  0
  1  2  1  0  0  0  0
  1 28  1  0  0  0  0
  1 29  1  0  0  0  0
  1 30  1  0  0  0  0
  2  3  1  0  0  0  0
  2 31  1  0  0  0  0
  2 32  1  0  0  0  0
  3  4  2  0  0  0  0
  3  5  1  0  0  0  0
  5  6  1  0  0  0  0
  6  7  1  0  0  0  0
  6 33  1  0  0  0  0
  6 34  1  0  0  0  0
  7 21  1  0  0  0  0
  7  8  1  0  0  0  0
  7 35  1  0  0  0  0
  8  9  1  0  0  0  0
  9 10  1  0  0  0  0
  9 19  1  0  0  0  0
  9 36  1  0  0  0  0
 10 17  1  0  0  0  0
 10 11  1  0  0  0  0
 11 12  2  0  0  0  0
 11 37  1  0  0  0  0
 12 13  1  0  0  0  0
 12 14  1  0  0  0  0
 14 15  2  0  0  0  0
 14 16  1  0  0  0  0
 16 27  1  0  0  0  0
 16 17  1  0  0  0  0
 17 18  2  0  0  0  0
 19 20  1  0  0  0  0
 19 21  1  0  0  0  0
 19 38  1  0  0  0  0
 21 22  1  0  0  0  0
 21 39  1  0  0  0  0
 22 23  1  0  0  0  0
 23 24  2  0  0  0  0
 23 25  1  0  0  0  0
 25 26  1  0  0  0  0
 25 40  1  0  0  0  0
 25 41  1  0  0  0  0
 26 42  1  0  0  0  0
 26 43  1  0  0  0  0
 26 44  1  0  0  0  0
M  END
> <s_m_source_file>
AV-unprocessed.smi

> <i_m_source_file_index>
37

> <i_lp_mmshare_version>
43012

> <i_f3d_flags>
0

> <s_epik_input>
W0NIM11bQ0gyXUMoPU8pT1tDSDJdW0NAQEhdMU9bQ0BASF0objJbY0hdYyhGKWMoPU8pW25IXWMyPU8pW0NAQEhdKEJyKVtDQEhdMU9DKD1PKVtDSDJdW0NIM10=

> <s_epik_cmdline>
J2VwaWtfcHl0aG9uJywgJy1waCcsICc3LjAnLCAnLXRuJywgJzgnLCAnLW1hJywgJzIwMCcsICctbWV0YWxfYmluZGluZycsICctaW1hZScsICc8aW5maWxlLm1hZT4nLCAnLW9tYWUnLCAnPG91dGZpbGUubWFlPic=

> <r_lp_tautomer_probability>
0.999537

> <r_epik_Ionization_Penalty>
0.104106

> <r_epik_Ionization_Penalty_Charging>
0.104106

> <r_epik_Ionization_Penalty_Neutral>
3.94675e-16

> <r_epik_State_Penalty>
0.0940182

> <r_epik_Charging_Adjusted_Penalty>
0.198124

> <i_epik_Tot_Q>
0

> <i_epik_Tot_abs_Q>
0

> <r_epik_Metal_State_Penalty>
3.05314

> <b_epik_Metal_Only>
0

> <s_epik_Chemistry_Notes>
This compound has an ester and may undergo hydrolysis at high or low pH. This compound contains an acetal/aminal-like group ( X-CH(R)-Y where X, Y are N, S, or O) that may be acid/base labile, releasing an aldehyde.

> <s_lp_Force_Field>
OPLS_2005

> <r_lp_Energy>
26.2696

> <b_lp_Chiralities_Consistent>
1

> <s_lp_Variant>
AV-unprocessed.smi:37-6

> <Gold.Version>
5.8.1

> <Gold.Id.Protein>
6NUR|6NUR_protein|mol2

> <Gold.PLP.Fitness>
45.2946

> <Gold.PLP.PLP>
-41.4264

> <Gold.PLP.part.hbond>
-4.0000

> <Gold.PLP.part.metal>
0.0000

> <Gold.PLP.part.buried>
-5.1346

> <Gold.PLP.part.nonpolar>
-32.1135

> <Gold.PLP.part.repulsive>
0.1417

> <Gold.PLP.ligand.clash>
0.0000

> <Gold.PLP.ligand.torsion>
1.3258

> <Gold.PLP.Chemscore.Hbond>
2.0390

> <Gold.PLP.Chemscore.CHOScore>
0.0000

> <Gold.PLP.Chemscore.Metal>
0.0000

> <Gold.Chemscore.Hbonds>
donor molecule, donor type, donor heavy atom, donor atom, acceptor molecule, acceptor atom, score
      P1  H  6896  6907       L1    18  0.63
      P1  H  6896  6908       L1     8  0.58
      P1  H  7989  7998       L1    24  1.00

> <Gold.PLP.Chemscore.Internal.Correction>
0.4026

> <Gold.Rescore>
     Score         DG    S(hbond)    S(metal)    S(lipo)     H(rot)  DE(clash)    DE(int)     intcor
      6.88     -12.33       2.39        0.00      63.17       3.33       1.46       3.99       ----

> <Gold.Chemscore.Fitness>
6.8834

> <Gold.Chemscore.DG>
-12.3346

> <Gold.Chemscore.ZeroCoef>
-5.4800

> <Gold.Chemscore.Hbond>
2.3918

> <Gold.Chemscore.Metal>
0.0000

> <Gold.Chemscore.Lipo>
63.1745

> <Gold.Chemscore.Internal_Hbond>
0.0000

> <Gold.Chemscore.DEClash>
1.4579

> <Gold.Chemscore.DEInternal>
3.9933

> <Gold.Chemscore.Rot>
3.3303

> <Gold.Chemscore.Internal.Correction>
   9.000000E+99

> <Gold.Chemscore.Hbonds>
donor molecule, donor type, donor heavy atom, donor atom, acceptor molecule, acceptor atom, score
      P1  H  6896  6907       L1    18  0.55
      P1  H  6896  6908       L1     8  0.38
      P1  H  7989  7998       L1    24  1.00

> <Gold.Chemscore.Hbond.Weighted>
-7.9888

> <Gold.Chemscore.Metal.Weighted>
-0.0000

> <Gold.Chemscore.Lipo.Weighted>
-7.3914

> <Gold.Chemscore.Internal_Hbond.Weighted>
0.0000

> <Gold.Chemscore.DEClash.Weighted>
1.4579

> <Gold.Chemscore.DEInternal.Weighted>
3.9933

> <Gold.Chemscore.Rot.Weighted>
8.5256

> <Gold.Chemscore.Internal.Correction.Weighted>
   9.000000E+99

> <Gold.Protein.RotatedTorsions>
[ 6907 6896 6895 6894 ] final -162.60 input  -60.11 | X-H torsion
[ 7974 7965 7964 7962 ] final -127.12 input  175.53 | X-H torsion
[ 8008 7997 7996 7995 ] final  137.10 input   59.86 | X-H torsion
[ 10167 10162 10161 10158 ] final -166.25 input  -65.29 | X-H torsion
[ 10718 10713 10712 10709 ] final  176.29 input   66.30 | X-H torsion
[ 10763 10752 10751 10750 ] final   63.14 input  -60.55 | X-H torsion
[ 11005 11000 10999 10996 ] final  129.53 input  -57.11 | X-H torsion

> <Gold.Protein.ActiveResidues>
 VAL166  LYS551  ARG553  GLY616  TRP617  ASP618  TYR619  PRO620  LYS621  CYS622 
 ASP623  PHE694  ASN695  SER759  ASP760  ASP761  ALA762  ILE779  LEU786  VAL792 
 PHE793  MET794  SER795  GLU796  ALA797  LYS798  CYS799  TRP800  GLU811  SER814 

> <Gold.Protein.RotatedAtoms>
  151.3829  133.3815  159.2711 H   0  0  0  0  0  0  0  0  0  0  0  0  # atno 6907 bound_to 6896
  150.9563  134.8958  159.7714 H   0  0  0  0  0  0  0  0  0  0  0  0  # atno 6908 bound_to 6896
  152.5132  134.3787  159.9395 H   0  0  0  0  0  0  0  0  0  0  0  0  # atno 6909 bound_to 6896
  144.9803  140.7634  143.4616 H   0  0  0  0  0  0  0  0  0  0  0  0  # atno 7974 bound_to 7965
  156.3003  140.2428  156.3855 H   0  0  0  0  0  0  0  0  0  0  0  0  # atno 8008 bound_to 7997
  154.8662  140.0418  157.1716 H   0  0  0  0  0  0  0  0  0  0  0  0  # atno 8009 bound_to 7997
  154.8844  140.2954  155.5410 H   0  0  0  0  0  0  0  0  0  0  0  0  # atno 8010 bound_to 7997
  139.6127  144.0781  152.1858 H   0  0  0  0  0  0  0  0  0  0  0  0  # atno 10167 bound_to 10162
  156.9223  130.9944  151.3002 H   0  0  0  0  0  0  0  0  0  0  0  0  # atno 10718 bound_to 10713
  153.0007  135.5440  154.6304 H   0  0  0  0  0  0  0  0  0  0  0  0  # atno 10763 bound_to 10752
  154.5583  135.2832  155.0946 H   0  0  0  0  0  0  0  0  0  0  0  0  # atno 10764 bound_to 10752
  154.2158  135.6459  153.5182 H   0  0  0  0  0  0  0  0  0  0  0  0  # atno 10765 bound_to 10752
  139.9621  134.9600  156.9162 H   0  0  0  0  0  0  0  0  0  0  0  0  # atno 11005 bound_to 11000
  145.2430  139.2064  143.4982 LP  0  0  0  0  0  0  0  0  0  0  0  0  # atno 17320 bound_to 7965
  146.3406  140.2329  142.8594 LP  0  0  0  0  0  0  0  0  0  0  0  0  # atno 17321 bound_to 7965
  140.0404  144.6012  150.7416 LP  0  0  0  0  0  0  0  0  0  0  0  0  # atno 17342 bound_to 10162
  140.7330  143.2712  151.3882 LP  0  0  0  0  0  0  0  0  0  0  0  0  # atno 17343 bound_to 10162
  157.5900  130.8436  149.8645 LP  0  0  0  0  0  0  0  0  0  0  0  0  # atno 17370 bound_to 10713
  156.0485  130.3722  150.1258 LP  0  0  0  0  0  0  0  0  0  0  0  0  # atno 17371 bound_to 10713
  140.5478  134.0657  155.7360 LP  0  0  0  0  0  0  0  0  0  0  0  0  # atno 17394 bound_to 11000
  141.1298  133.9320  157.2558 LP  0  0  0  0  0  0  0  0  0  0  0  0  # atno 17395 bound_to 11000

$$$$
