#       Name:                AV-unprocessed.smi:554
#       Creating user name   scv26
#       Creation time:       Thu Mar 26 23:40:00 2020


#       File generated by GOLD software.
#

@<TRIPOS>MOLECULE
AV-unprocessed.smi:554
    30    31     1
SMALL
NO_CHARGES


@<TRIPOS>ATOM
      1 ****        -1.4138  -2.4379  -0.9231 C.3            1 S1                 0.0000
      2 ****        -2.1384  -2.1493   0.3764 C.3            1 S1                 0.0000
      3 ****        -1.9300  -3.0346   1.5827 C.3            1 S1                 0.0000
      4 ****        -1.4482  -1.6029   1.6129 C.3            1 S1                 0.0000
      5 ****         0.0385  -1.3035   1.6928 C.3            1 S1                 0.0000
      6 ****         0.3934   0.0796   1.3999 N.am           1 S1                 0.0000
      7 ****         0.8320   0.5352   0.2179 C.2            1 S1                 0.0000
      8 ****         1.0152  -0.1836  -0.7646 O.2            1 S1                 0.0000
      9 ****         1.0402   1.8630   0.2576 N.am           1 S1                 0.0000
     10 ****         1.4926   2.7124  -0.7860 C.2            1 S1                 0.0000
     11 ****         1.8043   2.2947  -2.0184 N.2            1 S1                 0.0000
     12 ****         2.2202   3.3461  -2.8392 C.2            1 S1                 0.0000
     13 ****         2.2186   4.5665  -2.2111 C.2            1 S1                 0.0000
     14 ****         1.6926   4.4431  -0.5535 S.3            1 S1                 0.0000
     15 ****        -0.4322  -2.8759  -0.7455 H              1 S1                 0.0000
     16 ****        -1.2896  -1.5181  -1.4946 H              1 S1                 0.0000
     17 ****        -1.9946  -3.1386  -1.5228 H              1 S1                 0.0000
     18 ****        -3.1542  -1.7905   0.2217 H              1 S1                 0.0000
     19 ****        -2.8045  -3.2830   2.1806 H              1 S1                 0.0000
     20 ****        -1.1792  -3.8192   1.5103 H              1 S1                 0.0000
     21 ****        -2.0473  -0.9274   2.2210 H              1 S1                 0.0000
     22 ****         0.3621  -1.5059   2.7137 H              1 S1                 0.0000
     23 ****         0.6014  -1.9962   1.0667 H              1 S1                 0.0000
     24 ****         0.2795   0.7437   2.1514 H              1 S1                 0.0000
     25 ****         0.8470   2.3213   1.1358 H              1 S1                 0.0000
     26 ****         2.5002   3.1357  -3.8606 H              1 S1                 0.0000
     27 ****         2.4941   5.5265  -2.6217 H              1 S1                 0.0000
     28 ****         0.8350  -1.1656  -0.7063 LP             1 S1                 0.0000
     29 ****         1.3442   0.2144  -1.6210 LP             1 S1                 0.0000
     30 ****         1.7464   1.3420  -2.3169 LP             1 S1                 0.0000
@<TRIPOS>BOND
    1    1    2 1     
    2    1   15 1     
    3    1   16 1     
    4    1   17 1     
    5    2    4 1     
    6    2    3 1     
    7    2   18 1     
    8    3    4 1     
    9    3   19 1     
   10    3   20 1     
   11    4    5 1     
   12    4   21 1     
   13    5    6 1     
   14    5   22 1     
   15    5   23 1     
   16    6    7 am    
   17    6   24 1     
   18    7    8 2     
   19    7    9 am    
   20    9   10 1     
   21    9   25 1     
   22   10   14 1     
   23   10   11 2     
   24   11   12 1     
   25   12   13 2     
   26   12   26 1     
   27   13   14 1     
   28   13   27 1     
   29    8   28 1     
   30    8   29 1     
   31   11   30 1     
@<TRIPOS>SUBSTRUCTURE
      1 S1             1
@<TRIPOS>SET
LONE_PAIRS      STATIC     ATOMS    <user>   **** ""
3 28 29 30
DONOR_HYDROGENS      STATIC     ATOMS    <user>   **** ""
2 24 25
ATOM$BLUE        STATIC     ATOMS    COLORGROUP SYSTEM
3 28 29 30
ATOM$RED        STATIC     ATOMS    COLORGROUP SYSTEM
2 24 25
