#       Name:                AV-unprocessed.smi:2771
#       Creating user name   scv26
#       Creation time:       Fri Mar 27 15:11:02 2020


#       File generated by GOLD software.
#

@<TRIPOS>MOLECULE
AV-unprocessed.smi:2771
    48    49     1
SMALL
NO_CHARGES


@<TRIPOS>ATOM
      1 ****        -4.6177   5.2940   0.3241 C.3            1 S1                 0.0000
      2 ****        -4.8406   3.7968   0.2862 C.ar           1 S1                 0.0000
      3 ****        -6.1416   3.2570   0.2639 C.ar           1 S1                 0.0000
      4 ****        -6.2779   1.8578   0.2296 C.ar           1 S1                 0.0000
      5 ****        -5.1165   1.0615   0.2179 C.ar           1 S1                 0.0000
      6 ****        -3.8476   1.6830   0.2394 C.ar           1 S1                 0.0000
      7 ****        -2.7410   0.7931   0.2170 N.am           1 S1                 0.0000
      8 ****        -1.4308   1.0956   0.1962 C.2            1 S1                 0.0000
      9 ****        -0.9596   2.2325   0.2363 O.2            1 S1                 0.0000
     10 ****        -0.6805  -0.0120   0.1229 N.am           1 S1                 0.0000
     11 ****         0.7762  -0.0254   0.0448 C.3            1 S1                 0.0000
     12 ****         1.2789  -1.3666  -0.5299 C.3            1 S1                 0.0000
     13 ****         0.8787  -1.3919  -1.8880 O.3            1 S1                 0.0000
     14 ****         2.8200  -1.5545  -0.4775 C.3            1 S1                 0.0000
     15 ****         3.2501  -2.8863  -1.1435 C.3            1 S1                 0.0000
     16 ****         4.7721  -3.0941  -1.1065 C.3            1 S1                 0.0000
     17 ****         5.3030  -3.0400   0.3310 C.3            1 S1                 0.0000
     18 ****         4.9042  -1.7210   1.0052 C.3            1 S1                 0.0000
     19 ****         3.3818  -1.5057   0.9647 C.3            1 S1                 0.0000
     20 ****        -3.7266   3.0336   0.2742 N.ar           1 S1                 0.0000
     21 ****        -5.5643   5.8351   0.3281 H              1 S1                 0.0000
     22 ****        -4.0464   5.6145  -0.5477 H              1 S1                 0.0000
     23 ****        -4.0623   5.5723   1.2202 H              1 S1                 0.0000
     24 ****        -7.0131   3.8950   0.2725 H              1 S1                 0.0000
     25 ****        -7.2564   1.4012   0.2114 H              1 S1                 0.0000
     26 ****        -5.2046  -0.0149   0.1902 H              1 S1                 0.0000
     27 ****        -2.9748  -0.1881   0.1891 H              1 S1                 0.0000
     28 ****        -1.1470  -0.9071   0.1032 H              1 S1                 0.0000
     29 ****         1.1470   0.8088  -0.5540 H              1 S1                 0.0000
     30 ****         1.1378   0.1280   1.0603 H              1 S1                 0.0000
     31 ****         0.7970  -2.1946  -0.0077 H              1 S1                 0.0000
     32 ****        -0.0563  -1.2621  -1.9274 H              1 S1                 0.0000
     33 ****         3.2766  -0.7366  -1.0377 H              1 S1                 0.0000
     34 ****         2.7589  -3.7218  -0.6429 H              1 S1                 0.0000
     35 ****         2.9249  -2.9202  -2.1834 H              1 S1                 0.0000
     36 ****         5.0271  -4.0520  -1.5608 H              1 S1                 0.0000
     37 ****         5.2612  -2.3268  -1.7082 H              1 S1                 0.0000
     38 ****         4.9055  -3.8802   0.9015 H              1 S1                 0.0000
     39 ****         6.3880  -3.1482   0.3326 H              1 S1                 0.0000
     40 ****         5.2530  -1.7131   2.0382 H              1 S1                 0.0000
     41 ****         5.4035  -0.8900   0.5051 H              1 S1                 0.0000
     42 ****         3.1706  -0.5449   1.4311 H              1 S1                 0.0000
     43 ****         2.8904  -2.2627   1.5773 H              1 S1                 0.0000
     44 ****        -1.5681   3.0244   0.2891 LP             1 S1                 0.0000
     45 ****         0.0315   2.3640   0.2161 LP             1 S1                 0.0000
     46 ****         1.1139  -2.2756  -2.2926 LP             1 S1                 0.0000
     47 ****         1.3421  -0.6616  -2.3899 LP             1 S1                 0.0000
     48 ****        -2.8221   3.4596   0.2908 LP             1 S1                 0.0000
@<TRIPOS>BOND
    1    1    2 1     
    2    1   21 1     
    3    1   22 1     
    4    1   23 1     
    5    2   20 ar    
    6    2    3 ar    
    7    3    4 ar    
    8    3   24 1     
    9    4    5 ar    
   10    4   25 1     
   11    5    6 ar    
   12    5   26 1     
   13    6    7 1     
   14    6   20 ar    
   15    7    8 am    
   16    7   27 1     
   17    8    9 2     
   18    8   10 am    
   19   10   11 1     
   20   10   28 1     
   21   11   12 1     
   22   11   29 1     
   23   11   30 1     
   24   12   13 1     
   25   12   14 1     
   26   12   31 1     
   27   13   32 1     
   28   14   19 1     
   29   14   15 1     
   30   14   33 1     
   31   15   16 1     
   32   15   34 1     
   33   15   35 1     
   34   16   17 1     
   35   16   36 1     
   36   16   37 1     
   37   17   18 1     
   38   17   38 1     
   39   17   39 1     
   40   18   19 1     
   41   18   40 1     
   42   18   41 1     
   43   19   42 1     
   44   19   43 1     
   45    9   44 1     
   46    9   45 1     
   47   13   46 1     
   48   13   47 1     
   49   20   48 1     
@<TRIPOS>SUBSTRUCTURE
      1 S1             1
@<TRIPOS>SET
LONE_PAIRS      STATIC     ATOMS    <user>   **** ""
5 44 45 46 47 48
DONOR_HYDROGENS      STATIC     ATOMS    <user>   **** ""
3 27 28 32
ATOM$BLUE        STATIC     ATOMS    COLORGROUP SYSTEM
5 44 45 46 47 48
ATOM$RED        STATIC     ATOMS    COLORGROUP SYSTEM
3 27 28 32
