#       Name:                AV-unprocessed.smi:3314
#       Creating user name   scv26
#       Creation time:       Fri Mar 27 19:08:13 2020


#       File generated by GOLD software.
#

@<TRIPOS>MOLECULE
AV-unprocessed.smi:3314
    43    44     1
SMALL
NO_CHARGES


@<TRIPOS>ATOM
      1 ****        -4.7962   2.3422   1.3832 C.3            1 S1                 0.0000
      2 ****        -3.3014   2.2152   1.1713 C.2            1 S1                 0.0000
      3 ****        -2.4679   3.4019   1.0812 C.2            1 S1                 0.0000
      4 ****        -1.1451   3.2683   0.8881 C.2            1 S1                 0.0000
      5 ****        -0.1983   4.4461   0.7849 C.3            1 S1                 0.0000
      6 ****        -0.5645   2.0110   0.7732 N.pl3          1 S1                 0.0000
      7 ****        -1.3000   0.8159   0.8591 C.2            1 S1                 0.0000
      8 ****        -0.8052  -0.3846   0.7724 N.2            1 S1                 0.0000
      9 ****         0.5496  -0.6297   0.5636 C.2            1 S1                 0.0000
     10 ****         1.4709   0.1774   0.4096 O.2            1 S1                 0.0000
     11 ****         0.8569  -2.1428   0.5477 C.3            1 S1                 0.0000
     12 ****         2.3206  -2.5082   0.2001 C.3            1 S1                 0.0000
     13 ****         2.6118  -2.2624  -1.2327 N.4            1 S1                 1.0000
     14 ****         4.0172  -2.5533  -1.5870 C.3            1 S1                 0.0000
     15 ****         1.6455  -2.9778  -2.0961 C.3            1 S1                 0.0000
     16 ****         0.2063  -2.5835  -1.7285 C.3            1 S1                 0.0000
     17 ****        -0.0218  -2.8393  -0.3432 O.3            1 S1                 0.0000
     18 ****        -2.7295   0.9926   1.0645 C.2            1 S1                 0.0000
     19 ****        -5.1006   3.3878   1.4354 H              1 S1                 0.0000
     20 ****        -5.0900   1.8550   2.3132 H              1 S1                 0.0000
     21 ****        -5.3370   1.8713   0.5620 H              1 S1                 0.0000
     22 ****        -2.9066   4.3852   1.1706 H              1 S1                 0.0000
     23 ****        -0.2264   5.0332   1.7031 H              1 S1                 0.0000
     24 ****        -0.4890   5.0923  -0.0437 H              1 S1                 0.0000
     25 ****         0.8300   4.1220   0.6198 H              1 S1                 0.0000
     26 ****         0.6490  -2.5084   1.5540 H              1 S1                 0.0000
     27 ****         3.0162  -1.9435   0.8229 H              1 S1                 0.0000
     28 ****         2.4941  -3.5619   0.4245 H              1 S1                 0.0000
     29 ****         4.2504  -3.6082  -1.4362 H              1 S1                 0.0000
     30 ****         4.6979  -1.9611  -0.9748 H              1 S1                 0.0000
     31 ****         4.2092  -2.3062  -2.6316 H              1 S1                 0.0000
     32 ****         1.8383  -2.7403  -3.1429 H              1 S1                 0.0000
     33 ****         1.7784  -4.0547  -1.9807 H              1 S1                 0.0000
     34 ****         0.0151  -1.5378  -1.9718 H              1 S1                 0.0000
     35 ****        -0.5021  -3.1709  -2.3125 H              1 S1                 0.0000
     36 ****        -3.3806   0.1330   1.1377 H              1 S1                 0.0000
     37 ****         0.4356   1.9973   0.6334 H              1 S1                 0.0000
     38 ****         2.4710  -1.2749  -1.3930 H              1 S1                 0.0000
     39 ****        -1.4247  -1.1647   0.8595 LP             1 S1                 0.0000
     40 ****         1.2833   1.1596   0.4268 LP             1 S1                 0.0000
     41 ****         2.4047  -0.1509   0.2676 LP             1 S1                 0.0000
     42 ****        -0.9607  -2.5707  -0.1276 LP             1 S1                 0.0000
     43 ****         0.0888  -3.8205  -0.1855 LP             1 S1                 0.0000
@<TRIPOS>BOND
    1    1    2 1     
    2    1   19 1     
    3    1   20 1     
    4    1   21 1     
    5    2   18 2     
    6    2    3 1     
    7    3    4 2     
    8    3   22 1     
    9    4    5 1     
   10    4    6 1     
   11    5   23 1     
   12    5   24 1     
   13    5   25 1     
   14    6    7 1     
   15    6   37 1     
   16    7    8 2     
   17    7   18 1     
   18    8    9 1     
   19    9   10 2     
   20    9   11 1     
   21   11   17 1     
   22   11   12 1     
   23   11   26 1     
   24   12   13 1     
   25   12   27 1     
   26   12   28 1     
   27   13   14 1     
   28   13   15 1     
   29   13   38 1     
   30   14   29 1     
   31   14   30 1     
   32   14   31 1     
   33   15   16 1     
   34   15   32 1     
   35   15   33 1     
   36   16   17 1     
   37   16   34 1     
   38   16   35 1     
   39   18   36 1     
   40    8   39 1     
   41   10   40 1     
   42   10   41 1     
   43   17   42 1     
   44   17   43 1     
@<TRIPOS>SUBSTRUCTURE
      1 S1             1
@<TRIPOS>SET
LONE_PAIRS      STATIC     ATOMS    <user>   **** ""
5 39 40 41 42 43
DONOR_HYDROGENS      STATIC     ATOMS    <user>   **** ""
2 37 38
ATOM$BLUE        STATIC     ATOMS    COLORGROUP SYSTEM
5 39 40 41 42 43
ATOM$RED        STATIC     ATOMS    COLORGROUP SYSTEM
2 37 38
