AV-unprocessed.smi:2445|AV-procd|sdf|9637|dock1
  -GOLD-   2272013273D 1   1.00000     0.00000
 Structure written by MMmdl.
 40 41  0  0  0  0  0  0  0  0  1 V2000
  152.1642  141.4124  159.6387 C   0  0  0  0  0  0  0  0  0  0  0  0
  152.0719  140.5781  158.4066 C   0  0  0  0  0  0  0  0  0  0  0  0
  152.6728  139.3679  158.1640 C   0  0  0  0  0  0  0  0  0  0  0  0
  152.3890  138.8392  156.9028 N   0  0  0  0  0  0  0  0  0  0  0  0
  151.5844  139.6273  156.1853 C   0  0  0  0  0  0  0  0  0  0  0  0
  151.1289  139.2958  154.7977 C   0  0  2  0  0  0  0  0  0  0  0  0
  149.5940  139.2335  154.7131 C   0  0  0  0  0  0  0  0  0  0  0  0
  151.8300  138.0266  154.2661 C   0  0  0  0  0  0  0  0  0  0  0  0
  150.9038  136.9239  154.0272 N   0  0  0  0  0  0  0  0  0  0  0  0
  150.9536  135.7317  154.6369 C   0  0  0  0  0  0  0  0  0  0  0  0
  151.7978  135.4209  155.4772 O   0  0  0  0  0  0  0  0  0  0  0  0
  149.9681  134.9222  154.2243 N   0  0  0  0  0  0  0  0  0  0  0  0
  149.7443  133.5542  154.6933 C   0  0  2  0  0  0  0  0  0  0  0  0
  151.0640  132.7852  154.7516 C   0  0  0  0  0  0  0  0  0  0  0  0
  150.7755  131.4878  154.0034 C   0  0  0  0  0  0  0  0  0  0  0  0
  149.7867  131.8666  153.0630 O   0  0  0  0  0  0  0  0  0  0  0  0
  148.8658  132.7066  153.7431 C   0  0  2  0  0  0  0  0  0  0  0  0
  147.9832  133.4524  152.7291 C   0  0  0  0  0  0  0  0  0  0  0  0
  151.1168  141.0948  157.0419 S   0  0  0  0  0  0  0  0  0  0  0  0
  152.8593  140.9766  160.3569 H   0  0  0  0  0  0  0  0  0  0  0  0
  151.1907  141.4979  160.1215 H   0  0  0  0  0  0  0  0  0  0  0  0
  152.5132  142.4172  159.3999 H   0  0  0  0  0  0  0  0  0  0  0  0
  153.3178  138.8135  158.8298 H   0  0  0  0  0  0  0  0  0  0  0  0
  151.4412  140.1270  154.1634 H   0  0  0  0  0  0  0  0  0  0  0  0
  149.1465  140.1615  155.0706 H   0  0  0  0  0  0  0  0  0  0  0  0
  149.1951  138.4180  155.3168 H   0  0  0  0  0  0  0  0  0  0  0  0
  149.2541  139.0849  153.6881 H   0  0  0  0  0  0  0  0  0  0  0  0
  152.3702  138.2519  153.3448 H   0  0  0  0  0  0  0  0  0  0  0  0
  152.5769  137.6838  154.9826 H   0  0  0  0  0  0  0  0  0  0  0  0
  150.1697  137.0837  153.3529 H   0  0  0  0  0  0  0  0  0  0  0  0
  149.3202  135.2755  153.5357 H   0  0  0  0  0  0  0  0  0  0  0  0
  149.2895  133.5690  155.6856 H   0  0  0  0  0  0  0  0  0  0  0  0
  151.8571  133.3284  154.2352 H   0  0  0  0  0  0  0  0  0  0  0  0
  151.4007  132.6035  155.7724 H   0  0  0  0  0  0  0  0  0  0  0  0
  151.6595  131.0751  153.5171 H   0  0  0  0  0  0  0  0  0  0  0  0
  150.3685  130.7316  154.6768 H   0  0  0  0  0  0  0  0  0  0  0  0
  148.2268  132.0618  154.3492 H   0  0  0  0  0  0  0  0  0  0  0  0
  147.2725  134.1073  153.2337 H   0  0  0  0  0  0  0  0  0  0  0  0
  147.4104  132.7476  152.1265 H   0  0  0  0  0  0  0  0  0  0  0  0
  148.5778  134.0586  152.0454 H   0  0  0  0  0  0  0  0  0  0  0  0
  1  2  1  0  0  0  0
  1 20  1  0  0  0  0
  1 21  1  0  0  0  0
  1 22  1  0  0  0  0
  2 19  1  0  0  0  0
  2  3  2  0  0  0  0
  3  4  1  0  0  0  0
  3 23  1  0  0  0  0
  4  5  2  0  0  0  0
  5  6  1  0  0  0  0
  5 19  1  0  0  0  0
  6  7  1  0  0  0  0
  6  8  1  0  0  0  0
  6 24  1  0  0  0  0
  7 25  1  0  0  0  0
  7 26  1  0  0  0  0
  7 27  1  0  0  0  0
  8  9  1  0  0  0  0
  8 28  1  0  0  0  0
  8 29  1  0  0  0  0
  9 10  1  0  0  0  0
  9 30  1  0  0  0  0
 10 11  2  0  0  0  0
 10 12  1  0  0  0  0
 12 13  1  0  0  0  0
 12 31  1  0  0  0  0
 13 17  1  0  0  0  0
 13 14  1  0  0  0  0
 13 32  1  0  0  0  0
 14 15  1  0  0  0  0
 14 33  1  0  0  0  0
 14 34  1  0  0  0  0
 15 16  1  0  0  0  0
 15 35  1  0  0  0  0
 15 36  1  0  0  0  0
 16 17  1  0  0  0  0
 17 18  1  0  0  0  0
 17 37  1  0  0  0  0
 18 38  1  0  0  0  0
 18 39  1  0  0  0  0
 18 40  1  0  0  0  0
M  END
> <s_m_source_file>
AV-unprocessed.smi

> <i_m_source_file_index>
2445

> <i_lp_mmshare_version>
43012

> <i_f3d_flags>
0

> <s_epik_input>
W0NIM11jMVtjSF1uYyhzMSlbQ0BIXShbQ0gzXSlbQ0gyXVtOSF1DKD1PKVtOSF1bQ0BASF0yW0NIMl1bQ0gyXU9bQ0BIXTJbQ0gzXQ==

> <s_epik_cmdline>
J2VwaWtfcHl0aG9uJywgJy1waCcsICc3LjAnLCAnLXRuJywgJzgnLCAnLW1hJywgJzIwMCcsICctbWV0YWxfYmluZGluZycsICctaW1hZScsICc8aW5maWxlLm1hZT4nLCAnLW9tYWUnLCAnPG91dGZpbGUubWFlPic=

> <r_epik_Ionization_Penalty>
0.000649483

> <r_epik_Ionization_Penalty_Charging>
0

> <r_epik_Ionization_Penalty_Neutral>
0.000649483

> <r_epik_State_Penalty>
0.000379895

> <r_epik_Charging_Adjusted_Penalty>
0.000379895

> <i_epik_Tot_Q>
0

> <i_epik_Tot_abs_Q>
0

> <r_epik_Metal_State_Penalty>
-0

> <b_epik_Metal_Only>
0

> <s_lp_Force_Field>
OPLS_2005

> <r_lp_Energy>
6.28074

> <b_lp_Chiralities_Consistent>
1

> <s_lp_Variant>
AV-unprocessed.smi:2445-5

> <Gold.Version>
5.8.1

> <Gold.Id.Protein>
6NUR|6NUR_protein|mol2

> <Gold.PLP.Fitness>
41.3893

> <Gold.PLP.PLP>
-34.9535

> <Gold.PLP.part.hbond>
-4.0000

> <Gold.PLP.part.metal>
0.0000

> <Gold.PLP.part.buried>
-1.6986

> <Gold.PLP.part.nonpolar>
-29.2456

> <Gold.PLP.part.repulsive>
0.2586

> <Gold.PLP.ligand.clash>
0.2793

> <Gold.PLP.ligand.torsion>
0.9894

> <Gold.PLP.Chemscore.Hbond>
2.8544

> <Gold.PLP.Chemscore.CHOScore>
0.0000

> <Gold.PLP.Chemscore.Metal>
0.0000

> <Gold.Chemscore.Hbonds>
donor molecule, donor type, donor heavy atom, donor atom, acceptor molecule, acceptor atom, score
      L1  H     9    30       P1  7948  0.69
      L1  H    12    31       P1  7948  0.94
      P1  H 10752 10765       L1    11  0.63

> <Gold.PLP.Chemscore.Internal.Correction>
0.1306

> <Gold.Rescore>
     Score         DG    S(hbond)    S(metal)    S(lipo)     H(rot)  DE(clash)    DE(int)     intcor
     14.83     -17.22       1.96        0.00      78.05       1.53       0.35       2.04       ----

> <Gold.Chemscore.Fitness>
14.8273

> <Gold.Chemscore.DG>
-17.2187

> <Gold.Chemscore.ZeroCoef>
-5.4800

> <Gold.Chemscore.Hbond>
1.9551

> <Gold.Chemscore.Metal>
0.0000

> <Gold.Chemscore.Lipo>
78.0520

> <Gold.Chemscore.Internal_Hbond>
0.0000

> <Gold.Chemscore.DEClash>
0.3545

> <Gold.Chemscore.DEInternal>
2.0369

> <Gold.Chemscore.Rot>
1.5325

> <Gold.Chemscore.Internal.Correction>
   9.000000E+99

> <Gold.Chemscore.Hbonds>
donor molecule, donor type, donor heavy atom, donor atom, acceptor molecule, acceptor atom, score
      L1  H     9    30       P1  7948  0.09
      L1  H    12    31       P1  7948  0.20
      P1  H 10752 10765       L1    11  0.55

> <Gold.Chemscore.Hbond.Weighted>
-6.5300

> <Gold.Chemscore.Metal.Weighted>
-0.0000

> <Gold.Chemscore.Lipo.Weighted>
-9.1321

> <Gold.Chemscore.Internal_Hbond.Weighted>
0.0000

> <Gold.Chemscore.DEClash.Weighted>
0.3545

> <Gold.Chemscore.DEInternal.Weighted>
2.0369

> <Gold.Chemscore.Rot.Weighted>
3.9233

> <Gold.Chemscore.Internal.Correction.Weighted>
   9.000000E+99

> <Gold.Protein.RotatedTorsions>
[ 6907 6896 6895 6894 ] final  129.15 input  -60.11 | X-H torsion
[ 7974 7965 7964 7962 ] final  -23.26 input  175.53 | X-H torsion
[ 8008 7997 7996 7995 ] final -135.03 input   59.86 | X-H torsion
[ 10167 10162 10161 10158 ] final   80.03 input  -65.29 | X-H torsion
[ 10718 10713 10712 10709 ] final   86.96 input   66.30 | X-H torsion
[ 10763 10752 10751 10750 ] final -152.95 input  -60.55 | X-H torsion
[ 11005 11000 10999 10996 ] final -150.54 input  -57.11 | X-H torsion

> <Gold.Protein.ActiveResidues>
 VAL166  LYS551  ARG553  GLY616  TRP617  ASP618  TYR619  PRO620  LYS621  CYS622 
 ASP623  PHE694  ASN695  SER759  ASP760  ASP761  ALA762  ILE779  LEU786  VAL792 
 PHE793  MET794  SER795  GLU796  ALA797  LYS798  CYS799  TRP800  GLU811  SER814 

> <Gold.Protein.RotatedAtoms>
  152.3652  133.6347  159.6044 H   0  0  0  0  0  0  0  0  0  0  0  0  # atno 6907 bound_to 6896
  150.7629  133.9360  159.3450 H   0  0  0  0  0  0  0  0  0  0  0  0  # atno 6908 bound_to 6896
  151.7191  135.0899  160.0332 H   0  0  0  0  0  0  0  0  0  0  0  0  # atno 6909 bound_to 6896
  146.1627  140.4591  142.8565 H   0  0  0  0  0  0  0  0  0  0  0  0  # atno 7974 bound_to 7965
  155.3719  140.0489  157.3045 H   0  0  0  0  0  0  0  0  0  0  0  0  # atno 8008 bound_to 7997
  154.5125  140.2197  155.9091 H   0  0  0  0  0  0  0  0  0  0  0  0  # atno 8009 bound_to 7997
  156.1599  140.3118  155.8796 H   0  0  0  0  0  0  0  0  0  0  0  0  # atno 8010 bound_to 7997
  139.9540  144.6006  150.8134 H   0  0  0  0  0  0  0  0  0  0  0  0  # atno 10167 bound_to 10162
  157.6935  131.0236  150.3051 H   0  0  0  0  0  0  0  0  0  0  0  0  # atno 10718 bound_to 10713
  154.7960  135.3224  154.7665 H   0  0  0  0  0  0  0  0  0  0  0  0  # atno 10763 bound_to 10752
  153.8343  135.6876  153.4815 H   0  0  0  0  0  0  0  0  0  0  0  0  # atno 10764 bound_to 10752
  153.1652  135.4645  154.9769 H   0  0  0  0  0  0  0  0  0  0  0  0  # atno 10765 bound_to 10752
  140.7390  134.3535  157.5151 H   0  0  0  0  0  0  0  0  0  0  0  0  # atno 11005 bound_to 11000
  144.8049  140.6281  143.6454 LP  0  0  0  0  0  0  0  0  0  0  0  0  # atno 17320 bound_to 7965
  145.4547  139.1519  143.3899 LP  0  0  0  0  0  0  0  0  0  0  0  0  # atno 17321 bound_to 7965
  140.7574  143.3085  151.2902 LP  0  0  0  0  0  0  0  0  0  0  0  0  # atno 17342 bound_to 10162
  139.6606  144.0197  152.2689 LP  0  0  0  0  0  0  0  0  0  0  0  0  # atno 17343 bound_to 10162
  156.3561  130.3839  149.7289 LP  0  0  0  0  0  0  0  0  0  0  0  0  # atno 17370 bound_to 10713
  156.4751  130.8015  151.3031 LP  0  0  0  0  0  0  0  0  0  0  0  0  # atno 17371 bound_to 10713
  139.8810  134.9069  156.2932 LP  0  0  0  0  0  0  0  0  0  0  0  0  # atno 17394 bound_to 11000
  140.9853  133.7242  156.0733 LP  0  0  0  0  0  0  0  0  0  0  0  0  # atno 17395 bound_to 11000

$$$$
