#       Name:                AV-unprocessed.smi:1572
#       Creating user name   scv26
#       Creation time:       Fri Mar 27 06:54:27 2020


#       File generated by GOLD software.
#

@<TRIPOS>MOLECULE
AV-unprocessed.smi:1572
    48    49     1
SMALL
NO_CHARGES


@<TRIPOS>ATOM
      1 ****        -2.6923  -2.9950   2.6267 C.3            1 S1                 0.0000
      2 ****        -2.3043  -2.4724   1.3256 N.3            1 S1                 0.0000
      3 ****        -2.9728  -1.2074   1.0355 C.3            1 S1                 0.0000
      4 ****        -2.5701  -0.6594  -0.3458 C.3            1 S1                 0.0000
      5 ****        -1.1170  -0.4496  -0.4453 N.3            1 S1                 0.0000
      6 ****        -0.6615   0.2122  -1.6996 C.3            1 S1                 0.0000
      7 ****        -0.9608  -0.6229  -2.9676 C.3            1 S1                 0.0000
      8 ****        -1.3483   1.5896  -1.8818 C.3            1 S1                 0.0000
      9 ****         0.8692   0.4881  -1.6808 C.3            1 S1                 0.0000
     10 ****         1.2840   1.2285  -0.4923 N.am           1 S1                 0.0000
     11 ****         2.5340   1.6278  -0.2262 C.2            1 S1                 0.0000
     12 ****         3.4405   1.3781  -1.0242 O.2            1 S1                 0.0000
     13 ****         2.6573   2.2891   0.9472 N.pl3          1 S1                -1.0000
     14 ****         3.8574   2.7517   1.3342 C.2            1 S1                 0.0000
     15 ****         4.2247   4.0312   1.1576 N.2            1 S1                 0.0000
     16 ****         5.5006   4.3036   1.6325 N.2            1 S1                 0.0000
     17 ****         6.0627   3.2186   2.1647 C.2            1 S1                 0.0000
     18 ****         5.0841   1.7669   2.1369 S.3            1 S1                 0.0000
     19 ****        -0.4494  -1.7259  -0.1415 C.3            1 S1                 0.0000
     20 ****        -0.8609  -2.2697   1.2386 C.3            1 S1                 0.0000
     21 ****        -3.7692  -3.1601   2.6707 H              1 S1                 0.0000
     22 ****        -2.4213  -2.3040   3.4260 H              1 S1                 0.0000
     23 ****        -2.2017  -3.9491   2.8214 H              1 S1                 0.0000
     24 ****        -4.0539  -1.3474   1.0660 H              1 S1                 0.0000
     25 ****        -2.7316  -0.4713   1.8042 H              1 S1                 0.0000
     26 ****        -2.9100  -1.3499  -1.1179 H              1 S1                 0.0000
     27 ****        -3.1078   0.2745  -0.4972 H              1 S1                 0.0000
     28 ****        -0.6193  -0.1054  -3.8647 H              1 S1                 0.0000
     29 ****        -2.0269  -0.8065  -3.0982 H              1 S1                 0.0000
     30 ****        -0.4566  -1.5889  -2.9516 H              1 S1                 0.0000
     31 ****        -0.8987   2.1560  -2.6983 H              1 S1                 0.0000
     32 ****        -1.2690   2.2008  -0.9820 H              1 S1                 0.0000
     33 ****        -2.4065   1.4961  -2.1252 H              1 S1                 0.0000
     34 ****         1.4394  -0.4394  -1.7426 H              1 S1                 0.0000
     35 ****         1.1581   1.0609  -2.5639 H              1 S1                 0.0000
     36 ****         0.5668   1.4446   0.1846 H              1 S1                 0.0000
     37 ****         7.0584   3.2739   2.5787 H              1 S1                 0.0000
     38 ****        -0.6825  -2.4693  -0.9040 H              1 S1                 0.0000
     39 ****         0.6323  -1.6064  -0.1366 H              1 S1                 0.0000
     40 ****        -0.5313  -1.5782   2.0159 H              1 S1                 0.0000
     41 ****        -0.3453  -3.2130   1.4219 H              1 S1                 0.0000
     42 ****        -2.5838  -3.1567   0.6520 LP             1 S1                 0.0000
     43 ****        -0.8432   0.2288   0.2364 LP             1 S1                 0.0000
     44 ****         3.2410   0.8787  -1.8673 LP             1 S1                 0.0000
     45 ****         4.3751   1.6750  -0.8282 LP             1 S1                 0.0000
     46 ****         1.8551   2.4336   1.5265 LP             1 S1                 0.0000
     47 ****         3.6387   4.7181   0.7276 LP             1 S1                 0.0000
     48 ****         5.9416   5.1996   1.5817 LP             1 S1                 0.0000
@<TRIPOS>BOND
    1    1    2 1     
    2    1   21 1     
    3    1   22 1     
    4    1   23 1     
    5    2   20 1     
    6    2    3 1     
    7    3    4 1     
    8    3   24 1     
    9    3   25 1     
   10    4    5 1     
   11    4   26 1     
   12    4   27 1     
   13    5    6 1     
   14    5   19 1     
   15    6    7 1     
   16    6    8 1     
   17    6    9 1     
   18    7   28 1     
   19    7   29 1     
   20    7   30 1     
   21    8   31 1     
   22    8   32 1     
   23    8   33 1     
   24    9   10 1     
   25    9   34 1     
   26    9   35 1     
   27   10   11 am    
   28   10   36 1     
   29   11   12 2     
   30   11   13 1     
   31   13   14 1     
   32   14   18 1     
   33   14   15 2     
   34   15   16 1     
   35   16   17 2     
   36   17   18 1     
   37   17   37 1     
   38   19   20 1     
   39   19   38 1     
   40   19   39 1     
   41   20   40 1     
   42   20   41 1     
   43    2   42 1     
   44    5   43 1     
   45   12   44 1     
   46   12   45 1     
   47   13   46 1     
   48   15   47 1     
   49   16   48 1     
@<TRIPOS>SUBSTRUCTURE
      1 S1             1
@<TRIPOS>SET
LONE_PAIRS      STATIC     ATOMS    <user>   **** ""
7 42 43 44 45 46 47 48
DONOR_HYDROGENS      STATIC     ATOMS    <user>   **** ""
1 36
ATOM$BLUE        STATIC     ATOMS    COLORGROUP SYSTEM
7 42 43 44 45 46 47 48
ATOM$RED        STATIC     ATOMS    COLORGROUP SYSTEM
1 36
