AV-unprocessed.smi:2568|AV-procd|sdf|10088|dock4
  -GOLD-   2272014113D 1   1.00000     0.00000
 Structure written by MMmdl.
 25 26  0  0  0  0  0  0  0  0  2 V2000
  150.9580  136.9856  158.3683 C   0  0  0  0  0  0  0  0  0  0  0  0
  151.5341  138.3581  158.4580 C   0  0  0  0  0  0  0  0  0  0  0  0
  152.8469  138.5827  158.3795 N   0  0  0  0  0  0  0  0  0  0  0  0
  153.0809  139.9071  158.4957 N   0  0  0  0  0  0  0  0  0  0  0  0
  151.8485  140.3979  158.6217 C   0  0  0  0  0  0  0  0  0  0  0  0
  151.6274  141.8642  158.8270 C   0  0  2  0  0  0  0  0  0  0  0  0
  150.8822  142.5117  157.6447 C   0  0  0  0  0  0  0  0  0  0  0  0
  150.7764  143.9682  157.8565 N   0  3  0  0  0  0  0  0  0  0  0  0
  152.1014  144.5787  158.0845 C   0  0  0  0  0  0  0  0  0  0  0  0
  152.8260  143.8625  159.2385 C   0  0  0  0  0  0  0  0  0  0  0  0
  152.9123  142.4679  158.9636 O   0  0  0  0  0  0  0  0  0  0  0  0
  150.8363  139.4763  158.6248 N   0  0  0  0  0  0  0  0  0  0  0  0
  153.5818  137.8997  158.2608 H   0  0  0  0  0  0  0  0  0  0  0  0
  149.8701  137.0227  158.4345 H   0  0  0  0  0  0  0  0  0  0  0  0
  151.3361  136.3670  159.1823 H   0  0  0  0  0  0  0  0  0  0  0  0
  151.2335  136.5248  157.4192 H   0  0  0  0  0  0  0  0  0  0  0  0
  151.0641  142.0069  159.7517 H   0  0  0  0  0  0  0  0  0  0  0  0
  151.4130  142.3251  156.7100 H   0  0  0  0  0  0  0  0  0  0  0  0
  149.8831  142.0878  157.5385 H   0  0  0  0  0  0  0  0  0  0  0  0
  150.3433  144.3950  157.0498 H   0  0  0  0  0  0  0  0  0  0  0  0
  152.6901  144.5086  157.1689 H   0  0  0  0  0  0  0  0  0  0  0  0
  151.9780  145.6386  158.3074 H   0  0  0  0  0  0  0  0  0  0  0  0
  153.8330  144.2630  159.3556 H   0  0  0  0  0  0  0  0  0  0  0  0
  152.3075  144.0252  160.1847 H   0  0  0  0  0  0  0  0  0  0  0  0
  150.1983  144.1357  158.6680 H   0  0  0  0  0  0  0  0  0  0  0  0
  1 14  1  0  0  0  0
  1 15  1  0  0  0  0
  1 16  1  0  0  0  0
  1  2  1  0  0  0  0
  2 12  2  0  0  0  0
  2  3  1  0  0  0  0
  3  4  1  0  0  0  0
  3 13  1  0  0  0  0
  4  5  2  0  0  0  0
  5 12  1  0  0  0  0
  5  6  1  0  0  0  0
  6 11  1  0  0  0  0
  6  7  1  0  0  0  0
  6 17  1  0  0  0  0
  7  8  1  0  0  0  0
  7 18  1  0  0  0  0
  7 19  1  0  0  0  0
  8  9  1  0  0  0  0
  8 20  1  0  0  0  0
  8 25  1  0  0  0  0
  9 10  1  0  0  0  0
  9 21  1  0  0  0  0
  9 22  1  0  0  0  0
 10 11  1  0  0  0  0
 10 23  1  0  0  0  0
 10 24  1  0  0  0  0
M  CHG  1   8   1
M  END
> <s_m_source_file>
AV-unprocessed.smi

> <i_m_source_file_index>
2568

> <i_lp_mmshare_version>
43012

> <i_f3d_flags>
0

> <s_epik_input>
W0NIM11jMW5bbkhdYyhuMSlbQ0BASF0yW0NIMl1bTkhdW0NIMl1bQ0gyXU8y

> <s_epik_cmdline>
J2VwaWtfcHl0aG9uJywgJy1waCcsICc3LjAnLCAnLXRuJywgJzgnLCAnLW1hJywgJzIwMCcsICctbWV0YWxfYmluZGluZycsICctaW1hZScsICc8aW5maWxlLm1hZT4nLCAnLW9tYWUnLCAnPG91dGZpbGUubWFlPic=

> <r_lp_tautomer_probability>
0.948284

> <r_epik_Ionization_Penalty>
0.107151

> <r_epik_Ionization_Penalty_Charging>
0.100865

> <r_epik_Ionization_Penalty_Neutral>
0.00628602

> <r_epik_State_Penalty>
0.200426

> <r_epik_Charging_Adjusted_Penalty>
0.30129

> <i_epik_Tot_Q>
1

> <i_epik_Tot_abs_Q>
1

> <r_epik_Metal_State_Penalty>
0.501686

> <b_epik_Metal_Only>
0

> <s_lp_Force_Field>
OPLS_2005

> <r_lp_Energy>
11.0041

> <b_lp_Chiralities_Consistent>
1

> <s_lp_Variant>
AV-unprocessed.smi:2568-1

> <Gold.Version>
5.8.1

> <Gold.Id.Protein>
6NUR|6NUR_protein|mol2

> <Gold.PLP.Fitness>
28.9403

> <Gold.PLP.PLP>
-20.2693

> <Gold.PLP.part.hbond>
-2.0000

> <Gold.PLP.part.metal>
0.0000

> <Gold.PLP.part.buried>
-3.2480

> <Gold.PLP.part.nonpolar>
-15.5531

> <Gold.PLP.part.repulsive>
0.0985

> <Gold.PLP.ligand.clash>
0.0000

> <Gold.PLP.ligand.torsion>
0.0966

> <Gold.PLP.Chemscore.Hbond>
2.9500

> <Gold.PLP.Chemscore.CHOScore>
0.0000

> <Gold.PLP.Chemscore.Metal>
0.0000

> <Gold.Chemscore.Hbonds>
donor molecule, donor type, donor heavy atom, donor atom, acceptor molecule, acceptor atom, score
      L1  H     8    20       P1  8028  2.00
      P1  H  7997  8010       L1     4  0.68

> <Gold.PLP.Chemscore.Internal.Correction>
0.0143

> <Gold.Rescore>
     Score         DG    S(hbond)    S(metal)    S(lipo)     H(rot)  DE(clash)    DE(int)     intcor
     13.66     -13.92       1.70        0.00      45.48       1.00       0.05       0.22       ----

> <Gold.Chemscore.Fitness>
13.6550

> <Gold.Chemscore.DG>
-13.9211

> <Gold.Chemscore.ZeroCoef>
-5.4800

> <Gold.Chemscore.Hbond>
1.7007

> <Gold.Chemscore.Metal>
0.0000

> <Gold.Chemscore.Lipo>
45.4753

> <Gold.Chemscore.Internal_Hbond>
0.0000

> <Gold.Chemscore.DEClash>
0.0476

> <Gold.Chemscore.DEInternal>
0.2185

> <Gold.Chemscore.Rot>
1.0000

> <Gold.Chemscore.Internal.Correction>
   9.000000E+99

> <Gold.Chemscore.Hbonds>
donor molecule, donor type, donor heavy atom, donor atom, acceptor molecule, acceptor atom, score
      L1  H     8    20       P1  8028  0.78
      P1  H  7997  8010       L1     4  0.11

> <Gold.Chemscore.Hbond.Weighted>
-5.6805

> <Gold.Chemscore.Metal.Weighted>
-0.0000

> <Gold.Chemscore.Lipo.Weighted>
-5.3206

> <Gold.Chemscore.Internal_Hbond.Weighted>
0.0000

> <Gold.Chemscore.DEClash.Weighted>
0.0476

> <Gold.Chemscore.DEInternal.Weighted>
0.2185

> <Gold.Chemscore.Rot.Weighted>
2.5600

> <Gold.Chemscore.Internal.Correction.Weighted>
   9.000000E+99

> <Gold.Protein.RotatedTorsions>
[ 6907 6896 6895 6894 ] final -154.98 input  -60.11 | X-H torsion
[ 7974 7965 7964 7962 ] final  170.98 input  175.53 | X-H torsion
[ 8008 7997 7996 7995 ] final   38.41 input   59.86 | X-H torsion
[ 10167 10162 10161 10158 ] final  -77.14 input  -65.29 | X-H torsion
[ 10718 10713 10712 10709 ] final  153.96 input   66.30 | X-H torsion
[ 10763 10752 10751 10750 ] final   70.95 input  -60.55 | X-H torsion
[ 11005 11000 10999 10996 ] final -124.89 input  -57.11 | X-H torsion

> <Gold.Protein.ActiveResidues>
 VAL166  LYS551  ARG553  GLY616  TRP617  ASP618  TYR619  PRO620  LYS621  CYS622 
 ASP623  PHE694  ASN695  SER759  ASP760  ASP761  ALA762  ILE779  LEU786  VAL792 
 PHE793  MET794  SER795  GLU796  ALA797  LYS798  CYS799  TRP800  GLU811  SER814 

> <Gold.Protein.RotatedAtoms>
  151.2656  133.4280  159.2618 H   0  0  0  0  0  0  0  0  0  0  0  0  # atno 6907 bound_to 6896
  151.0491  134.9661  159.8212 H   0  0  0  0  0  0  0  0  0  0  0  0  # atno 6908 bound_to 6896
  152.5379  134.2611  159.8988 H   0  0  0  0  0  0  0  0  0  0  0  0  # atno 6909 bound_to 6896
  144.7308  139.9282  143.6423 H   0  0  0  0  0  0  0  0  0  0  0  0  # atno 7974 bound_to 7965
  155.2198  140.3330  155.4317 H   0  0  0  0  0  0  0  0  0  0  0  0  # atno 8008 bound_to 7997
  156.2338  140.1862  156.7222 H   0  0  0  0  0  0  0  0  0  0  0  0  # atno 8009 bound_to 7997
  154.6023  140.0621  156.9370 H   0  0  0  0  0  0  0  0  0  0  0  0  # atno 8010 bound_to 7997
  140.4796  143.2405  151.8079 H   0  0  0  0  0  0  0  0  0  0  0  0  # atno 10167 bound_to 10162
  157.2379  131.0753  151.1811 H   0  0  0  0  0  0  0  0  0  0  0  0  # atno 10718 bound_to 10713
  153.0371  135.5155  154.7519 H   0  0  0  0  0  0  0  0  0  0  0  0  # atno 10763 bound_to 10752
  154.6487  135.2922  155.0017 H   0  0  0  0  0  0  0  0  0  0  0  0  # atno 10764 bound_to 10752
  154.0909  135.6650  153.4905 H   0  0  0  0  0  0  0  0  0  0  0  0  # atno 10765 bound_to 10752
  140.9805  134.0679  157.3770 H   0  0  0  0  0  0  0  0  0  0  0  0  # atno 11005 bound_to 11000
  146.0878  139.3867  143.0425 LP  0  0  0  0  0  0  0  0  0  0  0  0  # atno 17320 bound_to 7965
  145.7753  140.9879  143.1128 LP  0  0  0  0  0  0  0  0  0  0  0  0  # atno 17321 bound_to 7965
  139.4831  144.4790  151.9331 LP  0  0  0  0  0  0  0  0  0  0  0  0  # atno 17342 bound_to 10162
  140.3875  144.2658  150.5902 LP  0  0  0  0  0  0  0  0  0  0  0  0  # atno 17343 bound_to 10162
  157.3410  130.7033  149.6381 LP  0  0  0  0  0  0  0  0  0  0  0  0  # atno 17370 bound_to 10713
  155.9671  130.4280  150.4768 LP  0  0  0  0  0  0  0  0  0  0  0  0  # atno 17371 bound_to 10713
  139.8948  135.0138  156.6971 LP  0  0  0  0  0  0  0  0  0  0  0  0  # atno 17394 bound_to 11000
  140.7193  133.9155  155.8136 LP  0  0  0  0  0  0  0  0  0  0  0  0  # atno 17395 bound_to 11000

$$$$
