AV-unprocessed.smi:1783|AV-procd|sdf|7195|dock3
  -GOLD-   22720 8433D 1   1.00000     0.00000
 Structure written by MMmdl.
 29 30  0  0  0  0  0  0  0  0  2 V2000
  149.4319  142.8183  158.6385 O   0  0  0  0  0  0  0  0  0  0  0  0
  150.6413  142.6245  158.5163 C   0  0  0  0  0  0  0  0  0  0  0  0
  151.2167  141.9479  157.5022 N   0  0  0  0  0  0  0  0  0  0  0  0
  150.6277  141.3312  156.3854 C   0  0  0  0  0  0  0  0  0  0  0  0
  149.4584  141.7215  155.8066 C   0  0  0  0  0  0  0  0  0  0  0  0
  148.9023  141.0476  154.6400 C   0  0  0  0  0  0  0  0  0  0  0  0
  147.5534  141.3908  154.0332 C   0  0  0  0  0  0  0  0  0  0  0  0
  146.5848  141.1519  154.9162 F   0  0  0  0  0  0  0  0  0  0  0  0
  147.4944  142.6777  153.6894 F   0  0  0  0  0  0  0  0  0  0  0  0
  147.3168  140.6542  152.9477 F   0  0  0  0  0  0  0  0  0  0  0  0
  149.6889  139.9928  154.2194 C   0  0  0  0  0  0  0  0  0  0  0  0
  150.8690  139.5607  154.7156 N   0  5  0  0  0  0  0  0  0  0  0  0
  151.3794  140.1978  155.8071 C   0  0  0  0  0  0  0  0  0  0  0  0
  152.4461  139.8504  156.3155 O   0  0  0  0  0  0  0  0  0  0  0  0
  151.6102  143.1761  159.5821 C   0  0  1  0  0  0  0  0  0  0  0  0
  153.0875  143.1279  159.1784 C   0  0  0  0  0  0  0  0  0  0  0  0
  153.2605  144.3661  158.3136 C   0  0  0  0  0  0  0  0  0  0  0  0
  152.1393  145.3008  158.7804 C   0  0  0  0  0  0  0  0  0  0  0  0
  151.4101  144.5752  159.7692 O   0  0  0  0  0  0  0  0  0  0  0  0
  152.2160  141.8160  157.5705 H   0  0  0  0  0  0  0  0  0  0  0  0
  148.9080  142.5672  156.1845 H   0  0  0  0  0  0  0  0  0  0  0  0
  149.3104  139.4039  153.3567 H   0  0  0  0  0  0  0  0  0  0  0  0
  151.4363  142.6423  160.5167 H   0  0  0  0  0  0  0  0  0  0  0  0
  153.7078  143.2135  160.0715 H   0  0  0  0  0  0  0  0  0  0  0  0
  153.3816  142.2114  158.6658 H   0  0  0  0  0  0  0  0  0  0  0  0
  154.2496  144.8099  158.4294 H   0  0  0  0  0  0  0  0  0  0  0  0
  153.1251  144.1173  157.2604 H   0  0  0  0  0  0  0  0  0  0  0  0
  152.5268  146.2262  159.2072 H   0  0  0  0  0  0  0  0  0  0  0  0
  151.4812  145.5610  157.9501 H   0  0  0  0  0  0  0  0  0  0  0  0
  1  2  2  0  0  0  0
  2  3  1  0  0  0  0
  2 15  1  0  0  0  0
  3  4  1  0  0  0  0
  3 20  1  0  0  0  0
  4 13  1  0  0  0  0
  4  5  2  0  0  0  0
  5  6  1  0  0  0  0
  5 21  1  0  0  0  0
  6  7  1  0  0  0  0
  6 11  2  0  0  0  0
  7  8  1  0  0  0  0
  7  9  1  0  0  0  0
  7 10  1  0  0  0  0
 11 12  1  0  0  0  0
 11 22  1  0  0  0  0
 12 13  1  0  0  0  0
 13 14  2  0  0  0  0
 15 19  1  0  0  0  0
 15 16  1  0  0  0  0
 15 23  1  0  0  0  0
 16 17  1  0  0  0  0
 16 24  1  0  0  0  0
 16 25  1  0  0  0  0
 17 18  1  0  0  0  0
 17 26  1  0  0  0  0
 17 27  1  0  0  0  0
 18 19  1  0  0  0  0
 18 28  1  0  0  0  0
 18 29  1  0  0  0  0
M  CHG  1  12  -1
M  END
> <s_m_source_file>
AV-unprocessed.smi

> <i_m_source_file_index>
1783

> <i_lp_mmshare_version>
43012

> <i_f3d_flags>
0

> <s_epik_input>
TzFbQ0gyXVtDSDJdW0NIMl1bQ0BIXTFDKD1PKVtOSF1jMltjSF1jKEMoRikoRilGKVtjSF1bbkhdYzI9Tw==

> <s_epik_cmdline>
J2VwaWtfcHl0aG9uJywgJy1waCcsICc3LjAnLCAnLXRuJywgJzgnLCAnLW1hJywgJzIwMCcsICctbWV0YWxfYmluZGluZycsICctaW1hZScsICc8aW5maWxlLm1hZT4nLCAnLW9tYWUnLCAnPG91dGZpbGUubWFlPic=

> <r_epik_Ionization_Penalty>
2.55264

> <r_epik_Ionization_Penalty_Charging>
0.0580859

> <r_epik_Ionization_Penalty_Neutral>
2.49455

> <r_epik_State_Penalty>
2.65913

> <r_epik_Charging_Adjusted_Penalty>
2.71721

> <i_epik_Tot_Q>
-1

> <i_epik_Tot_abs_Q>
1

> <r_epik_Metal_State_Penalty>
0.516671

> <b_epik_Metal_Only>
0

> <s_lp_Force_Field>
OPLS_2005

> <r_lp_Energy>
34.221

> <b_lp_Chiralities_Consistent>
1

> <s_lp_Variant>
AV-unprocessed.smi:1783-4

> <Gold.Version>
5.8.1

> <Gold.Id.Protein>
6NUR|6NUR_protein|mol2

> <Gold.PLP.Fitness>
43.4784

> <Gold.PLP.PLP>
-40.2787

> <Gold.PLP.part.hbond>
-2.8540

> <Gold.PLP.part.metal>
0.0000

> <Gold.PLP.part.buried>
-2.9266

> <Gold.PLP.part.nonpolar>
-33.9089

> <Gold.PLP.part.repulsive>
0.3289

> <Gold.PLP.ligand.clash>
0.0000

> <Gold.PLP.ligand.torsion>
0.4378

> <Gold.PLP.Chemscore.Hbond>
1.3300

> <Gold.PLP.Chemscore.CHOScore>
0.0000

> <Gold.PLP.Chemscore.Metal>
0.0000

> <Gold.Chemscore.Hbonds>
donor molecule, donor type, donor heavy atom, donor atom, acceptor molecule, acceptor atom, score
      P1  H  7989  7998       L1    12  0.13
      P1  H  7997  8008       L1    14  1.00

> <Gold.PLP.Chemscore.Internal.Correction>
0.0853

> <Gold.Rescore>
     Score         DG    S(hbond)    S(metal)    S(lipo)     H(rot)  DE(clash)    DE(int)     intcor
     15.32     -16.34       1.00        0.00      86.20       1.00       0.55       0.47       ----

> <Gold.Chemscore.Fitness>
15.3209

> <Gold.Chemscore.DG>
-16.3373

> <Gold.Chemscore.ZeroCoef>
-5.4800

> <Gold.Chemscore.Hbond>
0.9975

> <Gold.Chemscore.Metal>
0.0000

> <Gold.Chemscore.Lipo>
86.2026

> <Gold.Chemscore.Internal_Hbond>
0.0000

> <Gold.Chemscore.DEClash>
0.5502

> <Gold.Chemscore.DEInternal>
0.4663

> <Gold.Chemscore.Rot>
1.0000

> <Gold.Chemscore.Internal.Correction>
   9.000000E+99

> <Gold.Chemscore.Hbonds>
donor molecule, donor type, donor heavy atom, donor atom, acceptor molecule, acceptor atom, score
      P1  H  7997  8008       L1    14  1.00

> <Gold.Chemscore.Hbond.Weighted>
-3.3316

> <Gold.Chemscore.Metal.Weighted>
-0.0000

> <Gold.Chemscore.Lipo.Weighted>
-10.0857

> <Gold.Chemscore.Internal_Hbond.Weighted>
0.0000

> <Gold.Chemscore.DEClash.Weighted>
0.5502

> <Gold.Chemscore.DEInternal.Weighted>
0.4663

> <Gold.Chemscore.Rot.Weighted>
2.5600

> <Gold.Chemscore.Internal.Correction.Weighted>
   9.000000E+99

> <Gold.Protein.RotatedTorsions>
[ 6907 6896 6895 6894 ] final  -35.25 input  -60.11 | X-H torsion
[ 7974 7965 7964 7962 ] final   10.99 input  175.53 | X-H torsion
[ 8008 7997 7996 7995 ] final  -40.81 input   59.86 | X-H torsion
[ 10167 10162 10161 10158 ] final   55.75 input  -65.29 | X-H torsion
[ 10718 10713 10712 10709 ] final    4.70 input   66.30 | X-H torsion
[ 10763 10752 10751 10750 ] final   18.93 input  -60.55 | X-H torsion
[ 11005 11000 10999 10996 ] final   18.50 input  -57.11 | X-H torsion

> <Gold.Protein.ActiveResidues>
 VAL166  LYS551  ARG553  GLY616  TRP617  ASP618  TYR619  PRO620  LYS621  CYS622 
 ASP623  PHE694  ASN695  SER759  ASP760  ASP761  ALA762  ILE779  LEU786  VAL792 
 PHE793  MET794  SER795  GLU796  ALA797  LYS798  CYS799  TRP800  GLU811  SER814 

> <Gold.Protein.RotatedAtoms>
  151.0422  134.9615  159.8167 H   0  0  0  0  0  0  0  0  0  0  0  0  # atno 6907 bound_to 6896
  152.5366  134.2644  159.8957 H   0  0  0  0  0  0  0  0  0  0  0  0  # atno 6908 bound_to 6896
  151.2656  133.4237  159.2652 H   0  0  0  0  0  0  0  0  0  0  0  0  # atno 6909 bound_to 6896
  146.2379  139.9552  142.8465 H   0  0  0  0  0  0  0  0  0  0  0  0  # atno 7974 bound_to 7965
  154.4009  140.1515  156.3088 H   0  0  0  0  0  0  0  0  0  0  0  0  # atno 8008 bound_to 7997
  155.8634  140.3452  155.5750 H   0  0  0  0  0  0  0  0  0  0  0  0  # atno 8009 bound_to 7997
  155.7855  140.0849  157.2027 H   0  0  0  0  0  0  0  0  0  0  0  0  # atno 8010 bound_to 7997
  140.2161  144.3838  150.6469 H   0  0  0  0  0  0  0  0  0  0  0  0  # atno 10167 bound_to 10162
  156.8965  130.5706  149.5649 H   0  0  0  0  0  0  0  0  0  0  0  0  # atno 10718 bound_to 10713
  153.1206  135.6718  153.9342 H   0  0  0  0  0  0  0  0  0  0  0  0  # atno 10763 bound_to 10752
  153.8858  135.3053  155.3447 H   0  0  0  0  0  0  0  0  0  0  0  0  # atno 10764 bound_to 10752
  154.7618  135.4984  153.9558 H   0  0  0  0  0  0  0  0  0  0  0  0  # atno 10765 bound_to 10752
  140.4241  134.1488  155.7675 H   0  0  0  0  0  0  0  0  0  0  0  0  # atno 11005 bound_to 11000
  145.1824  140.9773  143.4259 LP  0  0  0  0  0  0  0  0  0  0  0  0  # atno 17320 bound_to 7965
  144.9930  139.3671  143.6205 LP  0  0  0  0  0  0  0  0  0  0  0  0  # atno 17321 bound_to 7965
  140.6288  143.2185  151.6539 LP  0  0  0  0  0  0  0  0  0  0  0  0  # atno 17342 bound_to 10162
  139.5161  144.3356  152.0787 LP  0  0  0  0  0  0  0  0  0  0  0  0  # atno 17343 bound_to 10162
  156.0603  130.5657  150.9179 LP  0  0  0  0  0  0  0  0  0  0  0  0  # atno 17370 bound_to 10713
  157.6052  131.0939  150.8891 LP  0  0  0  0  0  0  0  0  0  0  0  0  # atno 17371 bound_to 10713
  141.1772  133.8489  157.1380 LP  0  0  0  0  0  0  0  0  0  0  0  0  # atno 17394 bound_to 11000
  140.0180  134.9959  157.0533 LP  0  0  0  0  0  0  0  0  0  0  0  0  # atno 17395 bound_to 11000

$$$$
