AV-unprocessed.smi:1453|AV-procd|sdf|5911|dock5
  -GOLD-   22720 5593D 1   1.00000     0.00000
 Structure written by MMmdl.
 43 44  0  0  0  0  0  0  0  0  1 V2000
  155.8541  138.5969  164.5457 C   0  0  0  0  0  0  0  0  0  0  0  0
  155.9848  138.2677  163.0502 C   0  0  2  0  0  0  0  0  0  0  0  0
  155.8400  139.5238  162.1814 C   0  0  0  0  0  0  0  0  0  0  0  0
  156.7881  139.9312  161.5098 O   0  0  0  0  0  0  0  0  0  0  0  0
  154.6438  140.1329  162.2050 N   0  0  0  0  0  0  0  0  0  0  0  0
  154.3173  141.3534  161.4761 C   0  0  0  0  0  0  0  0  0  0  0  0
  153.5036  141.0946  160.2197 C   0  0  0  0  0  0  0  0  0  0  0  0
  152.4841  141.9789  159.8149 C   0  0  0  0  0  0  0  0  0  0  0  0
  151.7656  141.6995  158.6372 C   0  0  0  0  0  0  0  0  0  0  0  0
  152.0831  140.5377  157.8935 C   0  0  0  0  0  0  0  0  0  0  0  0
  151.3797  140.2400  156.7058 N   0  0  0  0  0  0  0  0  0  0  0  0
  150.5398  141.3145  156.1818 C   0  0  0  0  0  0  0  0  0  0  0  0
  149.6061  140.7782  155.0829 C   0  0  0  0  0  0  0  0  0  0  0  0
  150.3717  140.1317  154.0716 O   0  0  0  0  0  0  0  0  0  0  0  0
  151.0938  139.0177  154.5855 C   0  0  0  0  0  0  0  0  0  0  0  0
  152.0824  139.4943  155.6628 C   0  0  0  0  0  0  0  0  0  0  0  0
  153.0560  139.6826  158.2965 N   0  0  0  0  0  0  0  0  0  0  0  0
  153.7442  139.9566  159.4245 C   0  0  0  0  0  0  0  0  0  0  0  0
  154.7121  137.0070  162.5698 S   0  0  0  0  0  0  0  0  0  0  0  0
  153.8295  136.6776  164.1528 C   0  0  0  0  0  0  0  0  0  0  0  0
  153.7673  137.6491  161.6431 O   0  0  0  0  0  0  0  0  0  0  0  0
  155.3922  135.7686  162.1601 O   0  0  0  0  0  0  0  0  0  0  0  0
  156.5850  139.3462  164.8522 H   0  0  0  0  0  0  0  0  0  0  0  0
  156.0212  137.7079  165.1542 H   0  0  0  0  0  0  0  0  0  0  0  0
  154.8609  138.9782  164.7876 H   0  0  0  0  0  0  0  0  0  0  0  0
  156.9624  137.8168  162.8751 H   0  0  0  0  0  0  0  0  0  0  0  0
  153.9130  139.7312  162.7742 H   0  0  0  0  0  0  0  0  0  0  0  0
  153.7958  142.0546  162.1300 H   0  0  0  0  0  0  0  0  0  0  0  0
  155.2500  141.8384  161.1874 H   0  0  0  0  0  0  0  0  0  0  0  0
  152.2551  142.8605  160.3956 H   0  0  0  0  0  0  0  0  0  0  0  0
  150.9756  142.3676  158.3283 H   0  0  0  0  0  0  0  0  0  0  0  0
  149.9372  141.7753  156.9630 H   0  0  0  0  0  0  0  0  0  0  0  0
  151.1827  142.0963  155.7751 H   0  0  0  0  0  0  0  0  0  0  0  0
  148.8741  140.0844  155.5000 H   0  0  0  0  0  0  0  0  0  0  0  0
  149.0465  141.5983  154.6333 H   0  0  0  0  0  0  0  0  0  0  0  0
  150.4022  138.2777  154.9920 H   0  0  0  0  0  0  0  0  0  0  0  0
  151.6322  138.5360  153.7691 H   0  0  0  0  0  0  0  0  0  0  0  0
  152.8444  140.1330  155.2136 H   0  0  0  0  0  0  0  0  0  0  0  0
  152.5913  138.6304  156.0926 H   0  0  0  0  0  0  0  0  0  0  0  0
  154.5127  139.2472  159.6948 H   0  0  0  0  0  0  0  0  0  0  0  0
  152.9772  136.0265  163.9601 H   0  0  0  0  0  0  0  0  0  0  0  0
  153.4775  137.6159  164.5807 H   0  0  0  0  0  0  0  0  0  0  0  0
  154.5010  136.1819  164.8528 H   0  0  0  0  0  0  0  0  0  0  0  0
  1  2  1  0  0  0  0
  1 23  1  0  0  0  0
  1 24  1  0  0  0  0
  1 25  1  0  0  0  0
  2  3  1  0  0  0  0
  2 19  1  0  0  0  0
  2 26  1  0  0  0  0
  3  4  2  0  0  0  0
  3  5  1  0  0  0  0
  5  6  1  0  0  0  0
  5 27  1  0  0  0  0
  6  7  1  0  0  0  0
  6 28  1  0  0  0  0
  6 29  1  0  0  0  0
  7 18  1  0  0  0  0
  7  8  2  0  0  0  0
  8  9  1  0  0  0  0
  8 30  1  0  0  0  0
  9 10  2  0  0  0  0
  9 31  1  0  0  0  0
 10 11  1  0  0  0  0
 10 17  1  0  0  0  0
 11 16  1  0  0  0  0
 11 12  1  0  0  0  0
 12 13  1  0  0  0  0
 12 32  1  0  0  0  0
 12 33  1  0  0  0  0
 13 14  1  0  0  0  0
 13 34  1  0  0  0  0
 13 35  1  0  0  0  0
 14 15  1  0  0  0  0
 15 16  1  0  0  0  0
 15 36  1  0  0  0  0
 15 37  1  0  0  0  0
 16 38  1  0  0  0  0
 16 39  1  0  0  0  0
 17 18  2  0  0  0  0
 18 40  1  0  0  0  0
 19 20  1  0  0  0  0
 19 21  2  0  0  0  0
 19 22  2  0  0  0  0
 20 41  1  0  0  0  0
 20 42  1  0  0  0  0
 20 43  1  0  0  0  0
M  END
> <s_m_source_file>
AV-unprocessed.smi

> <i_m_source_file_index>
1453

> <i_lp_mmshare_version>
43012

> <i_f3d_flags>
0

> <s_epik_input>
W0NIM11TKD1PKSg9TylbQ0BIXShbQ0gzXSlDKD1PKVtOSF1bQ0gyXWMxW2NIXVtjSF1jKG5bY0hdMSlOMltDSDJdW0NIMl1PW0NIMl1bQ0gyXTI=

> <s_epik_cmdline>
J2VwaWtfcHl0aG9uJywgJy1waCcsICc3LjAnLCAnLXRuJywgJzgnLCAnLW1hJywgJzIwMCcsICctbWV0YWxfYmluZGluZycsICctaW1hZScsICc8aW5maWxlLm1hZT4nLCAnLW9tYWUnLCAnPG91dGZpbGUubWFlPic=

> <r_lp_tautomer_probability>
1

> <r_epik_Ionization_Penalty>
0.00349781

> <r_epik_Ionization_Penalty_Charging>
0

> <r_epik_Ionization_Penalty_Neutral>
0.00349781

> <r_epik_State_Penalty>
0.00248024

> <r_epik_Charging_Adjusted_Penalty>
0.00248024

> <i_epik_Tot_Q>
0

> <i_epik_Tot_abs_Q>
0

> <r_epik_Metal_State_Penalty>
-0

> <b_epik_Metal_Only>
0

> <s_lp_Force_Field>
OPLS_2005

> <r_lp_Energy>
14.1024

> <b_lp_Chiralities_Consistent>
1

> <s_lp_Variant>
AV-unprocessed.smi:1453-1

> <Gold.Version>
5.8.1

> <Gold.Id.Protein>
6NUR|6NUR_protein|mol2

> <Gold.PLP.Fitness>
44.4640

> <Gold.PLP.PLP>
-40.0848

> <Gold.PLP.part.hbond>
-2.7744

> <Gold.PLP.part.metal>
0.0000

> <Gold.PLP.part.buried>
-3.7032

> <Gold.PLP.part.nonpolar>
-34.0335

> <Gold.PLP.part.repulsive>
0.6051

> <Gold.PLP.ligand.clash>
0.0000

> <Gold.PLP.ligand.torsion>
1.0590

> <Gold.PLP.Chemscore.Hbond>
2.0000

> <Gold.PLP.Chemscore.CHOScore>
0.0000

> <Gold.PLP.Chemscore.Metal>
0.0000

> <Gold.Chemscore.Hbonds>
donor molecule, donor type, donor heavy atom, donor atom, acceptor molecule, acceptor atom, score
      P1  H  7989  7998       L1    14  0.80
      P1  H  7997  8010       L1    17  0.85

> <Gold.PLP.Chemscore.Internal.Correction>
0.4973

> <Gold.Rescore>
     Score         DG    S(hbond)    S(metal)    S(lipo)     H(rot)  DE(clash)    DE(int)     intcor
     11.59     -13.06       0.69        0.00      90.60       2.08       0.03       1.45       ----

> <Gold.Chemscore.Fitness>
11.5887

> <Gold.Chemscore.DG>
-13.0648

> <Gold.Chemscore.ZeroCoef>
-5.4800

> <Gold.Chemscore.Hbond>
0.6887

> <Gold.Chemscore.Metal>
0.0000

> <Gold.Chemscore.Lipo>
90.5981

> <Gold.Chemscore.Internal_Hbond>
0.0000

> <Gold.Chemscore.DEClash>
0.0296

> <Gold.Chemscore.DEInternal>
1.4465

> <Gold.Chemscore.Rot>
2.0764

> <Gold.Chemscore.Internal.Correction>
   9.000000E+99

> <Gold.Chemscore.Hbonds>
donor molecule, donor type, donor heavy atom, donor atom, acceptor molecule, acceptor atom, score
      P1  H  7989  7998       L1    14  0.10
      P1  H  7997  8010       L1    17  0.05

> <Gold.Chemscore.Hbond.Weighted>
-2.3003

> <Gold.Chemscore.Metal.Weighted>
-0.0000

> <Gold.Chemscore.Lipo.Weighted>
-10.6000

> <Gold.Chemscore.Internal_Hbond.Weighted>
0.0000

> <Gold.Chemscore.DEClash.Weighted>
0.0296

> <Gold.Chemscore.DEInternal.Weighted>
1.4465

> <Gold.Chemscore.Rot.Weighted>
5.3155

> <Gold.Chemscore.Internal.Correction.Weighted>
   9.000000E+99

> <Gold.Protein.RotatedTorsions>
[ 6907 6896 6895 6894 ] final   63.40 input  -60.11 | X-H torsion
[ 7974 7965 7964 7962 ] final  166.53 input  175.53 | X-H torsion
[ 8008 7997 7996 7995 ] final   38.54 input   59.86 | X-H torsion
[ 10167 10162 10161 10158 ] final  154.62 input  -65.29 | X-H torsion
[ 10718 10713 10712 10709 ] final  171.46 input   66.30 | X-H torsion
[ 10763 10752 10751 10750 ] final -128.10 input  -60.55 | X-H torsion
[ 11005 11000 10999 10996 ] final -153.70 input  -57.11 | X-H torsion

> <Gold.Protein.ActiveResidues>
 VAL166  LYS551  ARG553  GLY616  TRP617  ASP618  TYR619  PRO620  LYS621  CYS622 
 ASP623  PHE694  ASN695  SER759  ASP760  ASP761  ALA762  ILE779  LEU786  VAL792 
 PHE793  MET794  SER795  GLU796  ALA797  LYS798  CYS799  TRP800  GLU811  SER814 

> <Gold.Protein.RotatedAtoms>
  152.4250  134.5885  159.9967 H   0  0  0  0  0  0  0  0  0  0  0  0  # atno 6907 bound_to 6896
  151.6024  133.3349  159.3058 H   0  0  0  0  0  0  0  0  0  0  0  0  # atno 6908 bound_to 6896
  150.8139  134.7347  159.6778 H   0  0  0  0  0  0  0  0  0  0  0  0  # atno 6909 bound_to 6896
  144.7459  139.8628  143.6382 H   0  0  0  0  0  0  0  0  0  0  0  0  # atno 7974 bound_to 7965
  155.2219  140.3331  155.4314 H   0  0  0  0  0  0  0  0  0  0  0  0  # atno 8008 bound_to 7997
  156.2330  140.1859  156.7241 H   0  0  0  0  0  0  0  0  0  0  0  0  # atno 8009 bound_to 7997
  154.6010  140.0623  156.9354 H   0  0  0  0  0  0  0  0  0  0  0  0  # atno 8010 bound_to 7997
  139.4823  144.5170  151.7935 H   0  0  0  0  0  0  0  0  0  0  0  0  # atno 10167 bound_to 10162
  156.9932  131.0154  151.2851 H   0  0  0  0  0  0  0  0  0  0  0  0  # atno 10718 bound_to 10713
  154.8755  135.3939  154.3702 H   0  0  0  0  0  0  0  0  0  0  0  0  # atno 10763 bound_to 10752
  153.4463  135.7027  153.6142 H   0  0  0  0  0  0  0  0  0  0  0  0  # atno 10764 bound_to 10752
  153.4702  135.3792  155.2355 H   0  0  0  0  0  0  0  0  0  0  0  0  # atno 10765 bound_to 10752
  140.7054  134.3892  157.5204 H   0  0  0  0  0  0  0  0  0  0  0  0  # atno 11005 bound_to 11000
  146.1336  139.4376  143.0153 LP  0  0  0  0  0  0  0  0  0  0  0  0  # atno 17320 bound_to 7965
  145.7126  141.0101  143.1445 LP  0  0  0  0  0  0  0  0  0  0  0  0  # atno 17321 bound_to 7965
  140.4680  144.1628  150.5914 LP  0  0  0  0  0  0  0  0  0  0  0  0  # atno 17342 bound_to 10162
  140.4413  143.2525  151.9469 LP  0  0  0  0  0  0  0  0  0  0  0  0  # atno 17343 bound_to 10162
  157.5444  130.8141  149.8067 LP  0  0  0  0  0  0  0  0  0  0  0  0  # atno 17370 bound_to 10713
  156.0199  130.3799  150.1994 LP  0  0  0  0  0  0  0  0  0  0  0  0  # atno 17371 bound_to 10713
  139.8886  134.8853  156.2467 LP  0  0  0  0  0  0  0  0  0  0  0  0  # atno 17394 bound_to 11000
  141.0129  133.7085  156.1141 LP  0  0  0  0  0  0  0  0  0  0  0  0  # atno 17395 bound_to 11000

$$$$
