AV-unprocessed.smi:3341|AV-procd|sdf|12883|dock8
  -GOLD-   2272019283D 1   1.00000     0.00000
 Structure written by MMmdl.
 46 47  0  0  0  0  0  0  0  0  2 V2000
  152.8296  142.6050  162.0930 C   0  0  0  0  0  0  0  0  0  0  0  0
  153.2748  142.0303  160.7429 C   0  0  0  0  0  0  0  0  0  0  0  0
  152.5550  142.6334  159.6381 N   0  0  0  0  0  0  0  0  0  0  0  0
  151.7672  142.0103  158.6905 C   0  0  0  0  0  0  0  0  0  0  0  0
  151.3149  143.0074  157.8729 C   0  0  0  0  0  0  0  0  0  0  0  0
  150.4727  142.9263  156.7352 N   0  0  0  0  0  0  0  0  0  0  0  0
  150.0590  141.8150  156.1049 C   0  0  0  0  0  0  0  0  0  0  0  0
  150.3372  140.6634  156.4405 O   0  0  0  0  0  0  0  0  0  0  0  0
  149.2888  142.1098  155.0481 N   0  0  0  0  0  0  0  0  0  0  0  0
  148.6964  141.1269  154.1480 C   0  0  0  0  0  0  0  0  0  0  0  0
  147.1815  141.3538  153.9801 C   0  0  0  0  0  0  0  0  0  0  0  0
  146.4773  140.1451  153.4817 N   0  3  1  0  0  0  0  0  0  0  0  0
  147.1664  139.5399  152.3124 C   0  0  0  0  0  0  0  0  0  0  0  0
  146.3504  138.3762  151.7277 C   0  0  0  0  0  0  0  0  0  0  0  0
  146.0627  137.3158  152.7976 C   0  0  0  0  0  0  0  0  0  0  0  0
  145.3736  137.9593  154.0124 C   0  0  1  0  0  0  0  0  0  0  0  0
  145.0946  136.9247  155.1119 C   0  0  0  0  0  0  0  0  0  0  0  0
  146.2168  139.1360  154.5442 C   0  0  0  0  0  0  0  0  0  0  0  0
  151.8697  144.2092  158.3848 C   0  0  0  0  0  0  0  0  0  0  0  0
  152.6177  143.9752  159.4522 N   0  0  0  0  0  0  0  0  0  0  0  0
  153.3753  142.1365  162.9121 H   0  0  0  0  0  0  0  0  0  0  0  0
  151.7656  142.4353  162.2613 H   0  0  0  0  0  0  0  0  0  0  0  0
  153.0100  143.6794  162.1447 H   0  0  0  0  0  0  0  0  0  0  0  0
  154.3437  142.1906  160.5954 H   0  0  0  0  0  0  0  0  0  0  0  0
  153.1101  140.9523  160.7200 H   0  0  0  0  0  0  0  0  0  0  0  0
  151.6085  140.9419  158.6894 H   0  0  0  0  0  0  0  0  0  0  0  0
  150.1609  143.8088  156.3568 H   0  0  0  0  0  0  0  0  0  0  0  0
  149.1119  143.0830  154.8442 H   0  0  0  0  0  0  0  0  0  0  0  0
  149.2126  141.2153  153.1931 H   0  0  0  0  0  0  0  0  0  0  0  0
  148.8939  140.1185  154.5161 H   0  0  0  0  0  0  0  0  0  0  0  0
  146.7674  141.6267  154.9518 H   0  0  0  0  0  0  0  0  0  0  0  0
  146.9858  142.1972  153.3161 H   0  0  0  0  0  0  0  0  0  0  0  0
  147.3141  140.2939  151.5379 H   0  0  0  0  0  0  0  0  0  0  0  0
  148.1571  139.1934  152.6116 H   0  0  0  0  0  0  0  0  0  0  0  0
  145.4105  138.7537  151.3225 H   0  0  0  0  0  0  0  0  0  0  0  0
  146.8885  137.9264  150.8927 H   0  0  0  0  0  0  0  0  0  0  0  0
  145.4364  136.5271  152.3791 H   0  0  0  0  0  0  0  0  0  0  0  0
  146.9963  136.8427  153.1054 H   0  0  0  0  0  0  0  0  0  0  0  0
  144.4115  138.3559  153.6840 H   0  0  0  0  0  0  0  0  0  0  0  0
  146.0190  136.4860  155.4891 H   0  0  0  0  0  0  0  0  0  0  0  0
  144.4700  136.1131  154.7375 H   0  0  0  0  0  0  0  0  0  0  0  0
  144.5730  137.3778  155.9554 H   0  0  0  0  0  0  0  0  0  0  0  0
  147.1667  138.7719  154.9393 H   0  0  0  0  0  0  0  0  0  0  0  0
  145.6874  139.5980  155.3768 H   0  0  0  0  0  0  0  0  0  0  0  0
  151.7581  145.2216  158.0258 H   0  0  0  0  0  0  0  0  0  0  0  0
  145.5780  140.4580  153.1447 H   0  0  0  0  0  0  0  0  0  0  0  0
  1  2  1  0  0  0  0
  1 21  1  0  0  0  0
  1 22  1  0  0  0  0
  1 23  1  0  0  0  0
  2  3  1  0  0  0  0
  2 24  1  0  0  0  0
  2 25  1  0  0  0  0
  3 20  1  0  0  0  0
  3  4  1  0  0  0  0
  4  5  2  0  0  0  0
  4 26  1  0  0  0  0
  5  6  1  0  0  0  0
  5 19  1  0  0  0  0
  6  7  1  0  0  0  0
  6 27  1  0  0  0  0
  7  8  2  0  0  0  0
  7  9  1  0  0  0  0
  9 10  1  0  0  0  0
  9 28  1  0  0  0  0
 10 11  1  0  0  0  0
 10 29  1  0  0  0  0
 10 30  1  0  0  0  0
 11 12  1  0  0  0  0
 11 31  1  0  0  0  0
 11 32  1  0  0  0  0
 12 18  1  0  0  0  0
 12 13  1  0  0  0  0
 12 46  1  0  0  0  0
 13 14  1  0  0  0  0
 13 33  1  0  0  0  0
 13 34  1  0  0  0  0
 14 15  1  0  0  0  0
 14 35  1  0  0  0  0
 14 36  1  0  0  0  0
 15 16  1  0  0  0  0
 15 37  1  0  0  0  0
 15 38  1  0  0  0  0
 16 17  1  0  0  0  0
 16 18  1  0  0  0  0
 16 39  1  0  0  0  0
 17 40  1  0  0  0  0
 17 41  1  0  0  0  0
 17 42  1  0  0  0  0
 18 43  1  0  0  0  0
 18 44  1  0  0  0  0
 19 20  2  0  0  0  0
 19 45  1  0  0  0  0
M  CHG  1  12   1
M  END
> <s_m_source_file>
AV-unprocessed.smi

> <i_m_source_file_index>
3341

> <i_lp_mmshare_version>
43012

> <i_f3d_flags>
0

> <s_epik_input>
W0NIM11bQ0gyXW4xW2NIXWMoW2NIXW4xKVtOSF1DKD1PKVtOSF1bQ0gyXVtDSDJdTjJbQ0gyXVtDSDJdW0NIMl1bQ0BASF0oW0NIM10pW0NIMl0y

> <s_epik_cmdline>
J2VwaWtfcHl0aG9uJywgJy1waCcsICc3LjAnLCAnLXRuJywgJzgnLCAnLW1hJywgJzIwMCcsICctbWV0YWxfYmluZGluZycsICctaW1hZScsICc8aW5maWxlLm1hZT4nLCAnLW9tYWUnLCAnPG91dGZpbGUubWFlPic=

> <r_lp_tautomer_probability>
1

> <r_epik_Ionization_Penalty>
0.00203389

> <r_epik_Ionization_Penalty_Charging>
0.00188267

> <r_epik_Ionization_Penalty_Neutral>
0.000151224

> <r_epik_State_Penalty>
0.0012808

> <r_epik_Charging_Adjusted_Penalty>
0.00316346

> <i_epik_Tot_Q>
1

> <i_epik_Tot_abs_Q>
1

> <r_epik_Metal_State_Penalty>
-0

> <b_epik_Metal_Only>
0

> <s_lp_Force_Field>
OPLS_2005

> <r_lp_Energy>
20.2182

> <b_lp_Chiralities_Consistent>
1

> <s_lp_Variant>
AV-unprocessed.smi:3341-1

> <Gold.Version>
5.8.1

> <Gold.Id.Protein>
6NUR|6NUR_protein|mol2

> <Gold.PLP.Fitness>
52.5159

> <Gold.PLP.PLP>
-41.8961

> <Gold.PLP.part.hbond>
-3.0000

> <Gold.PLP.part.metal>
0.0000

> <Gold.PLP.part.buried>
-2.1358

> <Gold.PLP.part.nonpolar>
-38.4516

> <Gold.PLP.part.repulsive>
0.3079

> <Gold.PLP.ligand.clash>
0.0000

> <Gold.PLP.ligand.torsion>
0.2713

> <Gold.PLP.Chemscore.Hbond>
3.7120

> <Gold.PLP.Chemscore.CHOScore>
0.0000

> <Gold.PLP.Chemscore.Metal>
0.0000

> <Gold.Chemscore.Hbonds>
donor molecule, donor type, donor heavy atom, donor atom, acceptor molecule, acceptor atom, score
      L1  H     6    27       P1  8028  0.98
      L1  H     9    28       P1  8028  0.86
      L1  H    12    46       P1 10175  2.00

> <Gold.PLP.Chemscore.Internal.Correction>
0.0263

> <Gold.Rescore>
     Score         DG    S(hbond)    S(metal)    S(lipo)     H(rot)  DE(clash)    DE(int)     intcor
     19.86     -21.24       2.74        0.00      91.22       1.59       0.03       1.35       ----

> <Gold.Chemscore.Fitness>
19.8648

> <Gold.Chemscore.DG>
-21.2444

> <Gold.Chemscore.ZeroCoef>
-5.4800

> <Gold.Chemscore.Hbond>
2.7439

> <Gold.Chemscore.Metal>
0.0000

> <Gold.Chemscore.Lipo>
91.2177

> <Gold.Chemscore.Internal_Hbond>
0.0000

> <Gold.Chemscore.DEClash>
0.0290

> <Gold.Chemscore.DEInternal>
1.3506

> <Gold.Chemscore.Rot>
1.5909

> <Gold.Chemscore.Internal.Correction>
   9.000000E+99

> <Gold.Chemscore.Hbonds>
donor molecule, donor type, donor heavy atom, donor atom, acceptor molecule, acceptor atom, score
      L1  H     6    27       P1  8028  0.93
      L1  H     9    28       P1  8028  0.85
      L1  H    12    46       P1 10175  0.88

> <Gold.Chemscore.Hbond.Weighted>
-9.1647

> <Gold.Chemscore.Metal.Weighted>
-0.0000

> <Gold.Chemscore.Lipo.Weighted>
-10.6725

> <Gold.Chemscore.Internal_Hbond.Weighted>
0.0000

> <Gold.Chemscore.DEClash.Weighted>
0.0290

> <Gold.Chemscore.DEInternal.Weighted>
1.3506

> <Gold.Chemscore.Rot.Weighted>
4.0728

> <Gold.Chemscore.Internal.Correction.Weighted>
   9.000000E+99

> <Gold.Protein.RotatedTorsions>
[ 6907 6896 6895 6894 ] final   89.63 input  -60.11 | X-H torsion
[ 7974 7965 7964 7962 ] final   11.93 input  175.53 | X-H torsion
[ 8008 7997 7996 7995 ] final  175.54 input   59.86 | X-H torsion
[ 10167 10162 10161 10158 ] final   40.14 input  -65.29 | X-H torsion
[ 10718 10713 10712 10709 ] final -123.98 input   66.30 | X-H torsion
[ 10763 10752 10751 10750 ] final -127.13 input  -60.55 | X-H torsion
[ 11005 11000 10999 10996 ] final   -2.83 input  -57.11 | X-H torsion

> <Gold.Protein.ActiveResidues>
 VAL166  LYS551  ARG553  GLY616  TRP617  ASP618  TYR619  PRO620  LYS621  CYS622 
 ASP623  PHE694  ASN695  SER759  ASP760  ASP761  ALA762  ILE779  LEU786  VAL792 
 PHE793  MET794  SER795  GLU796  ALA797  LYS798  CYS799  TRP800  GLU811  SER814 

> <Gold.Protein.RotatedAtoms>
  152.5438  134.1936  159.8683 H   0  0  0  0  0  0  0  0  0  0  0  0  # atno 6907 bound_to 6896
  151.1930  133.4649  159.2602 H   0  0  0  0  0  0  0  0  0  0  0  0  # atno 6908 bound_to 6896
  151.1064  135.0014  159.8529 H   0  0  0  0  0  0  0  0  0  0  0  0  # atno 6909 bound_to 6896
  146.2361  139.9412  142.8483 H   0  0  0  0  0  0  0  0  0  0  0  0  # atno 7974 bound_to 7965
  156.0860  140.1406  156.9652 H   0  0  0  0  0  0  0  0  0  0  0  0  # atno 8008 bound_to 7997
  154.4613  140.0942  156.6948 H   0  0  0  0  0  0  0  0  0  0  0  0  # atno 8009 bound_to 7997
  155.4998  140.3450  155.4371 H   0  0  0  0  0  0  0  0  0  0  0  0  # atno 8010 bound_to 7997
  140.3770  144.2029  150.6131 H   0  0  0  0  0  0  0  0  0  0  0  0  # atno 10167 bound_to 10162
  156.1548  130.6560  150.9966 H   0  0  0  0  0  0  0  0  0  0  0  0  # atno 10718 bound_to 10713
  154.8750  135.3972  154.3544 H   0  0  0  0  0  0  0  0  0  0  0  0  # atno 10763 bound_to 10752
  153.4325  135.7025  153.6227 H   0  0  0  0  0  0  0  0  0  0  0  0  # atno 10764 bound_to 10752
  153.4842  135.3762  155.2428 H   0  0  0  0  0  0  0  0  0  0  0  0  # atno 10765 bound_to 10752
  140.6626  133.9307  155.8445 H   0  0  0  0  0  0  0  0  0  0  0  0  # atno 11005 bound_to 11000
  145.1950  140.9829  143.4188 LP  0  0  0  0  0  0  0  0  0  0  0  0  # atno 17320 bound_to 7965
  144.9823  139.3771  143.6256 LP  0  0  0  0  0  0  0  0  0  0  0  0  # atno 17321 bound_to 7965
  140.4975  143.2328  151.8727 LP  0  0  0  0  0  0  0  0  0  0  0  0  # atno 17342 bound_to 10162
  139.4798  144.5096  151.8950 LP  0  0  0  0  0  0  0  0  0  0  0  0  # atno 17343 bound_to 10162
  157.6686  131.0866  150.7668 LP  0  0  0  0  0  0  0  0  0  0  0  0  # atno 17370 bound_to 10713
  156.7733  130.4836  149.5414 LP  0  0  0  0  0  0  0  0  0  0  0  0  # atno 17371 bound_to 10713
  141.0453  134.0562  157.3851 LP  0  0  0  0  0  0  0  0  0  0  0  0  # atno 17394 bound_to 11000
  139.9008  135.0163  156.7257 LP  0  0  0  0  0  0  0  0  0  0  0  0  # atno 17395 bound_to 11000

$$$$
