AV-unprocessed.smi:2272|AV-procd|sdf|9163|dock5
  -GOLD-   2272012373D 1   1.00000     0.00000
 Structure written by MMmdl.
 41 42  0  0  0  0  0  0  0  0  1 V2000
  144.3044  141.7302  156.5508 C   0  0  0  0  0  0  0  0  0  0  0  0
  145.6814  141.5355  155.9413 C   0  0  0  0  0  0  0  0  0  0  0  0
  146.3942  140.4240  156.4007 N   0  0  0  0  0  0  0  0  0  0  0  0
  147.5772  140.1810  155.9391 C   0  0  0  0  0  0  0  0  0  0  0  0
  148.1762  141.0065  154.9742 N   0  0  0  0  0  0  0  0  0  0  0  0
  149.5313  140.6276  154.5428 C   0  0  0  0  0  0  0  0  0  0  0  0
  150.4898  140.4548  155.7436 C   0  0  1  0  0  0  0  0  0  0  0  0
  151.7756  140.1279  155.2559 O   0  0  0  0  0  0  0  0  0  0  0  0
  150.6293  141.7436  156.5667 C   0  0  0  0  0  0  0  0  0  0  0  0
  151.0899  141.4039  157.8666 O   0  0  0  0  0  0  0  0  0  0  0  0
  152.3848  141.9020  158.1697 C   0  0  0  0  0  0  0  0  0  0  0  0
  152.5060  142.4323  159.5892 C   0  0  0  0  0  0  0  0  0  0  0  0
  153.0450  141.6127  160.6035 C   0  0  0  0  0  0  0  0  0  0  0  0
  153.1549  142.0960  161.9219 C   0  0  0  0  0  0  0  0  0  0  0  0
  152.7221  143.3992  162.2329 C   0  0  0  0  0  0  0  0  0  0  0  0
  152.1773  144.2182  161.2253 C   0  0  0  0  0  0  0  0  0  0  0  0
  152.0662  143.7367  159.9061 C   0  0  0  0  0  0  0  0  0  0  0  0
  151.5365  144.5335  158.9471 F   0  0  0  0  0  0  0  0  0  0  0  0
  147.5549  142.1159  154.4788 C   0  0  0  0  0  0  0  0  0  0  0  0
  148.0981  142.8442  153.6459 O   0  0  0  0  0  0  0  0  0  0  0  0
  146.2079  142.3779  155.0109 C   0  0  0  0  0  0  0  0  0  0  0  0
  145.4798  143.6051  154.4764 C   0  0  0  0  0  0  0  0  0  0  0  0
  143.5367  141.7066  155.7770 H   0  0  0  0  0  0  0  0  0  0  0  0
  144.2492  142.6880  157.0690 H   0  0  0  0  0  0  0  0  0  0  0  0
  144.0742  140.9459  157.2731 H   0  0  0  0  0  0  0  0  0  0  0  0
  148.1784  139.3322  156.2695 H   0  0  0  0  0  0  0  0  0  0  0  0
  149.5302  139.7339  153.9151 H   0  0  0  0  0  0  0  0  0  0  0  0
  149.9084  141.4086  153.8801 H   0  0  0  0  0  0  0  0  0  0  0  0
  150.1562  139.6522  156.4030 H   0  0  0  0  0  0  0  0  0  0  0  0
  152.1736  139.5096  155.8495 H   0  0  0  0  0  0  0  0  0  0  0  0
  151.3524  142.4142  156.0992 H   0  0  0  0  0  0  0  0  0  0  0  0
  149.6741  142.2694  156.6088 H   0  0  0  0  0  0  0  0  0  0  0  0
  153.0945  141.0823  158.0564 H   0  0  0  0  0  0  0  0  0  0  0  0
  152.6743  142.6628  157.4429 H   0  0  0  0  0  0  0  0  0  0  0  0
  153.3789  140.6114  160.3743 H   0  0  0  0  0  0  0  0  0  0  0  0
  153.5708  141.4663  162.6946 H   0  0  0  0  0  0  0  0  0  0  0  0
  152.8059  143.7696  163.2439 H   0  0  0  0  0  0  0  0  0  0  0  0
  151.8427  145.2167  161.4648 H   0  0  0  0  0  0  0  0  0  0  0  0
  146.0461  144.5079  154.7075 H   0  0  0  0  0  0  0  0  0  0  0  0
  144.4815  143.7283  154.8929 H   0  0  0  0  0  0  0  0  0  0  0  0
  145.3757  143.5387  153.3929 H   0  0  0  0  0  0  0  0  0  0  0  0
  1  2  1  0  0  0  0
  1 23  1  0  0  0  0
  1 24  1  0  0  0  0
  1 25  1  0  0  0  0
  2 21  2  0  0  0  0
  2  3  1  0  0  0  0
  3  4  2  0  0  0  0
  4  5  1  0  0  0  0
  4 26  1  0  0  0  0
  5  6  1  0  0  0  0
  5 19  1  0  0  0  0
  6  7  1  0  0  0  0
  6 27  1  0  0  0  0
  6 28  1  0  0  0  0
  7  8  1  0  0  0  0
  7  9  1  0  0  0  0
  7 29  1  0  0  0  0
  8 30  1  0  0  0  0
  9 10  1  0  0  0  0
  9 31  1  0  0  0  0
  9 32  1  0  0  0  0
 10 11  1  0  0  0  0
 11 12  1  0  0  0  0
 11 33  1  0  0  0  0
 11 34  1  0  0  0  0
 12 17  1  0  0  0  0
 12 13  2  0  0  0  0
 13 14  1  0  0  0  0
 13 35  1  0  0  0  0
 14 15  2  0  0  0  0
 14 36  1  0  0  0  0
 15 16  1  0  0  0  0
 15 37  1  0  0  0  0
 16 17  2  0  0  0  0
 16 38  1  0  0  0  0
 17 18  1  0  0  0  0
 19 20  2  0  0  0  0
 19 21  1  0  0  0  0
 21 22  1  0  0  0  0
 22 39  1  0  0  0  0
 22 40  1  0  0  0  0
 22 41  1  0  0  0  0
M  END
> <s_m_source_file>
AV-unprocessed.smi

> <i_m_source_file_index>
2272

> <i_lp_mmshare_version>
43012

> <i_f3d_flags>
0

> <s_epik_input>
W0NIM11jMW5bY0hdbihjKD1PKWMxW0NIM10pW0NIMl1bQ0BIXShbT0hdKVtDSDJdT1tDSDJdYzJbY0hdW2NIXVtjSF1bY0hdYzJG

> <s_epik_cmdline>
J2VwaWtfcHl0aG9uJywgJy1waCcsICc3LjAnLCAnLXRuJywgJzgnLCAnLW1hJywgJzIwMCcsICctbWV0YWxfYmluZGluZycsICctaW1hZScsICc8aW5maWxlLm1hZT4nLCAnLW9tYWUnLCAnPG91dGZpbGUubWFlPic=

> <r_lp_tautomer_probability>
1

> <r_epik_Ionization_Penalty>
5.35985e-05

> <r_epik_Ionization_Penalty_Charging>
1.17753e-07

> <r_epik_Ionization_Penalty_Neutral>
5.34808e-05

> <r_epik_State_Penalty>
-0

> <r_epik_Charging_Adjusted_Penalty>
1.17753e-07

> <i_epik_Tot_Q>
0

> <i_epik_Tot_abs_Q>
0

> <r_epik_Metal_State_Penalty>
-0

> <b_epik_Metal_Only>
0

> <s_lp_Force_Field>
OPLS_2005

> <r_lp_Energy>
21.4702

> <b_lp_Chiralities_Consistent>
1

> <s_lp_Variant>
AV-unprocessed.smi:2272-2

> <Gold.Version>
5.8.1

> <Gold.Id.Protein>
6NUR|6NUR_protein|mol2

> <Gold.PLP.Fitness>
47.2583

> <Gold.PLP.PLP>
-44.7300

> <Gold.PLP.part.hbond>
-3.0000

> <Gold.PLP.part.metal>
0.0000

> <Gold.PLP.part.buried>
-2.5272

> <Gold.PLP.part.nonpolar>
-39.3512

> <Gold.PLP.part.repulsive>
2.4199

> <Gold.PLP.ligand.clash>
0.0000

> <Gold.PLP.ligand.torsion>
1.2276

> <Gold.PLP.Chemscore.Hbond>
1.6163

> <Gold.PLP.Chemscore.CHOScore>
0.0000

> <Gold.PLP.Chemscore.Metal>
0.0000

> <Gold.Chemscore.Hbonds>
donor molecule, donor type, donor heavy atom, donor atom, acceptor molecule, acceptor atom, score
      P1  H  7989  7998       L1     8  0.90
      P1  H  8022  8030       L1    20  0.75

> <Gold.PLP.Chemscore.Internal.Correction>
0.1346

> <Gold.Rescore>
     Score         DG    S(hbond)    S(metal)    S(lipo)     H(rot)  DE(clash)    DE(int)     intcor
     12.97     -15.84       1.44        0.00     106.25       2.69       1.81       1.06       ----

> <Gold.Chemscore.Fitness>
12.9675

> <Gold.Chemscore.DG>
-15.8381

> <Gold.Chemscore.ZeroCoef>
-5.4800

> <Gold.Chemscore.Hbond>
1.4379

> <Gold.Chemscore.Metal>
0.0000

> <Gold.Chemscore.Lipo>
106.2479

> <Gold.Chemscore.Internal_Hbond>
0.0000

> <Gold.Chemscore.DEClash>
1.8127

> <Gold.Chemscore.DEInternal>
1.0579

> <Gold.Chemscore.Rot>
2.6857

> <Gold.Chemscore.Internal.Correction>
   9.000000E+99

> <Gold.Chemscore.Hbonds>
donor molecule, donor type, donor heavy atom, donor atom, acceptor molecule, acceptor atom, score
      P1  H  7989  7998       L1     8  0.22
      P1  H  8011  8017       L1    20  0.03
      P1  H  8022  8030       L1    20  0.73

> <Gold.Chemscore.Hbond.Weighted>
-4.8026

> <Gold.Chemscore.Metal.Weighted>
-0.0000

> <Gold.Chemscore.Lipo.Weighted>
-12.4310

> <Gold.Chemscore.Internal_Hbond.Weighted>
0.0000

> <Gold.Chemscore.DEClash.Weighted>
1.8127

> <Gold.Chemscore.DEInternal.Weighted>
1.0579

> <Gold.Chemscore.Rot.Weighted>
6.8755

> <Gold.Chemscore.Internal.Correction.Weighted>
   9.000000E+99

> <Gold.Protein.RotatedTorsions>
[ 6907 6896 6895 6894 ] final  106.94 input  -60.11 | X-H torsion
[ 7974 7965 7964 7962 ] final  -79.81 input  175.53 | X-H torsion
[ 8008 7997 7996 7995 ] final -106.72 input   59.86 | X-H torsion
[ 10167 10162 10161 10158 ] final  -97.97 input  -65.29 | X-H torsion
[ 10718 10713 10712 10709 ] final  163.02 input   66.30 | X-H torsion
[ 10763 10752 10751 10750 ] final -116.63 input  -60.55 | X-H torsion
[ 11005 11000 10999 10996 ] final   79.74 input  -57.11 | X-H torsion

> <Gold.Protein.ActiveResidues>
 VAL166  LYS551  ARG553  GLY616  TRP617  ASP618  TYR619  PRO620  LYS621  CYS622 
 ASP623  PHE694  ASN695  SER759  ASP760  ASP761  ALA762  ILE779  LEU786  VAL792 
 PHE793  MET794  SER795  GLU796  ALA797  LYS798  CYS799  TRP800  GLU811  SER814 

> <Gold.Protein.RotatedAtoms>
  152.5174  133.9307  159.7578 H   0  0  0  0  0  0  0  0  0  0  0  0  # atno 6907 bound_to 6896
  150.9658  133.6388  159.2753 H   0  0  0  0  0  0  0  0  0  0  0  0  # atno 6908 bound_to 6896
  151.3616  135.0910  159.9489 H   0  0  0  0  0  0  0  0  0  0  0  0  # atno 6909 bound_to 6896
  145.5683  140.9470  143.1409 H   0  0  0  0  0  0  0  0  0  0  0  0  # atno 7974 bound_to 7965
  154.9188  140.0408  157.1986 H   0  0  0  0  0  0  0  0  0  0  0  0  # atno 8008 bound_to 7997
  154.8275  140.2893  155.5723 H   0  0  0  0  0  0  0  0  0  0  0  0  # atno 8009 bound_to 7997
  156.2984  140.2507  156.3194 H   0  0  0  0  0  0  0  0  0  0  0  0  # atno 8010 bound_to 7997
  140.2778  143.3301  152.0471 H   0  0  0  0  0  0  0  0  0  0  0  0  # atno 10167 bound_to 10162
  157.1144  131.0476  151.2443 H   0  0  0  0  0  0  0  0  0  0  0  0  # atno 10718 bound_to 10713
  154.8526  135.4339  154.1851 H   0  0  0  0  0  0  0  0  0  0  0  0  # atno 10763 bound_to 10752
  153.2932  135.6963  153.7279 H   0  0  0  0  0  0  0  0  0  0  0  0  # atno 10764 bound_to 10752
  153.6438  135.3463  155.3054 H   0  0  0  0  0  0  0  0  0  0  0  0  # atno 10765 bound_to 10752
  139.9161  134.7866  156.1819 H   0  0  0  0  0  0  0  0  0  0  0  0  # atno 11005 bound_to 11000
  144.7450  139.7345  143.7296 LP  0  0  0  0  0  0  0  0  0  0  0  0  # atno 17320 bound_to 7965
  146.1802  139.4992  142.9871 LP  0  0  0  0  0  0  0  0  0  0  0  0  # atno 17321 bound_to 7965
  139.4971  144.6612  151.6459 LP  0  0  0  0  0  0  0  0  0  0  0  0  # atno 17342 bound_to 10162
  140.5837  143.9902  150.6283 LP  0  0  0  0  0  0  0  0  0  0  0  0  # atno 17343 bound_to 10162
  157.4531  130.7610  149.7169 LP  0  0  0  0  0  0  0  0  0  0  0  0  # atno 17370 bound_to 10713
  155.9843  130.3993  150.3320 LP  0  0  0  0  0  0  0  0  0  0  0  0  # atno 17371 bound_to 10713
  141.0637  133.6829  156.2003 LP  0  0  0  0  0  0  0  0  0  0  0  0  # atno 17394 bound_to 11000
  140.6619  134.4958  157.5584 LP  0  0  0  0  0  0  0  0  0  0  0  0  # atno 17395 bound_to 11000

$$$$
