AV-unprocessed.smi:498|AV-procd|sdf|2729|dock10
  -GOLD-   2262023183D 1   1.00000     0.00000
 Structure written by MMmdl.
 43 45  0  0  0  0  0  0  0  0  2 V2000
  150.7956  137.0787  155.2961 C   0  0  0  0  0  0  0  0  0  0  0  0
  151.5860  137.8133  154.2115 C   0  0  0  0  0  0  0  0  0  0  0  0
  151.8165  139.1462  154.6353 O   0  0  0  0  0  0  0  0  0  0  0  0
  152.7991  139.2354  155.6518 C   0  0  0  0  0  0  0  0  0  0  0  0
  152.0972  139.4516  156.9997 C   0  0  0  0  0  0  0  0  0  0  0  0
  151.6989  140.8522  157.1886 N   0  0  0  0  0  0  0  0  0  0  0  0
  150.8765  141.6487  156.4432 C   0  0  0  0  0  0  0  0  0  0  0  0
  150.1403  141.2773  155.1941 C   0  0  0  0  0  0  0  0  0  0  0  0
  148.7985  141.8491  155.1605 N   0  0  0  0  0  0  0  0  0  0  0  0
  147.8139  141.4849  154.3233 C   0  0  0  0  0  0  0  0  0  0  0  0
  147.9022  140.5433  153.5363 O   0  0  0  0  0  0  0  0  0  0  0  0
  146.6056  142.3295  154.3522 C   0  0  0  0  0  0  0  0  0  0  0  0
  145.9080  142.9495  153.3488 C   0  0  0  0  0  0  0  0  0  0  0  0
  144.8174  143.6214  153.9668 C   0  0  0  0  0  0  0  0  0  0  0  0
  144.9297  143.3696  155.3037 C   0  0  0  0  0  0  0  0  0  0  0  0
  146.0146  142.5880  155.5549 O   0  0  0  0  0  0  0  0  0  0  0  0
  150.8499  142.8711  157.0467 N   0  3  0  0  0  0  0  0  0  0  0  0
  151.6638  142.8585  158.1805 C   0  0  0  0  0  0  0  0  0  0  0  0
  151.9554  143.8566  159.1053 C   0  0  0  0  0  0  0  0  0  0  0  0
  152.8367  143.5122  160.1513 C   0  0  0  0  0  0  0  0  0  0  0  0
  153.3909  142.2192  160.2491 C   0  0  0  0  0  0  0  0  0  0  0  0
  153.0873  141.2152  159.3058 C   0  0  0  0  0  0  0  0  0  0  0  0
  152.2142  141.5643  158.2762 C   0  0  0  0  0  0  0  0  0  0  0  0
  150.5943  136.0489  155.0011 H   0  0  0  0  0  0  0  0  0  0  0  0
  149.8378  137.5669  155.4790 H   0  0  0  0  0  0  0  0  0  0  0  0
  151.3471  137.0569  156.2361 H   0  0  0  0  0  0  0  0  0  0  0  0
  152.5353  137.3080  154.0286 H   0  0  0  0  0  0  0  0  0  0  0  0
  151.0216  137.8042  153.2780 H   0  0  0  0  0  0  0  0  0  0  0  0
  153.4084  138.3308  155.6762 H   0  0  0  0  0  0  0  0  0  0  0  0
  153.4677  140.0708  155.4397 H   0  0  0  0  0  0  0  0  0  0  0  0
  151.1925  138.8467  157.0564 H   0  0  0  0  0  0  0  0  0  0  0  0
  152.7263  139.1361  157.8327 H   0  0  0  0  0  0  0  0  0  0  0  0
  150.7373  141.5795  154.3324 H   0  0  0  0  0  0  0  0  0  0  0  0
  150.0496  140.1921  155.1408 H   0  0  0  0  0  0  0  0  0  0  0  0
  148.6261  142.6354  155.7697 H   0  0  0  0  0  0  0  0  0  0  0  0
  146.1478  142.9202  152.2961 H   0  0  0  0  0  0  0  0  0  0  0  0
  144.0486  144.2140  153.4934 H   0  0  0  0  0  0  0  0  0  0  0  0
  144.3540  143.6530  156.1726 H   0  0  0  0  0  0  0  0  0  0  0  0
  151.5331  144.8483  159.0323 H   0  0  0  0  0  0  0  0  0  0  0  0
  153.0938  144.2550  160.8928 H   0  0  0  0  0  0  0  0  0  0  0  0
  154.0631  141.9919  161.0640 H   0  0  0  0  0  0  0  0  0  0  0  0
  153.5180  140.2281  159.3879 H   0  0  0  0  0  0  0  0  0  0  0  0
  150.3143  143.6577  156.7028 H   0  0  0  0  0  0  0  0  0  0  0  0
  1  2  1  0  0  0  0
  1 24  1  0  0  0  0
  1 25  1  0  0  0  0
  1 26  1  0  0  0  0
  2  3  1  0  0  0  0
  2 27  1  0  0  0  0
  2 28  1  0  0  0  0
  3  4  1  0  0  0  0
  4  5  1  0  0  0  0
  4 29  1  0  0  0  0
  4 30  1  0  0  0  0
  5  6  1  0  0  0  0
  5 31  1  0  0  0  0
  5 32  1  0  0  0  0
  6 23  1  0  0  0  0
  6  7  1  0  0  0  0
  7  8  1  0  0  0  0
  7 17  2  0  0  0  0
  8  9  1  0  0  0  0
  8 33  1  0  0  0  0
  8 34  1  0  0  0  0
  9 10  1  0  0  0  0
  9 35  1  0  0  0  0
 10 11  2  0  0  0  0
 10 12  1  0  0  0  0
 12 16  1  0  0  0  0
 12 13  2  0  0  0  0
 13 14  1  0  0  0  0
 13 36  1  0  0  0  0
 14 15  2  0  0  0  0
 14 37  1  0  0  0  0
 15 16  1  0  0  0  0
 15 38  1  0  0  0  0
 17 18  1  0  0  0  0
 17 43  1  0  0  0  0
 18 23  2  0  0  0  0
 18 19  1  0  0  0  0
 19 20  2  0  0  0  0
 19 39  1  0  0  0  0
 20 21  1  0  0  0  0
 20 40  1  0  0  0  0
 21 22  2  0  0  0  0
 21 41  1  0  0  0  0
 22 23  1  0  0  0  0
 22 42  1  0  0  0  0
M  CHG  1  17   1
M  END
> <s_m_source_file>
AV-unprocessed.smi

> <i_m_source_file_index>
498

> <i_lp_mmshare_version>
43012

> <i_f3d_flags>
0

> <s_epik_input>
W0NIM11bQ0gyXU9bQ0gyXVtDSDJdbihjKGMxMilbY0hdW2NIXVtjSF1bY0hdMiljKG4xKVtDSDJdW05IXUMoPU8pYzNbY0hdW2NIXVtjSF1vMw==

> <s_epik_cmdline>
J2VwaWtfcHl0aG9uJywgJy1waCcsICc3LjAnLCAnLXRuJywgJzgnLCAnLW1hJywgJzIwMCcsICctbWV0YWxfYmluZGluZycsICctaW1hZScsICc8aW5maWxlLm1hZT4nLCAnLW9tYWUnLCAnPG91dGZpbGUubWFlPic=

> <r_epik_Ionization_Penalty>
1.29911

> <r_epik_Ionization_Penalty_Charging>
1.29908

> <r_epik_Ionization_Penalty_Neutral>
2.77772e-05

> <r_epik_State_Penalty>
1.37286

> <r_epik_Charging_Adjusted_Penalty>
2.67194

> <i_epik_Tot_Q>
1

> <i_epik_Tot_abs_Q>
1

> <r_epik_Metal_State_Penalty>
1.47523

> <b_epik_Metal_Only>
0

> <s_lp_Force_Field>
OPLS_2005

> <r_lp_Energy>
10.1123

> <b_lp_Chiralities_Consistent>
1

> <s_lp_Variant>
AV-unprocessed.smi:498-2

> <Gold.Version>
5.8.1

> <Gold.Id.Protein>
6NUR|6NUR_protein|mol2

> <Gold.PLP.Fitness>
61.0281

> <Gold.PLP.PLP>
-53.4632

> <Gold.PLP.part.hbond>
-2.8998

> <Gold.PLP.part.metal>
0.0000

> <Gold.PLP.part.buried>
-7.5616

> <Gold.PLP.part.nonpolar>
-44.3413

> <Gold.PLP.part.repulsive>
0.6296

> <Gold.PLP.ligand.clash>
0.0000

> <Gold.PLP.ligand.torsion>
1.7024

> <Gold.PLP.Chemscore.Hbond>
3.6240

> <Gold.PLP.Chemscore.CHOScore>
0.0000

> <Gold.PLP.Chemscore.Metal>
0.0000

> <Gold.Chemscore.Hbonds>
donor molecule, donor type, donor heavy atom, donor atom, acceptor molecule, acceptor atom, score
      L1  H     9    35       P1  8028  0.60
      L1  H    17    43       P1  8028  1.89
      P1  H  7989  7998       L1     3  0.93

> <Gold.PLP.Chemscore.Internal.Correction>
0.0976

> <Gold.Rescore>
     Score         DG    S(hbond)    S(metal)    S(lipo)     H(rot)  DE(clash)    DE(int)     intcor
     20.85     -23.58       2.57        0.00     126.05       2.04       1.08       1.65       ----

> <Gold.Chemscore.Fitness>
20.8492

> <Gold.Chemscore.DG>
-23.5754

> <Gold.Chemscore.ZeroCoef>
-5.4800

> <Gold.Chemscore.Hbond>
2.5684

> <Gold.Chemscore.Metal>
0.0000

> <Gold.Chemscore.Lipo>
126.0473

> <Gold.Chemscore.Internal_Hbond>
0.0000

> <Gold.Chemscore.DEClash>
1.0770

> <Gold.Chemscore.DEInternal>
1.6491

> <Gold.Chemscore.Rot>
2.0432

> <Gold.Chemscore.Internal.Correction>
   9.000000E+99

> <Gold.Chemscore.Hbonds>
donor molecule, donor type, donor heavy atom, donor atom, acceptor molecule, acceptor atom, score
      L1  H     9    35       P1  8028  0.59
      L1  H    17    43       P1  8028  0.90
      P1  H  7989  7998       L1     3  0.71

> <Gold.Chemscore.Hbond.Weighted>
-8.5784

> <Gold.Chemscore.Metal.Weighted>
-0.0000

> <Gold.Chemscore.Lipo.Weighted>
-14.7475

> <Gold.Chemscore.Internal_Hbond.Weighted>
0.0000

> <Gold.Chemscore.DEClash.Weighted>
1.0770

> <Gold.Chemscore.DEInternal.Weighted>
1.6491

> <Gold.Chemscore.Rot.Weighted>
5.2306

> <Gold.Chemscore.Internal.Correction.Weighted>
   9.000000E+99

> <Gold.Protein.RotatedTorsions>
[ 6907 6896 6895 6894 ] final  145.18 input  -60.11 | X-H torsion
[ 7974 7965 7964 7962 ] final  122.09 input  175.53 | X-H torsion
[ 8008 7997 7996 7995 ] final -146.91 input   59.86 | X-H torsion
[ 10167 10162 10161 10158 ] final -140.07 input  -65.29 | X-H torsion
[ 10718 10713 10712 10709 ] final   12.05 input   66.30 | X-H torsion
[ 10763 10752 10751 10750 ] final -142.98 input  -60.55 | X-H torsion
[ 11005 11000 10999 10996 ] final -139.09 input  -57.11 | X-H torsion

> <Gold.Protein.ActiveResidues>
 VAL166  LYS551  ARG553  GLY616  TRP617  ASP618  TYR619  PRO620  LYS621  CYS622 
 ASP623  PHE694  ASN695  SER759  ASP760  ASP761  ALA762  ILE779  LEU786  VAL792 
 PHE793  MET794  SER795  GLU796  ALA797  LYS798  CYS799  TRP800  GLU811  SER814 

> <Gold.Protein.RotatedAtoms>
  152.1842  133.4728  159.4973 H   0  0  0  0  0  0  0  0  0  0  0  0  # atno 6907 bound_to 6896
  150.6939  134.1795  159.4252 H   0  0  0  0  0  0  0  0  0  0  0  0  # atno 6908 bound_to 6896
  151.9708  135.0077  160.0603 H   0  0  0  0  0  0  0  0  0  0  0  0  # atno 6909 bound_to 6896
  145.1117  139.3448  143.4760 H   0  0  0  0  0  0  0  0  0  0  0  0  # atno 7974 bound_to 7965
  155.5671  140.0630  157.2815 H   0  0  0  0  0  0  0  0  0  0  0  0  # atno 8008 bound_to 7997
  154.4372  140.1875  156.0886 H   0  0  0  0  0  0  0  0  0  0  0  0  # atno 8009 bound_to 7997
  156.0404  140.3296  155.7241 H   0  0  0  0  0  0  0  0  0  0  0  0  # atno 8010 bound_to 7997
  139.8318  143.7437  152.2666 H   0  0  0  0  0  0  0  0  0  0  0  0  # atno 10167 bound_to 10162
  157.0045  130.6092  149.5700 H   0  0  0  0  0  0  0  0  0  0  0  0  # atno 10718 bound_to 10713
  154.8488  135.3480  154.6114 H   0  0  0  0  0  0  0  0  0  0  0  0  # atno 10763 bound_to 10752
  153.6723  135.6984  153.5148 H   0  0  0  0  0  0  0  0  0  0  0  0  # atno 10764 bound_to 10752
  153.2733  135.4286  155.0965 H   0  0  0  0  0  0  0  0  0  0  0  0  # atno 10765 bound_to 10752
  140.8553  134.2235  157.4738 H   0  0  0  0  0  0  0  0  0  0  0  0  # atno 11005 bound_to 11000
  146.3526  140.1038  142.8607 LP  0  0  0  0  0  0  0  0  0  0  0  0  # atno 17320 bound_to 7965
  145.0840  140.9240  143.4808 LP  0  0  0  0  0  0  0  0  0  0  0  0  # atno 17321 bound_to 7965
  139.7647  144.7495  151.0312 LP  0  0  0  0  0  0  0  0  0  0  0  0  # atno 17342 bound_to 10162
  140.7806  143.4711  151.0144 LP  0  0  0  0  0  0  0  0  0  0  0  0  # atno 17343 bound_to 10162
  156.0159  130.5253  150.8132 LP  0  0  0  0  0  0  0  0  0  0  0  0  # atno 17370 bound_to 10713
  157.5366  131.0939  150.9884 LP  0  0  0  0  0  0  0  0  0  0  0  0  # atno 17371 bound_to 10713
  139.8705  134.9703  156.4697 LP  0  0  0  0  0  0  0  0  0  0  0  0  # atno 17394 bound_to 11000
  140.8744  133.7964  155.9399 LP  0  0  0  0  0  0  0  0  0  0  0  0  # atno 17395 bound_to 11000

$$$$
