AV-unprocessed.smi:170|AV-procd|sdf|1410|dock8
  -GOLD-   2262019173D 1   1.00000     0.00000
 Structure written by MMmdl.
 57 61  0  0  0  0  0  0  0  0  1 V2000
  150.6709  142.3653  155.6409 O   0  0  0  0  0  0  0  0  0  0  0  0
  150.9178  142.0051  156.9872 C   0  0  2  0  0  0  0  0  0  0  0  0
  149.5959  141.7493  157.7371 C   0  0  0  0  0  0  0  0  0  0  0  0
  149.2561  140.3385  157.7872 N   0  0  0  0  0  0  0  0  0  0  0  0
  148.0785  139.7618  157.3697 C   0  0  0  0  0  0  0  0  0  0  0  0
  148.0070  138.4686  157.5285 N   0  0  0  0  0  0  0  0  0  0  0  0
  149.2267  138.1284  158.1027 C   0  0  0  0  0  0  0  0  0  0  0  0
  149.8155  136.9103  158.5482 C   0  0  0  0  0  0  0  0  0  0  0  0
  149.2186  135.6976  158.5075 N   0  0  0  0  0  0  0  0  0  0  0  0
  149.7532  134.8944  157.4145 C   0  0  0  0  0  0  0  0  0  0  0  0
  149.2127  133.4606  157.4964 C   0  0  0  0  0  0  0  0  0  0  0  0
  147.7919  133.5001  157.4845 O   0  0  0  0  0  0  0  0  0  0  0  0
  147.2687  134.2091  158.6026 C   0  0  0  0  0  0  0  0  0  0  0  0
  147.7523  135.6781  158.5853 C   0  0  1  0  0  0  0  0  0  0  0  0
  147.2137  136.4706  159.8059 C   0  0  0  0  0  0  0  0  0  0  0  0
  147.7584  136.0029  161.1577 C   0  0  0  0  0  0  0  0  0  0  0  0
  147.3983  134.5962  161.6679 C   0  0  0  0  0  0  0  0  0  0  0  0
  146.3096  135.2342  162.5325 C   0  0  0  0  0  0  0  0  0  0  0  0
  147.0943  136.5443  162.4342 C   0  0  0  0  0  0  0  0  0  0  0  0
  151.0705  136.9594  159.0583 N   0  0  0  0  0  0  0  0  0  0  0  0
  151.7100  138.1295  159.1480 C   0  0  0  0  0  0  0  0  0  0  0  0
  151.2858  139.3433  158.7888 N   0  0  0  0  0  0  0  0  0  0  0  0
  150.0276  139.2937  158.2640 C   0  0  0  0  0  0  0  0  0  0  0  0
  151.7996  143.0681  157.6725 C   0  0  1  0  0  0  0  0  0  0  0  0
  151.1969  144.4786  157.7886 C   0  0  0  0  0  0  0  0  0  0  0  0
  151.4173  144.8519  159.2463 C   0  0  0  0  0  0  0  0  0  0  0  0
  152.4748  143.8578  159.7115 C   0  0  0  0  0  0  0  0  0  0  0  0
  152.1407  142.6796  158.9979 O   0  0  0  0  0  0  0  0  0  0  0  0
  150.2584  143.2158  155.6319 H   0  0  0  0  0  0  0  0  0  0  0  0
  151.4821  141.0723  156.9581 H   0  0  0  0  0  0  0  0  0  0  0  0
  149.6647  142.1209  158.7601 H   0  0  0  0  0  0  0  0  0  0  0  0
  148.7743  142.2893  157.2651 H   0  0  0  0  0  0  0  0  0  0  0  0
  147.2677  140.3353  156.9445 H   0  0  0  0  0  0  0  0  0  0  0  0
  149.4729  135.3424  156.4598 H   0  0  0  0  0  0  0  0  0  0  0  0
  150.8433  134.8808  157.4564 H   0  0  0  0  0  0  0  0  0  0  0  0
  149.5603  132.8774  156.6437 H   0  0  0  0  0  0  0  0  0  0  0  0
  149.5701  132.9579  158.3965 H   0  0  0  0  0  0  0  0  0  0  0  0
  146.1820  134.1589  158.5447 H   0  0  0  0  0  0  0  0  0  0  0  0
  147.5617  133.7110  159.5284 H   0  0  0  0  0  0  0  0  0  0  0  0
  147.3667  136.1324  157.6737 H   0  0  0  0  0  0  0  0  0  0  0  0
  147.4352  137.5296  159.6693 H   0  0  0  0  0  0  0  0  0  0  0  0
  146.1263  136.4081  159.8420 H   0  0  0  0  0  0  0  0  0  0  0  0
  148.8359  136.1570  161.2226 H   0  0  0  0  0  0  0  0  0  0  0  0
  147.0217  133.9051  160.9137 H   0  0  0  0  0  0  0  0  0  0  0  0
  148.1958  134.1454  162.2609 H   0  0  0  0  0  0  0  0  0  0  0  0
  145.3423  135.2799  162.0287 H   0  0  0  0  0  0  0  0  0  0  0  0
  146.2252  134.8245  163.5391 H   0  0  0  0  0  0  0  0  0  0  0  0
  147.7993  136.6752  163.2568 H   0  0  0  0  0  0  0  0  0  0  0  0
  146.4768  137.4315  162.2903 H   0  0  0  0  0  0  0  0  0  0  0  0
  152.7029  138.0874  159.5713 H   0  0  0  0  0  0  0  0  0  0  0  0
  152.7384  143.1467  157.1213 H   0  0  0  0  0  0  0  0  0  0  0  0
  151.7207  145.1671  157.1247 H   0  0  0  0  0  0  0  0  0  0  0  0
  150.1382  144.5206  157.5315 H   0  0  0  0  0  0  0  0  0  0  0  0
  151.7236  145.8896  159.3807 H   0  0  0  0  0  0  0  0  0  0  0  0
  150.4960  144.6962  159.8086 H   0  0  0  0  0  0  0  0  0  0  0  0
  153.4749  144.1885  159.4271 H   0  0  0  0  0  0  0  0  0  0  0  0
  152.4572  143.6954  160.7891 H   0  0  0  0  0  0  0  0  0  0  0  0
  1  2  1  0  0  0  0
  1 29  1  0  0  0  0
  2  3  1  0  0  0  0
  2 24  1  0  0  0  0
  2 30  1  0  0  0  0
  3  4  1  0  0  0  0
  3 31  1  0  0  0  0
  3 32  1  0  0  0  0
  4 23  1  0  0  0  0
  4  5  1  0  0  0  0
  5  6  2  0  0  0  0
  5 33  1  0  0  0  0
  6  7  1  0  0  0  0
  7 23  2  0  0  0  0
  7  8  1  0  0  0  0
  8  9  1  0  0  0  0
  8 20  2  0  0  0  0
  9 14  1  0  0  0  0
  9 10  1  0  0  0  0
 10 11  1  0  0  0  0
 10 34  1  0  0  0  0
 10 35  1  0  0  0  0
 11 12  1  0  0  0  0
 11 36  1  0  0  0  0
 11 37  1  0  0  0  0
 12 13  1  0  0  0  0
 13 14  1  0  0  0  0
 13 38  1  0  0  0  0
 13 39  1  0  0  0  0
 14 15  1  0  0  0  0
 14 40  1  0  0  0  0
 15 16  1  0  0  0  0
 15 41  1  0  0  0  0
 15 42  1  0  0  0  0
 16 19  1  0  0  0  0
 16 17  1  0  0  0  0
 16 43  1  0  0  0  0
 17 18  1  0  0  0  0
 17 44  1  0  0  0  0
 17 45  1  0  0  0  0
 18 19  1  0  0  0  0
 18 46  1  0  0  0  0
 18 47  1  0  0  0  0
 19 48  1  0  0  0  0
 19 49  1  0  0  0  0
 20 21  1  0  0  0  0
 21 22  2  0  0  0  0
 21 50  1  0  0  0  0
 22 23  1  0  0  0  0
 24 28  1  0  0  0  0
 24 25  1  0  0  0  0
 24 51  1  0  0  0  0
 25 26  1  0  0  0  0
 25 52  1  0  0  0  0
 25 53  1  0  0  0  0
 26 27  1  0  0  0  0
 26 54  1  0  0  0  0
 26 55  1  0  0  0  0
 27 28  1  0  0  0  0
 27 56  1  0  0  0  0
 27 57  1  0  0  0  0
M  END
> <s_m_source_file>
AV-unprocessed.smi

> <i_m_source_file_index>
170

> <i_lp_mmshare_version>
43012

> <i_f3d_flags>
0

> <s_epik_input>
TzFbQ0gyXVtDSDJdW0NIMl1bQ0BIXTFbQ0BIXShbT0hdKVtDSDJdbihbY0hdbjIpYyhjMjMpbltjSF1uYzNONFtDSDJdW0NIMl1PW0NIMl1bQ0BIXTRbQ0gyXVtDSF01W0NIMl1bQ0gyXVtDSDJdNQ==

> <s_epik_cmdline>
J2VwaWtfcHl0aG9uJywgJy1waCcsICc3LjAnLCAnLXRuJywgJzgnLCAnLW1hJywgJzIwMCcsICctbWV0YWxfYmluZGluZycsICctaW1hZScsICc8aW5maWxlLm1hZT4nLCAnLW9tYWUnLCAnPG91dGZpbGUubWFlPic=

> <r_lp_tautomer_probability>
1

> <r_epik_Ionization_Penalty>
4.98275e-05

> <r_epik_Ionization_Penalty_Charging>
0

> <r_epik_Ionization_Penalty_Neutral>
4.98275e-05

> <r_epik_State_Penalty>
-0

> <r_epik_Charging_Adjusted_Penalty>
0

> <i_epik_Tot_Q>
0

> <i_epik_Tot_abs_Q>
0

> <r_epik_Metal_State_Penalty>
-0

> <b_epik_Metal_Only>
0

> <s_lp_Force_Field>
OPLS_2005

> <r_lp_Energy>
54.4618

> <b_lp_Chiralities_Consistent>
1

> <s_lp_Variant>
AV-unprocessed.smi:170-5

> <Gold.Version>
5.8.1

> <Gold.Id.Protein>
6NUR|6NUR_protein|mol2

> <Gold.PLP.Fitness>
48.4294

> <Gold.PLP.PLP>
-44.5336

> <Gold.PLP.part.hbond>
-2.4272

> <Gold.PLP.part.metal>
0.0000

> <Gold.PLP.part.buried>
-6.8834

> <Gold.PLP.part.nonpolar>
-35.3984

> <Gold.PLP.part.repulsive>
0.0000

> <Gold.PLP.ligand.clash>
0.0000

> <Gold.PLP.ligand.torsion>
1.2136

> <Gold.PLP.Chemscore.Hbond>
2.0000

> <Gold.PLP.Chemscore.CHOScore>
0.0000

> <Gold.PLP.Chemscore.Metal>
0.0000

> <Gold.Chemscore.Hbonds>
donor molecule, donor type, donor heavy atom, donor atom, acceptor molecule, acceptor atom, score
      L1  H     1    29       P1  8028  1.00
      P1  H  6896  6907       L1    20  1.00

> <Gold.PLP.Chemscore.Internal.Correction>
0.3230

> <Gold.Rescore>
     Score         DG    S(hbond)    S(metal)    S(lipo)     H(rot)  DE(clash)    DE(int)     intcor
     16.14     -18.24       1.89        0.00     112.41       2.61       0.24       1.87       ----

> <Gold.Chemscore.Fitness>
16.1377

> <Gold.Chemscore.DG>
-18.2411

> <Gold.Chemscore.ZeroCoef>
-5.4800

> <Gold.Chemscore.Hbond>
1.8868

> <Gold.Chemscore.Metal>
0.0000

> <Gold.Chemscore.Lipo>
112.4118

> <Gold.Chemscore.Internal_Hbond>
0.0000

> <Gold.Chemscore.DEClash>
0.2367

> <Gold.Chemscore.DEInternal>
1.8666

> <Gold.Chemscore.Rot>
2.6144

> <Gold.Chemscore.Internal.Correction>
   9.000000E+99

> <Gold.Chemscore.Hbonds>
donor molecule, donor type, donor heavy atom, donor atom, acceptor molecule, acceptor atom, score
      L1  H     1    29       P1  8028  0.93
      P1  H  6896  6907       L1    20  0.24

> <Gold.Chemscore.Hbond.Weighted>
-6.3018

> <Gold.Chemscore.Metal.Weighted>
-0.0000

> <Gold.Chemscore.Lipo.Weighted>
-13.1522

> <Gold.Chemscore.Internal_Hbond.Weighted>
0.0000

> <Gold.Chemscore.DEClash.Weighted>
0.2367

> <Gold.Chemscore.DEInternal.Weighted>
1.8666

> <Gold.Chemscore.Rot.Weighted>
6.6929

> <Gold.Chemscore.Internal.Correction.Weighted>
   9.000000E+99

> <Gold.Protein.RotatedTorsions>
[ 6907 6896 6895 6894 ] final  -23.51 input  -60.11 | X-H torsion
[ 7974 7965 7964 7962 ] final  -58.68 input  175.53 | X-H torsion
[ 8008 7997 7996 7995 ] final   32.07 input   59.86 | X-H torsion
[ 10167 10162 10161 10158 ] final  131.09 input  -65.29 | X-H torsion
[ 10718 10713 10712 10709 ] final   76.90 input   66.30 | X-H torsion
[ 10763 10752 10751 10750 ] final  139.39 input  -60.55 | X-H torsion
[ 11005 11000 10999 10996 ] final  140.96 input  -57.11 | X-H torsion

> <Gold.Protein.ActiveResidues>
 VAL166  LYS551  ARG553  GLY616  TRP617  ASP618  TYR619  PRO620  LYS621  CYS622 
 ASP623  PHE694  ASN695  SER759  ASP760  ASP761  ALA762  ILE779  LEU786  VAL792 
 PHE793  MET794  SER795  GLU796  ALA797  LYS798  CYS799  TRP800  GLU811  SER814 

> <Gold.Protein.RotatedAtoms>
  151.2030  135.0450  159.8879 H   0  0  0  0  0  0  0  0  0  0  0  0  # atno 6907 bound_to 6896
  152.5431  134.0829  159.8253 H   0  0  0  0  0  0  0  0  0  0  0  0  # atno 6908 bound_to 6896
  151.0972  133.5223  159.2644 H   0  0  0  0  0  0  0  0  0  0  0  0  # atno 6909 bound_to 6896
  145.8365  140.8446  143.0057 H   0  0  0  0  0  0  0  0  0  0  0  0  # atno 7974 bound_to 7965
  155.1166  140.3244  155.4508 H   0  0  0  0  0  0  0  0  0  0  0  0  # atno 8008 bound_to 7997
  156.2675  140.2034  156.6237 H   0  0  0  0  0  0  0  0  0  0  0  0  # atno 8009 bound_to 7997
  154.6715  140.0536  157.0158 H   0  0  0  0  0  0  0  0  0  0  0  0  # atno 8010 bound_to 7997
  139.5400  144.6721  151.4657 H   0  0  0  0  0  0  0  0  0  0  0  0  # atno 10167 bound_to 10162
  157.6691  130.9796  150.1563 H   0  0  0  0  0  0  0  0  0  0  0  0  # atno 10718 bound_to 10713
  153.9054  135.3017  155.3448 H   0  0  0  0  0  0  0  0  0  0  0  0  # atno 10763 bound_to 10752
  154.7650  135.4915  153.9539 H   0  0  0  0  0  0  0  0  0  0  0  0  # atno 10764 bound_to 10752
  153.1222  135.6785  153.9418 H   0  0  0  0  0  0  0  0  0  0  0  0  # atno 10765 bound_to 10752
  140.0366  134.9326  157.0764 H   0  0  0  0  0  0  0  0  0  0  0  0  # atno 11005 bound_to 11000
  144.6736  140.0748  143.7471 LP  0  0  0  0  0  0  0  0  0  0  0  0  # atno 17320 bound_to 7965
  145.9513  139.2736  143.1210 LP  0  0  0  0  0  0  0  0  0  0  0  0  # atno 17321 bound_to 7965
  140.6625  143.8468  150.6904 LP  0  0  0  0  0  0  0  0  0  0  0  0  # atno 17342 bound_to 10162
  140.1867  143.4070  152.1893 LP  0  0  0  0  0  0  0  0  0  0  0  0  # atno 17343 bound_to 10162
  156.2350  130.3685  149.8401 LP  0  0  0  0  0  0  0  0  0  0  0  0  # atno 17370 bound_to 10713
  156.6217  130.8629  151.3477 LP  0  0  0  0  0  0  0  0  0  0  0  0  # atno 17371 bound_to 10713
  140.4138  134.1953  155.7163 LP  0  0  0  0  0  0  0  0  0  0  0  0  # atno 17394 bound_to 11000
  141.1860  133.8311  157.1083 LP  0  0  0  0  0  0  0  0  0  0  0  0  # atno 17395 bound_to 11000

$$$$
