#       Name:                AV-unprocessed.smi:1933
#       Creating user name   scv26
#       Creation time:       Fri Mar 27 09:56:38 2020


#       File generated by GOLD software.
#

@<TRIPOS>MOLECULE
AV-unprocessed.smi:1933
    55    57     1
SMALL
NO_CHARGES


@<TRIPOS>ATOM
      1 ****        -2.2964   0.4295   1.2093 O.2            1 S1                 0.0000
      2 ****        -2.0056   1.0020   0.1589 C.2            1 S1                 0.0000
      3 ****        -1.2529   0.4493  -0.8038 N.am           1 S1                 0.0000
      4 ****        -0.6764  -0.8916  -0.7690 C.3            1 S1                 0.0000
      5 ****         0.8783  -0.8939  -0.7913 C.3            1 S1                 0.0000
      6 ****         1.5391  -0.2354   0.4553 C.3            1 S1                 0.0000
      7 ****         1.3998   1.2846   0.5671 C.3            1 S1                 0.0000
      8 ****         2.7400   1.7712   1.1263 C.3            1 S1                 0.0000
      9 ****         3.4628   0.5924   1.4407 O.3            1 S1                 0.0000
     10 ****         3.0616  -0.4002   0.5161 C.3            1 S1                 0.0000
     11 ****         1.4224  -2.2731  -0.9828 N.4            1 S1                 1.0000
     12 ****         0.9415  -3.3064  -0.0306 C.3            1 S1                 0.0000
     13 ****         1.7366  -4.6071  -0.2288 C.3            1 S1                 0.0000
     14 ****         1.6004  -5.0449  -1.5759 O.3            1 S1                 0.0000
     15 ****         2.1170  -4.0980  -2.5041 C.3            1 S1                 0.0000
     16 ****         1.3482  -2.7715  -2.3778 C.3            1 S1                 0.0000
     17 ****        -2.3639   2.2559  -0.1669 N.am           1 S1                 0.0000
     18 ****        -3.0451   3.2062   0.6376 C.ar           1 S1                 0.0000
     19 ****        -4.0834   2.7974   1.5133 C.ar           1 S1                 0.0000
     20 ****        -4.7552   3.7642   2.2858 C.ar           1 S1                 0.0000
     21 ****        -4.3838   5.1140   2.1563 C.ar           1 S1                 0.0000
     22 ****        -3.3578   5.4349   1.2490 C.ar           1 S1                 0.0000
     23 ****        -2.7119   4.5110   0.5062 N.ar           1 S1                 0.0000
     24 ****        -1.0665   1.0006  -1.6289 H              1 S1                 0.0000
     25 ****        -1.0426  -1.4401   0.0995 H              1 S1                 0.0000
     26 ****        -1.0674  -1.4151  -1.6407 H              1 S1                 0.0000
     27 ****         1.2006  -0.3126  -1.6567 H              1 S1                 0.0000
     28 ****         1.1220  -0.6742   1.3629 H              1 S1                 0.0000
     29 ****         1.2125   1.7526  -0.3999 H              1 S1                 0.0000
     30 ****         0.5815   1.5556   1.2340 H              1 S1                 0.0000
     31 ****         3.2868   2.3399   0.3727 H              1 S1                 0.0000
     32 ****         2.6213   2.4016   2.0080 H              1 S1                 0.0000
     33 ****         3.3673  -1.3920   0.8505 H              1 S1                 0.0000
     34 ****         3.5233  -0.2054  -0.4538 H              1 S1                 0.0000
     35 ****         1.0538  -2.9629   0.9973 H              1 S1                 0.0000
     36 ****        -0.1180  -3.5083  -0.1914 H              1 S1                 0.0000
     37 ****         2.7900  -4.4620   0.0164 H              1 S1                 0.0000
     38 ****         1.3586  -5.3843   0.4355 H              1 S1                 0.0000
     39 ****         3.1837  -3.9471  -2.3308 H              1 S1                 0.0000
     40 ****         2.0119  -4.4985  -3.5125 H              1 S1                 0.0000
     41 ****         0.3086  -2.9199  -2.6711 H              1 S1                 0.0000
     42 ****         1.7752  -2.0371  -3.0617 H              1 S1                 0.0000
     43 ****        -1.9779   2.6185  -1.0260 H              1 S1                 0.0000
     44 ****        -4.3807   1.7628   1.5961 H              1 S1                 0.0000
     45 ****        -5.5458   3.4741   2.9620 H              1 S1                 0.0000
     46 ****        -4.8766   5.8836   2.7319 H              1 S1                 0.0000
     47 ****        -3.0475   6.4605   1.1139 H              1 S1                 0.0000
     48 ****         2.4114  -2.1809  -0.7988 H              1 S1                 0.0000
     49 ****        -1.9669  -0.4990   1.3805 LP             1 S1                 0.0000
     50 ****        -2.8621   0.8930   1.8913 LP             1 S1                 0.0000
     51 ****         3.2512   0.2986   2.3729 LP             1 S1                 0.0000
     52 ****         4.4452   0.7603   1.3591 LP             1 S1                 0.0000
     53 ****         0.6304  -5.1905  -1.7706 LP             1 S1                 0.0000
     54 ****         2.0954  -5.9068  -1.6860 LP             1 S1                 0.0000
     55 ****        -1.9953   4.7879  -0.1339 LP             1 S1                 0.0000
@<TRIPOS>BOND
    1    1    2 2     
    2    2    3 am    
    3    2   17 am    
    4    3    4 1     
    5    3   24 1     
    6    4    5 1     
    7    4   25 1     
    8    4   26 1     
    9    5    6 1     
   10    5   11 1     
   11    5   27 1     
   12    6   10 1     
   13    6    7 1     
   14    6   28 1     
   15    7    8 1     
   16    7   29 1     
   17    7   30 1     
   18    8    9 1     
   19    8   31 1     
   20    8   32 1     
   21    9   10 1     
   22   10   33 1     
   23   10   34 1     
   24   11   16 1     
   25   11   12 1     
   26   11   48 1     
   27   12   13 1     
   28   12   35 1     
   29   12   36 1     
   30   13   14 1     
   31   13   37 1     
   32   13   38 1     
   33   14   15 1     
   34   15   16 1     
   35   15   39 1     
   36   15   40 1     
   37   16   41 1     
   38   16   42 1     
   39   17   18 1     
   40   17   43 1     
   41   18   23 ar    
   42   18   19 ar    
   43   19   20 ar    
   44   19   44 1     
   45   20   21 ar    
   46   20   45 1     
   47   21   22 ar    
   48   21   46 1     
   49   22   23 ar    
   50   22   47 1     
   51    1   49 1     
   52    1   50 1     
   53    9   51 1     
   54    9   52 1     
   55   14   53 1     
   56   14   54 1     
   57   23   55 1     
@<TRIPOS>SUBSTRUCTURE
      1 S1             1
@<TRIPOS>SET
LONE_PAIRS      STATIC     ATOMS    <user>   **** ""
7 49 50 51 52 53 54 55
DONOR_HYDROGENS      STATIC     ATOMS    <user>   **** ""
3 24 48 43
ATOM$BLUE        STATIC     ATOMS    COLORGROUP SYSTEM
7 49 50 51 52 53 54 55
ATOM$RED        STATIC     ATOMS    COLORGROUP SYSTEM
3 24 48 43
