AV-unprocessed.smi:2448|AV-procd|sdf|9656|dock6
  -GOLD-   2272013293D 1   1.00000     0.00000
 Structure written by MMmdl.
 38 39  0  0  0  0  0  0  0  0  2 V2000
  146.4093  135.8418  151.5947 O   0  0  0  0  0  0  0  0  0  0  0  0
  146.1023  134.7457  152.4391 C   0  0  2  0  0  0  0  0  0  0  0  0
  146.7515  134.9980  153.8141 C   0  0  0  0  0  0  0  0  0  0  0  0
  148.2175  134.7971  153.7752 N   0  3  0  0  0  0  0  0  0  0  0  0
  148.9166  134.9769  155.0697 C   0  0  2  0  0  0  0  0  0  0  0  0
  150.3365  135.5496  154.8571 C   0  0  0  0  0  0  0  0  0  0  0  0
  150.3954  137.0652  154.9156 C   0  0  0  0  0  0  0  0  0  0  0  0
  151.3728  137.7195  155.6940 C   0  0  0  0  0  0  0  0  0  0  0  0
  151.3995  139.1287  155.6928 C   0  0  0  0  0  0  0  0  0  0  0  0
  150.5362  139.8851  154.9821 N   0  0  0  0  0  0  0  0  0  0  0  0
  149.5980  139.2525  154.2455 C   0  0  0  0  0  0  0  0  0  0  0  0
  149.4856  137.8492  154.1769 C   0  0  0  0  0  0  0  0  0  0  0  0
  148.9542  133.6369  155.8295 C   0  0  0  0  0  0  0  0  0  0  0  0
  147.7215  133.3043  156.2131 F   0  0  0  0  0  0  0  0  0  0  0  0
  149.4387  132.6683  155.0518 F   0  0  0  0  0  0  0  0  0  0  0  0
  149.7171  133.7442  156.9170 F   0  0  0  0  0  0  0  0  0  0  0  0
  146.6400  133.4692  151.7714 C   0  0  0  0  0  0  0  0  0  0  0  0
  145.7219  133.1331  150.5917 C   0  0  0  0  0  0  0  0  0  0  0  0
  144.0433  133.6366  151.0449 S   0  0  0  0  0  0  0  0  0  0  0  0
  144.5760  134.5588  152.5108 C   0  0  0  0  0  0  0  0  0  0  0  0
  147.3425  135.8580  151.4445 H   0  0  0  0  0  0  0  0  0  0  0  0
  146.5316  136.0147  154.1392 H   0  0  0  0  0  0  0  0  0  0  0  0
  146.3204  134.3308  154.5621 H   0  0  0  0  0  0  0  0  0  0  0  0
  148.3804  133.8502  153.4620 H   0  0  0  0  0  0  0  0  0  0  0  0
  148.3465  135.6761  155.6842 H   0  0  0  0  0  0  0  0  0  0  0  0
  151.0112  135.1614  155.6208 H   0  0  0  0  0  0  0  0  0  0  0  0
  150.7387  135.2115  153.9012 H   0  0  0  0  0  0  0  0  0  0  0  0
  152.0912  137.1608  156.2760 H   0  0  0  0  0  0  0  0  0  0  0  0
  152.1380  139.6614  156.2735 H   0  0  0  0  0  0  0  0  0  0  0  0
  148.9193  139.8826  153.6901 H   0  0  0  0  0  0  0  0  0  0  0  0
  148.7204  137.3901  153.5678 H   0  0  0  0  0  0  0  0  0  0  0  0
  147.6800  133.5690  151.4579 H   0  0  0  0  0  0  0  0  0  0  0  0
  146.6042  132.6456  152.4862 H   0  0  0  0  0  0  0  0  0  0  0  0
  146.0199  133.7004  149.7096 H   0  0  0  0  0  0  0  0  0  0  0  0
  145.7570  132.0749  150.3320 H   0  0  0  0  0  0  0  0  0  0  0  0
  144.3143  133.9536  153.3789 H   0  0  0  0  0  0  0  0  0  0  0  0
  144.0366  135.5026  152.5975 H   0  0  0  0  0  0  0  0  0  0  0  0
  148.6234  135.4275  153.0986 H   0  0  0  0  0  0  0  0  0  0  0  0
  1  2  1  0  0  0  0
  1 21  1  0  0  0  0
  2 20  1  0  0  0  0
  2  3  1  0  0  0  0
  2 17  1  0  0  0  0
  3  4  1  0  0  0  0
  3 22  1  0  0  0  0
  3 23  1  0  0  0  0
  4  5  1  0  0  0  0
  4 24  1  0  0  0  0
  4 38  1  0  0  0  0
  5  6  1  0  0  0  0
  5 13  1  0  0  0  0
  5 25  1  0  0  0  0
  6  7  1  0  0  0  0
  6 26  1  0  0  0  0
  6 27  1  0  0  0  0
  7 12  1  0  0  0  0
  7  8  2  0  0  0  0
  8  9  1  0  0  0  0
  8 28  1  0  0  0  0
  9 10  2  0  0  0  0
  9 29  1  0  0  0  0
 10 11  1  0  0  0  0
 11 12  2  0  0  0  0
 11 30  1  0  0  0  0
 12 31  1  0  0  0  0
 13 14  1  0  0  0  0
 13 15  1  0  0  0  0
 13 16  1  0  0  0  0
 17 18  1  0  0  0  0
 17 32  1  0  0  0  0
 17 33  1  0  0  0  0
 18 19  1  0  0  0  0
 18 34  1  0  0  0  0
 18 35  1  0  0  0  0
 19 20  1  0  0  0  0
 20 36  1  0  0  0  0
 20 37  1  0  0  0  0
M  CHG  1   4   1
M  END
> <s_m_source_file>
AV-unprocessed.smi

> <i_m_source_file_index>
2448

> <i_lp_mmshare_version>
43012

> <i_f3d_flags>
0

> <s_epik_input>
W0NIMl0xU1tDSDJdW0NIMl1bQ0BAXTEoW09IXSlbQ0gyXVtOSF1bQ0BASF0oQyhGKShGKUYpW0NIMl1jMltjSF1bY0hdbltjSF1bY0hdMg==

> <s_epik_cmdline>
J2VwaWtfcHl0aG9uJywgJy1waCcsICc3LjAnLCAnLXRuJywgJzgnLCAnLW1hJywgJzIwMCcsICctbWV0YWxfYmluZGluZycsICctaW1hZScsICc8aW5maWxlLm1hZT4nLCAnLW9tYWUnLCAnPG91dGZpbGUubWFlPic=

> <r_epik_Ionization_Penalty>
1.19945

> <r_epik_Ionization_Penalty_Charging>
1.19892

> <r_epik_Ionization_Penalty_Neutral>
0.000532129

> <r_epik_State_Penalty>
0.752927

> <r_epik_Charging_Adjusted_Penalty>
1.95185

> <i_epik_Tot_Q>
1

> <i_epik_Tot_abs_Q>
1

> <r_epik_Metal_State_Penalty>
0.804507

> <b_epik_Metal_Only>
0

> <s_lp_Force_Field>
OPLS_2005

> <r_lp_Energy>
23.2993

> <b_lp_Chiralities_Consistent>
1

> <s_lp_Variant>
AV-unprocessed.smi:2448-6

> <Gold.Version>
5.8.1

> <Gold.Id.Protein>
6NUR|6NUR_protein|mol2

> <Gold.PLP.Fitness>
40.2111

> <Gold.PLP.PLP>
-27.9598

> <Gold.PLP.part.hbond>
-3.0000

> <Gold.PLP.part.metal>
0.0000

> <Gold.PLP.part.buried>
1.1187

> <Gold.PLP.part.nonpolar>
-26.8851

> <Gold.PLP.part.repulsive>
0.0689

> <Gold.PLP.ligand.clash>
0.0000

> <Gold.PLP.ligand.torsion>
1.2631

> <Gold.PLP.Chemscore.Hbond>
4.0000

> <Gold.PLP.Chemscore.CHOScore>
0.6643

> <Gold.PLP.Chemscore.Metal>
0.0000

> <Gold.Chemscore.Hbonds>
donor molecule, donor type, donor heavy atom, donor atom, acceptor molecule, acceptor atom, score
      L1  H     1    21       P1  7948  1.00
      L1  H     4    38       P1  7948  1.79
      P1  H  7989  7998       L1    10  0.84
      L1  C    11    30       P1  7957  0.48

> <Gold.PLP.Chemscore.Internal.Correction>
0.7846

> <Gold.Rescore>
     Score         DG    S(hbond)    S(metal)    S(lipo)     H(rot)  DE(clash)    DE(int)     intcor
     12.86     -16.00       2.32        0.00      75.82       2.39       1.16       1.99       ----

> <Gold.Chemscore.Fitness>
12.8636

> <Gold.Chemscore.DG>
-16.0045

> <Gold.Chemscore.ZeroCoef>
-5.4800

> <Gold.Chemscore.Hbond>
2.3243

> <Gold.Chemscore.Metal>
0.0000

> <Gold.Chemscore.Lipo>
75.8188

> <Gold.Chemscore.Internal_Hbond>
0.0000

> <Gold.Chemscore.DEClash>
1.1552

> <Gold.Chemscore.DEInternal>
1.9857

> <Gold.Chemscore.Rot>
2.3866

> <Gold.Chemscore.Internal.Correction>
   9.000000E+99

> <Gold.Chemscore.Hbonds>
donor molecule, donor type, donor heavy atom, donor atom, acceptor molecule, acceptor atom, score
      L1  H     1    21       P1  7948  0.98
      L1  H     4    38       P1  7948  0.79
      P1  H  7989  7998       L1    10  0.16

> <Gold.Chemscore.Hbond.Weighted>
-7.7633

> <Gold.Chemscore.Metal.Weighted>
-0.0000

> <Gold.Chemscore.Lipo.Weighted>
-8.8708

> <Gold.Chemscore.Internal_Hbond.Weighted>
0.0000

> <Gold.Chemscore.DEClash.Weighted>
1.1552

> <Gold.Chemscore.DEInternal.Weighted>
1.9857

> <Gold.Chemscore.Rot.Weighted>
6.1096

> <Gold.Chemscore.Internal.Correction.Weighted>
   9.000000E+99

> <Gold.Protein.RotatedTorsions>
[ 6907 6896 6895 6894 ] final  -10.37 input  -60.11 | X-H torsion
[ 7974 7965 7964 7962 ] final  -86.34 input  175.53 | X-H torsion
[ 8008 7997 7996 7995 ] final   -7.14 input   59.86 | X-H torsion
[ 10167 10162 10161 10158 ] final -143.68 input  -65.29 | X-H torsion
[ 10718 10713 10712 10709 ] final -157.48 input   66.30 | X-H torsion
[ 10763 10752 10751 10750 ] final -125.91 input  -60.55 | X-H torsion
[ 11005 11000 10999 10996 ] final   98.72 input  -57.11 | X-H torsion

> <Gold.Protein.ActiveResidues>
 VAL166  LYS551  ARG553  GLY616  TRP617  ASP618  TYR619  PRO620  LYS621  CYS622 
 ASP623  PHE694  ASN695  SER759  ASP760  ASP761  ALA762  ILE779  LEU786  VAL792 
 PHE793  MET794  SER795  GLU796  ALA797  LYS798  CYS799  TRP800  GLU811  SER814 

> <Gold.Protein.RotatedAtoms>
  151.4030  135.0974  159.9561 H   0  0  0  0  0  0  0  0  0  0  0  0  # atno 6907 bound_to 6896
  152.5044  133.8870  159.7385 H   0  0  0  0  0  0  0  0  0  0  0  0  # atno 6908 bound_to 6896
  150.9348  133.6668  159.2831 H   0  0  0  0  0  0  0  0  0  0  0  0  # atno 6909 bound_to 6896
  145.4812  140.9557  143.1863 H   0  0  0  0  0  0  0  0  0  0  0  0  # atno 7974 bound_to 7965
  154.5868  140.2415  155.7976 H   0  0  0  0  0  0  0  0  0  0  0  0  # atno 8008 bound_to 7997
  156.2219  140.2995  155.9927 H   0  0  0  0  0  0  0  0  0  0  0  0  # atno 8009 bound_to 7997
  155.2444  140.0408  157.2969 H   0  0  0  0  0  0  0  0  0  0  0  0  # atno 8010 bound_to 7997
  139.7970  143.7886  152.2655 H   0  0  0  0  0  0  0  0  0  0  0  0  # atno 10167 bound_to 10162
  156.5408  130.8562  151.2748 H   0  0  0  0  0  0  0  0  0  0  0  0  # atno 10718 bound_to 10713
  154.8740  135.4013  154.3344 H   0  0  0  0  0  0  0  0  0  0  0  0  # atno 10763 bound_to 10752
  153.4153  135.7022  153.6336 H   0  0  0  0  0  0  0  0  0  0  0  0  # atno 10764 bound_to 10752
  153.5022  135.3725  155.2515 H   0  0  0  0  0  0  0  0  0  0  0  0  # atno 10765 bound_to 10752
  139.8772  134.9062  156.4499 H   0  0  0  0  0  0  0  0  0  0  0  0  # atno 11005 bound_to 11000
  144.7888  139.6372  143.7122 LP  0  0  0  0  0  0  0  0  0  0  0  0  # atno 17320 bound_to 7965
  146.2340  139.5868  142.9536 LP  0  0  0  0  0  0  0  0  0  0  0  0  # atno 17321 bound_to 7965
  139.7995  144.7379  150.9845 LP  0  0  0  0  0  0  0  0  0  0  0  0  # atno 17342 bound_to 10162
  140.7820  143.4360  151.0623 LP  0  0  0  0  0  0  0  0  0  0  0  0  # atno 17343 bound_to 10162
  157.7405  130.9852  150.2385 LP  0  0  0  0  0  0  0  0  0  0  0  0  # atno 17370 bound_to 10713
  156.2973  130.3753  149.7784 LP  0  0  0  0  0  0  0  0  0  0  0  0  # atno 17371 bound_to 10713
  140.8939  133.7828  155.9603 LP  0  0  0  0  0  0  0  0  0  0  0  0  # atno 17394 bound_to 11000
  140.8724  134.2711  157.5184 LP  0  0  0  0  0  0  0  0  0  0  0  0  # atno 17395 bound_to 11000

$$$$
