#       Name:                AV-unprocessed.smi:1383
#       Creating user name   scv26
#       Creation time:       Fri Mar 27 05:23:43 2020


#       File generated by GOLD software.
#

@<TRIPOS>MOLECULE
AV-unprocessed.smi:1383
    36    36     1
SMALL
NO_CHARGES


@<TRIPOS>ATOM
      1 ****        -3.3835   0.1875   2.3096 C.3            1 S1                 0.0000
      2 ****        -3.6279  -0.7805   1.1411 C.3            1 S1                 0.0000
      3 ****        -2.9304  -0.3750  -0.1761 C.3            1 S1                 0.0000
      4 ****        -3.3597  -1.2957  -1.3315 C.3            1 S1                 0.0000
      5 ****        -1.3998  -0.3766  -0.0385 C.2            1 S1                 0.0000
      6 ****        -0.8119  -1.4297   0.2111 O.2            1 S1                 0.0000
      7 ****        -0.7952   0.8151  -0.2033 N.am           1 S1                 0.0000
      8 ****         0.5892   1.1179  -0.1308 C.2            1 S1                 0.0000
      9 ****         1.5465   0.2186   0.1222 N.2            1 S1                 0.0000
     10 ****         2.8237   0.7899   0.1268 C.2            1 S1                 0.0000
     11 ****         4.0295  -0.0660   0.3906 C.3            1 S1                 0.0000
     12 ****         4.4513  -0.8158  -0.8759 C.2            1 S1                 0.0000
     13 ****         4.9621  -0.0925  -1.8767 N.am           1 S1                 0.0000
     14 ****         4.3288  -2.0366  -0.9469 O.2            1 S1                 0.0000
     15 ****         2.8113   2.1428  -0.1154 C.2            1 S1                 0.0000
     16 ****         1.1969   2.7477  -0.3728 S.3            1 S1                 0.0000
     17 ****        -3.9514  -0.1187   3.1883 H              1 S1                 0.0000
     18 ****        -3.6923   1.2010   2.0524 H              1 S1                 0.0000
     19 ****        -2.3320   0.2183   2.5957 H              1 S1                 0.0000
     20 ****        -3.3192  -1.7849   1.4347 H              1 S1                 0.0000
     21 ****        -4.7029  -0.8399   0.9672 H              1 S1                 0.0000
     22 ****        -3.2525   0.6365  -0.4300 H              1 S1                 0.0000
     23 ****        -2.8513  -1.0331  -2.2602 H              1 S1                 0.0000
     24 ****        -4.4316  -1.2170  -1.5147 H              1 S1                 0.0000
     25 ****        -3.1385  -2.3417  -1.1152 H              1 S1                 0.0000
     26 ****        -1.4006   1.5980  -0.4021 H              1 S1                 0.0000
     27 ****         4.8659   0.5411   0.7395 H              1 S1                 0.0000
     28 ****         3.8218  -0.7858   1.1836 H              1 S1                 0.0000
     29 ****         5.2619  -0.5466  -2.7270 H              1 S1                 0.0000
     30 ****         5.0545   0.9077  -1.7737 H              1 S1                 0.0000
     31 ****         3.6529   2.8179  -0.1603 H              1 S1                 0.0000
     32 ****        -1.3304  -2.2774   0.3230 LP             1 S1                 0.0000
     33 ****         0.1840  -1.4370   0.3018 LP             1 S1                 0.0000
     34 ****         1.3695  -0.7514   0.2890 LP             1 S1                 0.0000
     35 ****         3.9515  -2.5470  -0.1742 LP             1 S1                 0.0000
     36 ****         4.6065  -2.5195  -1.7774 LP             1 S1                 0.0000
@<TRIPOS>BOND
    1    1    2 1     
    2    1   17 1     
    3    1   18 1     
    4    1   19 1     
    5    2    3 1     
    6    2   20 1     
    7    2   21 1     
    8    3    4 1     
    9    3    5 1     
   10    3   22 1     
   11    4   23 1     
   12    4   24 1     
   13    4   25 1     
   14    5    6 2     
   15    5    7 am    
   16    7    8 1     
   17    7   26 1     
   18    8   16 1     
   19    8    9 2     
   20    9   10 1     
   21   10   11 1     
   22   10   15 2     
   23   11   12 1     
   24   11   27 1     
   25   11   28 1     
   26   12   13 am    
   27   12   14 2     
   28   13   29 1     
   29   13   30 1     
   30   15   16 1     
   31   15   31 1     
   32    6   32 1     
   33    6   33 1     
   34    9   34 1     
   35   14   35 1     
   36   14   36 1     
@<TRIPOS>SUBSTRUCTURE
      1 S1             1
@<TRIPOS>SET
LONE_PAIRS      STATIC     ATOMS    <user>   **** ""
5 32 33 34 35 36
DONOR_HYDROGENS      STATIC     ATOMS    <user>   **** ""
3 26 29 30
ATOM$BLUE        STATIC     ATOMS    COLORGROUP SYSTEM
5 32 33 34 35 36
ATOM$RED        STATIC     ATOMS    COLORGROUP SYSTEM
3 26 29 30
