#       Name:                AV-unprocessed.smi:544
#       Creating user name   scv26
#       Creation time:       Thu Mar 26 23:37:25 2020


#       File generated by GOLD software.
#

@<TRIPOS>MOLECULE
AV-unprocessed.smi:544
    56    58     1
SMALL
NO_CHARGES


@<TRIPOS>ATOM
      1 ****        -4.7692   1.5151  -3.2109 C.3            1 S1                 0.0000
      2 ****        -4.1688   0.4327  -2.3111 C.3            1 S1                 0.0000
      3 ****        -2.7586   0.5747  -2.3004 O.3            1 S1                 0.0000
      4 ****        -2.1177  -0.3898  -1.4827 C.3            1 S1                 0.0000
      5 ****        -0.5990  -0.1558  -1.5429 C.3            1 S1                 0.0000
      6 ****         0.1343  -1.0039  -0.6066 N.pl3          1 S1                 0.0000
      7 ****         0.7078  -0.6726   0.5876 C.2            1 S1                 0.0000
      8 ****         0.6591   0.6129   1.1466 N.pl3          1 S1                 0.0000
      9 ****        -0.4993   1.5053   1.2420 C.3            1 S1                 0.0000
     10 ****        -0.1804   2.9233   0.7356 C.3            1 S1                 0.0000
     11 ****         0.9920   3.5230   1.5207 C.3            1 S1                 0.0000
     12 ****         2.1850   2.5534   1.5087 C.3            1 S1                 0.0000
     13 ****         3.3492   3.0833   2.3562 C.3            1 S1                 0.0000
     14 ****         1.7327   1.1569   1.9822 C.3            1 S1                 0.0000
     15 ****         1.3605  -1.6787   1.1760 N.2            1 S1                 0.0000
     16 ****         1.1796  -2.7366   0.3017 C.2            1 S1                 0.0000
     17 ****         0.4559  -2.3555  -0.7835 C.2            1 S1                 0.0000
     18 ****         0.1313  -3.2604  -1.9102 C.2            1 S1                 0.0000
     19 ****        -0.5033  -2.8620  -2.8846 O.2            1 S1                 0.0000
     20 ****         0.6188  -4.5266  -1.7152 N.pl3          1 S1                -1.0000
     21 ****         1.3474  -4.9556  -0.6270 C.2            1 S1                 0.0000
     22 ****         1.7488  -6.1161  -0.5297 O.2            1 S1                 0.0000
     23 ****         1.6415  -4.0785   0.3832 N.am           1 S1                 0.0000
     24 ****         2.4187  -4.5050   1.5504 C.3            1 S1                 0.0000
     25 ****        -5.8557   1.4347  -3.2438 H              1 S1                 0.0000
     26 ****        -4.3957   1.4272  -4.2313 H              1 S1                 0.0000
     27 ****        -4.5176   2.5111  -2.8456 H              1 S1                 0.0000
     28 ****        -4.5650   0.5289  -1.2992 H              1 S1                 0.0000
     29 ****        -4.4450  -0.5553  -2.6823 H              1 S1                 0.0000
     30 ****        -2.4842  -0.3105  -0.4595 H              1 S1                 0.0000
     31 ****        -2.3668  -1.3930  -1.8279 H              1 S1                 0.0000
     32 ****        -0.2284  -0.3424  -2.5505 H              1 S1                 0.0000
     33 ****        -0.3626   0.8877  -1.3526 H              1 S1                 0.0000
     34 ****        -1.3495   1.0989   0.7034 H              1 S1                 0.0000
     35 ****        -0.8147   1.5527   2.2851 H              1 S1                 0.0000
     36 ****         0.0657   2.8974  -0.3261 H              1 S1                 0.0000
     37 ****        -1.0596   3.5608   0.8337 H              1 S1                 0.0000
     38 ****         1.2763   4.4859   1.0952 H              1 S1                 0.0000
     39 ****         0.6806   3.7137   2.5487 H              1 S1                 0.0000
     40 ****         2.5394   2.4617   0.4806 H              1 S1                 0.0000
     41 ****         3.0608   3.1913   3.4022 H              1 S1                 0.0000
     42 ****         3.6823   4.0583   1.9993 H              1 S1                 0.0000
     43 ****         4.2042   2.4078   2.3145 H              1 S1                 0.0000
     44 ****         1.3961   1.1961   3.0191 H              1 S1                 0.0000
     45 ****         2.5894   0.4826   1.9636 H              1 S1                 0.0000
     46 ****         1.9033  -5.3081   2.0786 H              1 S1                 0.0000
     47 ****         2.5836  -3.6988   2.2644 H              1 S1                 0.0000
     48 ****         3.3989  -4.8723   1.2435 H              1 S1                 0.0000
     49 ****        -2.5315   1.4863  -1.9578 LP             1 S1                 0.0000
     50 ****        -2.4201   0.4765  -3.2362 LP             1 S1                 0.0000
     51 ****         1.8606  -1.6698   2.0419 LP             1 S1                 0.0000
     52 ****        -0.8104  -1.9112  -2.9266 LP             1 S1                 0.0000
     53 ****        -0.7125  -3.4886  -3.6353 LP             1 S1                 0.0000
     54 ****         0.4281  -5.2012  -2.4283 LP             1 S1                 0.0000
     55 ****         1.5480  -6.7769  -1.2529 LP             1 S1                 0.0000
     56 ****         2.2754  -6.3974   0.2725 LP             1 S1                 0.0000
@<TRIPOS>BOND
    1    1    2 1     
    2    1   25 1     
    3    1   26 1     
    4    1   27 1     
    5    2    3 1     
    6    2   28 1     
    7    2   29 1     
    8    3    4 1     
    9    4    5 1     
   10    4   30 1     
   11    4   31 1     
   12    5    6 1     
   13    5   32 1     
   14    5   33 1     
   15    6   17 1     
   16    6    7 1     
   17    7    8 1     
   18    7   15 2     
   19    8   14 1     
   20    8    9 1     
   21    9   10 1     
   22    9   34 1     
   23    9   35 1     
   24   10   11 1     
   25   10   36 1     
   26   10   37 1     
   27   11   12 1     
   28   11   38 1     
   29   11   39 1     
   30   12   13 1     
   31   12   14 1     
   32   12   40 1     
   33   13   41 1     
   34   13   42 1     
   35   13   43 1     
   36   14   44 1     
   37   14   45 1     
   38   15   16 1     
   39   16   23 1     
   40   16   17 2     
   41   17   18 1     
   42   18   19 2     
   43   18   20 1     
   44   20   21 1     
   45   21   22 2     
   46   21   23 am    
   47   23   24 1     
   48   24   46 1     
   49   24   47 1     
   50   24   48 1     
   51    3   49 1     
   52    3   50 1     
   53   15   51 1     
   54   19   52 1     
   55   19   53 1     
   56   20   54 1     
   57   22   55 1     
   58   22   56 1     
@<TRIPOS>SUBSTRUCTURE
      1 S1             1
@<TRIPOS>SET
LONE_PAIRS      STATIC     ATOMS    <user>   **** ""
8 49 50 51 52 53 54 55 56
ATOM$BLUE        STATIC     ATOMS    COLORGROUP SYSTEM
8 49 50 51 52 53 54 55 56
