AV-unprocessed.smi:2742|AV-procd|sdf|10562|dock6
  -GOLD-   2272015 13D 1   1.00000     0.00000
 Structure written by MMmdl.
 37 38  0  0  0  0  0  0  0  0  1 V2000
  145.4095  144.9675  152.0919 C   0  0  0  0  0  0  0  0  0  0  0  0
  144.7821  144.7229  153.7753 S   0  0  0  0  0  0  0  0  0  0  0  0
  145.9630  143.4935  154.4038 C   0  0  2  0  0  0  0  0  0  0  0  0
  146.0700  142.3085  153.4283 C   0  0  0  0  0  0  0  0  0  0  0  0
  147.0498  141.2432  153.9432 C   0  0  0  0  0  0  0  0  0  0  0  0
  146.6509  140.7508  155.3444 C   0  0  0  0  0  0  0  0  0  0  0  0
  146.5120  141.9125  156.3514 C   0  0  1  0  0  0  0  0  0  0  0  0
  147.8158  142.4854  156.6855 N   0  0  0  0  0  0  0  0  0  0  0  0
  148.7111  141.9436  157.5242 C   0  0  0  0  0  0  0  0  0  0  0  0
  148.5182  140.8904  158.1307 O   0  0  0  0  0  0  0  0  0  0  0  0
  149.8162  142.7045  157.6093 N   0  0  0  0  0  0  0  0  0  0  0  0
  151.0006  142.4942  158.3695 C   0  0  0  0  0  0  0  0  0  0  0  0
  151.4047  141.2434  158.8977 C   0  0  0  0  0  0  0  0  0  0  0  0
  152.6117  141.1741  159.6222 C   0  0  0  0  0  0  0  0  0  0  0  0
  153.4136  142.2383  159.8369 N   0  0  0  0  0  0  0  0  0  0  0  0
  153.0318  143.4264  159.3233 C   0  0  0  0  0  0  0  0  0  0  0  0
  151.8446  143.6048  158.5851 C   0  0  0  0  0  0  0  0  0  0  0  0
  151.5232  144.8262  158.0940 F   0  0  0  0  0  0  0  0  0  0  0  0
  145.5661  143.0048  155.8128 C   0  0  0  0  0  0  0  0  0  0  0  0
  144.7759  145.6757  151.5580 H   0  0  0  0  0  0  0  0  0  0  0  0
  145.4094  144.0250  151.5442 H   0  0  0  0  0  0  0  0  0  0  0  0
  146.4245  145.3629  152.1082 H   0  0  0  0  0  0  0  0  0  0  0  0
  146.9384  143.9791  154.4530 H   0  0  0  0  0  0  0  0  0  0  0  0
  145.0866  141.8583  153.2853 H   0  0  0  0  0  0  0  0  0  0  0  0
  146.3940  142.6603  152.4482 H   0  0  0  0  0  0  0  0  0  0  0  0
  147.0803  140.4019  153.2503 H   0  0  0  0  0  0  0  0  0  0  0  0
  148.0591  141.6557  153.9694 H   0  0  0  0  0  0  0  0  0  0  0  0
  145.6982  140.2244  155.2760 H   0  0  0  0  0  0  0  0  0  0  0  0
  147.3739  140.0173  155.7033 H   0  0  0  0  0  0  0  0  0  0  0  0
  146.0697  141.5209  157.2693 H   0  0  0  0  0  0  0  0  0  0  0  0
  148.0561  143.3555  156.2337 H   0  0  0  0  0  0  0  0  0  0  0  0
  149.7950  143.5697  157.0893 H   0  0  0  0  0  0  0  0  0  0  0  0
  150.8311  140.3411  158.7590 H   0  0  0  0  0  0  0  0  0  0  0  0
  152.9443  140.2341  160.0368 H   0  0  0  0  0  0  0  0  0  0  0  0
  153.6934  144.2605  159.5043 H   0  0  0  0  0  0  0  0  0  0  0  0
  145.5347  143.8394  156.5132 H   0  0  0  0  0  0  0  0  0  0  0  0
  144.5516  142.6049  155.7769 H   0  0  0  0  0  0  0  0  0  0  0  0
  1  2  1  0  0  0  0
  1 20  1  0  0  0  0
  1 21  1  0  0  0  0
  1 22  1  0  0  0  0
  2  3  1  0  0  0  0
  3 19  1  0  0  0  0
  3  4  1  0  0  0  0
  3 23  1  0  0  0  0
  4  5  1  0  0  0  0
  4 24  1  0  0  0  0
  4 25  1  0  0  0  0
  5  6  1  0  0  0  0
  5 26  1  0  0  0  0
  5 27  1  0  0  0  0
  6  7  1  0  0  0  0
  6 28  1  0  0  0  0
  6 29  1  0  0  0  0
  7  8  1  0  0  0  0
  7 19  1  0  0  0  0
  7 30  1  0  0  0  0
  8  9  1  0  0  0  0
  8 31  1  0  0  0  0
  9 10  2  0  0  0  0
  9 11  1  0  0  0  0
 11 12  1  0  0  0  0
 11 32  1  0  0  0  0
 12 17  1  0  0  0  0
 12 13  2  0  0  0  0
 13 14  1  0  0  0  0
 13 33  1  0  0  0  0
 14 15  2  0  0  0  0
 14 34  1  0  0  0  0
 15 16  1  0  0  0  0
 16 17  2  0  0  0  0
 16 35  1  0  0  0  0
 17 18  1  0  0  0  0
 19 36  1  0  0  0  0
 19 37  1  0  0  0  0
M  END
> <s_m_source_file>
AV-unprocessed.smi

> <i_m_source_file_index>
2742

> <i_lp_mmshare_version>
43012

> <i_f3d_flags>
0

> <s_epik_input>
W0NIM11TW0NAQEhdMVtDSDJdW0NIMl1bQ0gyXVtDQEhdKFtDSDJdMSlbTkhdQyg9TylbTkhdYzJbY0hdW2NIXW5bY0hdYzJG

> <s_epik_cmdline>
J2VwaWtfcHl0aG9uJywgJy1waCcsICc3LjAnLCAnLXRuJywgJzgnLCAnLW1hJywgJzIwMCcsICctbWV0YWxfYmluZGluZycsICctaW1hZScsICc8aW5maWxlLm1hZT4nLCAnLW9tYWUnLCAnPG91dGZpbGUubWFlPic=

> <r_epik_Ionization_Penalty>
0.00344009

> <r_epik_Ionization_Penalty_Charging>
0

> <r_epik_Ionization_Penalty_Neutral>
0.00344009

> <r_epik_State_Penalty>
0.0024078

> <r_epik_Charging_Adjusted_Penalty>
0.0024078

> <i_epik_Tot_Q>
0

> <i_epik_Tot_abs_Q>
0

> <r_epik_Metal_State_Penalty>
-0

> <b_epik_Metal_Only>
0

> <s_lp_Force_Field>
OPLS_2005

> <r_lp_Energy>
13.9457

> <b_lp_Chiralities_Consistent>
1

> <s_lp_Variant>
AV-unprocessed.smi:2742-1

> <Gold.Version>
5.8.1

> <Gold.Id.Protein>
6NUR|6NUR_protein|mol2

> <Gold.PLP.Fitness>
41.9742

> <Gold.PLP.PLP>
-36.8449

> <Gold.PLP.part.hbond>
-2.3761

> <Gold.PLP.part.metal>
0.0000

> <Gold.PLP.part.buried>
-4.8499

> <Gold.PLP.part.nonpolar>
-29.0561

> <Gold.PLP.part.repulsive>
0.0568

> <Gold.PLP.ligand.clash>
0.0000

> <Gold.PLP.ligand.torsion>
0.3681

> <Gold.PLP.Chemscore.Hbond>
1.9511

> <Gold.PLP.Chemscore.CHOScore>
0.0000

> <Gold.PLP.Chemscore.Metal>
0.0000

> <Gold.Chemscore.Hbonds>
donor molecule, donor type, donor heavy atom, donor atom, acceptor molecule, acceptor atom, score
      L1  H     8    31       P1  8028  1.00
      L1  H    11    32       P1  8028  0.97

> <Gold.PLP.Chemscore.Internal.Correction>
0.0124

> <Gold.Rescore>
     Score         DG    S(hbond)    S(metal)    S(lipo)     H(rot)  DE(clash)    DE(int)     intcor
     17.36     -18.51       1.47        0.00      95.26       1.19       0.55       0.59       ----

> <Gold.Chemscore.Fitness>
17.3616

> <Gold.Chemscore.DG>
-18.5054

> <Gold.Chemscore.ZeroCoef>
-5.4800

> <Gold.Chemscore.Hbond>
1.4730

> <Gold.Chemscore.Metal>
0.0000

> <Gold.Chemscore.Lipo>
95.2608

> <Gold.Chemscore.Internal_Hbond>
0.0000

> <Gold.Chemscore.DEClash>
0.5530

> <Gold.Chemscore.DEInternal>
0.5908

> <Gold.Chemscore.Rot>
1.1875

> <Gold.Chemscore.Internal.Correction>
   9.000000E+99

> <Gold.Chemscore.Hbonds>
donor molecule, donor type, donor heavy atom, donor atom, acceptor molecule, acceptor atom, score
      L1  H     8    31       P1  8028  0.26
      L1  H    11    32       P1  8028  0.83

> <Gold.Chemscore.Hbond.Weighted>
-4.9199

> <Gold.Chemscore.Metal.Weighted>
-0.0000

> <Gold.Chemscore.Lipo.Weighted>
-11.1455

> <Gold.Chemscore.Internal_Hbond.Weighted>
0.0000

> <Gold.Chemscore.DEClash.Weighted>
0.5530

> <Gold.Chemscore.DEInternal.Weighted>
0.5908

> <Gold.Chemscore.Rot.Weighted>
3.0400

> <Gold.Chemscore.Internal.Correction.Weighted>
   9.000000E+99

> <Gold.Protein.RotatedTorsions>
[ 6907 6896 6895 6894 ] final -128.46 input  -60.11 | X-H torsion
[ 7974 7965 7964 7962 ] final   19.33 input  175.53 | X-H torsion
[ 8008 7997 7996 7995 ] final  124.94 input   59.86 | X-H torsion
[ 10167 10162 10161 10158 ] final    0.84 input  -65.29 | X-H torsion
[ 10718 10713 10712 10709 ] final   41.00 input   66.30 | X-H torsion
[ 10763 10752 10751 10750 ] final  -75.19 input  -60.55 | X-H torsion
[ 11005 11000 10999 10996 ] final  -39.40 input  -57.11 | X-H torsion

> <Gold.Protein.ActiveResidues>
 VAL166  LYS551  ARG553  GLY616  TRP617  ASP618  TYR619  PRO620  LYS621  CYS622 
 ASP623  PHE694  ASN695  SER759  ASP760  ASP761  ALA762  ILE779  LEU786  VAL792 
 PHE793  MET794  SER795  GLU796  ALA797  LYS798  CYS799  TRP800  GLU811  SER814 

> <Gold.Protein.RotatedAtoms>
  150.9181  133.6914  159.2838 H   0  0  0  0  0  0  0  0  0  0  0  0  # atno 6907 bound_to 6896
  151.4378  135.1015  159.9671 H   0  0  0  0  0  0  0  0  0  0  0  0  # atno 6908 bound_to 6896
  152.4965  133.8596  159.7298 H   0  0  0  0  0  0  0  0  0  0  0  0  # atno 6909 bound_to 6896
  146.2153  139.8328  142.8656 H   0  0  0  0  0  0  0  0  0  0  0  0  # atno 7974 bound_to 7965
  156.2818  140.2728  156.1869 H   0  0  0  0  0  0  0  0  0  0  0  0  # atno 8008 bound_to 7997
  155.0498  140.0386  157.2557 H   0  0  0  0  0  0  0  0  0  0  0  0  # atno 8009 bound_to 7997
  154.7204  140.2686  155.6552 H   0  0  0  0  0  0  0  0  0  0  0  0  # atno 8010 bound_to 7997
  140.6710  143.7048  150.7923 H   0  0  0  0  0  0  0  0  0  0  0  0  # atno 10167 bound_to 10162
  157.3886  130.7794  149.7251 H   0  0  0  0  0  0  0  0  0  0  0  0  # atno 10718 bound_to 10713
  154.4832  135.5839  153.6405 H   0  0  0  0  0  0  0  0  0  0  0  0  # atno 10763 bound_to 10752
  152.9851  135.6095  154.3219 H   0  0  0  0  0  0  0  0  0  0  0  0  # atno 10764 bound_to 10752
  154.3112  135.2845  155.2544 H   0  0  0  0  0  0  0  0  0  0  0  0  # atno 10765 bound_to 10752
  141.0099  133.6913  156.2182 H   0  0  0  0  0  0  0  0  0  0  0  0  # atno 11005 bound_to 11000
  145.2979  141.0186  143.3625 LP  0  0  0  0  0  0  0  0  0  0  0  0  # atno 17320 bound_to 7965
  144.9028  139.4628  143.6624 LP  0  0  0  0  0  0  0  0  0  0  0  0  # atno 17321 bound_to 7965
  140.0734  143.5039  152.2568 LP  0  0  0  0  0  0  0  0  0  0  0  0  # atno 17342 bound_to 10162
  139.5979  144.7573  151.3243 LP  0  0  0  0  0  0  0  0  0  0  0  0  # atno 17343 bound_to 10162
  155.9793  130.4042  150.3597 LP  0  0  0  0  0  0  0  0  0  0  0  0  # atno 17370 bound_to 10713
  157.1711  131.0369  151.2795 LP  0  0  0  0  0  0  0  0  0  0  0  0  # atno 17371 bound_to 10713
  140.6751  134.4827  157.5588 LP  0  0  0  0  0  0  0  0  0  0  0  0  # atno 17394 bound_to 11000
  139.9084  134.8398  156.1619 LP  0  0  0  0  0  0  0  0  0  0  0  0  # atno 17395 bound_to 11000

$$$$
