AV-unprocessed.smi:1229|AV-procd|sdf|5151|dock9
  -GOLD-   22720 4223D 1   1.00000     0.00000
 Structure written by MMmdl.
 46 47  0  0  0  0  0  0  0  0  2 V2000
  147.6149  134.3494  159.1026 C   0  0  0  0  0  0  0  0  0  0  0  0
  147.5455  135.1326  160.4037 C   0  0  0  0  0  0  0  0  0  0  0  0
  147.2771  134.4477  161.6081 C   0  0  0  0  0  0  0  0  0  0  0  0
  147.2104  135.1731  162.8099 C   0  0  0  0  0  0  0  0  0  0  0  0
  147.4177  136.5619  162.7563 C   0  0  0  0  0  0  0  0  0  0  0  0
  147.6755  137.2245  161.6102 N   0  0  0  0  0  0  0  0  0  0  0  0
  147.7414  136.5393  160.4407 C   0  0  0  0  0  0  0  0  0  0  0  0
  148.0089  137.1731  159.1941 N   0  0  0  0  0  0  0  0  0  0  0  0
  149.1787  137.2635  158.5371 C   0  0  0  0  0  0  0  0  0  0  0  0
  150.2542  136.8052  158.9246 O   0  0  0  0  0  0  0  0  0  0  0  0
  149.0377  137.9236  157.3780 N   0  0  0  0  0  0  0  0  0  0  0  0
  150.1216  138.2041  156.4413 C   0  0  0  0  0  0  0  0  0  0  0  0
  151.1230  139.2357  157.0024 C   0  0  1  0  0  0  0  0  0  0  0  0
  152.2096  139.3279  156.1023 O   0  0  0  0  0  0  0  0  0  0  0  0
  150.4894  140.6369  157.1141 C   0  0  0  0  0  0  0  0  0  0  0  0
  151.4557  141.6618  157.5865 N   0  3  0  0  0  0  0  0  0  0  0  0
  150.8487  143.0159  157.6671 C   0  0  0  0  0  0  0  0  0  0  0  0
  151.9045  144.0796  158.0134 C   0  0  0  0  0  0  0  0  0  0  0  0
  152.6318  143.7295  159.3179 C   0  0  0  0  0  0  0  0  0  0  0  0
  153.2202  142.3157  159.2258 C   0  0  0  0  0  0  0  0  0  0  0  0
  152.1347  141.2903  158.8574 C   0  0  0  0  0  0  0  0  0  0  0  0
  147.4629  133.2832  159.2729 H   0  0  0  0  0  0  0  0  0  0  0  0
  148.5890  134.4769  158.6296 H   0  0  0  0  0  0  0  0  0  0  0  0
  146.8452  134.6917  158.4104 H   0  0  0  0  0  0  0  0  0  0  0  0
  147.1229  133.3786  161.6142 H   0  0  0  0  0  0  0  0  0  0  0  0
  147.0061  134.6783  163.7478 H   0  0  0  0  0  0  0  0  0  0  0  0
  147.3764  137.1573  163.6563 H   0  0  0  0  0  0  0  0  0  0  0  0
  147.2117  137.6052  158.7513 H   0  0  0  0  0  0  0  0  0  0  0  0
  148.1212  138.2693  157.1327 H   0  0  0  0  0  0  0  0  0  0  0  0
  150.6243  137.2726  156.1772 H   0  0  0  0  0  0  0  0  0  0  0  0
  149.6789  138.5773  155.5159 H   0  0  0  0  0  0  0  0  0  0  0  0
  151.4919  138.9110  157.9746 H   0  0  0  0  0  0  0  0  0  0  0  0
  152.0572  140.0589  155.5223 H   0  0  0  0  0  0  0  0  0  0  0  0
  150.0953  140.9167  156.1354 H   0  0  0  0  0  0  0  0  0  0  0  0
  149.6327  140.6194  157.7900 H   0  0  0  0  0  0  0  0  0  0  0  0
  150.3884  143.2712  156.7117 H   0  0  0  0  0  0  0  0  0  0  0  0
  150.0531  143.0154  158.4138 H   0  0  0  0  0  0  0  0  0  0  0  0
  152.6273  144.1567  157.1998 H   0  0  0  0  0  0  0  0  0  0  0  0
  151.4328  145.0589  158.1014 H   0  0  0  0  0  0  0  0  0  0  0  0
  153.4209  144.4552  159.5175 H   0  0  0  0  0  0  0  0  0  0  0  0
  151.9354  143.7858  160.1555 H   0  0  0  0  0  0  0  0  0  0  0  0
  154.0128  142.2958  158.4763 H   0  0  0  0  0  0  0  0  0  0  0  0
  153.6844  142.0433  160.1742 H   0  0  0  0  0  0  0  0  0  0  0  0
  151.3974  141.2231  159.6592 H   0  0  0  0  0  0  0  0  0  0  0  0
  152.5944  140.3065  158.7724 H   0  0  0  0  0  0  0  0  0  0  0  0
  152.1703  141.7176  156.8745 H   0  0  0  0  0  0  0  0  0  0  0  0
  1  2  1  0  0  0  0
  1 22  1  0  0  0  0
  1 23  1  0  0  0  0
  1 24  1  0  0  0  0
  2  7  1  0  0  0  0
  2  3  2  0  0  0  0
  3  4  1  0  0  0  0
  3 25  1  0  0  0  0
  4  5  2  0  0  0  0
  4 26  1  0  0  0  0
  5  6  1  0  0  0  0
  5 27  1  0  0  0  0
  6  7  2  0  0  0  0
  7  8  1  0  0  0  0
  8  9  1  0  0  0  0
  8 28  1  0  0  0  0
  9 10  2  0  0  0  0
  9 11  1  0  0  0  0
 11 12  1  0  0  0  0
 11 29  1  0  0  0  0
 12 13  1  0  0  0  0
 12 30  1  0  0  0  0
 12 31  1  0  0  0  0
 13 14  1  0  0  0  0
 13 15  1  0  0  0  0
 13 32  1  0  0  0  0
 14 33  1  0  0  0  0
 15 16  1  0  0  0  0
 15 34  1  0  0  0  0
 15 35  1  0  0  0  0
 16 21  1  0  0  0  0
 16 17  1  0  0  0  0
 16 46  1  0  0  0  0
 17 18  1  0  0  0  0
 17 36  1  0  0  0  0
 17 37  1  0  0  0  0
 18 19  1  0  0  0  0
 18 38  1  0  0  0  0
 18 39  1  0  0  0  0
 19 20  1  0  0  0  0
 19 40  1  0  0  0  0
 19 41  1  0  0  0  0
 20 21  1  0  0  0  0
 20 42  1  0  0  0  0
 20 43  1  0  0  0  0
 21 44  1  0  0  0  0
 21 45  1  0  0  0  0
M  CHG  1  16   1
M  END
> <s_m_source_file>
AV-unprocessed.smi

> <i_m_source_file_index>
1229

> <i_lp_mmshare_version>
43012

> <i_f3d_flags>
0

> <s_epik_input>
W0NIM11jMVtjSF1bY0hdW2NIXW5jMVtOSF1DKD1PKVtOSF1bQ0gyXVtDQEhdKFtPSF0pW0NIMl1OMltDSDJdW0NIMl1bQ0gyXVtDSDJdW0NIMl0y

> <s_epik_cmdline>
J2VwaWtfcHl0aG9uJywgJy1waCcsICc3LjAnLCAnLXRuJywgJzgnLCAnLW1hJywgJzIwMCcsICctbWV0YWxfYmluZGluZycsICctaW1hZScsICc8aW5maWxlLm1hZT4nLCAnLW9tYWUnLCAnPG91dGZpbGUubWFlPic=

> <r_epik_Ionization_Penalty>
0.00511007

> <r_epik_Ionization_Penalty_Charging>
0.00506051

> <r_epik_Ionization_Penalty_Neutral>
4.95577e-05

> <r_epik_State_Penalty>
0.00368188

> <r_epik_Charging_Adjusted_Penalty>
0.0087424

> <i_epik_Tot_Q>
1

> <i_epik_Tot_abs_Q>
1

> <r_epik_Metal_State_Penalty>
-0

> <b_epik_Metal_Only>
0

> <s_lp_Force_Field>
OPLS_2005

> <r_lp_Energy>
20.718

> <b_lp_Chiralities_Consistent>
1

> <s_lp_Variant>
AV-unprocessed.smi:1229-2

> <Gold.Version>
5.8.1

> <Gold.Id.Protein>
6NUR|6NUR_protein|mol2

> <Gold.PLP.Fitness>
51.8059

> <Gold.PLP.PLP>
-44.0498

> <Gold.PLP.part.hbond>
-4.0000

> <Gold.PLP.part.metal>
0.0000

> <Gold.PLP.part.buried>
-4.1136

> <Gold.PLP.part.nonpolar>
-35.2361

> <Gold.PLP.part.repulsive>
0.2840

> <Gold.PLP.ligand.clash>
0.0000

> <Gold.PLP.ligand.torsion>
0.8173

> <Gold.PLP.Chemscore.Hbond>
3.1048

> <Gold.PLP.Chemscore.CHOScore>
0.0000

> <Gold.PLP.Chemscore.Metal>
0.0000

> <Gold.Chemscore.Hbonds>
donor molecule, donor type, donor heavy atom, donor atom, acceptor molecule, acceptor atom, score
      P1  H  6896  6908       L1    10  0.75
      P1  H  6931  6943       L1     6  0.99
      P1  H  6934  6947       L1     6  0.74

> <Gold.PLP.Chemscore.Internal.Correction>
0.0762

> <Gold.Rescore>
     Score         DG    S(hbond)    S(metal)    S(lipo)     H(rot)  DE(clash)    DE(int)     intcor
     18.32     -19.14       2.21        0.00     104.22       2.31       0.00       0.82       ----

> <Gold.Chemscore.Fitness>
18.3162

> <Gold.Chemscore.DG>
-19.1407

> <Gold.Chemscore.ZeroCoef>
-5.4800

> <Gold.Chemscore.Hbond>
2.2094

> <Gold.Chemscore.Metal>
0.0000

> <Gold.Chemscore.Lipo>
104.2202

> <Gold.Chemscore.Internal_Hbond>
0.0000

> <Gold.Chemscore.DEClash>
0.0048

> <Gold.Chemscore.DEInternal>
0.8197

> <Gold.Chemscore.Rot>
2.3095

> <Gold.Chemscore.Internal.Correction>
   9.000000E+99

> <Gold.Chemscore.Hbonds>
donor molecule, donor type, donor heavy atom, donor atom, acceptor molecule, acceptor atom, score
      P1  H  6896  6908       L1    10  0.75
      P1  H  6931  6943       L1     6  0.52
      P1  H  6934  6947       L1     6  0.22

> <Gold.Chemscore.Hbond.Weighted>
-7.3794

> <Gold.Chemscore.Metal.Weighted>
-0.0000

> <Gold.Chemscore.Lipo.Weighted>
-12.1938

> <Gold.Chemscore.Internal_Hbond.Weighted>
0.0000

> <Gold.Chemscore.DEClash.Weighted>
0.0048

> <Gold.Chemscore.DEInternal.Weighted>
0.8197

> <Gold.Chemscore.Rot.Weighted>
5.9124

> <Gold.Chemscore.Internal.Correction.Weighted>
   9.000000E+99

> <Gold.Protein.RotatedTorsions>
[ 6907 6896 6895 6894 ] final -160.72 input  -60.11 | X-H torsion
[ 7974 7965 7964 7962 ] final  121.93 input  175.53 | X-H torsion
[ 8008 7997 7996 7995 ] final  154.48 input   59.86 | X-H torsion
[ 10167 10162 10161 10158 ] final -132.05 input  -65.29 | X-H torsion
[ 10718 10713 10712 10709 ] final  -61.19 input   66.30 | X-H torsion
[ 10763 10752 10751 10750 ] final  108.06 input  -60.55 | X-H torsion
[ 11005 11000 10999 10996 ] final   43.24 input  -57.11 | X-H torsion

> <Gold.Protein.ActiveResidues>
 VAL166  LYS551  ARG553  GLY616  TRP617  ASP618  TYR619  PRO620  LYS621  CYS622 
 ASP623  PHE694  ASN695  SER759  ASP760  ASP761  ALA762  ILE779  LEU786  VAL792 
 PHE793  MET794  SER795  GLU796  ALA797  LYS798  CYS799  TRP800  GLU811  SER814 

> <Gold.Protein.RotatedAtoms>
  151.3535  133.3916  159.2682 H   0  0  0  0  0  0  0  0  0  0  0  0  # atno 6907 bound_to 6896
  150.9782  134.9143  159.7839 H   0  0  0  0  0  0  0  0  0  0  0  0  # atno 6908 bound_to 6896
  152.5208  134.3498  159.9299 H   0  0  0  0  0  0  0  0  0  0  0  0  # atno 6909 bound_to 6896
  145.1135  139.3437  143.4751 H   0  0  0  0  0  0  0  0  0  0  0  0  # atno 7974 bound_to 7965
  156.2529  140.1965  156.6653 H   0  0  0  0  0  0  0  0  0  0  0  0  # atno 8008 bound_to 7997
  154.6434  140.0581  156.9897 H   0  0  0  0  0  0  0  0  0  0  0  0  # atno 8009 bound_to 7997
  155.1528  140.3253  155.4430 H   0  0  0  0  0  0  0  0  0  0  0  0  # atno 8010 bound_to 7997
  139.9126  143.6476  152.2572 H   0  0  0  0  0  0  0  0  0  0  0  0  # atno 10167 bound_to 10162
  156.0939  130.4196  150.0959 H   0  0  0  0  0  0  0  0  0  0  0  0  # atno 10718 bound_to 10713
  153.4154  135.3824  155.2077 H   0  0  0  0  0  0  0  0  0  0  0  0  # atno 10763 bound_to 10752
  154.8741  135.3804  154.4450 H   0  0  0  0  0  0  0  0  0  0  0  0  # atno 10764 bound_to 10752
  153.4963  135.7088  153.5918 H   0  0  0  0  0  0  0  0  0  0  0  0  # atno 10765 bound_to 10752
  140.1664  134.4277  155.8285 H   0  0  0  0  0  0  0  0  0  0  0  0  # atno 11005 bound_to 11000
  146.3525  140.1064  142.8606 LP  0  0  0  0  0  0  0  0  0  0  0  0  # atno 17320 bound_to 7965
  145.0820  140.9227  143.4820 LP  0  0  0  0  0  0  0  0  0  0  0  0  # atno 17321 bound_to 7965
  139.6930  144.7644  151.1406 LP  0  0  0  0  0  0  0  0  0  0  0  0  # atno 17342 bound_to 10162
  140.7682  143.5563  150.9148 LP  0  0  0  0  0  0  0  0  0  0  0  0  # atno 17343 bound_to 10162
  156.8963  130.9605  151.3582 LP  0  0  0  0  0  0  0  0  0  0  0  0  # atno 17370 bound_to 10713
  157.6095  130.8572  149.8928 LP  0  0  0  0  0  0  0  0  0  0  0  0  # atno 17371 bound_to 10713
  141.2214  133.6936  156.7685 LP  0  0  0  0  0  0  0  0  0  0  0  0  # atno 17394 bound_to 11000
  140.2429  134.8600  157.3591 LP  0  0  0  0  0  0  0  0  0  0  0  0  # atno 17395 bound_to 11000

$$$$
