#       Name:                AV-unprocessed.smi:671
#       Creating user name   scv26
#       Creation time:       Fri Mar 27 00:24:38 2020


#       File generated by GOLD software.
#

@<TRIPOS>MOLECULE
AV-unprocessed.smi:671
    52    53     1
SMALL
NO_CHARGES


@<TRIPOS>ATOM
      1 ****         1.0152  -5.0197  -0.5491 C.3            1 S1                 0.0000
      2 ****         0.8861  -4.9556  -2.0341 C.2            1 S1                 0.0000
      3 ****         1.8378  -5.3891  -2.9034 N.pl3          1 S1                 1.0000
      4 ****         1.4327  -5.1987  -4.1666 N.pl3          1 S1                 0.0000
      5 ****         2.3112  -5.5973  -5.2665 C.3            1 S1                 0.0000
      6 ****         0.1958  -4.6269  -4.1835 C.2            1 S1                 0.0000
      7 ****        -0.5536  -4.2709  -5.4256 C.3            1 S1                 0.0000
      8 ****        -0.1527  -4.4671  -2.8366 C.2            1 S1                 0.0000
      9 ****        -1.4354  -3.8602  -2.3344 C.3            1 S1                 0.0000
     10 ****        -1.4037  -2.3188  -2.2882 C.3            1 S1                 0.0000
     11 ****        -2.7286  -1.7354  -1.7792 C.3            1 S1                 0.0000
     12 ****        -0.3071  -1.8598  -1.4284 N.am           1 S1                 0.0000
     13 ****         0.7510  -1.0880  -1.7356 C.2            1 S1                 0.0000
     14 ****         0.9285  -0.6681  -2.8771 O.2            1 S1                 0.0000
     15 ****         1.5890  -0.8425  -0.7148 N.am           1 S1                 0.0000
     16 ****         2.8080  -0.0351  -0.7800 C.3            1 S1                 0.0000
     17 ****         3.9482  -0.7342  -0.0110 C.3            1 S1                 0.0000
     18 ****         4.3945   0.2332   1.0909 C.3            1 S1                 0.0000
     19 ****         3.2124   1.1766   1.2930 C.3            1 S1                 0.0000
     20 ****         2.6396   1.3511  -0.1142 C.3            1 S1                 0.0000
     21 ****         1.2292   1.9639  -0.1325 C.3            1 S1                 0.0000
     22 ****         1.1021  -4.0155  -0.1342 H              1 S1                 0.0000
     23 ****         1.9007  -5.5888  -0.2647 H              1 S1                 0.0000
     24 ****         0.1401  -5.5033  -0.1148 H              1 S1                 0.0000
     25 ****         2.5849  -4.7124  -5.8417 H              1 S1                 0.0000
     26 ****         1.7800  -6.3000  -5.9088 H              1 S1                 0.0000
     27 ****         3.2139  -6.0712  -4.8781 H              1 S1                 0.0000
     28 ****        -1.3457  -3.5550  -5.2086 H              1 S1                 0.0000
     29 ****        -1.0014  -5.1637  -5.8611 H              1 S1                 0.0000
     30 ****         0.1176  -3.8237  -6.1592 H              1 S1                 0.0000
     31 ****        -2.2648  -4.1833  -2.9647 H              1 S1                 0.0000
     32 ****        -1.6647  -4.2461  -1.3404 H              1 S1                 0.0000
     33 ****        -1.2708  -1.9701  -3.3125 H              1 S1                 0.0000
     34 ****        -3.5623  -2.0467  -2.4092 H              1 S1                 0.0000
     35 ****        -2.7038  -0.6450  -1.7827 H              1 S1                 0.0000
     36 ****        -2.9419  -2.0607  -0.7603 H              1 S1                 0.0000
     37 ****        -0.2959  -2.2629  -0.5026 H              1 S1                 0.0000
     38 ****         1.3671  -1.2484   0.1824 H              1 S1                 0.0000
     39 ****         3.1092   0.1026  -1.8200 H              1 S1                 0.0000
     40 ****         3.6068  -1.6691   0.4368 H              1 S1                 0.0000
     41 ****         4.7804  -0.9854  -0.6700 H              1 S1                 0.0000
     42 ****         4.6813  -0.2809   2.0089 H              1 S1                 0.0000
     43 ****         5.2594   0.8030   0.7478 H              1 S1                 0.0000
     44 ****         2.4737   0.7079   1.9452 H              1 S1                 0.0000
     45 ****         3.5075   2.1232   1.7469 H              1 S1                 0.0000
     46 ****         3.3000   2.0396  -0.6443 H              1 S1                 0.0000
     47 ****         0.5303   1.3666   0.4509 H              1 S1                 0.0000
     48 ****         0.8435   2.0377  -1.1497 H              1 S1                 0.0000
     49 ****         1.2358   2.9673   0.2932 H              1 S1                 0.0000
     50 ****         2.7387  -5.8032  -2.6991 H              1 S1                 0.0000
     51 ****         0.2787  -0.8988  -3.6014 LP             1 S1                 0.0000
     52 ****         1.7226  -0.0958  -3.0815 LP             1 S1                 0.0000
@<TRIPOS>BOND
    1    1    2 1     
    2    1   22 1     
    3    1   23 1     
    4    1   24 1     
    5    2    8 1     
    6    2    3 2     
    7    3    4 1     
    8    3   50 1     
    9    4    5 1     
   10    4    6 1     
   11    5   25 1     
   12    5   26 1     
   13    5   27 1     
   14    6    7 1     
   15    6    8 2     
   16    7   28 1     
   17    7   29 1     
   18    7   30 1     
   19    8    9 1     
   20    9   10 1     
   21    9   31 1     
   22    9   32 1     
   23   10   11 1     
   24   10   12 1     
   25   10   33 1     
   26   11   34 1     
   27   11   35 1     
   28   11   36 1     
   29   12   13 am    
   30   12   37 1     
   31   13   14 2     
   32   13   15 am    
   33   15   16 1     
   34   15   38 1     
   35   16   20 1     
   36   16   17 1     
   37   16   39 1     
   38   17   18 1     
   39   17   40 1     
   40   17   41 1     
   41   18   19 1     
   42   18   42 1     
   43   18   43 1     
   44   19   20 1     
   45   19   44 1     
   46   19   45 1     
   47   20   21 1     
   48   20   46 1     
   49   21   47 1     
   50   21   48 1     
   51   21   49 1     
   52   14   51 1     
   53   14   52 1     
@<TRIPOS>SUBSTRUCTURE
      1 S1             1
@<TRIPOS>SET
LONE_PAIRS      STATIC     ATOMS    <user>   **** ""
2 51 52
DONOR_HYDROGENS      STATIC     ATOMS    <user>   **** ""
3 50 37 38
ATOM$BLUE        STATIC     ATOMS    COLORGROUP SYSTEM
2 51 52
ATOM$RED        STATIC     ATOMS    COLORGROUP SYSTEM
3 50 37 38
