AV-unprocessed.smi:1978|AV-procd|sdf|8011|dock4
  -GOLD-   2272010203D 1   1.00000     0.00000
 Structure written by MMmdl.
 44 45  0  0  0  0  0  0  0  0  3 V2000
  147.3234  135.2257  162.6278 C   0  0  0  0  0  0  0  0  0  0  0  0
  147.7402  135.6954  161.2766 C   0  0  0  0  0  0  0  0  0  0  0  0
  147.9927  135.0428  160.1030 C   0  0  0  0  0  0  0  0  0  0  0  0
  148.3386  136.0976  159.2170 C   0  0  0  0  0  0  0  0  0  0  0  0
  148.6750  135.8250  157.8649 N   0  0  0  0  0  0  0  0  0  0  0  0
  149.0189  134.6522  157.3022 C   0  0  0  0  0  0  0  0  0  0  0  0
  149.0722  133.6226  157.9856 O   0  0  0  0  0  0  0  0  0  0  0  0
  149.2864  134.7781  155.9730 N   0  5  0  0  0  0  0  0  0  0  0  0
  148.3944  135.4001  154.9927 C   0  0  0  0  0  0  0  0  0  0  0  0
  147.3162  134.3928  154.4995 C   0  0  1  0  0  0  0  0  0  0  0  0
  146.1952  134.0929  155.5274 C   0  0  0  0  0  0  0  0  0  0  0  0
  146.7766  134.8056  153.1572 N   0  3  2  0  0  0  0  0  0  0  0  0
  145.9493  136.0549  153.1862 C   0  0  0  0  0  0  0  0  0  0  0  0
  145.6672  136.5823  151.7745 C   0  0  0  0  0  0  0  0  0  0  0  0
  144.9370  135.5199  150.9534 C   0  0  0  0  0  0  0  0  0  0  0  0
  145.7630  134.2311  150.9388 C   0  0  0  0  0  0  0  0  0  0  0  0
  146.1011  133.7237  152.3605 C   0  0  1  0  0  0  0  0  0  0  0  0
  146.9391  132.4342  152.2157 C   0  0  0  0  0  0  0  0  0  0  0  0
  148.3031  137.2871  159.7998 N   0  0  0  0  0  0  0  0  0  0  0  0
  147.9202  137.0351  161.1226 O   0  0  0  0  0  0  0  0  0  0  0  0
  147.0212  134.1787  162.5990 H   0  0  0  0  0  0  0  0  0  0  0  0
  146.4809  135.8100  162.9979 H   0  0  0  0  0  0  0  0  0  0  0  0
  148.1431  135.3229  163.3395 H   0  0  0  0  0  0  0  0  0  0  0  0
  147.9360  133.9821  159.9100 H   0  0  0  0  0  0  0  0  0  0  0  0
  148.6614  136.6205  157.2443 H   0  0  0  0  0  0  0  0  0  0  0  0
  147.9051  136.2984  155.3713 H   0  0  0  0  0  0  0  0  0  0  0  0
  148.9670  135.7361  154.1273 H   0  0  0  0  0  0  0  0  0  0  0  0
  147.8638  133.4628  154.3852 H   0  0  0  0  0  0  0  0  0  0  0  0
  146.5883  133.6223  156.4302 H   0  0  0  0  0  0  0  0  0  0  0  0
  145.4653  133.3976  155.1126 H   0  0  0  0  0  0  0  0  0  0  0  0
  145.6560  134.9882  155.8412 H   0  0  0  0  0  0  0  0  0  0  0  0
  145.0013  135.8612  153.6899 H   0  0  0  0  0  0  0  0  0  0  0  0
  146.4470  136.8420  153.7526 H   0  0  0  0  0  0  0  0  0  0  0  0
  145.0648  137.4897  151.8283 H   0  0  0  0  0  0  0  0  0  0  0  0
  146.6029  136.8574  151.2858 H   0  0  0  0  0  0  0  0  0  0  0  0
  143.9527  135.3270  151.3821 H   0  0  0  0  0  0  0  0  0  0  0  0
  144.7735  135.8748  149.9356 H   0  0  0  0  0  0  0  0  0  0  0  0
  145.2151  133.4653  150.3886 H   0  0  0  0  0  0  0  0  0  0  0  0
  146.6862  134.4041  150.3834 H   0  0  0  0  0  0  0  0  0  0  0  0
  145.1678  133.4666  152.8640 H   0  0  0  0  0  0  0  0  0  0  0  0
  146.5165  131.7768  151.4554 H   0  0  0  0  0  0  0  0  0  0  0  0
  146.9624  131.8449  153.1316 H   0  0  0  0  0  0  0  0  0  0  0  0
  147.9654  132.6563  151.9210 H   0  0  0  0  0  0  0  0  0  0  0  0
  147.6026  135.0370  152.6238 H   0  0  0  0  0  0  0  0  0  0  0  0
  1  2  1  0  0  0  0
  1 21  1  0  0  0  0
  1 22  1  0  0  0  0
  1 23  1  0  0  0  0
  2 20  1  0  0  0  0
  2  3  2  0  0  0  0
  3  4  1  0  0  0  0
  3 24  1  0  0  0  0
  4  5  1  0  0  0  0
  4 19  2  0  0  0  0
  5  6  1  0  0  0  0
  5 25  1  0  0  0  0
  6  7  2  0  0  0  0
  6  8  1  0  0  0  0
  8  9  1  0  0  0  0
  9 10  1  0  0  0  0
  9 26  1  0  0  0  0
  9 27  1  0  0  0  0
 10 11  1  0  0  0  0
 10 12  1  0  0  0  0
 10 28  1  0  0  0  0
 11 29  1  0  0  0  0
 11 30  1  0  0  0  0
 11 31  1  0  0  0  0
 12 17  1  0  0  0  0
 12 13  1  0  0  0  0
 12 44  1  0  0  0  0
 13 14  1  0  0  0  0
 13 32  1  0  0  0  0
 13 33  1  0  0  0  0
 14 15  1  0  0  0  0
 14 34  1  0  0  0  0
 14 35  1  0  0  0  0
 15 16  1  0  0  0  0
 15 36  1  0  0  0  0
 15 37  1  0  0  0  0
 16 17  1  0  0  0  0
 16 38  1  0  0  0  0
 16 39  1  0  0  0  0
 17 18  1  0  0  0  0
 17 40  1  0  0  0  0
 18 41  1  0  0  0  0
 18 42  1  0  0  0  0
 18 43  1  0  0  0  0
 19 20  1  0  0  0  0
M  CHG  1   8  -1
M  CHG  1  12   1
M  END
> <s_m_source_file>
AV-unprocessed.smi

> <i_m_source_file_index>
1978

> <i_lp_mmshare_version>
43012

> <i_f3d_flags>
0

> <s_epik_input>
W0NIM11jMVtjSF1jKG5vMSlbTkhdQyg9TylbTkhdW0NIMl1bQ0BIXShbQ0gzXSlOMltDSDJdW0NIMl1bQ0gyXVtDSDJdW0NASF0yW0NIM10=

> <s_epik_cmdline>
J2VwaWtfcHl0aG9uJywgJy1waCcsICc3LjAnLCAnLXRuJywgJzgnLCAnLW1hJywgJzIwMCcsICctbWV0YWxfYmluZGluZycsICctaW1hZScsICc8aW5maWxlLm1hZT4nLCAnLW9tYWUnLCAnPG91dGZpbGUubWFlPic=

> <r_epik_Ionization_Penalty>
6.7666

> <r_epik_Ionization_Penalty_Charging>
6.7666

> <r_epik_Ionization_Penalty_Neutral>
5.77131e-06

> <r_epik_State_Penalty>
6.79217

> <r_epik_Charging_Adjusted_Penalty>
13.5588

> <i_epik_Tot_Q>
0

> <i_epik_Tot_abs_Q>
2

> <r_epik_Metal_State_Penalty>
2.72569

> <b_epik_Metal_Only>
1

> <s_lp_Force_Field>
OPLS_2005

> <r_lp_Energy>
21.6667

> <b_lp_Chiralities_Consistent>
1

> <s_lp_Variant>
AV-unprocessed.smi:1978-20

> <Gold.Version>
5.8.1

> <Gold.Id.Protein>
6NUR|6NUR_protein|mol2

> <Gold.PLP.Fitness>
40.7134

> <Gold.PLP.PLP>
-30.6382

> <Gold.PLP.part.hbond>
-6.0000

> <Gold.PLP.part.metal>
0.0000

> <Gold.PLP.part.buried>
-2.1297

> <Gold.PLP.part.nonpolar>
-22.2210

> <Gold.PLP.part.repulsive>
0.0904

> <Gold.PLP.ligand.clash>
0.0000

> <Gold.PLP.ligand.torsion>
0.9971

> <Gold.PLP.Chemscore.Hbond>
3.9488

> <Gold.PLP.Chemscore.CHOScore>
0.0000

> <Gold.PLP.Chemscore.Metal>
0.0000

> <Gold.Chemscore.Hbonds>
donor molecule, donor type, donor heavy atom, donor atom, acceptor molecule, acceptor atom, score
      L1  H    12    44       P1  7948  2.00
      P1  H  6896  6908       L1     7  0.75
      P1  H  6931  6943       L1    20  0.85
      P1  H  6934  6947       L1    20  0.03

> <Gold.PLP.Chemscore.Internal.Correction>
0.2231

> <Gold.Rescore>
     Score         DG    S(hbond)    S(metal)    S(lipo)     H(rot)  DE(clash)    DE(int)     intcor
     14.06     -16.49       2.42        0.00      58.33       1.52       0.06       2.37       ----

> <Gold.Chemscore.Fitness>
14.0569

> <Gold.Chemscore.DG>
-16.4927

> <Gold.Chemscore.ZeroCoef>
-5.4800

> <Gold.Chemscore.Hbond>
2.4183

> <Gold.Chemscore.Metal>
0.0000

> <Gold.Chemscore.Lipo>
58.3271

> <Gold.Chemscore.Internal_Hbond>
0.0000

> <Gold.Chemscore.DEClash>
0.0641

> <Gold.Chemscore.DEInternal>
2.3716

> <Gold.Chemscore.Rot>
1.5190

> <Gold.Chemscore.Internal.Correction>
   9.000000E+99

> <Gold.Chemscore.Hbonds>
donor molecule, donor type, donor heavy atom, donor atom, acceptor molecule, acceptor atom, score
      L1  H    12    44       P1  7948  0.97
      P1  H  6896  6908       L1     7  0.30
      P1  H  6931  6943       L1    20  0.14

> <Gold.Chemscore.Hbond.Weighted>
-8.0771

> <Gold.Chemscore.Metal.Weighted>
-0.0000

> <Gold.Chemscore.Lipo.Weighted>
-6.8243

> <Gold.Chemscore.Internal_Hbond.Weighted>
0.0000

> <Gold.Chemscore.DEClash.Weighted>
0.0641

> <Gold.Chemscore.DEInternal.Weighted>
2.3716

> <Gold.Chemscore.Rot.Weighted>
3.8886

> <Gold.Chemscore.Internal.Correction.Weighted>
   9.000000E+99

> <Gold.Protein.RotatedTorsions>
[ 6907 6896 6895 6894 ] final  135.19 input  -60.11 | X-H torsion
[ 7974 7965 7964 7962 ] final   -3.32 input  175.53 | X-H torsion
[ 8008 7997 7996 7995 ] final  -72.79 input   59.86 | X-H torsion
[ 10167 10162 10161 10158 ] final   28.31 input  -65.29 | X-H torsion
[ 10718 10713 10712 10709 ] final  139.05 input   66.30 | X-H torsion
[ 10763 10752 10751 10750 ] final   31.04 input  -60.55 | X-H torsion
[ 11005 11000 10999 10996 ] final   54.68 input  -57.11 | X-H torsion

> <Gold.Protein.ActiveResidues>
 VAL166  LYS551  ARG553  GLY616  TRP617  ASP618  TYR619  PRO620  LYS621  CYS622 
 ASP623  PHE694  ASN695  SER759  ASP760  ASP761  ALA762  ILE779  LEU786  VAL792 
 PHE793  MET794  SER795  GLU796  ALA797  LYS798  CYS799  TRP800  GLU811  SER814 

> <Gold.Protein.RotatedAtoms>
  152.3031  133.5676  159.5631 H   0  0  0  0  0  0  0  0  0  0  0  0  # atno 6907 bound_to 6896
  150.7287  134.0262  159.3727 H   0  0  0  0  0  0  0  0  0  0  0  0  # atno 6908 bound_to 6896
  151.8160  135.0666  160.0470 H   0  0  0  0  0  0  0  0  0  0  0  0  # atno 6909 bound_to 6896
  146.2391  140.1703  142.8332 H   0  0  0  0  0  0  0  0  0  0  0  0  # atno 7974 bound_to 7965
  154.5195  140.0791  156.8144 H   0  0  0  0  0  0  0  0  0  0  0  0  # atno 8008 bound_to 7997
  155.3608  140.3418  155.4222 H   0  0  0  0  0  0  0  0  0  0  0  0  # atno 8009 bound_to 7997
  156.1665  140.1605  156.8510 H   0  0  0  0  0  0  0  0  0  0  0  0  # atno 8010 bound_to 7997
  140.4863  144.0536  150.6282 H   0  0  0  0  0  0  0  0  0  0  0  0  # atno 10167 bound_to 10162
  157.4187  131.1036  151.0377 H   0  0  0  0  0  0  0  0  0  0  0  0  # atno 10718 bound_to 10713
  153.0338  135.6449  154.1137 H   0  0  0  0  0  0  0  0  0  0  0  0  # atno 10763 bound_to 10752
  154.0855  135.2870  155.3283 H   0  0  0  0  0  0  0  0  0  0  0  0  # atno 10764 bound_to 10752
  154.6500  135.5429  153.7954 H   0  0  0  0  0  0  0  0  0  0  0  0  # atno 10765 bound_to 10752
  140.0667  134.5527  155.9091 H   0  0  0  0  0  0  0  0  0  0  0  0  # atno 11005 bound_to 11000
  145.0017  140.8637  143.5278 LP  0  0  0  0  0  0  0  0  0  0  0  0  # atno 17320 bound_to 7965
  145.1723  139.2397  143.5335 LP  0  0  0  0  0  0  0  0  0  0  0  0  # atno 17321 bound_to 7965
  140.3793  143.2811  152.0189 LP  0  0  0  0  0  0  0  0  0  0  0  0  # atno 17342 bound_to 10162
  139.4842  144.6168  151.7332 LP  0  0  0  0  0  0  0  0  0  0  0  0  # atno 17343 bound_to 10162
  157.1315  130.6104  149.5531 LP  0  0  0  0  0  0  0  0  0  0  0  0  # atno 17370 bound_to 10713
  155.9873  130.4912  150.7120 LP  0  0  0  0  0  0  0  0  0  0  0  0  # atno 17371 bound_to 10713
  141.1995  133.6607  156.5850 LP  0  0  0  0  0  0  0  0  0  0  0  0  # atno 17394 bound_to 11000
  140.3688  134.7623  157.4584 LP  0  0  0  0  0  0  0  0  0  0  0  0  # atno 17395 bound_to 11000

$$$$
