AV-unprocessed.smi:33|AV-procd|sdf|210|dock2
  -GOLD-   2262015503D 1   1.00000     0.00000
 Structure written by MMmdl.
 67 72  0  0  0  0  0  0  0  0  1 V2000
  150.9488  141.7476  155.5940 O   0  0  0  0  0  0  0  0  0  0  0  0
  150.5433  141.9634  156.7378 C   0  0  0  0  0  0  0  0  0  0  0  0
  149.5962  141.2239  157.3449 O   0  0  0  0  0  0  0  0  0  0  0  0
  148.8926  140.2310  156.6174 C   0  0  0  0  0  0  0  0  0  0  0  0
  149.6889  138.9226  156.6733 C   0  0  1  0  0  0  0  0  0  0  0  0
  148.9125  137.8331  156.1761 O   0  0  0  0  0  0  0  0  0  0  0  0
  149.7485  136.8631  155.6132 C   0  0  2  0  0  0  0  0  0  0  0  0
  149.6003  135.5964  156.3970 N   0  0  0  0  0  0  0  0  0  0  0  0
  150.6113  134.7528  156.8022 C   0  0  0  0  0  0  0  0  0  0  0  0
  150.2317  133.7033  157.4791 N   0  0  0  0  0  0  0  0  0  0  0  0
  148.8500  133.8234  157.5338 C   0  0  0  0  0  0  0  0  0  0  0  0
  147.8143  133.0403  158.1111 C   0  0  0  0  0  0  0  0  0  0  0  0
  148.0530  131.8963  158.7941 N   0  0  0  0  0  0  0  0  0  0  0  0
  147.4625  131.7839  160.1350 C   0  0  0  0  0  0  0  0  0  0  0  0
  147.2192  130.6695  160.6017 O   0  0  0  0  0  0  0  0  0  0  0  0
  147.1145  133.0184  160.9174 C   0  0  0  0  0  0  0  0  0  0  0  0
  145.9604  133.0395  161.7308 C   0  0  0  0  0  0  0  0  0  0  0  0
  145.6400  134.1893  162.4784 C   0  0  0  0  0  0  0  0  0  0  0  0
  146.4811  135.3175  162.4326 C   0  0  0  0  0  0  0  0  0  0  0  0
  147.6478  135.2930  161.6453 C   0  0  0  0  0  0  0  0  0  0  0  0
  147.9683  134.1444  160.8964 C   0  0  0  0  0  0  0  0  0  0  0  0
  148.8746  130.8720  158.1318 C   0  0  0  0  0  0  0  0  0  0  0  0
  149.4901  130.0519  158.8157 O   0  0  0  0  0  0  0  0  0  0  0  0
  149.0139  130.8550  156.6356 C   0  0  0  0  0  0  0  0  0  0  0  0
  150.2503  130.5123  156.0453 C   0  0  0  0  0  0  0  0  0  0  0  0
  150.3836  130.4806  154.6437 C   0  0  0  0  0  0  0  0  0  0  0  0
  149.2776  130.7733  153.8234 C   0  0  0  0  0  0  0  0  0  0  0  0
  148.0348  131.0881  154.4050 C   0  0  0  0  0  0  0  0  0  0  0  0
  147.9005  131.1203  155.8064 C   0  0  0  0  0  0  0  0  0  0  0  0
  146.5341  133.4696  157.9683 N   0  0  0  0  0  0  0  0  0  0  0  0
  146.2853  134.5992  157.3000 C   0  0  0  0  0  0  0  0  0  0  0  0
  147.1507  135.4306  156.7153 N   0  0  0  0  0  0  0  0  0  0  0  0
  148.4391  135.0038  156.8549 C   0  0  0  0  0  0  0  0  0  0  0  0
  151.1852  137.4007  155.6775 C   0  0  1  0  0  0  0  0  0  0  0  0
  151.9549  137.1073  154.5289 O   0  0  0  0  0  0  0  0  0  0  0  0
  150.9341  138.8959  155.7900 C   0  0  1  0  0  0  0  0  0  0  0  0
  150.6314  139.4203  154.5983 F   0  0  0  0  0  0  0  0  0  0  0  0
  151.0504  143.0726  157.5964 C   0  0  0  0  0  0  0  0  0  0  0  0
  150.5154  143.2445  158.8945 C   0  0  0  0  0  0  0  0  0  0  0  0
  150.9762  144.2817  159.7285 C   0  0  0  0  0  0  0  0  0  0  0  0
  151.9780  145.1593  159.2747 C   0  0  0  0  0  0  0  0  0  0  0  0
  152.5184  144.9990  157.9854 C   0  0  0  0  0  0  0  0  0  0  0  0
  152.0588  143.9626  157.1497 C   0  0  0  0  0  0  0  0  0  0  0  0
  147.8907  140.0922  157.0263 H   0  0  0  0  0  0  0  0  0  0  0  0
  148.7868  140.5573  155.5818 H   0  0  0  0  0  0  0  0  0  0  0  0
  149.9876  138.7242  157.7021 H   0  0  0  0  0  0  0  0  0  0  0  0
  149.4094  136.6251  154.6040 H   0  0  0  0  0  0  0  0  0  0  0  0
  151.6516  134.9451  156.5836 H   0  0  0  0  0  0  0  0  0  0  0  0
  145.3079  132.1793  161.7740 H   0  0  0  0  0  0  0  0  0  0  0  0
  144.7491  134.2049  163.0885 H   0  0  0  0  0  0  0  0  0  0  0  0
  146.2352  136.1986  163.0066 H   0  0  0  0  0  0  0  0  0  0  0  0
  148.2987  136.1544  161.6168 H   0  0  0  0  0  0  0  0  0  0  0  0
  148.8697  134.1344  160.3005 H   0  0  0  0  0  0  0  0  0  0  0  0
  151.1062  130.2861  156.6646 H   0  0  0  0  0  0  0  0  0  0  0  0
  151.3350  130.2308  154.1979 H   0  0  0  0  0  0  0  0  0  0  0  0
  149.3809  130.7496  152.7485 H   0  0  0  0  0  0  0  0  0  0  0  0
  147.1834  131.3038  153.7765 H   0  0  0  0  0  0  0  0  0  0  0  0
  146.9403  131.3582  156.2411 H   0  0  0  0  0  0  0  0  0  0  0  0
  145.2449  134.8787  157.2253 H   0  0  0  0  0  0  0  0  0  0  0  0
  151.6886  137.0367  156.5740 H   0  0  0  0  0  0  0  0  0  0  0  0
  152.6892  137.7017  154.5006 H   0  0  0  0  0  0  0  0  0  0  0  0
  151.7764  139.4519  156.2028 H   0  0  0  0  0  0  0  0  0  0  0  0
  149.7456  142.5827  159.2649 H   0  0  0  0  0  0  0  0  0  0  0  0
  150.5603  144.4029  160.7179 H   0  0  0  0  0  0  0  0  0  0  0  0
  152.3319  145.9543  159.9146 H   0  0  0  0  0  0  0  0  0  0  0  0
  153.2879  145.6717  157.6362 H   0  0  0  0  0  0  0  0  0  0  0  0
  152.4962  143.8672  156.1665 H   0  0  0  0  0  0  0  0  0  0  0  0
  1  2  2  0  0  0  0
  2  3  1  0  0  0  0
  2 38  1  0  0  0  0
  3  4  1  0  0  0  0
  4  5  1  0  0  0  0
  4 44  1  0  0  0  0
  4 45  1  0  0  0  0
  5 36  1  0  0  0  0
  5  6  1  0  0  0  0
  5 46  1  0  0  0  0
  6  7  1  0  0  0  0
  7  8  1  0  0  0  0
  7 34  1  0  0  0  0
  7 47  1  0  0  0  0
  8 33  1  0  0  0  0
  8  9  1  0  0  0  0
  9 10  2  0  0  0  0
  9 48  1  0  0  0  0
 10 11  1  0  0  0  0
 11 33  2  0  0  0  0
 11 12  1  0  0  0  0
 12 13  1  0  0  0  0
 12 30  2  0  0  0  0
 13 14  1  0  0  0  0
 13 22  1  0  0  0  0
 14 15  2  0  0  0  0
 14 16  1  0  0  0  0
 16 21  1  0  0  0  0
 16 17  2  0  0  0  0
 17 18  1  0  0  0  0
 17 49  1  0  0  0  0
 18 19  2  0  0  0  0
 18 50  1  0  0  0  0
 19 20  1  0  0  0  0
 19 51  1  0  0  0  0
 20 21  2  0  0  0  0
 20 52  1  0  0  0  0
 21 53  1  0  0  0  0
 22 23  2  0  0  0  0
 22 24  1  0  0  0  0
 24 29  1  0  0  0  0
 24 25  2  0  0  0  0
 25 26  1  0  0  0  0
 25 54  1  0  0  0  0
 26 27  2  0  0  0  0
 26 55  1  0  0  0  0
 27 28  1  0  0  0  0
 27 56  1  0  0  0  0
 28 29  2  0  0  0  0
 28 57  1  0  0  0  0
 29 58  1  0  0  0  0
 30 31  1  0  0  0  0
 31 32  2  0  0  0  0
 31 59  1  0  0  0  0
 32 33  1  0  0  0  0
 34 35  1  0  0  0  0
 34 36  1  0  0  0  0
 34 60  1  0  0  0  0
 35 61  1  0  0  0  0
 36 37  1  0  0  0  0
 36 62  1  0  0  0  0
 38 43  1  0  0  0  0
 38 39  2  0  0  0  0
 39 40  1  0  0  0  0
 39 63  1  0  0  0  0
 40 41  2  0  0  0  0
 40 64  1  0  0  0  0
 41 42  1  0  0  0  0
 41 65  1  0  0  0  0
 42 43  2  0  0  0  0
 42 66  1  0  0  0  0
 43 67  1  0  0  0  0
M  END
> <s_m_source_file>
AV-unprocessed.smi

> <i_m_source_file_index>
33

> <i_lp_mmshare_version>
43012

> <i_f3d_flags>
0

> <s_epik_input>
W2NIXTFbY0hdW2NIXVtjSF1bY0hdYzFDKD1PKU9bQ0gyXVtDQEBIXTJPW0NASF0oW0NAQEhdKFtPSF0pW0NAQEhdMkYpbihbY0hdbjMpYyhjMzQpbltjSF1uYzROKEMoPU8pYzVbY0hdW2NIXVtjSF1bY0hdW2NIXTUpQyg9TyljNltjSF1bY0hdW2NIXVtjSF1bY0hdNg==

> <s_epik_cmdline>
J2VwaWtfcHl0aG9uJywgJy1waCcsICc3LjAnLCAnLXRuJywgJzgnLCAnLW1hJywgJzIwMCcsICctbWV0YWxfYmluZGluZycsICctaW1hZScsICc8aW5maWxlLm1hZT4nLCAnLW9tYWUnLCAnPG91dGZpbGUubWFlPic=

> <r_lp_tautomer_probability>
1

> <r_epik_Ionization_Penalty>
0.00067664

> <r_epik_Ionization_Penalty_Charging>
0

> <r_epik_Ionization_Penalty_Neutral>
0.00067664

> <r_epik_State_Penalty>
0.000428095

> <r_epik_Charging_Adjusted_Penalty>
0.000428095

> <i_epik_Tot_Q>
0

> <i_epik_Tot_abs_Q>
0

> <r_epik_Metal_State_Penalty>
-0

> <b_epik_Metal_Only>
0

> <s_epik_Chemistry_Notes>
This compound has an ester and may undergo hydrolysis at high or low pH. This compound contains an acetal/aminal-like group ( X-CH(R)-Y where X, Y are N, S, or O) that may be acid/base labile, releasing an aldehyde.

> <s_lp_Force_Field>
OPLS_2005

> <r_lp_Energy>
69.9903

> <b_lp_Chiralities_Consistent>
1

> <s_lp_Variant>
AV-unprocessed.smi:33-12

> <Gold.Version>
5.8.1

> <Gold.Id.Protein>
6NUR|6NUR_protein|mol2

> <Gold.PLP.Fitness>
57.2900

> <Gold.PLP.PLP>
-53.7899

> <Gold.PLP.part.hbond>
-3.0129

> <Gold.PLP.part.metal>
0.0000

> <Gold.PLP.part.buried>
-5.3236

> <Gold.PLP.part.nonpolar>
-44.8253

> <Gold.PLP.part.repulsive>
0.1596

> <Gold.PLP.ligand.clash>
0.0000

> <Gold.PLP.ligand.torsion>
3.3061

> <Gold.PLP.Chemscore.Hbond>
1.7455

> <Gold.PLP.Chemscore.CHOScore>
0.0000

> <Gold.PLP.Chemscore.Metal>
0.0000

> <Gold.Chemscore.Hbonds>
donor molecule, donor type, donor heavy atom, donor atom, acceptor molecule, acceptor atom, score
      P1  H  6896  6907       L1    10  0.91
      P1  H  7989  7998       L1     1  0.07
      P1  H 10752 10763       L1    35  0.73

> <Gold.PLP.Chemscore.Internal.Correction>
4.8757

> <Gold.Rescore>
     Score         DG    S(hbond)    S(metal)    S(lipo)     H(rot)  DE(clash)    DE(int)     intcor
      8.73     -20.04       0.96        0.00     152.26       2.52       0.14      11.17       ----

> <Gold.Chemscore.Fitness>
8.7322

> <Gold.Chemscore.DG>
-20.0449

> <Gold.Chemscore.ZeroCoef>
-5.4800

> <Gold.Chemscore.Hbond>
0.9623

> <Gold.Chemscore.Metal>
0.0000

> <Gold.Chemscore.Lipo>
152.2579

> <Gold.Chemscore.Internal_Hbond>
0.0000

> <Gold.Chemscore.DEClash>
0.1385

> <Gold.Chemscore.DEInternal>
11.1742

> <Gold.Chemscore.Rot>
2.5247

> <Gold.Chemscore.Internal.Correction>
   9.000000E+99

> <Gold.Chemscore.Hbonds>
donor molecule, donor type, donor heavy atom, donor atom, acceptor molecule, acceptor atom, score
      P1  H  6896  6907       L1    10  0.62
      P1  H  7989  7998       L1     1  0.08
      P1  H 10752 10763       L1    35  0.09

> <Gold.Chemscore.Hbond.Weighted>
-3.2140

> <Gold.Chemscore.Metal.Weighted>
-0.0000

> <Gold.Chemscore.Lipo.Weighted>
-17.8142

> <Gold.Chemscore.Internal_Hbond.Weighted>
0.0000

> <Gold.Chemscore.DEClash.Weighted>
0.1385

> <Gold.Chemscore.DEInternal.Weighted>
11.1742

> <Gold.Chemscore.Rot.Weighted>
6.4633

> <Gold.Chemscore.Internal.Correction.Weighted>
   9.000000E+99

> <Gold.Protein.RotatedTorsions>
[ 6907 6896 6895 6894 ] final -134.84 input  -60.11 | X-H torsion
[ 7974 7965 7964 7962 ] final -110.49 input  175.53 | X-H torsion
[ 8008 7997 7996 7995 ] final   12.41 input   59.86 | X-H torsion
[ 10167 10162 10161 10158 ] final  -41.03 input  -65.29 | X-H torsion
[ 10718 10713 10712 10709 ] final   63.94 input   66.30 | X-H torsion
[ 10763 10752 10751 10750 ] final   51.59 input  -60.55 | X-H torsion
[ 11005 11000 10999 10996 ] final -100.66 input  -57.11 | X-H torsion

> <Gold.Protein.ActiveResidues>
 VAL166  LYS551  ARG553  GLY616  TRP617  ASP618  TYR619  PRO620  LYS621  CYS622 
 ASP623  PHE694  ASN695  SER759  ASP760  ASP761  ALA762  ILE779  LEU786  VAL792 
 PHE793  MET794  SER795  GLU796  ALA797  LYS798  CYS799  TRP800  GLU811  SER814 

> <Gold.Protein.RotatedAtoms>
  150.9907  133.6152  159.2708 H   0  0  0  0  0  0  0  0  0  0  0  0  # atno 6907 bound_to 6896
  151.3374  135.0855  159.9369 H   0  0  0  0  0  0  0  0  0  0  0  0  # atno 6908 bound_to 6896
  152.5245  133.9525  159.7733 H   0  0  0  0  0  0  0  0  0  0  0  0  # atno 6909 bound_to 6896
  145.1676  140.8910  143.3554 H   0  0  0  0  0  0  0  0  0  0  0  0  # atno 7974 bound_to 7965
  154.8203  140.2883  155.5791 H   0  0  0  0  0  0  0  0  0  0  0  0  # atno 8008 bound_to 7997
  156.2997  140.2551  156.3039 H   0  0  0  0  0  0  0  0  0  0  0  0  # atno 8009 bound_to 7997
  154.9346  140.0382  157.2055 H   0  0  0  0  0  0  0  0  0  0  0  0  # atno 8010 bound_to 7997
  140.7016  143.3118  151.3008 H   0  0  0  0  0  0  0  0  0  0  0  0  # atno 10167 bound_to 10162
  157.6006  130.9133  149.9781 H   0  0  0  0  0  0  0  0  0  0  0  0  # atno 10718 bound_to 10713
  152.9786  135.5841  154.4440 H   0  0  0  0  0  0  0  0  0  0  0  0  # atno 10763 bound_to 10752
  154.4038  135.2769  155.2082 H   0  0  0  0  0  0  0  0  0  0  0  0  # atno 10764 bound_to 10752
  154.3902  135.6127  153.5893 H   0  0  0  0  0  0  0  0  0  0  0  0  # atno 10765 bound_to 10752
  141.1262  133.8416  157.1131 H   0  0  0  0  0  0  0  0  0  0  0  0  # atno 11005 bound_to 11000
  145.0266  139.3377  143.6045 LP  0  0  0  0  0  0  0  0  0  0  0  0  # atno 17320 bound_to 7965
  146.3473  139.9587  142.8720 LP  0  0  0  0  0  0  0  0  0  0  0  0  # atno 17321 bound_to 7965
  139.6544  144.0303  152.2649 LP  0  0  0  0  0  0  0  0  0  0  0  0  # atno 17342 bound_to 10162
  139.9850  144.6402  150.7866 LP  0  0  0  0  0  0  0  0  0  0  0  0  # atno 17343 bound_to 10162
  156.1078  130.3651  150.0103 LP  0  0  0  0  0  0  0  0  0  0  0  0  # atno 17370 bound_to 10713
  156.8207  130.9357  151.3641 LP  0  0  0  0  0  0  0  0  0  0  0  0  # atno 17371 bound_to 10713
  140.0263  134.9922  157.0692 LP  0  0  0  0  0  0  0  0  0  0  0  0  # atno 17394 bound_to 11000
  140.4358  134.1733  155.7170 LP  0  0  0  0  0  0  0  0  0  0  0  0  # atno 17395 bound_to 11000

$$$$
