AV-unprocessed.smi:3165|AV-procd|sdf|12086|dock9
  -GOLD-   2272017513D 1   1.00000     0.00000
 Structure written by MMmdl.
 38 39  0  0  0  0  0  0  0  0  2 V2000
  147.1001  141.8127  155.6510 C   0  0  0  0  0  0  0  0  0  0  0  0
  148.4351  141.0508  155.7682 C   0  0  1  0  0  0  0  0  0  0  0  0
  148.8901  140.4552  154.4189 C   0  0  0  0  0  0  0  0  0  0  0  0
  149.9802  139.5052  154.5511 N   0  0  0  0  0  0  0  0  0  0  0  0
  149.9692  138.1463  154.3148 C   0  0  0  0  0  0  0  0  0  0  0  0
  151.2287  137.6809  154.5624 C   0  0  0  0  0  0  0  0  0  0  0  0
  151.9512  138.8460  154.9431 C   0  0  0  0  0  0  0  0  0  0  0  0
  151.2022  139.9371  154.9308 N   0  0  0  0  0  0  0  0  0  0  0  0
  149.5064  141.9224  156.3003 N   0  3  0  0  0  0  0  0  0  0  0  0
  149.5842  142.0112  157.7741 C   0  0  0  0  0  0  0  0  0  0  0  0
  150.3793  143.2511  158.2065 C   0  0  2  0  0  0  0  0  0  0  0  0
  151.7680  143.3036  157.5405 C   0  0  0  0  0  0  0  0  0  0  0  0
  152.5733  144.4991  158.0628 C   0  0  0  0  0  0  0  0  0  0  0  0
  152.6121  144.4674  159.5943 C   0  0  0  0  0  0  0  0  0  0  0  0
  151.1892  144.3482  160.1620 C   0  0  0  0  0  0  0  0  0  0  0  0
  150.5460  143.1972  159.6223 O   0  0  0  0  0  0  0  0  0  0  0  0
  146.3044  141.1674  155.2780 H   0  0  0  0  0  0  0  0  0  0  0  0
  147.1861  142.6591  154.9689 H   0  0  0  0  0  0  0  0  0  0  0  0
  146.7640  142.1942  156.6147 H   0  0  0  0  0  0  0  0  0  0  0  0
  148.3022  140.2252  156.4691 H   0  0  0  0  0  0  0  0  0  0  0  0
  148.0549  139.9528  153.9282 H   0  0  0  0  0  0  0  0  0  0  0  0
  149.2148  141.2489  153.7444 H   0  0  0  0  0  0  0  0  0  0  0  0
  149.0767  137.6283  153.9957 H   0  0  0  0  0  0  0  0  0  0  0  0
  151.5814  136.6636  154.4815 H   0  0  0  0  0  0  0  0  0  0  0  0
  152.9907  138.9311  155.2237 H   0  0  0  0  0  0  0  0  0  0  0  0
  150.3886  141.5514  155.9774 H   0  0  0  0  0  0  0  0  0  0  0  0
  148.5848  142.0427  158.2077 H   0  0  0  0  0  0  0  0  0  0  0  0
  150.0726  141.1130  158.1539 H   0  0  0  0  0  0  0  0  0  0  0  0
  149.8159  144.1474  157.9401 H   0  0  0  0  0  0  0  0  0  0  0  0
  152.3115  142.3807  157.7479 H   0  0  0  0  0  0  0  0  0  0  0  0
  151.6667  143.3695  156.4568 H   0  0  0  0  0  0  0  0  0  0  0  0
  153.5848  144.4843  157.6560 H   0  0  0  0  0  0  0  0  0  0  0  0
  152.1126  145.4285  157.7257 H   0  0  0  0  0  0  0  0  0  0  0  0
  153.2093  143.6184  159.9292 H   0  0  0  0  0  0  0  0  0  0  0  0
  153.0996  145.3638  159.9786 H   0  0  0  0  0  0  0  0  0  0  0  0
  151.2265  144.2543  161.2474 H   0  0  0  0  0  0  0  0  0  0  0  0
  150.6048  145.2426  159.9401 H   0  0  0  0  0  0  0  0  0  0  0  0
  149.3939  142.8518  155.9203 H   0  0  0  0  0  0  0  0  0  0  0  0
  1  2  1  0  0  0  0
  1 17  1  0  0  0  0
  1 18  1  0  0  0  0
  1 19  1  0  0  0  0
  2  3  1  0  0  0  0
  2  9  1  0  0  0  0
  2 20  1  0  0  0  0
  3  4  1  0  0  0  0
  3 21  1  0  0  0  0
  3 22  1  0  0  0  0
  4  8  1  0  0  0  0
  4  5  1  0  0  0  0
  5  6  2  0  0  0  0
  5 23  1  0  0  0  0
  6  7  1  0  0  0  0
  6 24  1  0  0  0  0
  7  8  2  0  0  0  0
  7 25  1  0  0  0  0
  9 10  1  0  0  0  0
  9 26  1  0  0  0  0
  9 38  1  0  0  0  0
 10 11  1  0  0  0  0
 10 27  1  0  0  0  0
 10 28  1  0  0  0  0
 11 16  1  0  0  0  0
 11 12  1  0  0  0  0
 11 29  1  0  0  0  0
 12 13  1  0  0  0  0
 12 30  1  0  0  0  0
 12 31  1  0  0  0  0
 13 14  1  0  0  0  0
 13 32  1  0  0  0  0
 13 33  1  0  0  0  0
 14 15  1  0  0  0  0
 14 34  1  0  0  0  0
 14 35  1  0  0  0  0
 15 16  1  0  0  0  0
 15 36  1  0  0  0  0
 15 37  1  0  0  0  0
M  CHG  1   9   1
M  END
> <s_m_source_file>
AV-unprocessed.smi

> <i_m_source_file_index>
3165

> <i_lp_mmshare_version>
43012

> <i_f3d_flags>
0

> <s_epik_input>
bjFbY0hdW2NIXVtjSF1uMVtDSDJdW0NAQEhdKFtDSDNdKVtOSF1bQ0gyXVtDQEBIXTJbQ0gyXVtDSDJdW0NIMl1bQ0gyXU8y

> <s_epik_cmdline>
J2VwaWtfcHl0aG9uJywgJy1waCcsICc3LjAnLCAnLXRuJywgJzgnLCAnLW1hJywgJzIwMCcsICctbWV0YWxfYmluZGluZycsICctaW1hZScsICc8aW5maWxlLm1hZT4nLCAnLW9tYWUnLCAnPG91dGZpbGUubWFlPic=

> <r_lp_tautomer_probability>
1

> <r_epik_Ionization_Penalty>
0.00849196

> <r_epik_Ionization_Penalty_Charging>
0.00848754

> <r_epik_Ionization_Penalty_Neutral>
4.42049e-06

> <r_epik_State_Penalty>
0.00639836

> <r_epik_Charging_Adjusted_Penalty>
0.0148859

> <i_epik_Tot_Q>
1

> <i_epik_Tot_abs_Q>
1

> <r_epik_Metal_State_Penalty>
0.00639878

> <b_epik_Metal_Only>
0

> <s_lp_Force_Field>
OPLS_2005

> <r_lp_Energy>
12.7684

> <b_lp_Chiralities_Consistent>
1

> <s_lp_Variant>
AV-unprocessed.smi:3165-2

> <Gold.Version>
5.8.1

> <Gold.Id.Protein>
6NUR|6NUR_protein|mol2

> <Gold.PLP.Fitness>
48.3366

> <Gold.PLP.PLP>
-37.6618

> <Gold.PLP.part.hbond>
-3.0000

> <Gold.PLP.part.metal>
0.0000

> <Gold.PLP.part.buried>
-4.4738

> <Gold.PLP.part.nonpolar>
-31.1740

> <Gold.PLP.part.repulsive>
0.1821

> <Gold.PLP.ligand.clash>
0.0000

> <Gold.PLP.ligand.torsion>
0.5482

> <Gold.PLP.Chemscore.Hbond>
2.9000

> <Gold.PLP.Chemscore.CHOScore>
1.0000

> <Gold.PLP.Chemscore.Metal>
0.0000

> <Gold.Chemscore.Hbonds>
donor molecule, donor type, donor heavy atom, donor atom, acceptor molecule, acceptor atom, score
      L1  H     9    38       P1  8028  2.00
      P1  H  7989  7998       L1     8  1.00
      L1  C     5    23       P1  7948  0.84

> <Gold.PLP.Chemscore.Internal.Correction>
0.0711

> <Gold.Rescore>
     Score         DG    S(hbond)    S(metal)    S(lipo)     H(rot)  DE(clash)    DE(int)     intcor
     16.81     -17.76       1.40        0.00     100.83       1.64       0.18       0.77       ----

> <Gold.Chemscore.Fitness>
16.8135

> <Gold.Chemscore.DG>
-17.7602

> <Gold.Chemscore.ZeroCoef>
-5.4800

> <Gold.Chemscore.Hbond>
1.4049

> <Gold.Chemscore.Metal>
0.0000

> <Gold.Chemscore.Lipo>
100.8325

> <Gold.Chemscore.Internal_Hbond>
0.0000

> <Gold.Chemscore.DEClash>
0.1755

> <Gold.Chemscore.DEInternal>
0.7712

> <Gold.Chemscore.Rot>
1.6444

> <Gold.Chemscore.Internal.Correction>
   9.000000E+99

> <Gold.Chemscore.Hbonds>
donor molecule, donor type, donor heavy atom, donor atom, acceptor molecule, acceptor atom, score
      L1  H     9    38       P1  8028  0.99
      P1  H  7989  7998       L1     8  0.15

> <Gold.Chemscore.Hbond.Weighted>
-4.6925

> <Gold.Chemscore.Metal.Weighted>
-0.0000

> <Gold.Chemscore.Lipo.Weighted>
-11.7974

> <Gold.Chemscore.Internal_Hbond.Weighted>
0.0000

> <Gold.Chemscore.DEClash.Weighted>
0.1755

> <Gold.Chemscore.DEInternal.Weighted>
0.7712

> <Gold.Chemscore.Rot.Weighted>
4.2097

> <Gold.Chemscore.Internal.Correction.Weighted>
   9.000000E+99

> <Gold.Protein.RotatedTorsions>
[ 6907 6896 6895 6894 ] final  -68.61 input  -60.11 | X-H torsion
[ 7974 7965 7964 7962 ] final   49.45 input  175.53 | X-H torsion
[ 8008 7997 7996 7995 ] final  174.85 input   59.86 | X-H torsion
[ 10167 10162 10161 10158 ] final  151.74 input  -65.29 | X-H torsion
[ 10718 10713 10712 10709 ] final -134.98 input   66.30 | X-H torsion
[ 10763 10752 10751 10750 ] final   14.93 input  -60.55 | X-H torsion
[ 11005 11000 10999 10996 ] final  -95.67 input  -57.11 | X-H torsion

> <Gold.Protein.ActiveResidues>
 VAL166  LYS551  ARG553  GLY616  TRP617  ASP618  TYR619  PRO620  LYS621  CYS622 
 ASP623  PHE694  ASN695  SER759  ASP760  ASP761  ALA762  ILE779  LEU786  VAL792 
 PHE793  MET794  SER795  GLU796  ALA797  LYS798  CYS799  TRP800  GLU811  SER814 

> <Gold.Protein.RotatedAtoms>
  150.7347  134.5715  159.5892 H   0  0  0  0  0  0  0  0  0  0  0  0  # atno 6907 bound_to 6896
  152.3153  134.7445  160.0336 H   0  0  0  0  0  0  0  0  0  0  0  0  # atno 6908 bound_to 6896
  151.7979  133.3331  159.3555 H   0  0  0  0  0  0  0  0  0  0  0  0  # atno 6909 bound_to 6896
  146.0108  139.4541  142.9957 H   0  0  0  0  0  0  0  0  0  0  0  0  # atno 7974 bound_to 7965
  156.0932  140.1424  156.9565 H   0  0  0  0  0  0  0  0  0  0  0  0  # atno 8008 bound_to 7997
  154.4655  140.0928  156.7054 H   0  0  0  0  0  0  0  0  0  0  0  0  # atno 8009 bound_to 7997
  155.4885  140.3447  155.4353 H   0  0  0  0  0  0  0  0  0  0  0  0  # atno 8010 bound_to 7997
  139.4838  144.5415  151.7556 H   0  0  0  0  0  0  0  0  0  0  0  0  # atno 10167 bound_to 10162
  156.2613  130.7211  151.1146 H   0  0  0  0  0  0  0  0  0  0  0  0  # atno 10718 bound_to 10713
  153.1574  135.6790  153.8792 H   0  0  0  0  0  0  0  0  0  0  0  0  # atno 10763 bound_to 10752
  153.8198  135.3131  155.3410 H   0  0  0  0  0  0  0  0  0  0  0  0  # atno 10764 bound_to 10752
  154.7908  135.4836  154.0136 H   0  0  0  0  0  0  0  0  0  0  0  0  # atno 10765 bound_to 10752
  141.1435  133.8043  157.0467 H   0  0  0  0  0  0  0  0  0  0  0  0  # atno 11005 bound_to 11000
  145.7345  141.0030  143.1334 LP  0  0  0  0  0  0  0  0  0  0  0  0  # atno 17320 bound_to 7965
  144.6952  139.9024  143.7459 LP  0  0  0  0  0  0  0  0  0  0  0  0  # atno 17321 bound_to 7965
  140.4956  144.1246  150.5959 LP  0  0  0  0  0  0  0  0  0  0  0  0  # atno 17342 bound_to 10162
  140.4122  143.2651  151.9819 LP  0  0  0  0  0  0  0  0  0  0  0  0  # atno 17343 bound_to 10162
  157.7251  131.0655  150.5966 LP  0  0  0  0  0  0  0  0  0  0  0  0  # atno 17370 bound_to 10713
  156.6054  130.4365  149.5880 LP  0  0  0  0  0  0  0  0  0  0  0  0  # atno 17371 bound_to 10713
  140.0658  134.9730  157.1383 LP  0  0  0  0  0  0  0  0  0  0  0  0  # atno 17394 bound_to 11000
  140.3782  134.2316  155.7173 LP  0  0  0  0  0  0  0  0  0  0  0  0  # atno 17395 bound_to 11000

$$$$
