AV-unprocessed.smi:47|AV-procd|sdf|443|dock7
  -GOLD-   2262016313D 1   1.00000     0.00000
 Structure written by MMmdl.
 30 32  0  0  0  0  0  0  0  0  2 V2000
  145.0787  140.2387  154.6990 O   0  0  0  0  0  0  0  0  0  0  0  0
  146.4871  140.1435  154.6708 C   0  0  1  0  0  0  0  0  0  0  0  0
  147.0150  139.7226  153.3057 C   0  0  0  0  0  0  0  0  0  0  0  0
  148.4117  140.1336  153.3144 N   0  0  0  0  0  0  0  0  0  0  0  0
  148.5179  141.3424  154.1400 C   0  0  2  0  0  0  0  0  0  0  0  0
  149.6930  141.2944  155.0999 C   0  0  0  0  0  0  0  0  0  0  0  0
  150.6710  140.3656  155.0850 N   0  0  0  0  0  0  0  0  0  0  0  0
  151.4670  140.6530  156.0976 N   0  5  0  0  0  0  0  0  0  0  0  0
  150.9652  141.7324  156.7166 C   0  0  0  0  0  0  0  0  0  0  0  0
  151.6069  142.3289  157.9065 C   0  0  0  0  0  0  0  0  0  0  0  0
  151.5904  143.7294  158.1022 C   0  0  0  0  0  0  0  0  0  0  0  0
  152.1980  144.3131  159.2311 C   0  0  0  0  0  0  0  0  0  0  0  0
  152.8339  143.5007  160.1870 C   0  0  0  0  0  0  0  0  0  0  0  0
  152.8596  142.1055  160.0094 C   0  0  0  0  0  0  0  0  0  0  0  0
  152.2516  141.5270  158.8782 C   0  0  0  0  0  0  0  0  0  0  0  0
  149.8565  142.1497  156.1214 N   0  0  0  0  0  0  0  0  0  0  0  0
  147.1780  141.4864  154.8849 C   0  0  0  0  0  0  0  0  0  0  0  0
  146.8184  139.4322  155.4290 H   0  0  0  0  0  0  0  0  0  0  0  0
  148.6539  142.2109  153.4944 H   0  0  0  0  0  0  0  0  0  0  0  0
  144.7606  140.2102  153.8097 H   0  0  0  0  0  0  0  0  0  0  0  0
  146.9045  138.6538  153.1216 H   0  0  0  0  0  0  0  0  0  0  0  0
  146.4808  140.2567  152.5187 H   0  0  0  0  0  0  0  0  0  0  0  0
  148.7036  140.3377  152.3644 H   0  0  0  0  0  0  0  0  0  0  0  0
  151.1060  144.3700  157.3799 H   0  0  0  0  0  0  0  0  0  0  0  0
  152.1748  145.3847  159.3618 H   0  0  0  0  0  0  0  0  0  0  0  0
  153.3004  143.9456  161.0535 H   0  0  0  0  0  0  0  0  0  0  0  0
  153.3456  141.4770  160.7407 H   0  0  0  0  0  0  0  0  0  0  0  0
  152.2845  140.4536  158.7626 H   0  0  0  0  0  0  0  0  0  0  0  0
  146.5972  142.2815  154.4145 H   0  0  0  0  0  0  0  0  0  0  0  0
  147.2878  141.7423  155.9397 H   0  0  0  0  0  0  0  0  0  0  0  0
  1  2  1  0  0  0  0
  1 20  1  0  0  0  0
  2 18  1  0  0  0  0
  2 17  1  0  0  0  0
  2  3  1  0  0  0  0
  3  4  1  0  0  0  0
  3 21  1  0  0  0  0
  3 22  1  0  0  0  0
  4  5  1  0  0  0  0
  4 23  1  0  0  0  0
  5 19  1  0  0  0  0
  5  6  1  0  0  0  0
  5 17  1  0  0  0  0
  6 16  1  0  0  0  0
  6  7  2  0  0  0  0
  7  8  1  0  0  0  0
  8  9  1  0  0  0  0
  9 10  1  0  0  0  0
  9 16  2  0  0  0  0
 10 15  1  0  0  0  0
 10 11  2  0  0  0  0
 11 12  1  0  0  0  0
 11 24  1  0  0  0  0
 12 13  2  0  0  0  0
 12 25  1  0  0  0  0
 13 14  1  0  0  0  0
 13 26  1  0  0  0  0
 14 15  2  0  0  0  0
 14 27  1  0  0  0  0
 15 28  1  0  0  0  0
 17 29  1  0  0  0  0
 17 30  1  0  0  0  0
M  CHG  1   8  -1
M  END
> <s_m_source_file>
AV-unprocessed.smi

> <i_m_source_file_index>
47

> <i_lp_mmshare_version>
43012

> <i_f3d_flags>
0

> <s_epik_input>
W09IXVtDQEhdMVtDSDJdW05IXVtDQEBIXShbQ0gyXTEpYzJuW25IXWMobjIpLWMzW2NIXVtjSF1bY0hdW2NIXVtjSF0z

> <s_epik_cmdline>
J2VwaWtfcHl0aG9uJywgJy1waCcsICc3LjAnLCAnLXRuJywgJzgnLCAnLW1hJywgJzIwMCcsICctbWV0YWxfYmluZGluZycsICctaW1hZScsICc8aW5maWxlLm1hZT4nLCAnLW9tYWUnLCAnPG91dGZpbGUubWFlPic=

> <r_epik_Ionization_Penalty>
16.1968

> <r_epik_Ionization_Penalty_Charging>
13.1522

> <r_epik_Ionization_Penalty_Neutral>
3.04463

> <r_epik_State_Penalty>
6.32428

> <r_epik_Charging_Adjusted_Penalty>
19.4764

> <i_epik_Tot_Q>
-1

> <i_epik_Tot_abs_Q>
1

> <r_epik_Metal_State_Penalty>
2.82187

> <b_epik_Metal_Only>
1

> <s_lp_Force_Field>
OPLS_2005

> <r_lp_Energy>
30.4725

> <b_lp_Chiralities_Consistent>
1

> <s_lp_Variant>
AV-unprocessed.smi:47-21

> <Gold.Version>
5.8.1

> <Gold.Id.Protein>
6NUR|6NUR_protein|mol2

> <Gold.PLP.Fitness>
44.1400

> <Gold.PLP.PLP>
-36.6302

> <Gold.PLP.part.hbond>
-2.8025

> <Gold.PLP.part.metal>
0.0000

> <Gold.PLP.part.buried>
-6.4082

> <Gold.PLP.part.nonpolar>
-30.3985

> <Gold.PLP.part.repulsive>
2.3539

> <Gold.PLP.ligand.clash>
0.0000

> <Gold.PLP.ligand.torsion>
0.7503

> <Gold.PLP.Chemscore.Hbond>
3.0000

> <Gold.PLP.Chemscore.CHOScore>
0.0000

> <Gold.PLP.Chemscore.Metal>
0.0000

> <Gold.Chemscore.Hbonds>
donor molecule, donor type, donor heavy atom, donor atom, acceptor molecule, acceptor atom, score
      L1  H     1    20       P1 10175  1.00
      L1  H     4    23       P1  7957  0.99
      P1  H  7989  7998       L1     7  1.00

> <Gold.PLP.Chemscore.Internal.Correction>
0.0103

> <Gold.Rescore>
     Score         DG    S(hbond)    S(metal)    S(lipo)     H(rot)  DE(clash)    DE(int)     intcor
     17.73     -19.65       2.23        0.00      89.49       1.46       1.38       0.53       ----

> <Gold.Chemscore.Fitness>
17.7288

> <Gold.Chemscore.DG>
-19.6479

> <Gold.Chemscore.ZeroCoef>
-5.4800

> <Gold.Chemscore.Hbond>
2.2278

> <Gold.Chemscore.Metal>
0.0000

> <Gold.Chemscore.Lipo>
89.4852

> <Gold.Chemscore.Internal_Hbond>
0.0000

> <Gold.Chemscore.DEClash>
1.3842

> <Gold.Chemscore.DEInternal>
0.5349

> <Gold.Chemscore.Rot>
1.4621

> <Gold.Chemscore.Internal.Correction>
   9.000000E+99

> <Gold.Chemscore.Hbonds>
donor molecule, donor type, donor heavy atom, donor atom, acceptor molecule, acceptor atom, score
      L1  H     1    20       P1 10175  0.99
      L1  H     4    23       P1  7957  0.88
      P1  H  7989  7998       L1     7  0.16

> <Gold.Chemscore.Hbond.Weighted>
-7.4410

> <Gold.Chemscore.Metal.Weighted>
-0.0000

> <Gold.Chemscore.Lipo.Weighted>
-10.4698

> <Gold.Chemscore.Internal_Hbond.Weighted>
0.0000

> <Gold.Chemscore.DEClash.Weighted>
1.3842

> <Gold.Chemscore.DEInternal.Weighted>
0.5349

> <Gold.Chemscore.Rot.Weighted>
3.7429

> <Gold.Chemscore.Internal.Correction.Weighted>
   9.000000E+99

> <Gold.Protein.RotatedTorsions>
[ 6907 6896 6895 6894 ] final  -92.83 input  -60.11 | X-H torsion
[ 7974 7965 7964 7962 ] final  -98.58 input  175.53 | X-H torsion
[ 8008 7997 7996 7995 ] final  152.60 input   59.86 | X-H torsion
[ 10167 10162 10161 10158 ] final  121.50 input  -65.29 | X-H torsion
[ 10718 10713 10712 10709 ] final  -48.00 input   66.30 | X-H torsion
[ 10763 10752 10751 10750 ] final   99.23 input  -60.55 | X-H torsion
[ 11005 11000 10999 10996 ] final -111.19 input  -57.11 | X-H torsion

> <Gold.Protein.ActiveResidues>
 VAL166  LYS551  ARG553  GLY616  TRP617  ASP618  TYR619  PRO620  LYS621  CYS622 
 ASP623  PHE694  ASN695  SER759  ASP760  ASP761  ALA762  ILE779  LEU786  VAL792 
 PHE793  MET794  SER795  GLU796  ALA797  LYS798  CYS799  TRP800  GLU811  SER814 

> <Gold.Protein.RotatedAtoms>
  150.6912  134.2062  159.4340 H   0  0  0  0  0  0  0  0  0  0  0  0  # atno 6907 bound_to 6896
  152.0026  134.9918  160.0575 H   0  0  0  0  0  0  0  0  0  0  0  0  # atno 6908 bound_to 6896
  152.1565  133.4519  159.4876 H   0  0  0  0  0  0  0  0  0  0  0  0  # atno 6909 bound_to 6896
  145.3188  140.9417  143.2727 H   0  0  0  0  0  0  0  0  0  0  0  0  # atno 7974 bound_to 7965
  156.2621  140.2016  156.6358 H   0  0  0  0  0  0  0  0  0  0  0  0  # atno 8008 bound_to 7997
  154.6647  140.0557  157.0125 H   0  0  0  0  0  0  0  0  0  0  0  0  # atno 8009 bound_to 7997
  155.1224  140.3226  155.4497 H   0  0  0  0  0  0  0  0  0  0  0  0  # atno 8010 bound_to 7997
  139.5916  144.7027  151.3276 H   0  0  0  0  0  0  0  0  0  0  0  0  # atno 10167 bound_to 10162
  156.2029  130.4157  149.9216 H   0  0  0  0  0  0  0  0  0  0  0  0  # atno 10718 bound_to 10713
  153.2988  135.4120  155.1234 H   0  0  0  0  0  0  0  0  0  0  0  0  # atno 10763 bound_to 10752
  154.8543  135.3536  154.5879 H   0  0  0  0  0  0  0  0  0  0  0  0  # atno 10764 bound_to 10752
  153.6304  135.7061  153.5336 H   0  0  0  0  0  0  0  0  0  0  0  0  # atno 10765 bound_to 10752
  141.0748  133.9319  157.2411 H   0  0  0  0  0  0  0  0  0  0  0  0  # atno 11005 bound_to 11000
  144.8956  139.4716  143.6657 LP  0  0  0  0  0  0  0  0  0  0  0  0  # atno 17320 bound_to 7965
  146.3090  139.7680  142.9034 LP  0  0  0  0  0  0  0  0  0  0  0  0  # atno 17321 bound_to 7965
  140.7178  143.7220  150.7689 LP  0  0  0  0  0  0  0  0  0  0  0  0  # atno 17342 bound_to 10162
  140.0777  143.4999  152.2547 LP  0  0  0  0  0  0  0  0  0  0  0  0  # atno 17343 bound_to 10162
  156.6919  130.8899  151.3589 LP  0  0  0  0  0  0  0  0  0  0  0  0  # atno 17370 bound_to 10713
  157.6996  130.9319  150.0746 LP  0  0  0  0  0  0  0  0  0  0  0  0  # atno 17371 bound_to 10713
  139.9561  135.0165  156.9131 LP  0  0  0  0  0  0  0  0  0  0  0  0  # atno 17394 bound_to 11000
  140.5596  134.0548  155.7394 LP  0  0  0  0  0  0  0  0  0  0  0  0  # atno 17395 bound_to 11000

$$$$
