AV-unprocessed.smi:2902|AV-procd|sdf|11153|dock9
  -GOLD-   2272016 33D 1   1.00000     0.00000
 Structure written by MMmdl.
 47 48  0  0  0  0  0  0  0  0  1 V2000
  155.2541  138.4347  160.8173 C   0  0  0  0  0  0  0  0  0  0  0  0
  155.9694  139.1638  161.9613 C   0  0  0  0  0  0  0  0  0  0  0  0
  155.1590  140.3544  162.5069 C   0  0  2  0  0  0  0  0  0  0  0  0
  154.8388  141.2096  161.4092 O   0  0  0  0  0  0  0  0  0  0  0  0
  153.5198  141.7509  161.3776 C   0  0  0  0  0  0  0  0  0  0  0  0
  152.9526  141.8942  159.9619 C   0  0  0  0  0  0  0  0  0  0  0  0
  151.9213  143.0260  160.0536 C   0  0  0  0  0  0  0  0  0  0  0  0
  152.2502  143.8100  161.3336 C   0  0  0  0  0  0  0  0  0  0  0  0
  153.5317  143.1878  161.8948 C   0  0  0  0  0  0  0  0  0  0  0  0
  155.9575  141.1252  163.5689 C   0  0  0  0  0  0  0  0  0  0  0  0
  156.2748  140.5780  164.6251 O   0  0  0  0  0  0  0  0  0  0  0  0
  156.2692  142.3961  163.2676 N   0  0  0  0  0  0  0  0  0  0  0  0
  156.9884  143.3352  164.1290 C   0  0  1  0  0  0  0  0  0  0  0  0
  158.3707  143.5812  163.5020 C   0  0  0  0  0  0  0  0  0  0  0  0
  156.1619  144.6375  164.3184 C   0  0  2  0  0  0  0  0  0  0  0  0
  155.8875  145.3804  162.9962 C   0  0  0  0  0  0  0  0  0  0  0  0
  156.7983  145.5369  165.2750 N   0  0  0  0  0  0  0  0  0  0  0  0
  157.1778  145.3235  166.5367 C   0  0  0  0  0  0  0  0  0  0  0  0
  157.7791  146.3615  167.1006 N   0  0  0  0  0  0  0  0  0  0  0  0
  157.7385  147.2425  166.0574 C   0  0  0  0  0  0  0  0  0  0  0  0
  157.1643  146.7984  164.9396 N   0  0  0  0  0  0  0  0  0  0  0  0
  155.8494  137.5937  160.4615 H   0  0  0  0  0  0  0  0  0  0  0  0
  155.0808  139.1002  159.9714 H   0  0  0  0  0  0  0  0  0  0  0  0
  154.2887  138.0453  161.1411 H   0  0  0  0  0  0  0  0  0  0  0  0
  156.1602  138.4488  162.7635 H   0  0  0  0  0  0  0  0  0  0  0  0
  156.9468  139.5039  161.6160 H   0  0  0  0  0  0  0  0  0  0  0  0
  154.2442  139.9657  162.9571 H   0  0  0  0  0  0  0  0  0  0  0  0
  152.8320  141.1715  161.9951 H   0  0  0  0  0  0  0  0  0  0  0  0
  153.7495  142.1861  159.2763 H   0  0  0  0  0  0  0  0  0  0  0  0
  152.5183  140.9665  159.5883 H   0  0  0  0  0  0  0  0  0  0  0  0
  151.9608  143.6626  159.1691 H   0  0  0  0  0  0  0  0  0  0  0  0
  150.9114  142.6185  160.1170 H   0  0  0  0  0  0  0  0  0  0  0  0
  152.3702  144.8771  161.1438 H   0  0  0  0  0  0  0  0  0  0  0  0
  151.4376  143.6953  162.0520 H   0  0  0  0  0  0  0  0  0  0  0  0
  153.5857  143.2429  162.9824 H   0  0  0  0  0  0  0  0  0  0  0  0
  154.3974  143.7167  161.4931 H   0  0  0  0  0  0  0  0  0  0  0  0
  155.9694  142.7483  162.3701 H   0  0  0  0  0  0  0  0  0  0  0  0
  157.1556  142.8827  165.1081 H   0  0  0  0  0  0  0  0  0  0  0  0
  159.0094  144.1760  164.1546 H   0  0  0  0  0  0  0  0  0  0  0  0
  158.2883  144.1015  162.5472 H   0  0  0  0  0  0  0  0  0  0  0  0
  158.8904  142.6392  163.3226 H   0  0  0  0  0  0  0  0  0  0  0  0
  155.1937  144.3648  164.7417 H   0  0  0  0  0  0  0  0  0  0  0  0
  155.2514  144.7966  162.3314 H   0  0  0  0  0  0  0  0  0  0  0  0
  156.8118  145.6037  162.4622 H   0  0  0  0  0  0  0  0  0  0  0  0
  155.3735  146.3246  163.1789 H   0  0  0  0  0  0  0  0  0  0  0  0
  157.0226  144.3856  167.0493 H   0  0  0  0  0  0  0  0  0  0  0  0
  158.1465  148.2404  166.1229 H   0  0  0  0  0  0  0  0  0  0  0  0
  1  2  1  0  0  0  0
  1 22  1  0  0  0  0
  1 23  1  0  0  0  0
  1 24  1  0  0  0  0
  2  3  1  0  0  0  0
  2 25  1  0  0  0  0
  2 26  1  0  0  0  0
  3  4  1  0  0  0  0
  3 10  1  0  0  0  0
  3 27  1  0  0  0  0
  4  5  1  0  0  0  0
  5  9  1  0  0  0  0
  5  6  1  0  0  0  0
  5 28  1  0  0  0  0
  6  7  1  0  0  0  0
  6 29  1  0  0  0  0
  6 30  1  0  0  0  0
  7  8  1  0  0  0  0
  7 31  1  0  0  0  0
  7 32  1  0  0  0  0
  8  9  1  0  0  0  0
  8 33  1  0  0  0  0
  8 34  1  0  0  0  0
  9 35  1  0  0  0  0
  9 36  1  0  0  0  0
 10 11  2  0  0  0  0
 10 12  1  0  0  0  0
 12 13  1  0  0  0  0
 12 37  1  0  0  0  0
 13 14  1  0  0  0  0
 13 15  1  0  0  0  0
 13 38  1  0  0  0  0
 14 39  1  0  0  0  0
 14 40  1  0  0  0  0
 14 41  1  0  0  0  0
 15 16  1  0  0  0  0
 15 17  1  0  0  0  0
 15 42  1  0  0  0  0
 16 43  1  0  0  0  0
 16 44  1  0  0  0  0
 16 45  1  0  0  0  0
 17 21  1  0  0  0  0
 17 18  1  0  0  0  0
 18 19  2  0  0  0  0
 18 46  1  0  0  0  0
 19 20  1  0  0  0  0
 20 21  2  0  0  0  0
 20 47  1  0  0  0  0
M  END
> <s_m_source_file>
AV-unprocessed.smi

> <i_m_source_file_index>
2902

> <i_lp_mmshare_version>
43012

> <i_f3d_flags>
0

> <s_epik_input>
W0NIMl0xW0NIMl1bQ0gyXVtDSDJdW0NIXTFPW0NAQEhdKFtDSDJdW0NIM10pQyg9TylbTkhdW0NASF0oW0NIM10pW0NASF0oW0NIM10pbjJbY0hdbltjSF1uMg==

> <s_epik_cmdline>
J2VwaWtfcHl0aG9uJywgJy1waCcsICc3LjAnLCAnLXRuJywgJzgnLCAnLW1hJywgJzIwMCcsICctbWV0YWxfYmluZGluZycsICctaW1hZScsICc8aW5maWxlLm1hZT4nLCAnLW9tYWUnLCAnPG91dGZpbGUubWFlPic=

> <r_lp_tautomer_probability>
1

> <r_epik_Ionization_Penalty>
6.95617e-05

> <r_epik_Ionization_Penalty_Charging>
0

> <r_epik_Ionization_Penalty_Neutral>
6.95617e-05

> <r_epik_State_Penalty>
-0

> <r_epik_Charging_Adjusted_Penalty>
0

> <i_epik_Tot_Q>
0

> <i_epik_Tot_abs_Q>
0

> <r_epik_Metal_State_Penalty>
-0

> <b_epik_Metal_Only>
0

> <s_lp_Force_Field>
OPLS_2005

> <r_lp_Energy>
29.2018

> <b_lp_Chiralities_Consistent>
1

> <s_lp_Variant>
AV-unprocessed.smi:2902-3

> <Gold.Version>
5.8.1

> <Gold.Id.Protein>
6NUR|6NUR_protein|mol2

> <Gold.PLP.Fitness>
43.3841

> <Gold.PLP.PLP>
-45.6492

> <Gold.PLP.part.hbond>
-2.0000

> <Gold.PLP.part.metal>
0.0000

> <Gold.PLP.part.buried>
-6.4978

> <Gold.PLP.part.nonpolar>
-36.5079

> <Gold.PLP.part.repulsive>
0.2540

> <Gold.PLP.ligand.clash>
0.0000

> <Gold.PLP.ligand.torsion>
1.2312

> <Gold.PLP.Chemscore.Hbond>
0.0000

> <Gold.PLP.Chemscore.CHOScore>
0.0000

> <Gold.PLP.Chemscore.Metal>
0.0000

> <Gold.PLP.Chemscore.Internal.Correction>
0.1973

> <Gold.Rescore>
     Score         DG    S(hbond)    S(metal)    S(lipo)     H(rot)  DE(clash)    DE(int)     intcor
      6.52      -9.81       0.00        0.00      95.90       2.69       1.92       1.37       ----

> <Gold.Chemscore.Fitness>
6.5174

> <Gold.Chemscore.DG>
-9.8054

> <Gold.Chemscore.ZeroCoef>
-5.4800

> <Gold.Chemscore.Hbond>
0.0000

> <Gold.Chemscore.Metal>
0.0000

> <Gold.Chemscore.Lipo>
95.9038

> <Gold.Chemscore.Internal_Hbond>
0.0000

> <Gold.Chemscore.DEClash>
1.9198

> <Gold.Chemscore.DEInternal>
1.3682

> <Gold.Chemscore.Rot>
2.6935

> <Gold.Chemscore.Internal.Correction>
   9.000000E+99

> <Gold.Chemscore.Hbond.Weighted>
-0.0000

> <Gold.Chemscore.Metal.Weighted>
-0.0000

> <Gold.Chemscore.Lipo.Weighted>
-11.2207

> <Gold.Chemscore.Internal_Hbond.Weighted>
0.0000

> <Gold.Chemscore.DEClash.Weighted>
1.9198

> <Gold.Chemscore.DEInternal.Weighted>
1.3682

> <Gold.Chemscore.Rot.Weighted>
6.8954

> <Gold.Chemscore.Internal.Correction.Weighted>
   9.000000E+99

> <Gold.Protein.RotatedTorsions>
[ 6907 6896 6895 6894 ] final  -99.88 input  -60.11 | X-H torsion
[ 7974 7965 7964 7962 ] final   10.32 input  175.53 | X-H torsion
[ 8008 7997 7996 7995 ] final  -44.19 input   59.86 | X-H torsion
[ 10167 10162 10161 10158 ] final  -40.00 input  -65.29 | X-H torsion
[ 10718 10713 10712 10709 ] final  -93.85 input   66.30 | X-H torsion
[ 10763 10752 10751 10750 ] final  -67.50 input  -60.55 | X-H torsion
[ 11005 11000 10999 10996 ] final   64.36 input  -57.11 | X-H torsion

> <Gold.Protein.ActiveResidues>
 VAL166  LYS551  ARG553  GLY616  TRP617  ASP618  TYR619  PRO620  LYS621  CYS622 
 ASP623  PHE694  ASN695  SER759  ASP760  ASP761  ALA762  ILE779  LEU786  VAL792 
 PHE793  MET794  SER795  GLU796  ALA797  LYS798  CYS799  TRP800  GLU811  SER814 

> <Gold.Protein.RotatedAtoms>
  150.7095  134.0973  159.3952 H   0  0  0  0  0  0  0  0  0  0  0  0  # atno 6907 bound_to 6896
  151.8959  135.0395  160.0511 H   0  0  0  0  0  0  0  0  0  0  0  0  # atno 6908 bound_to 6896
  152.2453  133.5134  159.5330 H   0  0  0  0  0  0  0  0  0  0  0  0  # atno 6909 bound_to 6896
  146.2390  139.9651  142.8454 H   0  0  0  0  0  0  0  0  0  0  0  0  # atno 7974 bound_to 7965
  154.3997  140.1428  156.3642 H   0  0  0  0  0  0  0  0  0  0  0  0  # atno 8008 bound_to 7997
  155.8153  140.3471  155.5461 H   0  0  0  0  0  0  0  0  0  0  0  0  # atno 8009 bound_to 7997
  155.8344  140.0917  157.1763 H   0  0  0  0  0  0  0  0  0  0  0  0  # atno 8010 bound_to 7997
  140.7047  143.3180  151.2862 H   0  0  0  0  0  0  0  0  0  0  0  0  # atno 10167 bound_to 10162
  156.0019  130.5044  150.5839 H   0  0  0  0  0  0  0  0  0  0  0  0  # atno 10718 bound_to 10713
  154.3754  135.6086  153.5762 H   0  0  0  0  0  0  0  0  0  0  0  0  # atno 10763 bound_to 10752
  152.9789  135.5848  154.4473 H   0  0  0  0  0  0  0  0  0  0  0  0  # atno 10764 bound_to 10752
  154.4233  135.2846  155.1939 H   0  0  0  0  0  0  0  0  0  0  0  0  # atno 10765 bound_to 10752
  139.9964  134.6511  156.0004 H   0  0  0  0  0  0  0  0  0  0  0  0  # atno 11005 bound_to 11000
  145.1734  140.9732  143.4308 LP  0  0  0  0  0  0  0  0  0  0  0  0  # atno 17320 bound_to 7965
  145.0008  139.3600  143.6168 LP  0  0  0  0  0  0  0  0  0  0  0  0  # atno 17321 bound_to 7965
  139.6625  144.0164  152.2701 LP  0  0  0  0  0  0  0  0  0  0  0  0  # atno 17342 bound_to 10162
  139.9736  144.6477  150.7966 LP  0  0  0  0  0  0  0  0  0  0  0  0  # atno 17343 bound_to 10162
  157.3714  131.0766  151.1554 LP  0  0  0  0  0  0  0  0  0  0  0  0  # atno 17370 bound_to 10713
  157.2306  130.6523  149.5848 LP  0  0  0  0  0  0  0  0  0  0  0  0  # atno 17371 bound_to 10713
  141.1607  133.6539  156.4310 LP  0  0  0  0  0  0  0  0  0  0  0  0  # atno 17394 bound_to 11000
  140.4811  134.6664  157.5171 LP  0  0  0  0  0  0  0  0  0  0  0  0  # atno 17395 bound_to 11000

$$$$
