AV-unprocessed.smi:2783|AV-procd|sdf|10724|dock4
  -GOLD-   2272015163D 1   1.00000     0.00000
 Structure written by MMmdl.
 29 29  0  0  0  0  0  0  0  0  1 V2000
  149.2818  141.3583  154.6693 C   0  0  0  0  0  0  0  0  0  0  0  0
  150.3836  140.4548  154.6022 O   0  0  0  0  0  0  0  0  0  0  0  0
  150.6881  139.6710  155.7657 C   0  0  0  0  0  0  0  0  0  0  0  0
  149.4052  139.0246  156.3399 C   0  0  0  0  0  0  0  0  0  0  0  0
  151.6408  138.5642  155.2803 C   0  0  0  0  0  0  0  0  0  0  0  0
  151.4183  140.5254  156.8278 C   0  0  0  0  0  0  0  0  0  0  0  0
  152.5562  140.2146  157.1812 O   0  0  0  0  0  0  0  0  0  0  0  0
  150.7561  141.6068  157.2824 N   0  0  0  0  0  0  0  0  0  0  0  0
  151.1580  142.5646  158.2545 C   0  0  0  0  0  0  0  0  0  0  0  0
  152.4669  142.6388  158.7899 C   0  0  0  0  0  0  0  0  0  0  0  0
  152.7445  143.6180  159.7643 C   0  0  0  0  0  0  0  0  0  0  0  0
  151.8246  144.4903  160.2259 N   0  0  0  0  0  0  0  0  0  0  0  0
  150.5741  144.4079  159.7259 C   0  0  0  0  0  0  0  0  0  0  0  0
  150.1881  143.4665  158.7495 C   0  0  0  0  0  0  0  0  0  0  0  0
  148.8981  143.4424  158.2985 O   0  0  0  0  0  0  0  0  0  0  0  0
  149.2610  141.9595  153.7606 H   0  0  0  0  0  0  0  0  0  0  0  0
  149.3473  142.0437  155.5142 H   0  0  0  0  0  0  0  0  0  0  0  0
  148.3317  140.8270  154.7248 H   0  0  0  0  0  0  0  0  0  0  0  0
  149.6407  138.2796  157.1010 H   0  0  0  0  0  0  0  0  0  0  0  0
  148.8383  138.5192  155.5576 H   0  0  0  0  0  0  0  0  0  0  0  0
  148.7472  139.7599  156.8047 H   0  0  0  0  0  0  0  0  0  0  0  0
  151.9349  137.9013  156.0953 H   0  0  0  0  0  0  0  0  0  0  0  0
  152.5514  138.9815  154.8482 H   0  0  0  0  0  0  0  0  0  0  0  0
  151.1687  137.9506  154.5125 H   0  0  0  0  0  0  0  0  0  0  0  0
  149.8720  141.7978  156.8330 H   0  0  0  0  0  0  0  0  0  0  0  0
  153.2523  141.9636  158.4881 H   0  0  0  0  0  0  0  0  0  0  0  0
  153.7339  143.6973  160.1903 H   0  0  0  0  0  0  0  0  0  0  0  0
  149.8580  145.1143  160.1191 H   0  0  0  0  0  0  0  0  0  0  0  0
  148.5105  144.3027  158.2399 H   0  0  0  0  0  0  0  0  0  0  0  0
  1  2  1  0  0  0  0
  1 16  1  0  0  0  0
  1 17  1  0  0  0  0
  1 18  1  0  0  0  0
  2  3  1  0  0  0  0
  3  4  1  0  0  0  0
  3  5  1  0  0  0  0
  3  6  1  0  0  0  0
  4 19  1  0  0  0  0
  4 20  1  0  0  0  0
  4 21  1  0  0  0  0
  5 22  1  0  0  0  0
  5 23  1  0  0  0  0
  5 24  1  0  0  0  0
  6  7  2  0  0  0  0
  6  8  1  0  0  0  0
  8  9  1  0  0  0  0
  8 25  1  0  0  0  0
  9 14  1  0  0  0  0
  9 10  2  0  0  0  0
 10 11  1  0  0  0  0
 10 26  1  0  0  0  0
 11 12  2  0  0  0  0
 11 27  1  0  0  0  0
 12 13  1  0  0  0  0
 13 14  2  0  0  0  0
 13 28  1  0  0  0  0
 14 15  1  0  0  0  0
 15 29  1  0  0  0  0
M  END
> <s_m_source_file>
AV-unprocessed.smi

> <i_m_source_file_index>
2783

> <i_lp_mmshare_version>
43012

> <i_f3d_flags>
0

> <s_epik_input>
W0NIM11PQyhbQ0gzXSkoW0NIM10pQyg9TylbTkhdYzFbY0hdW2NIXW5bY0hdYzFbT0hd

> <s_epik_cmdline>
J2VwaWtfcHl0aG9uJywgJy1waCcsICc3LjAnLCAnLXRuJywgJzgnLCAnLW1hJywgJzIwMCcsICctbWV0YWxfYmluZGluZycsICctaW1hZScsICc8aW5maWxlLm1hZT4nLCAnLW9tYWUnLCAnPG91dGZpbGUubWFlPic=

> <r_lp_tautomer_probability>
0.43658

> <r_epik_Ionization_Penalty>
0.0236053

> <r_epik_Ionization_Penalty_Charging>
0

> <r_epik_Ionization_Penalty_Neutral>
0.0236053

> <r_epik_State_Penalty>
0.499983

> <r_epik_Charging_Adjusted_Penalty>
0.499983

> <i_epik_Tot_Q>
0

> <i_epik_Tot_abs_Q>
0

> <r_epik_Metal_State_Penalty>
0.746226

> <b_epik_Metal_Only>
0

> <s_lp_Force_Field>
OPLS_2005

> <r_lp_Energy>
14.4929

> <b_lp_Chiralities_Consistent>
1

> <s_lp_Variant>
AV-unprocessed.smi:2783-2

> <Gold.Version>
5.8.1

> <Gold.Id.Protein>
6NUR|6NUR_protein|mol2

> <Gold.PLP.Fitness>
36.4515

> <Gold.PLP.PLP>
-27.8787

> <Gold.PLP.part.hbond>
-4.0000

> <Gold.PLP.part.metal>
0.0000

> <Gold.PLP.part.buried>
-3.5818

> <Gold.PLP.part.nonpolar>
-20.5247

> <Gold.PLP.part.repulsive>
0.2241

> <Gold.PLP.ligand.clash>
0.0000

> <Gold.PLP.ligand.torsion>
0.2188

> <Gold.PLP.Chemscore.Hbond>
2.9920

> <Gold.PLP.Chemscore.CHOScore>
0.0000

> <Gold.PLP.Chemscore.Metal>
0.0000

> <Gold.Chemscore.Hbonds>
donor molecule, donor type, donor heavy atom, donor atom, acceptor molecule, acceptor atom, score
      L1  H    15    29       P1  8029  1.00
      P1  H  7989  7998       L1     2  1.00
      P1  H  7997  8010       L1     7  1.00

> <Gold.PLP.Chemscore.Internal.Correction>
0.0344

> <Gold.Rescore>
     Score         DG    S(hbond)    S(metal)    S(lipo)     H(rot)  DE(clash)    DE(int)     intcor
     15.32     -17.02       2.35        0.00      69.86       1.75       0.08       1.62       ----

> <Gold.Chemscore.Fitness>
15.3237

> <Gold.Chemscore.DG>
-17.0230

> <Gold.Chemscore.ZeroCoef>
-5.4800

> <Gold.Chemscore.Hbond>
2.3506

> <Gold.Chemscore.Metal>
0.0000

> <Gold.Chemscore.Lipo>
69.8609

> <Gold.Chemscore.Internal_Hbond>
0.0000

> <Gold.Chemscore.DEClash>
0.0766

> <Gold.Chemscore.DEInternal>
1.6227

> <Gold.Chemscore.Rot>
1.7507

> <Gold.Chemscore.Internal.Correction>
   9.000000E+99

> <Gold.Chemscore.Hbonds>
donor molecule, donor type, donor heavy atom, donor atom, acceptor molecule, acceptor atom, score
      L1  H    15    29       P1  8029  0.33
      P1  H  7989  7998       L1     2  0.84
      P1  H  7997  8010       L1     7  0.96

> <Gold.Chemscore.Hbond.Weighted>
-7.8510

> <Gold.Chemscore.Metal.Weighted>
-0.0000

> <Gold.Chemscore.Lipo.Weighted>
-8.1737

> <Gold.Chemscore.Internal_Hbond.Weighted>
0.0000

> <Gold.Chemscore.DEClash.Weighted>
0.0766

> <Gold.Chemscore.DEInternal.Weighted>
1.6227

> <Gold.Chemscore.Rot.Weighted>
4.4817

> <Gold.Chemscore.Internal.Correction.Weighted>
   9.000000E+99

> <Gold.Protein.RotatedTorsions>
[ 6907 6896 6895 6894 ] final -142.60 input  -60.11 | X-H torsion
[ 7974 7965 7964 7962 ] final -172.72 input  175.53 | X-H torsion
[ 8008 7997 7996 7995 ] final   58.65 input   59.86 | X-H torsion
[ 10167 10162 10161 10158 ] final  167.81 input  -65.29 | X-H torsion
[ 10718 10713 10712 10709 ] final  -42.48 input   66.30 | X-H torsion
[ 10763 10752 10751 10750 ] final   -9.15 input  -60.55 | X-H torsion
[ 11005 11000 10999 10996 ] final  -64.15 input  -57.11 | X-H torsion

> <Gold.Protein.ActiveResidues>
 VAL166  LYS551  ARG553  GLY616  TRP617  ASP618  TYR619  PRO620  LYS621  CYS622 
 ASP623  PHE694  ASN695  SER759  ASP760  ASP761  ALA762  ILE779  LEU786  VAL792 
 PHE793  MET794  SER795  GLU796  ALA797  LYS798  CYS799  TRP800  GLU811  SER814 

> <Gold.Protein.RotatedAtoms>
  151.0892  133.5329  159.2615 H   0  0  0  0  0  0  0  0  0  0  0  0  # atno 6907 bound_to 6896
  151.2202  135.0515  159.8956 H   0  0  0  0  0  0  0  0  0  0  0  0  # atno 6908 bound_to 6896
  152.5432  134.0696  159.8241 H   0  0  0  0  0  0  0  0  0  0  0  0  # atno 6909 bound_to 6896
  144.7144  140.1729  143.6366 H   0  0  0  0  0  0  0  0  0  0  0  0  # atno 7974 bound_to 7965
  155.5534  140.3487  155.4474 H   0  0  0  0  0  0  0  0  0  0  0  0  # atno 8008 bound_to 7997
  156.0567  140.1330  157.0014 H   0  0  0  0  0  0  0  0  0  0  0  0  # atno 8009 bound_to 7997
  154.4460  140.0993  156.6441 H   0  0  0  0  0  0  0  0  0  0  0  0  # atno 8010 bound_to 7997
  139.4953  144.3882  151.9547 H   0  0  0  0  0  0  0  0  0  0  0  0  # atno 10167 bound_to 10162
  156.2592  130.4195  149.8562 H   0  0  0  0  0  0  0  0  0  0  0  0  # atno 10718 bound_to 10713
  153.4507  135.7015  153.6111 H   0  0  0  0  0  0  0  0  0  0  0  0  # atno 10763 bound_to 10752
  153.4447  135.3772  155.2249 H   0  0  0  0  0  0  0  0  0  0  0  0  # atno 10764 bound_to 10752
  154.8728  135.3982  154.3918 H   0  0  0  0  0  0  0  0  0  0  0  0  # atno 10765 bound_to 10752
  141.1416  133.6661  156.5789 H   0  0  0  0  0  0  0  0  0  0  0  0  # atno 11005 bound_to 11000
  145.8927  139.2385  143.1540 LP  0  0  0  0  0  0  0  0  0  0  0  0  # atno 17320 bound_to 7965
  145.9888  140.8620  143.0077 LP  0  0  0  0  0  0  0  0  0  0  0  0  # atno 17321 bound_to 7965
  140.3319  144.3306  150.5985 LP  0  0  0  0  0  0  0  0  0  0  0  0  # atno 17342 bound_to 10162
  140.5638  143.2189  151.7719 LP  0  0  0  0  0  0  0  0  0  0  0  0  # atno 17343 bound_to 10162
  156.6083  130.8576  151.3448 LP  0  0  0  0  0  0  0  0  0  0  0  0  # atno 17370 bound_to 10713
  157.7244  130.9602  150.1572 LP  0  0  0  0  0  0  0  0  0  0  0  0  # atno 17371 bound_to 10713
  140.3853  134.7487  157.4687 LP  0  0  0  0  0  0  0  0  0  0  0  0  # atno 17394 bound_to 11000
  140.0607  134.6000  155.8753 LP  0  0  0  0  0  0  0  0  0  0  0  0  # atno 17395 bound_to 11000

$$$$
