#       Name:                AV-unprocessed.smi:2782
#       Creating user name   scv26
#       Creation time:       Fri Mar 27 15:16:00 2020


#       File generated by GOLD software.
#

@<TRIPOS>MOLECULE
AV-unprocessed.smi:2782
    45    46     1
SMALL
NO_CHARGES


@<TRIPOS>ATOM
      1 ****        -5.8642  -1.7808   0.3836 C.3            1 S1                 0.0000
      2 ****        -4.9793  -0.5542   0.2978 C.ar           1 S1                 0.0000
      3 ****        -5.5478   0.7232   0.1261 C.ar           1 S1                 0.0000
      4 ****        -4.7174   1.8558   0.0487 C.ar           1 S1                 0.0000
      5 ****        -3.3190   1.7169   0.1430 C.ar           1 S1                 0.0000
      6 ****        -2.3226   3.1247   0.0467 Cl             1 S1                 0.0000
      7 ****        -2.7334   0.4428   0.3141 C.ar           1 S1                 0.0000
      8 ****        -1.3582   0.3848   0.3992 O.3            1 S1                 0.0000
      9 ****        -0.7379  -0.8855   0.5567 C.3            1 S1                 0.0000
     10 ****         0.7903  -0.7178   0.6066 C.3            1 S1                 0.0000
     11 ****         1.1334  -0.2411   1.8925 O.3            1 S1                 0.0000
     12 ****         1.3307   0.2357  -0.4815 C.3            1 S1                 0.0000
     13 ****         2.7593   0.0237  -0.7417 N.am           1 S1                 0.0000
     14 ****         3.5887   0.9255  -0.0970 N.2            1 S1                 0.0000
     15 ****         4.8731   0.8631  -0.2302 C.2            1 S1                 0.0000
     16 ****         5.6980   1.8787   0.5035 C.3            1 S1                 0.0000
     17 ****         5.4547  -0.1672  -1.0695 C.2            1 S1                 0.0000
     18 ****         4.6434  -1.0472  -1.6946 C.2            1 S1                 0.0000
     19 ****         3.1904  -0.9899  -1.5489 C.2            1 S1                 0.0000
     20 ****         2.4250  -1.7827  -2.0971 O.2            1 S1                 0.0000
     21 ****        -3.5792  -0.6931   0.3891 C.ar           1 S1                 0.0000
     22 ****        -6.9207  -1.5108   0.3895 H              1 S1                 0.0000
     23 ****        -5.6514  -2.3384   1.2963 H              1 S1                 0.0000
     24 ****        -5.6841  -2.4356  -0.4692 H              1 S1                 0.0000
     25 ****        -6.6192   0.8399   0.0532 H              1 S1                 0.0000
     26 ****        -5.1554   2.8343  -0.0827 H              1 S1                 0.0000
     27 ****        -1.0951  -1.3918   1.4551 H              1 S1                 0.0000
     28 ****        -0.9926  -1.5115  -0.3001 H              1 S1                 0.0000
     29 ****         1.2368  -1.7069   0.4986 H              1 S1                 0.0000
     30 ****         2.0736  -0.1587   1.9390 H              1 S1                 0.0000
     31 ****         0.7784   0.0816  -1.4105 H              1 S1                 0.0000
     32 ****         1.1358   1.2750  -0.2090 H              1 S1                 0.0000
     33 ****         6.7632   1.6704   0.4005 H              1 S1                 0.0000
     34 ****         5.4602   1.8790   1.5678 H              1 S1                 0.0000
     35 ****         5.5139   2.8806   0.1148 H              1 S1                 0.0000
     36 ****         6.5267  -0.2230  -1.1877 H              1 S1                 0.0000
     37 ****         5.0773  -1.8143  -2.3190 H              1 S1                 0.0000
     38 ****        -3.1753  -1.6857   0.5181 H              1 S1                 0.0000
     39 ****        -1.0877   0.9440   1.1829 LP             1 S1                 0.0000
     40 ****        -0.9938   0.7886  -0.4400 LP             1 S1                 0.0000
     41 ****         0.8161  -0.8862   2.5876 LP             1 S1                 0.0000
     42 ****         0.7082   0.6508   2.0466 LP             1 S1                 0.0000
     43 ****         3.1879   1.6364   0.4808 LP             1 S1                 0.0000
     44 ****         1.4378  -1.7007  -1.9600 LP             1 S1                 0.0000
     45 ****         2.7903  -2.5088  -2.6797 LP             1 S1                 0.0000
@<TRIPOS>BOND
    1    1    2 1     
    2    1   22 1     
    3    1   23 1     
    4    1   24 1     
    5    2   21 ar    
    6    2    3 ar    
    7    3    4 ar    
    8    3   25 1     
    9    4    5 ar    
   10    4   26 1     
   11    5    6 1     
   12    5    7 ar    
   13    7    8 1     
   14    7   21 ar    
   15    8    9 1     
   16    9   10 1     
   17    9   27 1     
   18    9   28 1     
   19   10   11 1     
   20   10   12 1     
   21   10   29 1     
   22   11   30 1     
   23   12   13 1     
   24   12   31 1     
   25   12   32 1     
   26   13   19 am    
   27   13   14 1     
   28   14   15 2     
   29   15   16 1     
   30   15   17 1     
   31   16   33 1     
   32   16   34 1     
   33   16   35 1     
   34   17   18 2     
   35   17   36 1     
   36   18   19 1     
   37   18   37 1     
   38   19   20 2     
   39   21   38 1     
   40    8   39 1     
   41    8   40 1     
   42   11   41 1     
   43   11   42 1     
   44   14   43 1     
   45   20   44 1     
   46   20   45 1     
@<TRIPOS>SUBSTRUCTURE
      1 S1             1
@<TRIPOS>SET
LONE_PAIRS      STATIC     ATOMS    <user>   **** ""
7 39 40 41 42 43 44 45
DONOR_HYDROGENS      STATIC     ATOMS    <user>   **** ""
1 30
ATOM$BLUE        STATIC     ATOMS    COLORGROUP SYSTEM
7 39 40 41 42 43 44 45
ATOM$RED        STATIC     ATOMS    COLORGROUP SYSTEM
1 30
