AV-unprocessed.smi:2056|AV-procd|sdf|8338|dock7
  -GOLD-   2272011 03D 1   1.00000     0.00000
 Structure written by MMmdl.
 34 34  0  0  0  0  0  0  0  0  1 V2000
  152.7934  144.6413  157.9956 C   0  0  0  0  0  0  0  0  0  0  0  0
  151.8898  144.3425  159.2110 C   0  0  0  0  0  0  0  0  0  0  0  0
  152.5933  143.2933  160.0939 C   0  0  0  0  0  0  0  0  0  0  0  0
  151.7112  145.6320  160.0405 C   0  0  0  0  0  0  0  0  0  0  0  0
  150.5226  143.7528  158.7601 C   0  0  0  0  0  0  0  0  0  0  0  0
  150.5858  142.4047  158.0273 C   0  0  0  0  0  0  0  0  0  0  0  0
  151.1028  141.4340  158.5804 O   0  0  0  0  0  0  0  0  0  0  0  0
  150.0759  142.3933  156.7813 N   0  0  0  0  0  0  0  0  0  0  0  0
  149.9871  141.3051  155.8750 C   0  0  0  0  0  0  0  0  0  0  0  0
  150.7793  140.2277  155.9080 N   0  0  0  0  0  0  0  0  0  0  0  0
  150.4751  139.3147  154.8923 C   0  0  0  0  0  0  0  0  0  0  0  0
  151.2628  138.0429  154.7666 C   0  0  0  0  0  0  0  0  0  0  0  0
  152.3527  137.9861  155.8388 C   0  0  0  0  0  0  0  0  0  0  0  0
  152.3022  136.9732  156.7083 N   0  0  0  0  0  0  0  0  0  0  0  0
  153.2291  138.8467  155.8844 O   0  0  0  0  0  0  0  0  0  0  0  0
  149.4281  139.7183  154.0983 C   0  0  0  0  0  0  0  0  0  0  0  0
  148.7966  141.2684  154.5843 S   0  0  0  0  0  0  0  0  0  0  0  0
  153.7814  144.9785  158.3112 H   0  0  0  0  0  0  0  0  0  0  0  0
  152.3769  145.4239  157.3604 H   0  0  0  0  0  0  0  0  0  0  0  0
  152.9328  143.7541  157.3770 H   0  0  0  0  0  0  0  0  0  0  0  0
  152.7622  142.3633  159.5497 H   0  0  0  0  0  0  0  0  0  0  0  0
  151.9988  143.0534  160.9763 H   0  0  0  0  0  0  0  0  0  0  0  0
  153.5644  143.6484  160.4409 H   0  0  0  0  0  0  0  0  0  0  0  0
  152.6647  145.9794  160.4397 H   0  0  0  0  0  0  0  0  0  0  0  0
  151.0416  145.4704  160.8860 H   0  0  0  0  0  0  0  0  0  0  0  0
  151.3016  146.4485  159.4458 H   0  0  0  0  0  0  0  0  0  0  0  0
  149.8657  143.6497  159.6255 H   0  0  0  0  0  0  0  0  0  0  0  0
  150.0213  144.4610  158.0987 H   0  0  0  0  0  0  0  0  0  0  0  0
  149.6887  143.2648  156.4506 H   0  0  0  0  0  0  0  0  0  0  0  0
  150.6136  137.1723  154.8715 H   0  0  0  0  0  0  0  0  0  0  0  0
  151.7171  137.9677  153.7779 H   0  0  0  0  0  0  0  0  0  0  0  0
  152.9985  136.8953  157.4350 H   0  0  0  0  0  0  0  0  0  0  0  0
  151.5632  136.2888  156.6358 H   0  0  0  0  0  0  0  0  0  0  0  0
  148.9952  139.2008  153.2553 H   0  0  0  0  0  0  0  0  0  0  0  0
  1  2  1  0  0  0  0
  1 18  1  0  0  0  0
  1 19  1  0  0  0  0
  1 20  1  0  0  0  0
  2  3  1  0  0  0  0
  2  4  1  0  0  0  0
  2  5  1  0  0  0  0
  3 21  1  0  0  0  0
  3 22  1  0  0  0  0
  3 23  1  0  0  0  0
  4 24  1  0  0  0  0
  4 25  1  0  0  0  0
  4 26  1  0  0  0  0
  5  6  1  0  0  0  0
  5 27  1  0  0  0  0
  5 28  1  0  0  0  0
  6  7  2  0  0  0  0
  6  8  1  0  0  0  0
  8  9  1  0  0  0  0
  8 29  1  0  0  0  0
  9 17  1  0  0  0  0
  9 10  2  0  0  0  0
 10 11  1  0  0  0  0
 11 12  1  0  0  0  0
 11 16  2  0  0  0  0
 12 13  1  0  0  0  0
 12 30  1  0  0  0  0
 12 31  1  0  0  0  0
 13 14  1  0  0  0  0
 13 15  2  0  0  0  0
 14 32  1  0  0  0  0
 14 33  1  0  0  0  0
 16 17  1  0  0  0  0
 16 34  1  0  0  0  0
M  END
> <s_m_source_file>
AV-unprocessed.smi

> <i_m_source_file_index>
2056

> <i_lp_mmshare_version>
43012

> <i_f3d_flags>
0

> <s_epik_input>
W0NIM11DKFtDSDNdKShbQ0gzXSlbQ0gyXUMoPU8pW05IXWMxbmMoW2NIXXMxKVtDSDJdQyg9TylbTkgyXQ==

> <s_epik_cmdline>
J2VwaWtfcHl0aG9uJywgJy1waCcsICc3LjAnLCAnLXRuJywgJzgnLCAnLW1hJywgJzIwMCcsICctbWV0YWxfYmluZGluZycsICctaW1hZScsICc8aW5maWxlLm1hZT4nLCAnLW9tYWUnLCAnPG91dGZpbGUubWFlPic=

> <r_lp_tautomer_probability>
1

> <r_epik_Ionization_Penalty>
0.000211791

> <r_epik_Ionization_Penalty_Charging>
0

> <r_epik_Ionization_Penalty_Neutral>
0.000211791

> <r_epik_State_Penalty>
-0

> <r_epik_Charging_Adjusted_Penalty>
0

> <i_epik_Tot_Q>
0

> <i_epik_Tot_abs_Q>
0

> <r_epik_Metal_State_Penalty>
0.129621

> <b_epik_Metal_Only>
0

> <s_lp_Force_Field>
OPLS_2005

> <r_lp_Energy>
3.85365

> <b_lp_Chiralities_Consistent>
1

> <s_lp_Variant>
AV-unprocessed.smi:2056-1

> <Gold.Version>
5.8.1

> <Gold.Id.Protein>
6NUR|6NUR_protein|mol2

> <Gold.PLP.Fitness>
48.8706

> <Gold.PLP.PLP>
-40.7586

> <Gold.PLP.part.hbond>
-1.8856

> <Gold.PLP.part.metal>
0.0000

> <Gold.PLP.part.buried>
-2.6568

> <Gold.PLP.part.nonpolar>
-36.4986

> <Gold.PLP.part.repulsive>
0.3021

> <Gold.PLP.ligand.clash>
0.0000

> <Gold.PLP.ligand.torsion>
0.1381

> <Gold.PLP.Chemscore.Hbond>
2.0000

> <Gold.PLP.Chemscore.CHOScore>
0.7874

> <Gold.PLP.Chemscore.Metal>
0.0000

> <Gold.Chemscore.Hbonds>
donor molecule, donor type, donor heavy atom, donor atom, acceptor molecule, acceptor atom, score
      L1  H     8    29       P1  8028  1.00
      P1  H  7997  8009       L1    15  0.99
      L1  C    16    34       P1  7957  0.71

> <Gold.PLP.Chemscore.Internal.Correction>
0.0262

> <Gold.Rescore>
     Score         DG    S(hbond)    S(metal)    S(lipo)     H(rot)  DE(clash)    DE(int)     intcor
     12.74     -16.88       1.94        0.00      90.17       2.20       0.28       3.86       ----

> <Gold.Chemscore.Fitness>
12.7409

> <Gold.Chemscore.DG>
-16.8783

> <Gold.Chemscore.ZeroCoef>
-5.4800

> <Gold.Chemscore.Hbond>
1.9396

> <Gold.Chemscore.Metal>
0.0000

> <Gold.Chemscore.Lipo>
90.1678

> <Gold.Chemscore.Internal_Hbond>
0.0000

> <Gold.Chemscore.DEClash>
0.2822

> <Gold.Chemscore.DEInternal>
3.8553

> <Gold.Chemscore.Rot>
2.1991

> <Gold.Chemscore.Internal.Correction>
   9.000000E+99

> <Gold.Chemscore.Hbonds>
donor molecule, donor type, donor heavy atom, donor atom, acceptor molecule, acceptor atom, score
      L1  H     8    29       P1  8028  1.00
      P1  H  7997  8009       L1    15  0.94

> <Gold.Chemscore.Hbond.Weighted>
-6.4784

> <Gold.Chemscore.Metal.Weighted>
-0.0000

> <Gold.Chemscore.Lipo.Weighted>
-10.5496

> <Gold.Chemscore.Internal_Hbond.Weighted>
0.0000

> <Gold.Chemscore.DEClash.Weighted>
0.2822

> <Gold.Chemscore.DEInternal.Weighted>
3.8553

> <Gold.Chemscore.Rot.Weighted>
5.6297

> <Gold.Chemscore.Internal.Correction.Weighted>
   9.000000E+99

> <Gold.Protein.RotatedTorsions>
[ 6907 6896 6895 6894 ] final   74.40 input  -60.11 | X-H torsion
[ 7974 7965 7964 7962 ] final  -75.05 input  175.53 | X-H torsion
[ 8008 7997 7996 7995 ] final -145.73 input   59.86 | X-H torsion
[ 10167 10162 10161 10158 ] final -101.27 input  -65.29 | X-H torsion
[ 10718 10713 10712 10709 ] final  163.56 input   66.30 | X-H torsion
[ 10763 10752 10751 10750 ] final  -51.43 input  -60.55 | X-H torsion
[ 11005 11000 10999 10996 ] final  -48.36 input  -57.11 | X-H torsion

> <Gold.Protein.ActiveResidues>
 VAL166  LYS551  ARG553  GLY616  TRP617  ASP618  TYR619  PRO620  LYS621  CYS622 
 ASP623  PHE694  ASN695  SER759  ASP760  ASP761  ALA762  ILE779  LEU786  VAL792 
 PHE793  MET794  SER795  GLU796  ALA797  LYS798  CYS799  TRP800  GLU811  SER814 

> <Gold.Protein.RotatedAtoms>
  152.4974  134.4277  159.9501 H   0  0  0  0  0  0  0  0  0  0  0  0  # atno 6907 bound_to 6896
  151.4253  133.3680  159.2769 H   0  0  0  0  0  0  0  0  0  0  0  0  # atno 6908 bound_to 6896
  150.9193  134.8633  159.7538 H   0  0  0  0  0  0  0  0  0  0  0  0  # atno 6909 bound_to 6896
  145.6311  140.9337  143.1086 H   0  0  0  0  0  0  0  0  0  0  0  0  # atno 7974 bound_to 7965
  155.5480  140.0614  157.2856 H   0  0  0  0  0  0  0  0  0  0  0  0  # atno 8008 bound_to 7997
  154.4430  140.1907  156.0702 H   0  0  0  0  0  0  0  0  0  0  0  0  # atno 8009 bound_to 7997
  156.0537  140.3281  155.7384 H   0  0  0  0  0  0  0  0  0  0  0  0  # atno 8010 bound_to 7997
  140.2430  143.3525  152.0784 H   0  0  0  0  0  0  0  0  0  0  0  0  # atno 10167 bound_to 10162
  157.1067  131.0457  151.2475 H   0  0  0  0  0  0  0  0  0  0  0  0  # atno 10718 bound_to 10713
  154.1265  135.6526  153.4913 H   0  0  0  0  0  0  0  0  0  0  0  0  # atno 10763 bound_to 10752
  153.0208  135.5282  154.7044 H   0  0  0  0  0  0  0  0  0  0  0  0  # atno 10764 bound_to 10752
  154.6267  135.2971  155.0235 H   0  0  0  0  0  0  0  0  0  0  0  0  # atno 10765 bound_to 10752
  141.0696  133.6683  156.3429 H   0  0  0  0  0  0  0  0  0  0  0  0  # atno 11005 bound_to 11000
  144.7193  139.8085  143.7387 LP  0  0  0  0  0  0  0  0  0  0  0  0  # atno 17320 bound_to 7965
  146.1356  139.4401  143.0141 LP  0  0  0  0  0  0  0  0  0  0  0  0  # atno 17321 bound_to 7965
  139.5071  144.6825  151.5971 LP  0  0  0  0  0  0  0  0  0  0  0  0  # atno 17342 bound_to 10162
  140.6099  143.9456  150.6445 LP  0  0  0  0  0  0  0  0  0  0  0  0  # atno 17343 bound_to 10162
  157.4594  130.7644  149.7222 LP  0  0  0  0  0  0  0  0  0  0  0  0  # atno 17370 bound_to 10713
  155.9860  130.3978  150.3233 LP  0  0  0  0  0  0  0  0  0  0  0  0  # atno 17371 bound_to 10713
  140.5702  134.5848  157.5455 LP  0  0  0  0  0  0  0  0  0  0  0  0  # atno 17394 bound_to 11000
  139.9510  134.7617  156.0449 LP  0  0  0  0  0  0  0  0  0  0  0  0  # atno 17395 bound_to 11000

$$$$
