AV-unprocessed.smi:2909|AV-procd|sdf|11172|dock3
  -GOLD-   2272016 63D 1   1.00000     0.00000
 Structure written by MMmdl.
 44 45  0  0  0  0  0  0  0  0  1 V2000
  146.3894  144.0712  152.9783 C   0  0  0  0  0  0  0  0  0  0  0  0
  146.6940  142.8509  153.7789 C   0  0  0  0  0  0  0  0  0  0  0  0
  147.5715  142.6396  154.8045 C   0  0  0  0  0  0  0  0  0  0  0  0
  147.3998  141.2634  155.1391 C   0  0  0  0  0  0  0  0  0  0  0  0
  148.1193  140.4730  156.2019 C   0  0  0  0  0  0  0  0  0  0  0  0
  149.6398  140.5798  156.0449 C   0  0  0  0  0  0  0  0  0  0  0  0
  150.1905  140.0880  155.0602 O   0  0  0  0  0  0  0  0  0  0  0  0
  150.3092  141.1997  157.0304 N   0  0  0  0  0  0  0  0  0  0  0  0
  151.7564  141.3900  157.0943 C   0  0  2  0  0  0  0  0  0  0  0  0
  152.3033  141.0519  158.4926 C   0  0  0  0  0  0  0  0  0  0  0  0
  151.8359  142.0575  159.5593 C   0  0  0  0  0  0  0  0  0  0  0  0
  152.1951  143.5208  159.1994 C   0  0  2  0  0  0  0  0  0  0  0  0
  151.6927  144.5328  160.2713 C   0  0  0  0  0  0  0  0  0  0  0  0
  152.0244  144.0903  161.7099 C   0  0  0  0  0  0  0  0  0  0  0  0
  150.1787  144.8035  160.1729 C   0  0  0  0  0  0  0  0  0  0  0  0
  151.6549  143.8483  157.7848 C   0  0  0  0  0  0  0  0  0  0  0  0
  152.1184  142.8366  156.7214 C   0  0  0  0  0  0  0  0  0  0  0  0
  146.4824  140.6722  154.3859 N   0  0  0  0  0  0  0  0  0  0  0  0
  146.0628  141.6482  153.5596 N   0  0  0  0  0  0  0  0  0  0  0  0
  145.3528  141.4814  152.8605 H   0  0  0  0  0  0  0  0  0  0  0  0
  146.5776  144.9741  153.5597 H   0  0  0  0  0  0  0  0  0  0  0  0
  145.3451  144.0853  152.6653 H   0  0  0  0  0  0  0  0  0  0  0  0
  147.0114  144.1097  152.0840 H   0  0  0  0  0  0  0  0  0  0  0  0
  148.2435  143.3592  155.2486 H   0  0  0  0  0  0  0  0  0  0  0  0
  147.8468  140.8368  157.1931 H   0  0  0  0  0  0  0  0  0  0  0  0
  147.8222  139.4237  156.1660 H   0  0  0  0  0  0  0  0  0  0  0  0
  149.7715  141.5719  157.7997 H   0  0  0  0  0  0  0  0  0  0  0  0
  152.2242  140.7277  156.3636 H   0  0  0  0  0  0  0  0  0  0  0  0
  152.0117  140.0412  158.7804 H   0  0  0  0  0  0  0  0  0  0  0  0
  153.3936  141.0517  158.4583 H   0  0  0  0  0  0  0  0  0  0  0  0
  150.7583  141.9669  159.7023 H   0  0  0  0  0  0  0  0  0  0  0  0
  152.2953  141.7705  160.5041 H   0  0  0  0  0  0  0  0  0  0  0  0
  153.2833  143.5913  159.1603 H   0  0  0  0  0  0  0  0  0  0  0  0
  152.2003  145.4837  160.1024 H   0  0  0  0  0  0  0  0  0  0  0  0
  151.6337  143.0939  161.9186 H   0  0  0  0  0  0  0  0  0  0  0  0
  151.5923  144.7735  162.4418 H   0  0  0  0  0  0  0  0  0  0  0  0
  153.0975  144.0795  161.8976 H   0  0  0  0  0  0  0  0  0  0  0  0
  149.6055  143.8776  160.2295 H   0  0  0  0  0  0  0  0  0  0  0  0
  149.9130  145.3105  159.2460 H   0  0  0  0  0  0  0  0  0  0  0  0
  149.8411  145.4502  160.9833 H   0  0  0  0  0  0  0  0  0  0  0  0
  150.5650  143.8857  157.8062 H   0  0  0  0  0  0  0  0  0  0  0  0
  151.9885  144.8348  157.4658 H   0  0  0  0  0  0  0  0  0  0  0  0
  153.1999  142.9157  156.6030 H   0  0  0  0  0  0  0  0  0  0  0  0
  151.6895  143.0930  155.7519 H   0  0  0  0  0  0  0  0  0  0  0  0
  1  2  1  0  0  0  0
  1 21  1  0  0  0  0
  1 22  1  0  0  0  0
  1 23  1  0  0  0  0
  2 19  1  0  0  0  0
  2  3  2  0  0  0  0
  3  4  1  0  0  0  0
  3 24  1  0  0  0  0
  4  5  1  0  0  0  0
  4 18  2  0  0  0  0
  5  6  1  0  0  0  0
  5 25  1  0  0  0  0
  5 26  1  0  0  0  0
  6  7  2  0  0  0  0
  6  8  1  0  0  0  0
  8  9  1  0  0  0  0
  8 27  1  0  0  0  0
  9 17  1  0  0  0  0
  9 10  1  0  0  0  0
  9 28  1  0  0  0  0
 10 11  1  0  0  0  0
 10 29  1  0  0  0  0
 10 30  1  0  0  0  0
 11 12  1  0  0  0  0
 11 31  1  0  0  0  0
 11 32  1  0  0  0  0
 12 13  1  0  0  0  0
 12 16  1  0  0  0  0
 12 33  1  0  0  0  0
 13 14  1  0  0  0  0
 13 15  1  0  0  0  0
 13 34  1  0  0  0  0
 14 35  1  0  0  0  0
 14 36  1  0  0  0  0
 14 37  1  0  0  0  0
 15 38  1  0  0  0  0
 15 39  1  0  0  0  0
 15 40  1  0  0  0  0
 16 17  1  0  0  0  0
 16 41  1  0  0  0  0
 16 42  1  0  0  0  0
 17 43  1  0  0  0  0
 17 44  1  0  0  0  0
 18 19  1  0  0  0  0
 19 20  1  0  0  0  0
M  END
> <s_m_source_file>
AV-unprocessed.smi

> <i_m_source_file_index>
2909

> <i_lp_mmshare_version>
43012

> <i_f3d_flags>
0

> <s_epik_input>
W0NIM11jMVtjSF1jKG5bbkhdMSlbQ0gyXUMoPU8pW05IXVtDQEBIXTJbQ0gyXVtDSDJdW0NAQEhdKFtDSF0oW0NIM10pW0NIM10pW0NIMl1bQ0gyXTI=

> <s_epik_cmdline>
J2VwaWtfcHl0aG9uJywgJy1waCcsICc3LjAnLCAnLXRuJywgJzgnLCAnLW1hJywgJzIwMCcsICctbWV0YWxfYmluZGluZycsICctaW1hZScsICc8aW5maWxlLm1hZT4nLCAnLW9tYWUnLCAnPG91dGZpbGUubWFlPic=

> <r_lp_tautomer_probability>
0.5

> <r_epik_Ionization_Penalty>
9.34828e-05

> <r_epik_Ionization_Penalty_Charging>
0

> <r_epik_Ionization_Penalty_Neutral>
9.34828e-05

> <r_epik_State_Penalty>
0.41068

> <r_epik_Charging_Adjusted_Penalty>
0.41068

> <i_epik_Tot_Q>
0

> <i_epik_Tot_abs_Q>
0

> <r_epik_Metal_State_Penalty>
0.4107

> <b_epik_Metal_Only>
0

> <s_lp_Force_Field>
OPLS_2005

> <r_lp_Energy>
10.758

> <b_lp_Chiralities_Consistent>
1

> <s_lp_Variant>
AV-unprocessed.smi:2909-2

> <Gold.Version>
5.8.1

> <Gold.Id.Protein>
6NUR|6NUR_protein|mol2

> <Gold.PLP.Fitness>
33.7744

> <Gold.PLP.PLP>
-31.6614

> <Gold.PLP.part.hbond>
-1.0000

> <Gold.PLP.part.metal>
0.0000

> <Gold.PLP.part.buried>
-4.9674

> <Gold.PLP.part.nonpolar>
-26.2821

> <Gold.PLP.part.repulsive>
0.1520

> <Gold.PLP.ligand.clash>
0.0000

> <Gold.PLP.ligand.torsion>
0.4558

> <Gold.PLP.Chemscore.Hbond>
1.0000

> <Gold.PLP.Chemscore.CHOScore>
0.0000

> <Gold.PLP.Chemscore.Metal>
0.0000

> <Gold.Chemscore.Hbonds>
donor molecule, donor type, donor heavy atom, donor atom, acceptor molecule, acceptor atom, score
      L1  H    19    20       P1 10175  0.31
      P1  H  7989  7998       L1     7  0.42

> <Gold.PLP.Chemscore.Internal.Correction>
0.0246

> <Gold.Rescore>
     Score         DG    S(hbond)    S(metal)    S(lipo)     H(rot)  DE(clash)    DE(int)     intcor
     15.88     -18.04       0.99        0.00     111.98       1.50       1.77       0.39       ----

> <Gold.Chemscore.Fitness>
15.8791

> <Gold.Chemscore.DG>
-18.0374

> <Gold.Chemscore.ZeroCoef>
-5.4800

> <Gold.Chemscore.Hbond>
0.9875

> <Gold.Chemscore.Metal>
0.0000

> <Gold.Chemscore.Lipo>
111.9819

> <Gold.Chemscore.Internal_Hbond>
0.0000

> <Gold.Chemscore.DEClash>
1.7659

> <Gold.Chemscore.DEInternal>
0.3924

> <Gold.Chemscore.Rot>
1.5011

> <Gold.Chemscore.Internal.Correction>
   9.000000E+99

> <Gold.Chemscore.Hbonds>
donor molecule, donor type, donor heavy atom, donor atom, acceptor molecule, acceptor atom, score
      L1  H    19    20       P1 10175  0.01
      P1  H  7989  7998       L1     7  0.41

> <Gold.Chemscore.Hbond.Weighted>
-3.2984

> <Gold.Chemscore.Metal.Weighted>
-0.0000

> <Gold.Chemscore.Lipo.Weighted>
-13.1019

> <Gold.Chemscore.Internal_Hbond.Weighted>
0.0000

> <Gold.Chemscore.DEClash.Weighted>
1.7659

> <Gold.Chemscore.DEInternal.Weighted>
0.3924

> <Gold.Chemscore.Rot.Weighted>
3.8429

> <Gold.Chemscore.Internal.Correction.Weighted>
   9.000000E+99

> <Gold.Protein.RotatedTorsions>
[ 6907 6896 6895 6894 ] final  124.34 input  -60.11 | X-H torsion
[ 7974 7965 7964 7962 ] final -102.08 input  175.53 | X-H torsion
[ 8008 7997 7996 7995 ] final  178.18 input   59.86 | X-H torsion
[ 10167 10162 10161 10158 ] final -136.77 input  -65.29 | X-H torsion
[ 10718 10713 10712 10709 ] final  148.25 input   66.30 | X-H torsion
[ 10763 10752 10751 10750 ] final   71.49 input  -60.55 | X-H torsion
[ 11005 11000 10999 10996 ] final   34.44 input  -57.11 | X-H torsion

> <Gold.Protein.ActiveResidues>
 VAL166  LYS551  ARG553  GLY616  TRP617  ASP618  TYR619  PRO620  LYS621  CYS622 
 ASP623  PHE694  ASN695  SER759  ASP760  ASP761  ALA762  ILE779  LEU786  VAL792 
 PHE793  MET794  SER795  GLU796  ALA797  LYS798  CYS799  TRP800  GLU811  SER814 

> <Gold.Protein.RotatedAtoms>
  152.4087  133.6928  159.6378 H   0  0  0  0  0  0  0  0  0  0  0  0  # atno 6907 bound_to 6896
  150.7969  133.8664  159.3255 H   0  0  0  0  0  0  0  0  0  0  0  0  # atno 6908 bound_to 6896
  151.6412  135.1014  160.0193 H   0  0  0  0  0  0  0  0  0  0  0  0  # atno 6909 bound_to 6896
  145.2733  140.9305  143.2973 H   0  0  0  0  0  0  0  0  0  0  0  0  # atno 7974 bound_to 7965
  156.0575  140.1340  156.9979 H   0  0  0  0  0  0  0  0  0  0  0  0  # atno 8008 bound_to 7997
  154.4465  140.0998  156.6538 H   0  0  0  0  0  0  0  0  0  0  0  0  # atno 8009 bound_to 7997
  155.5429  140.3461  155.4453 H   0  0  0  0  0  0  0  0  0  0  0  0  # atno 8010 bound_to 7997
  139.8644  143.7036  152.2647 H   0  0  0  0  0  0  0  0  0  0  0  0  # atno 10167 bound_to 10162
  157.3109  131.0887  151.1317 H   0  0  0  0  0  0  0  0  0  0  0  0  # atno 10718 bound_to 10713
  153.0402  135.5135  154.7601 H   0  0  0  0  0  0  0  0  0  0  0  0  # atno 10763 bound_to 10752
  154.6544  135.2929  154.9948 H   0  0  0  0  0  0  0  0  0  0  0  0  # atno 10764 bound_to 10752
  154.0821  135.6662  153.4892 H   0  0  0  0  0  0  0  0  0  0  0  0  # atno 10765 bound_to 10752
  140.2528  134.3283  155.7884 H   0  0  0  0  0  0  0  0  0  0  0  0  # atno 11005 bound_to 11000
  144.9316  139.4292  143.6492 LP  0  0  0  0  0  0  0  0  0  0  0  0  # atno 17320 bound_to 7965
  146.3239  139.8229  142.8923 LP  0  0  0  0  0  0  0  0  0  0  0  0  # atno 17321 bound_to 7965
  139.7343  144.7575  151.0753 LP  0  0  0  0  0  0  0  0  0  0  0  0  # atno 17342 bound_to 10162
  140.7770  143.5050  150.9723 LP  0  0  0  0  0  0  0  0  0  0  0  0  # atno 17343 bound_to 10162
  157.2639  130.6672  149.5987 LP  0  0  0  0  0  0  0  0  0  0  0  0  # atno 17370 bound_to 10713
  155.9678  130.4500  150.5680 LP  0  0  0  0  0  0  0  0  0  0  0  0  # atno 17371 bound_to 10713
  141.2199  133.7363  156.9064 LP  0  0  0  0  0  0  0  0  0  0  0  0  # atno 17394 bound_to 11000
  140.1541  134.9210  157.2630 LP  0  0  0  0  0  0  0  0  0  0  0  0  # atno 17395 bound_to 11000

$$$$
