#       Name:                AV-unprocessed.smi:3056
#       Creating user name   scv26
#       Creation time:       Fri Mar 27 17:04:30 2020


#       File generated by GOLD software.
#

@<TRIPOS>MOLECULE
AV-unprocessed.smi:3056
    53    54     1
SMALL
NO_CHARGES


@<TRIPOS>ATOM
      1 ****        -2.7168  -3.6845   1.5304 C.3            1 S1                 0.0000
      2 ****        -2.4257  -2.4296   0.7589 C.2            1 S1                 0.0000
      3 ****        -2.2368  -1.1145   1.2681 C.2            1 S1                 0.0000
      4 ****        -1.9897  -0.2293   0.3174 N.2            1 S1                 0.0000
      5 ****        -2.0201  -0.9384  -0.8340 N.pl3          1 S1                 0.0000
      6 ****        -1.7630  -0.3010  -2.1233 C.3            1 S1                 0.0000
      7 ****        -2.0828   1.2112  -2.1186 C.3            1 S1                 0.0000
      8 ****        -0.3495  -0.6457  -2.6704 C.3            1 S1                 0.0000
      9 ****        -0.2096  -0.3080  -4.1635 C.3            1 S1                 0.0000
     10 ****         0.7403   0.0169  -1.9145 N.4            1 S1                 1.0000
     11 ****         1.3209  -0.7681  -0.8041 C.3            1 S1                 0.0000
     12 ****         2.5477  -0.0726  -0.2049 C.2            1 S1                 0.0000
     13 ****         3.6559  -0.5258  -0.4896 O.2            1 S1                 0.0000
     14 ****         2.3880   0.9959   0.6129 N.am           1 S1                 0.0000
     15 ****         3.4974   1.6301   1.3285 C.3            1 S1                 0.0000
     16 ****         3.2801   1.4075   2.8365 C.3            1 S1                 0.0000
     17 ****         2.0133   1.9358   3.2257 O.3            1 S1                 0.0000
     18 ****         0.9130   1.3666   2.5170 C.3            1 S1                 0.0000
     19 ****        -0.3767   2.0108   3.0368 C.3            1 S1                 0.0000
     20 ****         1.1164   1.6063   1.0086 C.3            1 S1                 0.0000
     21 ****        -2.2765  -2.2723  -0.5897 C.2            1 S1                 0.0000
     22 ****        -2.9622  -3.4733   2.5715 H              1 S1                 0.0000
     23 ****        -1.8627  -4.3617   1.5326 H              1 S1                 0.0000
     24 ****        -3.5604  -4.2304   1.1076 H              1 S1                 0.0000
     25 ****        -2.2671  -0.7796   2.2945 H              1 S1                 0.0000
     26 ****        -2.4813  -0.7558  -2.8072 H              1 S1                 0.0000
     27 ****        -2.0287   1.6358  -3.1204 H              1 S1                 0.0000
     28 ****        -1.3970   1.7738  -1.4844 H              1 S1                 0.0000
     29 ****        -3.0942   1.3932  -1.7535 H              1 S1                 0.0000
     30 ****        -0.2082  -1.7254  -2.5984 H              1 S1                 0.0000
     31 ****        -0.9861  -0.7967  -4.7529 H              1 S1                 0.0000
     32 ****         0.7523  -0.6464  -4.5502 H              1 S1                 0.0000
     33 ****        -0.2747   0.7643  -4.3484 H              1 S1                 0.0000
     34 ****         1.4926   0.1908  -2.5657 H              1 S1                 0.0000
     35 ****         0.5897  -0.9680  -0.0234 H              1 S1                 0.0000
     36 ****         1.6309  -1.7421  -1.1856 H              1 S1                 0.0000
     37 ****         4.4730   1.2400   1.0358 H              1 S1                 0.0000
     38 ****         3.5167   2.6972   1.1026 H              1 S1                 0.0000
     39 ****         3.3307   0.3457   3.0832 H              1 S1                 0.0000
     40 ****         4.0619   1.9063   3.4094 H              1 S1                 0.0000
     41 ****         0.8743   0.2943   2.7176 H              1 S1                 0.0000
     42 ****        -1.2520   1.6067   2.5288 H              1 S1                 0.0000
     43 ****        -0.3690   3.0899   2.8815 H              1 S1                 0.0000
     44 ****        -0.4996   1.8290   4.1048 H              1 S1                 0.0000
     45 ****         1.1540   2.6767   0.8002 H              1 S1                 0.0000
     46 ****         0.2628   1.2323   0.4499 H              1 S1                 0.0000
     47 ****        -2.3299  -2.9957  -1.3901 H              1 S1                 0.0000
     48 ****         0.4101   0.9057  -1.5663 H              1 S1                 0.0000
     49 ****        -1.8180   0.7499   0.4259 LP             1 S1                 0.0000
     50 ****         3.7314  -1.3202  -1.0922 LP             1 S1                 0.0000
     51 ****         4.4808  -0.0995  -0.1184 LP             1 S1                 0.0000
     52 ****         2.0185   2.9223   3.0614 LP             1 S1                 0.0000
     53 ****         1.8846   1.7611   4.2018 LP             1 S1                 0.0000
@<TRIPOS>BOND
    1    1    2 1     
    2    1   22 1     
    3    1   23 1     
    4    1   24 1     
    5    2   21 2     
    6    2    3 1     
    7    3    4 2     
    8    3   25 1     
    9    4    5 1     
   10    5    6 1     
   11    5   21 1     
   12    6    7 1     
   13    6    8 1     
   14    6   26 1     
   15    7   27 1     
   16    7   28 1     
   17    7   29 1     
   18    8    9 1     
   19    8   10 1     
   20    8   30 1     
   21    9   31 1     
   22    9   32 1     
   23    9   33 1     
   24   10   11 1     
   25   10   34 1     
   26   10   48 1     
   27   11   12 1     
   28   11   35 1     
   29   11   36 1     
   30   12   13 2     
   31   12   14 am    
   32   14   20 1     
   33   14   15 1     
   34   15   16 1     
   35   15   37 1     
   36   15   38 1     
   37   16   17 1     
   38   16   39 1     
   39   16   40 1     
   40   17   18 1     
   41   18   19 1     
   42   18   20 1     
   43   18   41 1     
   44   19   42 1     
   45   19   43 1     
   46   19   44 1     
   47   20   45 1     
   48   20   46 1     
   49   21   47 1     
   50    4   49 1     
   51   13   50 1     
   52   13   51 1     
   53   17   52 1     
   54   17   53 1     
@<TRIPOS>SUBSTRUCTURE
      1 S1             1
@<TRIPOS>SET
LONE_PAIRS      STATIC     ATOMS    <user>   **** ""
5 49 50 51 52 53
DONOR_HYDROGENS      STATIC     ATOMS    <user>   **** ""
2 34 48
ATOM$BLUE        STATIC     ATOMS    COLORGROUP SYSTEM
5 49 50 51 52 53
ATOM$RED        STATIC     ATOMS    COLORGROUP SYSTEM
2 34 48
