AV-unprocessed.smi:676|AV-procd|sdf|3307|dock4
  -GOLD-   22720 0273D 1   1.00000     0.00000
 Structure written by MMmdl.
 42 43  0  0  0  0  0  0  0  0  1 V2000
  152.4489  139.3487  154.4362 C   0  0  0  0  0  0  0  0  0  0  0  0
  151.2383  139.9813  154.8335 O   0  0  0  0  0  0  0  0  0  0  0  0
  150.1567  139.1363  155.2482 C   0  0  1  0  0  0  0  0  0  0  0  0
  149.8759  138.0718  154.1794 C   0  0  0  0  0  0  0  0  0  0  0  0
  150.3496  138.7018  156.7143 C   0  0  0  0  0  0  0  0  0  0  0  0
  149.6133  139.9701  157.1543 C   0  0  1  0  0  0  0  0  0  0  0  0
  150.5418  141.0636  157.4381 N   0  0  0  0  0  0  0  0  0  0  0  0
  150.4405  141.9057  158.4752 C   0  0  0  0  0  0  0  0  0  0  0  0
  149.5441  141.8362  159.3168 O   0  0  0  0  0  0  0  0  0  0  0  0
  151.5388  142.9714  158.5868 C   0  0  0  0  0  0  0  0  0  0  0  0
  152.4156  142.7681  159.7513 N   0  0  0  0  0  0  0  0  0  0  0  0
  152.2282  143.6241  160.8551 C   0  0  0  0  0  0  0  0  0  0  0  0
  152.9757  143.5243  161.9655 C   0  0  0  0  0  0  0  0  0  0  0  0
  153.9951  142.5028  162.0128 C   0  0  0  0  0  0  0  0  0  0  0  0
  154.1854  141.6818  160.9609 C   0  0  0  0  0  0  0  0  0  0  0  0
  153.3744  141.7911  159.7426 C   0  0  0  0  0  0  0  0  0  0  0  0
  153.5454  141.0487  158.7750 O   0  0  0  0  0  0  0  0  0  0  0  0
  148.9815  140.0433  155.7400 C   0  0  0  0  0  0  0  0  0  0  0  0
  148.8386  141.4255  155.0813 C   0  0  0  0  0  0  0  0  0  0  0  0
  147.5810  139.4157  155.6714 C   0  0  0  0  0  0  0  0  0  0  0  0
  153.2187  140.1087  154.3044 H   0  0  0  0  0  0  0  0  0  0  0  0
  152.3395  138.8342  153.4815 H   0  0  0  0  0  0  0  0  0  0  0  0
  152.8118  138.6380  155.1779 H   0  0  0  0  0  0  0  0  0  0  0  0
  148.9957  137.4768  154.4195 H   0  0  0  0  0  0  0  0  0  0  0  0
  150.6987  137.3644  154.0814 H   0  0  0  0  0  0  0  0  0  0  0  0
  149.7065  138.5267  153.2032 H   0  0  0  0  0  0  0  0  0  0  0  0
  149.7921  137.7962  156.9583 H   0  0  0  0  0  0  0  0  0  0  0  0
  151.3785  138.6244  157.0651 H   0  0  0  0  0  0  0  0  0  0  0  0
  148.8823  139.7926  157.9452 H   0  0  0  0  0  0  0  0  0  0  0  0
  151.3165  141.1798  156.8007 H   0  0  0  0  0  0  0  0  0  0  0  0
  152.1188  142.9571  157.6632 H   0  0  0  0  0  0  0  0  0  0  0  0
  151.0885  143.9654  158.6242 H   0  0  0  0  0  0  0  0  0  0  0  0
  151.4508  144.3649  160.7363 H   0  0  0  0  0  0  0  0  0  0  0  0
  152.8214  144.1930  162.7995 H   0  0  0  0  0  0  0  0  0  0  0  0
  154.6080  142.3965  162.8958 H   0  0  0  0  0  0  0  0  0  0  0  0
  154.9525  140.9232  161.0140 H   0  0  0  0  0  0  0  0  0  0  0  0
  148.1139  142.0453  155.6105 H   0  0  0  0  0  0  0  0  0  0  0  0
  148.5038  141.3397  154.0471 H   0  0  0  0  0  0  0  0  0  0  0  0
  149.7740  141.9842  155.0625 H   0  0  0  0  0  0  0  0  0  0  0  0
  146.8474  140.0204  156.2057 H   0  0  0  0  0  0  0  0  0  0  0  0
  147.5563  138.4225  156.1207 H   0  0  0  0  0  0  0  0  0  0  0  0
  147.2333  139.3144  154.6429 H   0  0  0  0  0  0  0  0  0  0  0  0
  1  2  1  0  0  0  0
  1 21  1  0  0  0  0
  1 22  1  0  0  0  0
  1 23  1  0  0  0  0
  2  3  1  0  0  0  0
  3 18  1  0  0  0  0
  3  4  1  0  0  0  0
  3  5  1  0  0  0  0
  4 24  1  0  0  0  0
  4 25  1  0  0  0  0
  4 26  1  0  0  0  0
  5  6  1  0  0  0  0
  5 27  1  0  0  0  0
  5 28  1  0  0  0  0
  6  7  1  0  0  0  0
  6 18  1  0  0  0  0
  6 29  1  0  0  0  0
  7  8  1  0  0  0  0
  7 30  1  0  0  0  0
  8  9  2  0  0  0  0
  8 10  1  0  0  0  0
 10 11  1  0  0  0  0
 10 31  1  0  0  0  0
 10 32  1  0  0  0  0
 11 16  1  0  0  0  0
 11 12  1  0  0  0  0
 12 13  2  0  0  0  0
 12 33  1  0  0  0  0
 13 14  1  0  0  0  0
 13 34  1  0  0  0  0
 14 15  2  0  0  0  0
 14 35  1  0  0  0  0
 15 16  1  0  0  0  0
 15 36  1  0  0  0  0
 16 17  2  0  0  0  0
 18 19  1  0  0  0  0
 18 20  1  0  0  0  0
 19 37  1  0  0  0  0
 19 38  1  0  0  0  0
 19 39  1  0  0  0  0
 20 40  1  0  0  0  0
 20 41  1  0  0  0  0
 20 42  1  0  0  0  0
M  END
> <s_m_source_file>
AV-unprocessed.smi

> <i_m_source_file_index>
676

> <i_lp_mmshare_version>
43012

> <i_f3d_flags>
0

> <s_epik_input>
W0NIM11PW0NAQF0xKFtDSDNdKVtDSDJdW0NASF0oQzEoW0NIM10pW0NIM10pW05IXUMoPU8pW0NIMl1uMltjSF1bY0hdW2NIXVtjSF1jMj1P

> <s_epik_cmdline>
J2VwaWtfcHl0aG9uJywgJy1waCcsICc3LjAnLCAnLXRuJywgJzgnLCAnLW1hJywgJzIwMCcsICctbWV0YWxfYmluZGluZycsICctaW1hZScsICc8aW5maWxlLm1hZT4nLCAnLW9tYWUnLCAnPG91dGZpbGUubWFlPic=

> <r_lp_tautomer_probability>
1

> <r_epik_Ionization_Penalty>
4.09771e-07

> <r_epik_Ionization_Penalty_Charging>
3.90712e-07

> <r_epik_Ionization_Penalty_Neutral>
1.90591e-08

> <r_epik_State_Penalty>
-0

> <r_epik_Charging_Adjusted_Penalty>
3.90712e-07

> <i_epik_Tot_Q>
0

> <i_epik_Tot_abs_Q>
0

> <r_epik_Metal_State_Penalty>
-0

> <b_epik_Metal_Only>
0

> <s_lp_Force_Field>
OPLS_2005

> <r_lp_Energy>
33.6273

> <b_lp_Chiralities_Consistent>
1

> <s_lp_Variant>
AV-unprocessed.smi:676-1

> <Gold.Version>
5.8.1

> <Gold.Id.Protein>
6NUR|6NUR_protein|mol2

> <Gold.PLP.Fitness>
44.5291

> <Gold.PLP.PLP>
-42.1562

> <Gold.PLP.part.hbond>
-2.0000

> <Gold.PLP.part.metal>
0.0000

> <Gold.PLP.part.buried>
-3.0019

> <Gold.PLP.part.nonpolar>
-36.4216

> <Gold.PLP.part.repulsive>
0.1657

> <Gold.PLP.ligand.clash>
0.0000

> <Gold.PLP.ligand.torsion>
0.5078

> <Gold.PLP.Chemscore.Hbond>
1.0000

> <Gold.PLP.Chemscore.CHOScore>
0.0000

> <Gold.PLP.Chemscore.Metal>
0.0000

> <Gold.PLP.Chemscore.Internal.Correction>
0.3884

> <Gold.Rescore>
     Score         DG    S(hbond)    S(metal)    S(lipo)     H(rot)  DE(clash)    DE(int)     intcor
     15.28     -15.92       0.78        0.00     102.43       1.62       0.14       0.50       ----

> <Gold.Chemscore.Fitness>
15.2790

> <Gold.Chemscore.DG>
-15.9245

> <Gold.Chemscore.ZeroCoef>
-5.4800

> <Gold.Chemscore.Hbond>
0.7786

> <Gold.Chemscore.Metal>
0.0000

> <Gold.Chemscore.Lipo>
102.4327

> <Gold.Chemscore.Internal_Hbond>
0.0000

> <Gold.Chemscore.DEClash>
0.1439

> <Gold.Chemscore.DEInternal>
0.5016

> <Gold.Chemscore.Rot>
1.6175

> <Gold.Chemscore.Internal.Correction>
   9.000000E+99

> <Gold.Chemscore.Hbonds>
donor molecule, donor type, donor heavy atom, donor atom, acceptor molecule, acceptor atom, score
      P1  H  7997  8009       L1    17  0.01

> <Gold.Chemscore.Hbond.Weighted>
-2.6006

> <Gold.Chemscore.Metal.Weighted>
-0.0000

> <Gold.Chemscore.Lipo.Weighted>
-11.9846

> <Gold.Chemscore.Internal_Hbond.Weighted>
0.0000

> <Gold.Chemscore.DEClash.Weighted>
0.1439

> <Gold.Chemscore.DEInternal.Weighted>
0.5016

> <Gold.Chemscore.Rot.Weighted>
4.1408

> <Gold.Chemscore.Internal.Correction.Weighted>
   9.000000E+99

> <Gold.Protein.RotatedTorsions>
[ 6907 6896 6895 6894 ] final   76.83 input  -60.11 | X-H torsion
[ 7974 7965 7964 7962 ] final  -15.47 input  175.53 | X-H torsion
[ 8008 7997 7996 7995 ] final -178.36 input   59.86 | X-H torsion
[ 10167 10162 10161 10158 ] final  -68.11 input  -65.29 | X-H torsion
[ 10718 10713 10712 10709 ] final   64.20 input   66.30 | X-H torsion
[ 10763 10752 10751 10750 ] final  -19.88 input  -60.55 | X-H torsion
[ 11005 11000 10999 10996 ] final  -86.11 input  -57.11 | X-H torsion

> <Gold.Protein.ActiveResidues>
 VAL166  LYS551  ARG553  GLY616  TRP617  ASP618  TYR619  PRO620  LYS621  CYS622 
 ASP623  PHE694  ASN695  SER759  ASP760  ASP761  ALA762  ILE779  LEU786  VAL792 
 PHE793  MET794  SER795  GLU796  ALA797  LYS798  CYS799  TRP800  GLU811  SER814 

> <Gold.Protein.RotatedAtoms>
  152.5091  134.3909  159.9383 H   0  0  0  0  0  0  0  0  0  0  0  0  # atno 6907 bound_to 6896
  151.3869  133.3796  159.2724 H   0  0  0  0  0  0  0  0  0  0  0  0  # atno 6908 bound_to 6896
  150.9462  134.8887  159.7702 H   0  0  0  0  0  0  0  0  0  0  0  0  # atno 6909 bound_to 6896
  146.2030  140.3497  142.8416 H   0  0  0  0  0  0  0  0  0  0  0  0  # atno 7974 bound_to 7965
  156.0179  140.1255  157.0387 H   0  0  0  0  0  0  0  0  0  0  0  0  # atno 8008 bound_to 7997
  154.4300  140.1074  156.5992 H   0  0  0  0  0  0  0  0  0  0  0  0  # atno 8009 bound_to 7997
  155.5986  140.3470  155.4589 H   0  0  0  0  0  0  0  0  0  0  0  0  # atno 8010 bound_to 7997
  140.5532  143.2312  151.6871 H   0  0  0  0  0  0  0  0  0  0  0  0  # atno 10167 bound_to 10162
  157.6023  130.9147  149.9815 H   0  0  0  0  0  0  0  0  0  0  0  0  # atno 10718 bound_to 10713
  153.6117  135.6996  153.5344 H   0  0  0  0  0  0  0  0  0  0  0  0  # atno 10763 bound_to 10752
  153.3011  135.4128  155.1253 H   0  0  0  0  0  0  0  0  0  0  0  0  # atno 10764 bound_to 10752
  154.8562  135.3649  154.5656 H   0  0  0  0  0  0  0  0  0  0  0  0  # atno 10765 bound_to 10752
  141.1634  133.7436  156.9113 H   0  0  0  0  0  0  0  0  0  0  0  0  # atno 11005 bound_to 11000
  144.8727  140.7295  143.6036 LP  0  0  0  0  0  0  0  0  0  0  0  0  # atno 17320 bound_to 7965
  145.3417  139.1730  143.4482 LP  0  0  0  0  0  0  0  0  0  0  0  0  # atno 17321 bound_to 7965
  139.5036  144.3783  152.0401 LP  0  0  0  0  0  0  0  0  0  0  0  0  # atno 17342 bound_to 10162
  140.2902  144.3762  150.6091 LP  0  0  0  0  0  0  0  0  0  0  0  0  # atno 17343 bound_to 10162
  156.1100  130.3650  150.0066 LP  0  0  0  0  0  0  0  0  0  0  0  0  # atno 17370 bound_to 10713
  156.8166  130.9343  151.3642 LP  0  0  0  0  0  0  0  0  0  0  0  0  # atno 17371 bound_to 10713
  140.1514  134.9227  157.2598 LP  0  0  0  0  0  0  0  0  0  0  0  0  # atno 17394 bound_to 11000
  140.2718  134.3452  155.7371 LP  0  0  0  0  0  0  0  0  0  0  0  0  # atno 17395 bound_to 11000

$$$$
