#       Name:                AV-unprocessed.smi:701
#       Creating user name   scv26
#       Creation time:       Fri Mar 27 00:39:47 2020


#       File generated by GOLD software.
#

@<TRIPOS>MOLECULE
AV-unprocessed.smi:701
    57    59     1
SMALL
NO_CHARGES


@<TRIPOS>ATOM
      1 ****        -2.9721   2.6513  -1.7181 C.3            1 S1                 0.0000
      2 ****        -1.4701   2.9195  -1.8340 C.3            1 S1                 0.0000
      3 ****        -0.7794   1.9693  -1.0416 O.3            1 S1                 0.0000
      4 ****         0.6352   2.0917  -1.1178 C.3            1 S1                 0.0000
      5 ****         1.2136   1.3207  -2.3108 C.3            1 S1                 0.0000
      6 ****         1.4228   0.1272  -1.3728 C.3            1 S1                 0.0000
      7 ****         0.2923  -0.7978  -1.4461 N.am           1 S1                 0.0000
      8 ****         0.2892  -2.0420  -0.9476 C.2            1 S1                 0.0000
      9 ****         1.2684  -2.5538  -0.4034 O.2            1 S1                 0.0000
     10 ****        -1.0158  -2.8313  -1.1053 C.3            1 S1                 0.0000
     11 ****        -1.3832  -3.5524   0.1231 N.am           1 S1                 0.0000
     12 ****        -1.0367  -4.9120   0.2137 C.2            1 S1                 0.0000
     13 ****        -1.3276  -5.6479   1.3033 C.2            1 S1                 0.0000
     14 ****        -2.0218  -4.9995   2.4091 C.2            1 S1                 0.0000
     15 ****        -2.3009  -5.6577   3.4094 O.2            1 S1                 0.0000
     16 ****        -2.3314  -3.6766   2.2757 N.pl3          1 S1                -1.0000
     17 ****        -2.0265  -2.9398   1.1626 C.2            1 S1                 0.0000
     18 ****        -2.3129  -1.7460   1.0640 O.2            1 S1                 0.0000
     19 ****         1.3678   1.1086  -0.1664 C.3            1 S1                 0.0000
     20 ****         2.7587   1.5825   0.3059 C.3            1 S1                 0.0000
     21 ****         2.6981   2.7124   1.3491 C.3            1 S1                 0.0000
     22 ****         1.8681   2.3001   2.5705 C.3            1 S1                 0.0000
     23 ****         0.4862   1.7869   2.1500 C.3            1 S1                 0.0000
     24 ****         0.6051   0.6672   1.1036 C.3            1 S1                 0.0000
     25 ****        -3.5438   3.3699  -2.3054 H              1 S1                 0.0000
     26 ****        -3.3039   2.7256  -0.6821 H              1 S1                 0.0000
     27 ****        -3.2194   1.6521  -2.0778 H              1 S1                 0.0000
     28 ****        -1.1599   2.8498  -2.8772 H              1 S1                 0.0000
     29 ****        -1.2427   3.9289  -1.4884 H              1 S1                 0.0000
     30 ****         0.9818   3.1228  -1.0383 H              1 S1                 0.0000
     31 ****         0.5223   1.1467  -3.1362 H              1 S1                 0.0000
     32 ****         2.1535   1.7445  -2.6668 H              1 S1                 0.0000
     33 ****         2.3946  -0.3502  -1.5099 H              1 S1                 0.0000
     34 ****        -0.5578  -0.4514  -1.8669 H              1 S1                 0.0000
     35 ****        -1.8263  -2.1653  -1.4084 H              1 S1                 0.0000
     36 ****        -0.8930  -3.5281  -1.9354 H              1 S1                 0.0000
     37 ****        -0.5186  -5.3126  -0.6452 H              1 S1                 0.0000
     38 ****        -1.0507  -6.6903   1.3588 H              1 S1                 0.0000
     39 ****         3.3101   0.7408   0.7276 H              1 S1                 0.0000
     40 ****         3.3558   1.9235  -0.5403 H              1 S1                 0.0000
     41 ****         3.7069   2.9831   1.6623 H              1 S1                 0.0000
     42 ****         2.2666   3.6074   0.9005 H              1 S1                 0.0000
     43 ****         2.3934   1.5163   3.1177 H              1 S1                 0.0000
     44 ****         1.7648   3.1413   3.2563 H              1 S1                 0.0000
     45 ****        -0.0559   1.4229   3.0232 H              1 S1                 0.0000
     46 ****        -0.1028   2.6086   1.7405 H              1 S1                 0.0000
     47 ****        -0.4011   0.3258   0.8609 H              1 S1                 0.0000
     48 ****         1.1004  -0.1937   1.5547 H              1 S1                 0.0000
     49 ****        -1.0354   1.0532  -1.3502 LP             1 S1                 0.0000
     50 ****        -1.0571   2.0896  -0.0885 LP             1 S1                 0.0000
     51 ****         2.1196  -2.0362  -0.3168 LP             1 S1                 0.0000
     52 ****         1.2122  -3.4869  -0.0482 LP             1 S1                 0.0000
     53 ****        -2.0519  -6.6250   3.4570 LP             1 S1                 0.0000
     54 ****        -2.7770  -5.2257   4.1754 LP             1 S1                 0.0000
     55 ****        -2.8054  -3.2222   3.0299 LP             1 S1                 0.0000
     56 ****        -2.0750  -1.2416   0.2339 LP             1 S1                 0.0000
     57 ****        -2.7834  -1.2811   1.8140 LP             1 S1                 0.0000
@<TRIPOS>BOND
    1    1    2 1     
    2    1   25 1     
    3    1   26 1     
    4    1   27 1     
    5    2    3 1     
    6    2   28 1     
    7    2   29 1     
    8    3    4 1     
    9    4   19 1     
   10    4    5 1     
   11    4   30 1     
   12    5    6 1     
   13    5   31 1     
   14    5   32 1     
   15    6    7 1     
   16    6   19 1     
   17    6   33 1     
   18    7    8 am    
   19    7   34 1     
   20    8    9 2     
   21    8   10 1     
   22   10   11 1     
   23   10   35 1     
   24   10   36 1     
   25   11   17 am    
   26   11   12 1     
   27   12   13 2     
   28   12   37 1     
   29   13   14 1     
   30   13   38 1     
   31   14   15 2     
   32   14   16 1     
   33   16   17 1     
   34   17   18 2     
   35   19   24 1     
   36   19   20 1     
   37   20   21 1     
   38   20   39 1     
   39   20   40 1     
   40   21   22 1     
   41   21   41 1     
   42   21   42 1     
   43   22   23 1     
   44   22   43 1     
   45   22   44 1     
   46   23   24 1     
   47   23   45 1     
   48   23   46 1     
   49   24   47 1     
   50   24   48 1     
   51    3   49 1     
   52    3   50 1     
   53    9   51 1     
   54    9   52 1     
   55   15   53 1     
   56   15   54 1     
   57   16   55 1     
   58   18   56 1     
   59   18   57 1     
@<TRIPOS>SUBSTRUCTURE
      1 S1             1
@<TRIPOS>SET
LONE_PAIRS      STATIC     ATOMS    <user>   **** ""
9 49 50 51 52 53 54 55 56 57
DONOR_HYDROGENS      STATIC     ATOMS    <user>   **** ""
1 34
ATOM$BLUE        STATIC     ATOMS    COLORGROUP SYSTEM
9 49 50 51 52 53 54 55 56 57
ATOM$RED        STATIC     ATOMS    COLORGROUP SYSTEM
1 34
