AV-unprocessed.smi:2378|AV-procd|sdf|9449|dock4
  -GOLD-   2272013 83D 1   1.00000     0.00000
 Structure written by MMmdl.
 40 41  0  0  0  0  0  0  0  0  1 V2000
  145.4746  132.1203  149.1810 C   0  0  0  0  0  0  0  0  0  0  0  0
  145.0668  132.9873  150.3537 C   0  0  0  0  0  0  0  0  0  0  0  0
  143.8943  132.7137  151.0834 C   0  0  0  0  0  0  0  0  0  0  0  0
  143.5707  133.5589  152.1608 C   0  0  0  0  0  0  0  0  0  0  0  0
  144.3284  134.6145  152.5258 N   0  0  0  0  0  0  0  0  0  0  0  0
  145.4608  134.8878  151.8309 C   0  0  0  0  0  0  0  0  0  0  0  0
  146.3311  135.9690  152.1336 N   0  0  0  0  0  0  0  0  0  0  0  0
  146.0142  137.1805  152.6240 C   0  0  0  0  0  0  0  0  0  0  0  0
  144.8743  137.5710  152.8788 O   0  0  0  0  0  0  0  0  0  0  0  0
  147.1099  137.9326  152.8028 N   0  0  0  0  0  0  0  0  0  0  0  0
  147.1155  139.2974  153.3169 C   0  0  0  0  0  0  0  0  0  0  0  0
  148.5206  139.9200  153.2501 C   0  0  0  0  0  0  0  0  0  0  0  0
  149.1641  140.0939  154.6348 C   0  0  2  0  0  0  0  0  0  0  0  0
  148.7607  141.4272  155.2941 C   0  0  0  0  0  0  0  0  0  0  0  0
  149.4766  141.6022  156.6383 C   0  0  0  0  0  0  0  0  0  0  0  0
  150.9868  141.4280  156.4471 C   0  0  0  0  0  0  0  0  0  0  0  0
  151.2839  140.1047  155.7243 C   0  0  0  0  0  0  0  0  0  0  0  0
  150.5826  140.0609  154.4853 O   0  0  0  0  0  0  0  0  0  0  0  0
  145.8589  134.0890  150.7351 C   0  0  0  0  0  0  0  0  0  0  0  0
  144.7926  131.2791  149.0535 H   0  0  0  0  0  0  0  0  0  0  0  0
  146.4790  131.7245  149.3343 H   0  0  0  0  0  0  0  0  0  0  0  0
  145.4717  132.7051  148.2609 H   0  0  0  0  0  0  0  0  0  0  0  0
  143.2567  131.8799  150.8285 H   0  0  0  0  0  0  0  0  0  0  0  0
  142.6803  133.3830  152.7459 H   0  0  0  0  0  0  0  0  0  0  0  0
  147.3107  135.7974  151.9630 H   0  0  0  0  0  0  0  0  0  0  0  0
  148.0066  137.5332  152.5670 H   0  0  0  0  0  0  0  0  0  0  0  0
  146.3984  139.9105  152.7685 H   0  0  0  0  0  0  0  0  0  0  0  0
  146.7694  139.2662  154.3502 H   0  0  0  0  0  0  0  0  0  0  0  0
  149.1665  139.3066  152.6205 H   0  0  0  0  0  0  0  0  0  0  0  0
  148.4556  140.8950  152.7651 H   0  0  0  0  0  0  0  0  0  0  0  0
  148.8507  139.2660  155.2734 H   0  0  0  0  0  0  0  0  0  0  0  0
  149.0178  142.2569  154.6341 H   0  0  0  0  0  0  0  0  0  0  0  0
  147.6807  141.4672  155.4399 H   0  0  0  0  0  0  0  0  0  0  0  0
  149.2566  142.5821  157.0631 H   0  0  0  0  0  0  0  0  0  0  0  0
  149.1086  140.8613  157.3489 H   0  0  0  0  0  0  0  0  0  0  0  0
  151.3806  142.2587  155.8603 H   0  0  0  0  0  0  0  0  0  0  0  0
  151.4956  141.4556  157.4111 H   0  0  0  0  0  0  0  0  0  0  0  0
  152.3526  140.0170  155.5277 H   0  0  0  0  0  0  0  0  0  0  0  0
  151.0033  139.2511  156.3432 H   0  0  0  0  0  0  0  0  0  0  0  0
  146.7635  134.3171  150.1897 H   0  0  0  0  0  0  0  0  0  0  0  0
  1  2  1  0  0  0  0
  1 20  1  0  0  0  0
  1 21  1  0  0  0  0
  1 22  1  0  0  0  0
  2 19  1  0  0  0  0
  2  3  2  0  0  0  0
  3  4  1  0  0  0  0
  3 23  1  0  0  0  0
  4  5  2  0  0  0  0
  4 24  1  0  0  0  0
  5  6  1  0  0  0  0
  6  7  1  0  0  0  0
  6 19  2  0  0  0  0
  7  8  1  0  0  0  0
  7 25  1  0  0  0  0
  8  9  2  0  0  0  0
  8 10  1  0  0  0  0
 10 11  1  0  0  0  0
 10 26  1  0  0  0  0
 11 12  1  0  0  0  0
 11 27  1  0  0  0  0
 11 28  1  0  0  0  0
 12 13  1  0  0  0  0
 12 29  1  0  0  0  0
 12 30  1  0  0  0  0
 13 18  1  0  0  0  0
 13 14  1  0  0  0  0
 13 31  1  0  0  0  0
 14 15  1  0  0  0  0
 14 32  1  0  0  0  0
 14 33  1  0  0  0  0
 15 16  1  0  0  0  0
 15 34  1  0  0  0  0
 15 35  1  0  0  0  0
 16 17  1  0  0  0  0
 16 36  1  0  0  0  0
 16 37  1  0  0  0  0
 17 18  1  0  0  0  0
 17 38  1  0  0  0  0
 17 39  1  0  0  0  0
 19 40  1  0  0  0  0
M  END
> <s_m_source_file>
AV-unprocessed.smi

> <i_m_source_file_index>
2378

> <i_lp_mmshare_version>
43012

> <i_f3d_flags>
0

> <s_epik_input>
W0NIM11jMVtjSF1bY0hdbmMoW2NIXTEpW05IXUMoPU8pW05IXVtDSDJdW0NIMl1bQ0BASF0yW0NIMl1bQ0gyXVtDSDJdW0NIMl1PMg==

> <s_epik_cmdline>
J2VwaWtfcHl0aG9uJywgJy1waCcsICc3LjAnLCAnLXRuJywgJzgnLCAnLW1hJywgJzIwMCcsICctbWV0YWxfYmluZGluZycsICctaW1hZScsICc8aW5maWxlLm1hZT4nLCAnLW9tYWUnLCAnPG91dGZpbGUubWFlPic=

> <r_lp_tautomer_probability>
1

> <r_epik_Ionization_Penalty>
8.60919e-05

> <r_epik_Ionization_Penalty_Charging>
0

> <r_epik_Ionization_Penalty_Neutral>
8.60919e-05

> <r_epik_State_Penalty>
-0

> <r_epik_Charging_Adjusted_Penalty>
0

> <i_epik_Tot_Q>
0

> <i_epik_Tot_abs_Q>
0

> <r_epik_Metal_State_Penalty>
-0

> <b_epik_Metal_Only>
0

> <s_lp_Force_Field>
OPLS_2005

> <r_lp_Energy>
11.3516

> <b_lp_Chiralities_Consistent>
1

> <s_lp_Variant>
AV-unprocessed.smi:2378-1

> <Gold.Version>
5.8.1

> <Gold.Id.Protein>
6NUR|6NUR_protein|mol2

> <Gold.PLP.Fitness>
41.7466

> <Gold.PLP.PLP>
-31.9771

> <Gold.PLP.part.hbond>
-3.0000

> <Gold.PLP.part.metal>
0.0000

> <Gold.PLP.part.buried>
2.0127

> <Gold.PLP.part.nonpolar>
-31.1538

> <Gold.PLP.part.repulsive>
0.4836

> <Gold.PLP.ligand.clash>
0.0000

> <Gold.PLP.ligand.torsion>
0.9002

> <Gold.PLP.Chemscore.Hbond>
3.0000

> <Gold.PLP.Chemscore.CHOScore>
0.8531

> <Gold.PLP.Chemscore.Metal>
0.0000

> <Gold.Chemscore.Hbonds>
donor molecule, donor type, donor heavy atom, donor atom, acceptor molecule, acceptor atom, score
      L1  H     7    25       P1  7948  1.00
      L1  H    10    26       P1  7948  1.00
      P1  H  7989  7998       L1    18  1.00
      L1  C     4    24       P1 10957  0.73

> <Gold.PLP.Chemscore.Internal.Correction>
0.0105

> <Gold.Rescore>
     Score         DG    S(hbond)    S(metal)    S(lipo)     H(rot)  DE(clash)    DE(int)     intcor
     17.27     -20.67       2.76        0.00      82.32       1.42       1.50       1.90       ----

> <Gold.Chemscore.Fitness>
17.2726

> <Gold.Chemscore.DG>
-20.6713

> <Gold.Chemscore.ZeroCoef>
-5.4800

> <Gold.Chemscore.Hbond>
2.7569

> <Gold.Chemscore.Metal>
0.0000

> <Gold.Chemscore.Lipo>
82.3157

> <Gold.Chemscore.Internal_Hbond>
0.0000

> <Gold.Chemscore.DEClash>
1.5001

> <Gold.Chemscore.DEInternal>
1.8986

> <Gold.Chemscore.Rot>
1.4248

> <Gold.Chemscore.Internal.Correction>
   9.000000E+99

> <Gold.Chemscore.Hbonds>
donor molecule, donor type, donor heavy atom, donor atom, acceptor molecule, acceptor atom, score
      L1  H     7    25       P1  7948  0.98
      L1  H    10    26       P1  7948  0.94
      P1  H  7989  7998       L1    18  0.35

> <Gold.Chemscore.Hbond.Weighted>
-9.2079

> <Gold.Chemscore.Metal.Weighted>
-0.0000

> <Gold.Chemscore.Lipo.Weighted>
-9.6309

> <Gold.Chemscore.Internal_Hbond.Weighted>
0.0000

> <Gold.Chemscore.DEClash.Weighted>
1.5001

> <Gold.Chemscore.DEInternal.Weighted>
1.8986

> <Gold.Chemscore.Rot.Weighted>
3.6476

> <Gold.Chemscore.Internal.Correction.Weighted>
   9.000000E+99

> <Gold.Protein.RotatedTorsions>
[ 6907 6896 6895 6894 ] final    8.23 input  -60.11 | X-H torsion
[ 7974 7965 7964 7962 ] final -136.81 input  175.53 | X-H torsion
[ 8008 7997 7996 7995 ] final  -57.79 input   59.86 | X-H torsion
[ 10167 10162 10161 10158 ] final  -34.05 input  -65.29 | X-H torsion
[ 10718 10713 10712 10709 ] final  -14.19 input   66.30 | X-H torsion
[ 10763 10752 10751 10750 ] final   85.48 input  -60.55 | X-H torsion
[ 11005 11000 10999 10996 ] final  177.02 input  -57.11 | X-H torsion

> <Gold.Protein.ActiveResidues>
 VAL166  LYS551  ARG553  GLY616  TRP617  ASP618  TYR619  PRO620  LYS621  CYS622 
 ASP623  PHE694  ASN695  SER759  ASP760  ASP761  ALA762  ILE779  LEU786  VAL792 
 PHE793  MET794  SER795  GLU796  ALA797  LYS798  CYS799  TRP800  GLU811  SER814 

> <Gold.Protein.RotatedAtoms>
  151.7026  135.0927  160.0253 H   0  0  0  0  0  0  0  0  0  0  0  0  # atno 6907 bound_to 6896
  152.3711  133.6416  159.6096 H   0  0  0  0  0  0  0  0  0  0  0  0  # atno 6908 bound_to 6896
  150.7674  133.9185  159.3432 H   0  0  0  0  0  0  0  0  0  0  0  0  # atno 6909 bound_to 6896
  144.8895  140.6622  143.5154 H   0  0  0  0  0  0  0  0  0  0  0  0  # atno 7974 bound_to 7965
  154.4282  140.1099  156.5853 H   0  0  0  0  0  0  0  0  0  0  0  0  # atno 8008 bound_to 7997
  155.6069  140.3494  155.4591 H   0  0  0  0  0  0  0  0  0  0  0  0  # atno 8009 bound_to 7997
  156.0130  140.1223  157.0424 H   0  0  0  0  0  0  0  0  0  0  0  0  # atno 8010 bound_to 7997
  140.7193  143.3575  151.2029 H   0  0  0  0  0  0  0  0  0  0  0  0  # atno 10167 bound_to 10162
  156.6195  130.4871  149.6170 H   0  0  0  0  0  0  0  0  0  0  0  0  # atno 10718 bound_to 10713
  153.1479  135.4615  154.9593 H   0  0  0  0  0  0  0  0  0  0  0  0  # atno 10763 bound_to 10752
  154.7801  135.3186  154.8010 H   0  0  0  0  0  0  0  0  0  0  0  0  # atno 10764 bound_to 10752
  153.8521  135.6920  153.4845 H   0  0  0  0  0  0  0  0  0  0  0  0  # atno 10765 bound_to 10752
  140.3795  134.6959  157.4442 H   0  0  0  0  0  0  0  0  0  0  0  0  # atno 11005 bound_to 11000
  145.3808  139.1637  143.4282 LP  0  0  0  0  0  0  0  0  0  0  0  0  # atno 17320 bound_to 7965
  146.3045  140.3888  142.8692 LP  0  0  0  0  0  0  0  0  0  0  0  0  # atno 17321 bound_to 7965
  139.7120  143.9361  152.2951 LP  0  0  0  0  0  0  0  0  0  0  0  0  # atno 17342 bound_to 10162
  139.9089  144.6868  150.8583 LP  0  0  0  0  0  0  0  0  0  0  0  0  # atno 17343 bound_to 10162
  156.2324  130.6802  151.1476 LP  0  0  0  0  0  0  0  0  0  0  0  0  # atno 17370 bound_to 10713
  157.7232  131.0668  150.6048 LP  0  0  0  0  0  0  0  0  0  0  0  0  # atno 17371 bound_to 10713
  140.0489  134.6159  155.8886 LP  0  0  0  0  0  0  0  0  0  0  0  0  # atno 17394 bound_to 11000
  141.1928  133.6576  156.5519 LP  0  0  0  0  0  0  0  0  0  0  0  0  # atno 17395 bound_to 11000

$$$$
