AV-unprocessed.smi:966|AV-procd|sdf|4284|dock3
  -GOLD-   22720 2193D 1   1.00000     0.00000
 Structure written by MMmdl.
 30 31  0  0  0  0  0  0  0  0  2 V2000
  152.0225  144.0529  161.2681 C   0  0  0  0  0  0  0  0  0  0  0  0
  152.8038  142.7631  161.0944 C   0  0  0  0  0  0  0  0  0  0  0  0
  153.6316  142.2826  162.1777 C   0  0  0  0  0  0  0  0  0  0  0  0
  154.3286  141.1018  162.0098 C   0  0  0  0  0  0  0  0  0  0  0  0
  155.1057  140.5201  162.8029 O   0  5  0  0  0  0  0  0  0  0  0  0
  154.2313  140.3596  160.7851 N   0  0  0  0  0  0  0  0  0  0  0  0
  154.9618  139.0729  160.5898 C   0  0  0  0  0  0  0  0  0  0  0  0
  154.2903  137.9078  161.3446 C   0  0  1  0  0  0  0  0  0  0  0  0
  154.9986  136.5679  161.1505 C   0  0  0  0  0  0  0  0  0  0  0  0
  154.5812  135.8173  162.3940 C   0  0  0  0  0  0  0  0  0  0  0  0
  154.6225  136.9219  163.4443 C   0  0  0  0  0  0  0  0  0  0  0  0
  154.3030  138.1270  162.7545 O   0  0  0  0  0  0  0  0  0  0  0  0
  153.4781  140.8120  159.7323 C   0  0  0  0  0  0  0  0  0  0  0  0
  153.4151  140.2048  158.6602 O   0  0  0  0  0  0  0  0  0  0  0  0
  152.7423  142.0623  159.9434 C   0  0  0  0  0  0  0  0  0  0  0  0
  151.9435  142.5016  158.8430 C   0  0  0  0  0  0  0  0  0  0  0  0
  151.2767  142.8490  157.9620 N   0  0  0  0  0  0  0  0  0  0  0  0
  152.1793  144.4787  162.2596 H   0  0  0  0  0  0  0  0  0  0  0  0
  150.9543  143.8723  161.1439 H   0  0  0  0  0  0  0  0  0  0  0  0
  152.3374  144.7915  160.5303 H   0  0  0  0  0  0  0  0  0  0  0  0
  153.7115  142.8419  163.0986 H   0  0  0  0  0  0  0  0  0  0  0  0
  155.0499  138.8260  159.5309 H   0  0  0  0  0  0  0  0  0  0  0  0
  156.0067  139.1422  160.8961 H   0  0  0  0  0  0  0  0  0  0  0  0
  153.2492  137.8000  161.0371 H   0  0  0  0  0  0  0  0  0  0  0  0
  154.7089  136.0650  160.2276 H   0  0  0  0  0  0  0  0  0  0  0  0
  156.0815  136.7014  161.1435 H   0  0  0  0  0  0  0  0  0  0  0  0
  153.5634  135.4414  162.2814 H   0  0  0  0  0  0  0  0  0  0  0  0
  155.2340  134.9767  162.6304 H   0  0  0  0  0  0  0  0  0  0  0  0
  153.9340  136.7383  164.2693 H   0  0  0  0  0  0  0  0  0  0  0  0
  155.6275  137.0175  163.8566 H   0  0  0  0  0  0  0  0  0  0  0  0
  1  2  1  0  0  0  0
  1 18  1  0  0  0  0
  1 19  1  0  0  0  0
  1 20  1  0  0  0  0
  2 15  2  0  0  0  0
  2  3  1  0  0  0  0
  3  4  2  0  0  0  0
  3 21  1  0  0  0  0
  4  5  1  0  0  0  0
  4  6  1  0  0  0  0
  6  7  1  0  0  0  0
  6 13  1  0  0  0  0
  7  8  1  0  0  0  0
  7 22  1  0  0  0  0
  7 23  1  0  0  0  0
  8 12  1  0  0  0  0
  8  9  1  0  0  0  0
  8 24  1  0  0  0  0
  9 10  1  0  0  0  0
  9 25  1  0  0  0  0
  9 26  1  0  0  0  0
 10 11  1  0  0  0  0
 10 27  1  0  0  0  0
 10 28  1  0  0  0  0
 11 12  1  0  0  0  0
 11 29  1  0  0  0  0
 11 30  1  0  0  0  0
 13 14  2  0  0  0  0
 13 15  1  0  0  0  0
 15 16  1  0  0  0  0
 16 17  3  0  0  0  0
M  CHG  1   5  -1
M  END
> <s_m_source_file>
AV-unprocessed.smi

> <i_m_source_file_index>
966

> <i_lp_mmshare_version>
43012

> <i_f3d_flags>
0

> <s_epik_input>
W0NIM11jMVtjSF1jKFtPSF0pbihjKD1PKWMxQyNOKVtDSDJdW0NAQEhdMltDSDJdW0NIMl1bQ0gyXU8y

> <s_epik_cmdline>
J2VwaWtfcHl0aG9uJywgJy1waCcsICc3LjAnLCAnLXRuJywgJzgnLCAnLW1hJywgJzIwMCcsICctbWV0YWxfYmluZGluZycsICctaW1hZScsICc8aW5maWxlLm1hZT4nLCAnLW9tYWUnLCAnPG91dGZpbGUubWFlPic=

> <r_lp_tautomer_probability>
1

> <r_epik_Ionization_Penalty>
3.48555e-06

> <r_epik_Ionization_Penalty_Charging>
3.48554e-06

> <r_epik_Ionization_Penalty_Neutral>
1.71861e-11

> <r_epik_State_Penalty>
-0

> <r_epik_Charging_Adjusted_Penalty>
3.48554e-06

> <i_epik_Tot_Q>
-1

> <i_epik_Tot_abs_Q>
1

> <r_epik_Metal_State_Penalty>
-0

> <b_epik_Metal_Only>
0

> <s_lp_Force_Field>
OPLS_2005

> <r_lp_Energy>
36.155

> <b_lp_Chiralities_Consistent>
1

> <s_lp_Variant>
AV-unprocessed.smi:966-2

> <Gold.Version>
5.8.1

> <Gold.Id.Protein>
6NUR|6NUR_protein|mol2

> <Gold.PLP.Fitness>
38.4160

> <Gold.PLP.PLP>
-35.9726

> <Gold.PLP.part.hbond>
-1.7333

> <Gold.PLP.part.metal>
0.0000

> <Gold.PLP.part.buried>
-2.2291

> <Gold.PLP.part.nonpolar>
-30.5706

> <Gold.PLP.part.repulsive>
0.0810

> <Gold.PLP.ligand.clash>
0.0000

> <Gold.PLP.ligand.torsion>
0.1953

> <Gold.PLP.Chemscore.Hbond>
0.9440

> <Gold.PLP.Chemscore.CHOScore>
0.0000

> <Gold.PLP.Chemscore.Metal>
0.0000

> <Gold.Chemscore.Hbonds>
donor molecule, donor type, donor heavy atom, donor atom, acceptor molecule, acceptor atom, score
      P1  H  7997  8008       L1    14  0.94

> <Gold.PLP.Chemscore.Internal.Correction>
0.0020

> <Gold.Rescore>
     Score         DG    S(hbond)    S(metal)    S(lipo)     H(rot)  DE(clash)    DE(int)     intcor
     12.75     -14.60       0.98        0.00      77.37       1.25       0.00       1.85       ----

> <Gold.Chemscore.Fitness>
12.7468

> <Gold.Chemscore.DG>
-14.5979

> <Gold.Chemscore.ZeroCoef>
-5.4800

> <Gold.Chemscore.Hbond>
0.9789

> <Gold.Chemscore.Metal>
0.0000

> <Gold.Chemscore.Lipo>
77.3672

> <Gold.Chemscore.Internal_Hbond>
0.0000

> <Gold.Chemscore.DEClash>
0.0000

> <Gold.Chemscore.DEInternal>
1.8511

> <Gold.Chemscore.Rot>
1.2514

> <Gold.Chemscore.Internal.Correction>
   9.000000E+99

> <Gold.Chemscore.Hbonds>
donor molecule, donor type, donor heavy atom, donor atom, acceptor molecule, acceptor atom, score
      P1  H  7997  8008       L1    14  0.87

> <Gold.Chemscore.Hbond.Weighted>
-3.2695

> <Gold.Chemscore.Metal.Weighted>
-0.0000

> <Gold.Chemscore.Lipo.Weighted>
-9.0520

> <Gold.Chemscore.Internal_Hbond.Weighted>
0.0000

> <Gold.Chemscore.DEClash.Weighted>
0.0000

> <Gold.Chemscore.DEInternal.Weighted>
1.8511

> <Gold.Chemscore.Rot.Weighted>
3.2036

> <Gold.Chemscore.Internal.Correction.Weighted>
   9.000000E+99

> <Gold.Protein.RotatedTorsions>
[ 6907 6896 6895 6894 ] final   70.14 input  -60.11 | X-H torsion
[ 7974 7965 7964 7962 ] final   78.43 input  175.53 | X-H torsion
[ 8008 7997 7996 7995 ] final  -97.86 input   59.86 | X-H torsion
[ 10167 10162 10161 10158 ] final  -67.57 input  -65.29 | X-H torsion
[ 10718 10713 10712 10709 ] final  132.10 input   66.30 | X-H torsion
[ 10763 10752 10751 10750 ] final   64.33 input  -60.55 | X-H torsion
[ 11005 11000 10999 10996 ] final -147.23 input  -57.11 | X-H torsion

> <Gold.Protein.ActiveResidues>
 VAL166  LYS551  ARG553  GLY616  TRP617  ASP618  TYR619  PRO620  LYS621  CYS622 
 ASP623  PHE694  ASN695  SER759  ASP760  ASP761  ALA762  ILE779  LEU786  VAL792 
 PHE793  MET794  SER795  GLU796  ALA797  LYS798  CYS799  TRP800  GLU811  SER814 

> <Gold.Protein.RotatedAtoms>
  152.4731  134.4912  159.9695 H   0  0  0  0  0  0  0  0  0  0  0  0  # atno 6907 bound_to 6896
  151.4934  133.3514  159.2865 H   0  0  0  0  0  0  0  0  0  0  0  0  # atno 6908 bound_to 6896
  150.8752  134.8161  159.7246 H   0  0  0  0  0  0  0  0  0  0  0  0  # atno 6909 bound_to 6896
  145.6773  139.2513  143.1834 H   0  0  0  0  0  0  0  0  0  0  0  0  # atno 7974 bound_to 7965
  154.7934  140.0460  157.1218 H   0  0  0  0  0  0  0  0  0  0  0  0  # atno 8008 bound_to 7997
  154.9564  140.3072  155.5031 H   0  0  0  0  0  0  0  0  0  0  0  0  # atno 8009 bound_to 7997
  156.2953  140.2278  156.4646 H   0  0  0  0  0  0  0  0  0  0  0  0  # atno 8010 bound_to 7997
  140.5573  143.2312  151.6796 H   0  0  0  0  0  0  0  0  0  0  0  0  # atno 10167 bound_to 10162
  157.4904  131.1090  150.9565 H   0  0  0  0  0  0  0  0  0  0  0  0  # atno 10718 bound_to 10713
  153.0051  135.5397  154.6492 H   0  0  0  0  0  0  0  0  0  0  0  0  # atno 10763 bound_to 10752
  154.5729  135.2843  155.0812 H   0  0  0  0  0  0  0  0  0  0  0  0  # atno 10764 bound_to 10752
  154.1971  135.6490  153.5129 H   0  0  0  0  0  0  0  0  0  0  0  0  # atno 10765 bound_to 10752
  140.7738  134.3158  157.5067 H   0  0  0  0  0  0  0  0  0  0  0  0  # atno 11005 bound_to 11000
  146.0995  140.7561  142.9556 LP  0  0  0  0  0  0  0  0  0  0  0  0  # atno 17320 bound_to 7965
  144.7037  140.3764  143.7135 LP  0  0  0  0  0  0  0  0  0  0  0  0  # atno 17321 bound_to 7965
  139.5054  144.3720  152.0460 LP  0  0  0  0  0  0  0  0  0  0  0  0  # atno 17342 bound_to 10162
  140.2843  144.3825  150.6109 LP  0  0  0  0  0  0  0  0  0  0  0  0  # atno 17343 bound_to 10162
  157.0268  130.5695  149.5338 LP  0  0  0  0  0  0  0  0  0  0  0  0  # atno 17370 bound_to 10713
  156.0170  130.5264  150.8164 LP  0  0  0  0  0  0  0  0  0  0  0  0  # atno 17371 bound_to 10713
  139.8752  134.9277  156.3432 LP  0  0  0  0  0  0  0  0  0  0  0  0  # atno 17394 bound_to 11000
  140.9548  133.7427  156.0321 LP  0  0  0  0  0  0  0  0  0  0  0  0  # atno 17395 bound_to 11000

$$$$
