AV-unprocessed.smi:1376|AV-procd|sdf|5591|dock2
  -GOLD-   22720 5193D 1   1.00000     0.00000
 Structure written by MMmdl.
 42 43  0  0  0  0  0  0  0  0  1 V2000
  150.9182  139.1058  158.7645 O   0  0  0  0  0  0  0  0  0  0  0  0
  150.6607  139.5847  157.6596 C   0  0  0  0  0  0  0  0  0  0  0  0
  151.1970  140.9669  157.2623 C   0  0  0  0  0  0  0  0  0  0  0  0
  151.7742  141.7068  158.3966 N   0  0  0  0  0  0  0  0  0  0  0  0
  151.1825  142.9423  158.7275 C   0  0  0  0  0  0  0  0  0  0  0  0
  151.6330  143.6957  159.7430 C   0  0  0  0  0  0  0  0  0  0  0  0
  152.7576  143.2103  160.5067 C   0  0  0  0  0  0  0  0  0  0  0  0
  153.3283  142.0278  160.2017 C   0  0  0  0  0  0  0  0  0  0  0  0
  152.8374  141.1994  159.0942 C   0  0  0  0  0  0  0  0  0  0  0  0
  153.3509  140.1168  158.8101 O   0  0  0  0  0  0  0  0  0  0  0  0
  149.8950  138.9656  156.7484 N   0  0  0  0  0  0  0  0  0  0  0  0
  149.2921  137.6454  156.9051 C   0  0  1  0  0  0  0  0  0  0  0  0
  150.3840  136.5624  157.0102 C   0  0  0  0  0  0  0  0  0  0  0  0
  149.7735  135.1747  157.2616 C   0  0  0  0  0  0  0  0  0  0  0  0
  148.8728  135.1802  158.5065 C   0  0  0  0  0  0  0  0  0  0  0  0
  147.7693  136.2459  158.3949 C   0  0  1  0  0  0  0  0  0  0  0  0
  147.0316  136.2235  159.6101 O   0  0  0  0  0  0  0  0  0  0  0  0
  147.8067  136.4690  160.7760 C   0  0  0  0  0  0  0  0  0  0  0  0
  146.9712  136.1430  162.0194 C   0  0  0  0  0  0  0  0  0  0  0  0
  147.6102  136.5780  163.1047 F   0  0  0  0  0  0  0  0  0  0  0  0
  145.7860  136.7483  161.9495 F   0  0  0  0  0  0  0  0  0  0  0  0
  146.7961  134.8261  162.1254 F   0  0  0  0  0  0  0  0  0  0  0  0
  148.3878  137.6383  158.1516 C   0  0  0  0  0  0  0  0  0  0  0  0
  151.9410  140.8614  156.4701 H   0  0  0  0  0  0  0  0  0  0  0  0
  150.3790  141.5303  156.8116 H   0  0  0  0  0  0  0  0  0  0  0  0
  150.3422  143.2304  158.1125 H   0  0  0  0  0  0  0  0  0  0  0  0
  151.1642  144.6382  159.9850 H   0  0  0  0  0  0  0  0  0  0  0  0
  153.1426  143.7968  161.3280 H   0  0  0  0  0  0  0  0  0  0  0  0
  154.1682  141.6802  160.7851 H   0  0  0  0  0  0  0  0  0  0  0  0
  149.7284  139.4392  155.8724 H   0  0  0  0  0  0  0  0  0  0  0  0
  148.6656  137.4299  156.0371 H   0  0  0  0  0  0  0  0  0  0  0  0
  150.9814  136.5394  156.0980 H   0  0  0  0  0  0  0  0  0  0  0  0
  151.0698  136.8069  157.8228 H   0  0  0  0  0  0  0  0  0  0  0  0
  149.1922  134.8682  156.3911 H   0  0  0  0  0  0  0  0  0  0  0  0
  150.5667  134.4358  157.3797 H   0  0  0  0  0  0  0  0  0  0  0  0
  148.4250  134.1953  158.6431 H   0  0  0  0  0  0  0  0  0  0  0  0
  149.4789  135.3696  159.3936 H   0  0  0  0  0  0  0  0  0  0  0  0
  147.1188  135.9785  157.5599 H   0  0  0  0  0  0  0  0  0  0  0  0
  148.7121  135.8621  160.7754 H   0  0  0  0  0  0  0  0  0  0  0  0
  148.1153  137.5151  160.8047 H   0  0  0  0  0  0  0  0  0  0  0  0
  148.9662  137.9342  159.0281 H   0  0  0  0  0  0  0  0  0  0  0  0
  147.6055  138.3876  158.0309 H   0  0  0  0  0  0  0  0  0  0  0  0
  1  2  2  0  0  0  0
  2  3  1  0  0  0  0
  2 11  1  0  0  0  0
  3  4  1  0  0  0  0
  3 24  1  0  0  0  0
  3 25  1  0  0  0  0
  4  9  1  0  0  0  0
  4  5  1  0  0  0  0
  5  6  2  0  0  0  0
  5 26  1  0  0  0  0
  6  7  1  0  0  0  0
  6 27  1  0  0  0  0
  7  8  2  0  0  0  0
  7 28  1  0  0  0  0
  8  9  1  0  0  0  0
  8 29  1  0  0  0  0
  9 10  2  0  0  0  0
 11 12  1  0  0  0  0
 11 30  1  0  0  0  0
 12 23  1  0  0  0  0
 12 13  1  0  0  0  0
 12 31  1  0  0  0  0
 13 14  1  0  0  0  0
 13 32  1  0  0  0  0
 13 33  1  0  0  0  0
 14 15  1  0  0  0  0
 14 34  1  0  0  0  0
 14 35  1  0  0  0  0
 15 16  1  0  0  0  0
 15 36  1  0  0  0  0
 15 37  1  0  0  0  0
 16 17  1  0  0  0  0
 16 23  1  0  0  0  0
 16 38  1  0  0  0  0
 17 18  1  0  0  0  0
 18 19  1  0  0  0  0
 18 39  1  0  0  0  0
 18 40  1  0  0  0  0
 19 20  1  0  0  0  0
 19 21  1  0  0  0  0
 19 22  1  0  0  0  0
 23 41  1  0  0  0  0
 23 42  1  0  0  0  0
M  END
> <s_m_source_file>
AV-unprocessed.smi

> <i_m_source_file_index>
1376

> <i_lp_mmshare_version>
43012

> <i_f3d_flags>
0

> <s_epik_input>
Tz1jMVtjSF1bY0hdW2NIXVtjSF1uMVtDSDJdQyg9TylbTkhdW0NAQEhdMltDSDJdW0NIMl1bQ0gyXVtDQEhdKFtDSDJdMilPW0NIMl1DKEYpKEYpRg==

> <s_epik_cmdline>
J2VwaWtfcHl0aG9uJywgJy1waCcsICc3LjAnLCAnLXRuJywgJzgnLCAnLW1hJywgJzIwMCcsICctbWV0YWxfYmluZGluZycsICctaW1hZScsICc8aW5maWxlLm1hZT4nLCAnLW9tYWUnLCAnPG91dGZpbGUubWFlPic=

> <r_lp_tautomer_probability>
1

> <r_epik_Ionization_Penalty>
4.08567e-07

> <r_epik_Ionization_Penalty_Charging>
3.90028e-07

> <r_epik_Ionization_Penalty_Neutral>
1.85393e-08

> <r_epik_State_Penalty>
-0

> <r_epik_Charging_Adjusted_Penalty>
3.90028e-07

> <i_epik_Tot_Q>
0

> <i_epik_Tot_abs_Q>
0

> <r_epik_Metal_State_Penalty>
-0

> <b_epik_Metal_Only>
0

> <s_lp_Force_Field>
OPLS_2005

> <r_lp_Energy>
18.2113

> <b_lp_Chiralities_Consistent>
1

> <s_lp_Variant>
AV-unprocessed.smi:1376-2

> <Gold.Version>
5.8.1

> <Gold.Id.Protein>
6NUR|6NUR_protein|mol2

> <Gold.PLP.Fitness>
42.9334

> <Gold.PLP.PLP>
-40.3680

> <Gold.PLP.part.hbond>
-1.0000

> <Gold.PLP.part.metal>
0.0000

> <Gold.PLP.part.buried>
-4.8706

> <Gold.PLP.part.nonpolar>
-33.7266

> <Gold.PLP.part.repulsive>
0.0033

> <Gold.PLP.ligand.clash>
0.0000

> <Gold.PLP.ligand.torsion>
0.2510

> <Gold.PLP.Chemscore.Hbond>
1.0000

> <Gold.PLP.Chemscore.CHOScore>
0.0000

> <Gold.PLP.Chemscore.Metal>
0.0000

> <Gold.Chemscore.Hbonds>
donor molecule, donor type, donor heavy atom, donor atom, acceptor molecule, acceptor atom, score
      P1  H  7997  8010       L1    10  0.69

> <Gold.PLP.Chemscore.Internal.Correction>
0.0674

> <Gold.Rescore>
     Score         DG    S(hbond)    S(metal)    S(lipo)     H(rot)  DE(clash)    DE(int)     intcor
      8.53     -12.31       0.95        0.00      79.06       2.18       0.07       3.71       ----

> <Gold.Chemscore.Fitness>
8.5321

> <Gold.Chemscore.DG>
-12.3119

> <Gold.Chemscore.ZeroCoef>
-5.4800

> <Gold.Chemscore.Hbond>
0.9468

> <Gold.Chemscore.Metal>
0.0000

> <Gold.Chemscore.Lipo>
79.0591

> <Gold.Chemscore.Internal_Hbond>
0.0000

> <Gold.Chemscore.DEClash>
0.0739

> <Gold.Chemscore.DEInternal>
3.7059

> <Gold.Chemscore.Rot>
2.1797

> <Gold.Chemscore.Internal.Correction>
   9.000000E+99

> <Gold.Chemscore.Hbonds>
donor molecule, donor type, donor heavy atom, donor atom, acceptor molecule, acceptor atom, score
      P1  H  7997  8010       L1    10  0.62

> <Gold.Chemscore.Hbond.Weighted>
-3.1622

> <Gold.Chemscore.Metal.Weighted>
-0.0000

> <Gold.Chemscore.Lipo.Weighted>
-9.2499

> <Gold.Chemscore.Internal_Hbond.Weighted>
0.0000

> <Gold.Chemscore.DEClash.Weighted>
0.0739

> <Gold.Chemscore.DEInternal.Weighted>
3.7059

> <Gold.Chemscore.Rot.Weighted>
5.5802

> <Gold.Chemscore.Internal.Correction.Weighted>
   9.000000E+99

> <Gold.Protein.RotatedTorsions>
[ 6907 6896 6895 6894 ] final  115.07 input  -60.11 | X-H torsion
[ 7974 7965 7964 7962 ] final  -30.78 input  175.53 | X-H torsion
[ 8008 7997 7996 7995 ] final   26.02 input   59.86 | X-H torsion
[ 10167 10162 10161 10158 ] final    8.92 input  -65.29 | X-H torsion
[ 10718 10713 10712 10709 ] final  -25.75 input   66.30 | X-H torsion
[ 10763 10752 10751 10750 ] final  -51.71 input  -60.55 | X-H torsion
[ 11005 11000 10999 10996 ] final  152.93 input  -57.11 | X-H torsion

> <Gold.Protein.ActiveResidues>
 VAL166  LYS551  ARG553  GLY616  TRP617  ASP618  TYR619  PRO620  LYS621  CYS622 
 ASP623  PHE694  ASN695  SER759  ASP760  ASP761  ALA762  ILE779  LEU786  VAL792 
 PHE793  MET794  SER795  GLU796  ALA797  LYS798  CYS799  TRP800  GLU811  SER814 

> <Gold.Protein.RotatedAtoms>
  152.4764  133.8149  159.7022 H   0  0  0  0  0  0  0  0  0  0  0  0  # atno 6907 bound_to 6896
  150.8784  133.7397  159.2946 H   0  0  0  0  0  0  0  0  0  0  0  0  # atno 6908 bound_to 6896
  151.4909  135.1061  159.9855 H   0  0  0  0  0  0  0  0  0  0  0  0  # atno 6909 bound_to 6896
  146.1117  140.5584  142.8775 H   0  0  0  0  0  0  0  0  0  0  0  0  # atno 7974 bound_to 7965
  155.0208  140.3147  155.4794 H   0  0  0  0  0  0  0  0  0  0  0  0  # atno 8008 bound_to 7997
  156.2892  140.2198  156.5268 H   0  0  0  0  0  0  0  0  0  0  0  0  # atno 8009 bound_to 7997
  154.7454  140.0470  157.0835 H   0  0  0  0  0  0  0  0  0  0  0  0  # atno 8010 bound_to 7997
  140.6285  143.8046  150.7265 H   0  0  0  0  0  0  0  0  0  0  0  0  # atno 10167 bound_to 10162
  156.4602  130.4502  149.6933 H   0  0  0  0  0  0  0  0  0  0  0  0  # atno 10718 bound_to 10713
  154.1309  135.6520  153.4922 H   0  0  0  0  0  0  0  0  0  0  0  0  # atno 10763 bound_to 10752
  153.0195  135.5292  154.7002 H   0  0  0  0  0  0  0  0  0  0  0  0  # atno 10764 bound_to 10752
  154.6236  135.2967  155.0268 H   0  0  0  0  0  0  0  0  0  0  0  0  # atno 10765 bound_to 10752
  140.1352  134.8776  157.2257 H   0  0  0  0  0  0  0  0  0  0  0  0  # atno 11005 bound_to 11000
  144.7517  140.5208  143.6797 LP  0  0  0  0  0  0  0  0  0  0  0  0  # atno 17320 bound_to 7965
  145.5650  139.1481  143.3320 LP  0  0  0  0  0  0  0  0  0  0  0  0  # atno 17321 bound_to 7965
  140.1652  143.4241  152.2039 LP  0  0  0  0  0  0  0  0  0  0  0  0  # atno 17342 bound_to 10162
  139.5502  144.7332  151.4457 LP  0  0  0  0  0  0  0  0  0  0  0  0  # atno 17343 bound_to 10162
  156.3724  130.7537  151.2522 LP  0  0  0  0  0  0  0  0  0  0  0  0  # atno 17370 bound_to 10713
  157.7498  131.0319  150.4203 LP  0  0  0  0  0  0  0  0  0  0  0  0  # atno 17371 bound_to 10713
  140.2792  134.3370  155.7348 LP  0  0  0  0  0  0  0  0  0  0  0  0  # atno 17394 bound_to 11000
  141.2177  133.7468  156.9338 LP  0  0  0  0  0  0  0  0  0  0  0  0  # atno 17395 bound_to 11000

$$$$
