#       Name:                AV-unprocessed.smi:2032
#       Creating user name   scv26
#       Creation time:       Fri Mar 27 10:52:03 2020


#       File generated by GOLD software.
#

@<TRIPOS>MOLECULE
AV-unprocessed.smi:2032
    48    49     1
SMALL
NO_CHARGES


@<TRIPOS>ATOM
      1 ****        -3.7712   3.2218  -0.7738 C.3            1 S1                 0.0000
      2 ****        -3.3316   1.7547  -0.8262 C.3            1 S1                 0.0000
      3 ****        -1.8016   1.6061  -0.7456 C.3            1 S1                 0.0000
      4 ****        -1.3661   0.2070  -0.7109 N.3            1 S1                 0.0000
      5 ****         0.1090   0.0707  -0.6588 C.3            1 S1                 0.0000
      6 ****         0.8179   0.7825  -1.8397 C.3            1 S1                 0.0000
      7 ****         0.5872  -1.4105  -0.6017 C.3            1 S1                 0.0000
      8 ****         2.0400  -1.5588  -0.5479 N.am           1 S1                 0.0000
      9 ****         2.8184  -1.3089   0.5146 C.2            1 S1                 0.0000
     10 ****         2.3123  -0.9273   1.5725 O.2            1 S1                 0.0000
     11 ****         4.1353  -1.5119   0.2826 N.pl3          1 S1                -1.0000
     12 ****         5.0332  -1.2826   1.2545 C.2            1 S1                 0.0000
     13 ****         5.5697  -2.2577   1.9972 N.2            1 S1                 0.0000
     14 ****         6.4885  -1.7951   2.9409 C.2            1 S1                 0.0000
     15 ****         6.6628  -0.4368   2.9099 C.2            1 S1                 0.0000
     16 ****         5.6706   0.3065   1.6882 S.3            1 S1                 0.0000
     17 ****        -2.0368  -0.4442   0.4202 C.3            1 S1                 0.0000
     18 ****        -3.5711  -0.2961   0.3953 C.3            1 S1                 0.0000
     19 ****        -4.2496  -1.1706  -0.6736 C.3            1 S1                 0.0000
     20 ****        -3.9358   1.0764   0.2697 O.3            1 S1                 0.0000
     21 ****        -3.3460   3.7896  -1.6018 H              1 S1                 0.0000
     22 ****        -3.4540   3.6960   0.1555 H              1 S1                 0.0000
     23 ****        -4.8563   3.3056  -0.8368 H              1 S1                 0.0000
     24 ****        -3.6893   1.3253  -1.7622 H              1 S1                 0.0000
     25 ****        -1.3895   2.1151  -1.6146 H              1 S1                 0.0000
     26 ****        -1.4270   2.1301   0.1353 H              1 S1                 0.0000
     27 ****         0.4550   0.5557   0.2551 H              1 S1                 0.0000
     28 ****         1.8969   0.6328  -1.8309 H              1 S1                 0.0000
     29 ****         0.6862   1.8631  -1.8108 H              1 S1                 0.0000
     30 ****         0.4457   0.4205  -2.7985 H              1 S1                 0.0000
     31 ****         0.1917  -1.9351   0.2668 H              1 S1                 0.0000
     32 ****         0.2269  -1.9497  -1.4781 H              1 S1                 0.0000
     33 ****         2.4966  -1.8726  -1.3915 H              1 S1                 0.0000
     34 ****         6.9744  -2.5048   3.5939 H              1 S1                 0.0000
     35 ****         7.3110   0.1685   3.5255 H              1 S1                 0.0000
     36 ****        -1.8204  -1.5099   0.4432 H              1 S1                 0.0000
     37 ****        -1.6552  -0.0282   1.3541 H              1 S1                 0.0000
     38 ****        -3.9536  -0.6249   1.3617 H              1 S1                 0.0000
     39 ****        -4.0572  -2.2275  -0.4877 H              1 S1                 0.0000
     40 ****        -3.8880  -0.9479  -1.6773 H              1 S1                 0.0000
     41 ****        -5.3300  -1.0251  -0.6672 H              1 S1                 0.0000
     42 ****        -1.6281  -0.2485  -1.5617 LP             1 S1                 0.0000
     43 ****         1.3220  -0.8045   1.6373 LP             1 S1                 0.0000
     44 ****         2.8923  -0.7407   2.3655 LP             1 S1                 0.0000
     45 ****         4.4408  -1.8332  -0.6138 LP             1 S1                 0.0000
     46 ****         5.3354  -3.2236   1.8870 LP             1 S1                 0.0000
     47 ****        -4.9283   1.1259   0.1577 LP             1 S1                 0.0000
     48 ****        -3.6714   1.5472   1.1114 LP             1 S1                 0.0000
@<TRIPOS>BOND
    1    1    2 1     
    2    1   21 1     
    3    1   22 1     
    4    1   23 1     
    5    2   20 1     
    6    2    3 1     
    7    2   24 1     
    8    3    4 1     
    9    3   25 1     
   10    3   26 1     
   11    4    5 1     
   12    4   17 1     
   13    5    6 1     
   14    5    7 1     
   15    5   27 1     
   16    6   28 1     
   17    6   29 1     
   18    6   30 1     
   19    7    8 1     
   20    7   31 1     
   21    7   32 1     
   22    8    9 am    
   23    8   33 1     
   24    9   10 2     
   25    9   11 1     
   26   11   12 1     
   27   12   16 1     
   28   12   13 2     
   29   13   14 1     
   30   14   15 2     
   31   14   34 1     
   32   15   16 1     
   33   15   35 1     
   34   17   18 1     
   35   17   36 1     
   36   17   37 1     
   37   18   19 1     
   38   18   20 1     
   39   18   38 1     
   40   19   39 1     
   41   19   40 1     
   42   19   41 1     
   43    4   42 1     
   44   10   43 1     
   45   10   44 1     
   46   11   45 1     
   47   13   46 1     
   48   20   47 1     
   49   20   48 1     
@<TRIPOS>SUBSTRUCTURE
      1 S1             1
@<TRIPOS>SET
LONE_PAIRS      STATIC     ATOMS    <user>   **** ""
7 42 43 44 45 46 47 48
DONOR_HYDROGENS      STATIC     ATOMS    <user>   **** ""
1 33
ATOM$BLUE        STATIC     ATOMS    COLORGROUP SYSTEM
7 42 43 44 45 46 47 48
ATOM$RED        STATIC     ATOMS    COLORGROUP SYSTEM
1 33
