AV-unprocessed.smi:3330|AV-procd|sdf|12814|dock3
  -GOLD-   2272019183D 1   1.00000     0.00000
 Structure written by MMmdl.
 37 38  0  0  0  0  0  0  0  0  2 V2000
  147.2372  132.8264  152.4064 C   0  0  0  0  0  0  0  0  0  0  0  0
  146.4293  134.0742  152.8086 C   0  0  1  0  0  0  0  0  0  0  0  0
  147.3759  135.0285  153.3751 N   0  0  0  0  0  0  0  0  0  0  0  0
  147.9398  134.5358  154.6218 C   0  0  0  0  0  0  0  0  0  0  0  0
  149.4056  134.1363  154.4003 C   0  0  0  0  0  0  0  0  0  0  0  0
  149.9234  133.3850  155.5467 N   0  0  0  0  0  0  0  0  0  0  0  0
  149.4433  132.2051  155.9509 C   0  0  0  0  0  0  0  0  0  0  0  0
  148.5132  131.5599  155.4667 O   0  0  0  0  0  0  0  0  0  0  0  0
  150.2639  131.7636  157.1402 C   0  0  0  0  0  0  0  0  0  0  0  0
  151.2148  132.8437  157.2778 N   0  5  0  0  0  0  0  0  0  0  0  0
  150.9656  133.7599  156.3130 C   0  0  0  0  0  0  0  0  0  0  0  0
  151.5820  134.8066  156.1165 O   0  0  0  0  0  0  0  0  0  0  0  0
  145.6729  134.7315  151.6230 C   0  0  2  0  0  0  0  0  0  0  0  0
  144.8801  135.9863  152.0332 C   0  0  0  0  0  0  0  0  0  0  0  0
  144.7795  133.7845  150.9677 N   0  0  0  0  0  0  0  0  0  0  0  0
  144.8826  133.2355  149.7050 C   0  0  0  0  0  0  0  0  0  0  0  0
  143.8144  132.4029  149.5322 C   0  0  0  0  0  0  0  0  0  0  0  0
  143.1024  132.5095  150.7591 C   0  0  0  0  0  0  0  0  0  0  0  0
  143.6819  133.3348  151.6154 N   0  0  0  0  0  0  0  0  0  0  0  0
  146.5898  132.0241  152.0525 H   0  0  0  0  0  0  0  0  0  0  0  0
  147.7975  132.4307  153.2542 H   0  0  0  0  0  0  0  0  0  0  0  0
  147.9497  133.0526  151.6121 H   0  0  0  0  0  0  0  0  0  0  0  0
  145.7046  133.7653  153.5640 H   0  0  0  0  0  0  0  0  0  0  0  0
  148.1254  135.1932  152.7184 H   0  0  0  0  0  0  0  0  0  0  0  0
  147.8741  135.3055  155.3914 H   0  0  0  0  0  0  0  0  0  0  0  0
  147.3628  133.6767  154.9674 H   0  0  0  0  0  0  0  0  0  0  0  0
  149.5016  133.5407  153.4908 H   0  0  0  0  0  0  0  0  0  0  0  0
  150.0145  135.0273  154.2363 H   0  0  0  0  0  0  0  0  0  0  0  0
  149.6192  131.6436  158.0115 H   0  0  0  0  0  0  0  0  0  0  0  0
  150.7322  130.8011  156.9318 H   0  0  0  0  0  0  0  0  0  0  0  0
  146.4137  135.0421  150.8833 H   0  0  0  0  0  0  0  0  0  0  0  0
  145.5407  136.7730  152.3978 H   0  0  0  0  0  0  0  0  0  0  0  0
  144.1601  135.7647  152.8214 H   0  0  0  0  0  0  0  0  0  0  0  0
  144.3304  136.3967  151.1855 H   0  0  0  0  0  0  0  0  0  0  0  0
  145.6989  133.4819  149.0421 H   0  0  0  0  0  0  0  0  0  0  0  0
  143.5777  131.8091  148.6620 H   0  0  0  0  0  0  0  0  0  0  0  0
  142.1881  132.0146  151.0515 H   0  0  0  0  0  0  0  0  0  0  0  0
  1  2  1  0  0  0  0
  1 20  1  0  0  0  0
  1 21  1  0  0  0  0
  1 22  1  0  0  0  0
  2  3  1  0  0  0  0
  2 13  1  0  0  0  0
  2 23  1  0  0  0  0
  3  4  1  0  0  0  0
  3 24  1  0  0  0  0
  4  5  1  0  0  0  0
  4 25  1  0  0  0  0
  4 26  1  0  0  0  0
  5  6  1  0  0  0  0
  5 27  1  0  0  0  0
  5 28  1  0  0  0  0
  6 11  1  0  0  0  0
  6  7  1  0  0  0  0
  7  8  2  0  0  0  0
  7  9  1  0  0  0  0
  9 10  1  0  0  0  0
  9 29  1  0  0  0  0
  9 30  1  0  0  0  0
 10 11  1  0  0  0  0
 11 12  2  0  0  0  0
 13 14  1  0  0  0  0
 13 15  1  0  0  0  0
 13 31  1  0  0  0  0
 14 32  1  0  0  0  0
 14 33  1  0  0  0  0
 14 34  1  0  0  0  0
 15 19  1  0  0  0  0
 15 16  1  0  0  0  0
 16 17  2  0  0  0  0
 16 35  1  0  0  0  0
 17 18  1  0  0  0  0
 17 36  1  0  0  0  0
 18 19  2  0  0  0  0
 18 37  1  0  0  0  0
M  CHG  1  10  -1
M  END
> <s_m_source_file>
AV-unprocessed.smi

> <i_m_source_file_index>
3330

> <i_lp_mmshare_version>
43012

> <i_f3d_flags>
0

> <s_epik_input>
bjFbY0hdW2NIXVtjSF1uMVtDQEBIXShbQ0gzXSlbQ0BIXShbQ0gzXSlbTkhdW0NIMl1bQ0gyXU4yQyg9TylbQ0gyXVtOSF1DMj1P

> <s_epik_cmdline>
J2VwaWtfcHl0aG9uJywgJy1waCcsICc3LjAnLCAnLXRuJywgJzgnLCAnLW1hJywgJzIwMCcsICctbWV0YWxfYmluZGluZycsICctaW1hZScsICc8aW5maWxlLm1hZT4nLCAnLW9tYWUnLCAnPG91dGZpbGUubWFlPic=

> <r_lp_tautomer_probability>
1

> <r_epik_Ionization_Penalty>
8.77477

> <r_epik_Ionization_Penalty_Charging>
6.28461

> <r_epik_Ionization_Penalty_Neutral>
2.49016

> <r_epik_State_Penalty>
8.73376

> <r_epik_Charging_Adjusted_Penalty>
15.0184

> <i_epik_Tot_Q>
-1

> <i_epik_Tot_abs_Q>
1

> <r_epik_Metal_State_Penalty>
4.73175

> <b_epik_Metal_Only>
1

> <s_lp_Force_Field>
OPLS_2005

> <r_lp_Energy>
21.213

> <b_lp_Chiralities_Consistent>
1

> <s_lp_Variant>
AV-unprocessed.smi:3330-14

> <Gold.Version>
5.8.1

> <Gold.Id.Protein>
6NUR|6NUR_protein|mol2

> <Gold.PLP.Fitness>
43.1248

> <Gold.PLP.PLP>
-28.4782

> <Gold.PLP.part.hbond>
-2.7703

> <Gold.PLP.part.metal>
0.0000

> <Gold.PLP.part.buried>
-0.6062

> <Gold.PLP.part.nonpolar>
-25.7792

> <Gold.PLP.part.repulsive>
0.1807

> <Gold.PLP.ligand.clash>
0.0000

> <Gold.PLP.ligand.torsion>
0.4927

> <Gold.PLP.Chemscore.Hbond>
3.8480

> <Gold.PLP.Chemscore.CHOScore>
1.3000

> <Gold.PLP.Chemscore.Metal>
0.0000

> <Gold.Chemscore.Hbonds>
donor molecule, donor type, donor heavy atom, donor atom, acceptor molecule, acceptor atom, score
      L1  H     3    24       P1  7948  0.99
      P1  H  6896  6908       L1    10  1.98
      P1  H 10752 10764       L1    12  0.86
      L1  C    16    35       P1  7921  0.70
      L1  C    18    37       P1 10952  0.53

> <Gold.PLP.Chemscore.Internal.Correction>
0.1881

> <Gold.Rescore>
     Score         DG    S(hbond)    S(metal)    S(lipo)     H(rot)  DE(clash)    DE(int)     intcor
     13.71     -14.37       2.41        0.00      62.17       2.52       0.07       0.59       ----

> <Gold.Chemscore.Fitness>
13.7135

> <Gold.Chemscore.DG>
-14.3669

> <Gold.Chemscore.ZeroCoef>
-5.4800

> <Gold.Chemscore.Hbond>
2.4115

> <Gold.Chemscore.Metal>
0.0000

> <Gold.Chemscore.Lipo>
62.1660

> <Gold.Chemscore.Internal_Hbond>
0.0000

> <Gold.Chemscore.DEClash>
0.0663

> <Gold.Chemscore.DEInternal>
0.5871

> <Gold.Chemscore.Rot>
2.5160

> <Gold.Chemscore.Internal.Correction>
   9.000000E+99

> <Gold.Chemscore.Hbonds>
donor molecule, donor type, donor heavy atom, donor atom, acceptor molecule, acceptor atom, score
      L1  H     3    24       P1  7948  0.86
      P1  H  6896  6908       L1    10  0.62
      P1  H 10752 10764       L1    12  0.84

> <Gold.Chemscore.Hbond.Weighted>
-8.0545

> <Gold.Chemscore.Metal.Weighted>
-0.0000

> <Gold.Chemscore.Lipo.Weighted>
-7.2734

> <Gold.Chemscore.Internal_Hbond.Weighted>
0.0000

> <Gold.Chemscore.DEClash.Weighted>
0.0663

> <Gold.Chemscore.DEInternal.Weighted>
0.5871

> <Gold.Chemscore.Rot.Weighted>
6.4410

> <Gold.Chemscore.Internal.Correction.Weighted>
   9.000000E+99

> <Gold.Protein.RotatedTorsions>
[ 6907 6896 6895 6894 ] final   84.63 input  -60.11 | X-H torsion
[ 7974 7965 7964 7962 ] final  -74.82 input  175.53 | X-H torsion
[ 8008 7997 7996 7995 ] final  162.15 input   59.86 | X-H torsion
[ 10167 10162 10161 10158 ] final -144.03 input  -65.29 | X-H torsion
[ 10718 10713 10712 10709 ] final   48.66 input   66.30 | X-H torsion
[ 10763 10752 10751 10750 ] final  -35.69 input  -60.55 | X-H torsion
[ 11005 11000 10999 10996 ] final -139.48 input  -57.11 | X-H torsion

> <Gold.Protein.ActiveResidues>
 VAL166  LYS551  ARG553  GLY616  TRP617  ASP618  TYR619  PRO620  LYS621  CYS622 
 ASP623  PHE694  ASN695  SER759  ASP760  ASP761  ALA762  ILE779  LEU786  VAL792 
 PHE793  MET794  SER795  GLU796  ALA797  LYS798  CYS799  TRP800  GLU811  SER814 

> <Gold.Protein.RotatedAtoms>
  152.5357  134.2712  159.8971 H   0  0  0  0  0  0  0  0  0  0  0  0  # atno 6907 bound_to 6896
  151.2668  133.4268  159.2626 H   0  0  0  0  0  0  0  0  0  0  0  0  # atno 6908 bound_to 6896
  151.0403  134.9617  159.8214 H   0  0  0  0  0  0  0  0  0  0  0  0  # atno 6909 bound_to 6896
  145.6341  140.9329  143.1071 H   0  0  0  0  0  0  0  0  0  0  0  0  # atno 7974 bound_to 7965
  156.2052  140.1758  156.7814 H   0  0  0  0  0  0  0  0  0  0  0  0  # atno 8008 bound_to 7997
  154.5646  140.0693  156.8902 H   0  0  0  0  0  0  0  0  0  0  0  0  # atno 8009 bound_to 7997
  155.2785  140.3347  155.4262 H   0  0  0  0  0  0  0  0  0  0  0  0  # atno 8010 bound_to 7997
  139.7937  143.7929  152.2652 H   0  0  0  0  0  0  0  0  0  0  0  0  # atno 10167 bound_to 10162
  157.4709  130.8255  149.7987 H   0  0  0  0  0  0  0  0  0  0  0  0  # atno 10718 bound_to 10713
  153.8673  135.6834  153.4777 H   0  0  0  0  0  0  0  0  0  0  0  0  # atno 10763 bound_to 10752
  153.1307  135.4699  154.9342 H   0  0  0  0  0  0  0  0  0  0  0  0  # atno 10764 bound_to 10752
  154.7730  135.3244  154.8100 H   0  0  0  0  0  0  0  0  0  0  0  0  # atno 10765 bound_to 10752
  140.8516  134.2279  157.4757 H   0  0  0  0  0  0  0  0  0  0  0  0  # atno 11005 bound_to 11000
  144.7182  139.8121  143.7391 LP  0  0  0  0  0  0  0  0  0  0  0  0  # atno 17320 bound_to 7965
  146.1333  139.4373  143.0155 LP  0  0  0  0  0  0  0  0  0  0  0  0  # atno 17321 bound_to 7965
  139.8029  144.7367  150.9801 LP  0  0  0  0  0  0  0  0  0  0  0  0  # atno 17342 bound_to 10162
  140.7820  143.4327  151.0670 LP  0  0  0  0  0  0  0  0  0  0  0  0  # atno 17343 bound_to 10162
  156.0073  130.3849  150.2386 LP  0  0  0  0  0  0  0  0  0  0  0  0  # atno 17370 bound_to 10713
  157.0568  131.0078  151.3235 LP  0  0  0  0  0  0  0  0  0  0  0  0  # atno 17371 bound_to 10713
  139.8704  134.9686  156.4636 LP  0  0  0  0  0  0  0  0  0  0  0  0  # atno 17394 bound_to 11000
  140.8784  133.7936  155.9440 LP  0  0  0  0  0  0  0  0  0  0  0  0  # atno 17395 bound_to 11000

$$$$
