#       Name:                AV-unprocessed.smi:1817
#       Creating user name   scv26
#       Creation time:       Fri Mar 27 09:04:20 2020


#       File generated by GOLD software.
#

@<TRIPOS>MOLECULE
AV-unprocessed.smi:1817
    48    49     1
SMALL
NO_CHARGES


@<TRIPOS>ATOM
      1 ****        -3.2836  -4.2110  -0.4593 C.3            1 S1                 0.0000
      2 ****        -2.5363  -3.4234   0.6263 C.3            1 S1                 0.0000
      3 ****        -2.7087  -1.9775   0.4680 N.3            1 S1                 0.0000
      4 ****        -2.2938  -1.2301   1.6545 C.3            1 S1                 0.0000
      5 ****        -0.7633  -1.2458   1.8503 C.3            1 S1                 0.0000
      6 ****        -0.0597  -0.6866   0.6633 N.4            1 S1                 1.0000
      7 ****         1.4319  -0.6233   0.8052 C.3            1 S1                 0.0000
      8 ****         1.8731   0.0696   2.1134 C.3            1 S1                 0.0000
      9 ****         2.1114   0.0881  -0.3900 C.3            1 S1                 0.0000
     10 ****         1.4745   1.3695  -0.6849 N.am           1 S1                 0.0000
     11 ****         2.0863   2.4805  -1.1131 C.2            1 S1                 0.0000
     12 ****         3.3041   2.4836  -1.3041 O.2            1 S1                 0.0000
     13 ****         1.2413   3.5204  -1.2911 N.pl3          1 S1                -1.0000
     14 ****         1.7125   4.7019  -1.7232 C.2            1 S1                 0.0000
     15 ****         1.6712   5.0619  -3.0160 N.2            1 S1                 0.0000
     16 ****         2.2066   6.3216  -3.2489 N.2            1 S1                 0.0000
     17 ****         2.6307   6.8862  -2.1185 C.2            1 S1                 0.0000
     18 ****         2.4126   5.9315  -0.6667 S.3            1 S1                 0.0000
     19 ****        -0.5030  -1.4100  -0.5605 C.3            1 S1                 0.0000
     20 ****        -2.0396  -1.3946  -0.6975 C.3            1 S1                 0.0000
     21 ****        -3.2406  -5.2801  -0.2511 H              1 S1                 0.0000
     22 ****        -2.8505  -4.0590  -1.4475 H              1 S1                 0.0000
     23 ****        -4.3354  -3.9261  -0.5016 H              1 S1                 0.0000
     24 ****        -2.9467  -3.7145   1.5940 H              1 S1                 0.0000
     25 ****        -1.4846  -3.7066   0.6407 H              1 S1                 0.0000
     26 ****        -2.6384  -0.1996   1.5564 H              1 S1                 0.0000
     27 ****        -2.7925  -1.6351   2.5358 H              1 S1                 0.0000
     28 ****        -0.5545  -0.6456   2.7344 H              1 S1                 0.0000
     29 ****        -0.4019  -2.2533   2.0604 H              1 S1                 0.0000
     30 ****         1.8079  -1.6471   0.8389 H              1 S1                 0.0000
     31 ****         2.9545   0.2063   2.1387 H              1 S1                 0.0000
     32 ****         1.6239  -0.5183   2.9964 H              1 S1                 0.0000
     33 ****         1.4174   1.0550   2.2179 H              1 S1                 0.0000
     34 ****         3.1752   0.2152  -0.1821 H              1 S1                 0.0000
     35 ****         2.0697  -0.5309  -1.2860 H              1 S1                 0.0000
     36 ****         0.4754   1.4247  -0.5560 H              1 S1                 0.0000
     37 ****         3.0711   7.8719  -2.1387 H              1 S1                 0.0000
     38 ****        -0.0977  -0.9330  -1.4512 H              1 S1                 0.0000
     39 ****        -0.1171  -2.4299  -0.5542 H              1 S1                 0.0000
     40 ****        -2.3434  -1.9089  -1.6085 H              1 S1                 0.0000
     41 ****        -2.3808  -0.3645  -0.8110 H              1 S1                 0.0000
     42 ****        -0.3785   0.2671   0.5667 H              1 S1                 0.0000
     43 ****        -3.6945  -1.8877   0.3258 LP             1 S1                 0.0000
     44 ****         3.8382   1.6544  -1.1391 LP             1 S1                 0.0000
     45 ****         3.7579   3.3153  -1.6240 LP             1 S1                 0.0000
     46 ****         0.2657   3.4103  -1.1012 LP             1 S1                 0.0000
     47 ****         1.2933   4.4818  -3.7376 LP             1 S1                 0.0000
     48 ****         2.2664   6.7507  -4.1502 LP             1 S1                 0.0000
@<TRIPOS>BOND
    1    1    2 1     
    2    1   21 1     
    3    1   22 1     
    4    1   23 1     
    5    2    3 1     
    6    2   24 1     
    7    2   25 1     
    8    3   20 1     
    9    3    4 1     
   10    4    5 1     
   11    4   26 1     
   12    4   27 1     
   13    5    6 1     
   14    5   28 1     
   15    5   29 1     
   16    6    7 1     
   17    6   19 1     
   18    6   42 1     
   19    7    8 1     
   20    7    9 1     
   21    7   30 1     
   22    8   31 1     
   23    8   32 1     
   24    8   33 1     
   25    9   10 1     
   26    9   34 1     
   27    9   35 1     
   28   10   11 am    
   29   10   36 1     
   30   11   12 2     
   31   11   13 1     
   32   13   14 1     
   33   14   18 1     
   34   14   15 2     
   35   15   16 1     
   36   16   17 2     
   37   17   18 1     
   38   17   37 1     
   39   19   20 1     
   40   19   38 1     
   41   19   39 1     
   42   20   40 1     
   43   20   41 1     
   44    3   43 1     
   45   12   44 1     
   46   12   45 1     
   47   13   46 1     
   48   15   47 1     
   49   16   48 1     
@<TRIPOS>SUBSTRUCTURE
      1 S1             1
@<TRIPOS>SET
LONE_PAIRS      STATIC     ATOMS    <user>   **** ""
6 43 44 45 46 47 48
DONOR_HYDROGENS      STATIC     ATOMS    <user>   **** ""
2 42 36
ATOM$BLUE        STATIC     ATOMS    COLORGROUP SYSTEM
6 43 44 45 46 47 48
ATOM$RED        STATIC     ATOMS    COLORGROUP SYSTEM
2 42 36
