AV-unprocessed.smi:798|AV-procd|sdf|3774|dock6
  -GOLD-   22720 1203D 1   1.00000     0.00000
 Structure written by MMmdl.
 34 36  0  0  0  0  0  0  0  0  1 V2000
  151.0318  135.3110  156.1962 O   0  0  0  0  0  0  0  0  0  0  0  0
  150.6423  135.5573  155.0544 C   0  0  0  0  0  0  0  0  0  0  0  0
  150.3901  134.6394  154.1050 N   0  0  0  0  0  0  0  0  0  0  0  0
  150.5095  133.2273  154.1918 C   0  0  0  0  0  0  0  0  0  0  0  0
  151.2359  132.5971  155.1283 N   0  0  0  0  0  0  0  0  0  0  0  0
  151.1818  131.2166  154.9859 N   0  0  0  0  0  0  0  0  0  0  0  0
  150.4184  130.8605  153.9490 C   0  0  0  0  0  0  0  0  0  0  0  0
  149.6918  132.1768  153.0438 S   0  0  0  0  0  0  0  0  0  0  0  0
  150.4144  136.7970  154.5987 N   0  0  0  0  0  0  0  0  0  0  0  0
  150.5637  138.0247  155.3766 C   0  0  1  0  0  0  0  0  0  0  0  0
  151.9172  138.0311  156.1212 C   0  0  2  0  0  0  0  0  0  0  0  0
  151.8746  139.1142  157.2136 C   0  0  0  0  0  0  0  0  0  0  0  0
  151.9396  140.4160  156.3929 C   0  0  0  0  0  0  0  0  0  0  0  0
  152.0078  139.9056  154.9371 C   0  0  1  0  0  0  0  0  0  0  0  0
  152.8663  138.6584  155.1039 C   0  0  0  0  0  0  0  0  0  0  0  0
  150.6666  139.2847  154.4783 C   0  0  2  0  0  0  0  0  0  0  0  0
  149.4536  140.2328  154.5459 C   0  0  0  0  0  0  0  0  0  0  0  0
  149.3736  141.0046  153.3670 O   0  0  0  0  0  0  0  0  0  0  0  0
  150.0734  134.9928  153.2144 H   0  0  0  0  0  0  0  0  0  0  0  0
  150.2822  129.8150  153.7153 H   0  0  0  0  0  0  0  0  0  0  0  0
  150.0988  136.9024  153.6458 H   0  0  0  0  0  0  0  0  0  0  0  0
  149.7472  138.1081  156.0968 H   0  0  0  0  0  0  0  0  0  0  0  0
  152.2228  137.0543  156.4983 H   0  0  0  0  0  0  0  0  0  0  0  0
  150.9772  139.0523  157.8303 H   0  0  0  0  0  0  0  0  0  0  0  0
  152.7391  139.0343  157.8738 H   0  0  0  0  0  0  0  0  0  0  0  0
  151.0927  141.0748  156.5809 H   0  0  0  0  0  0  0  0  0  0  0  0
  152.8434  140.9733  156.6426 H   0  0  0  0  0  0  0  0  0  0  0  0
  152.4071  140.6399  154.2371 H   0  0  0  0  0  0  0  0  0  0  0  0
  153.8592  138.8642  155.5078 H   0  0  0  0  0  0  0  0  0  0  0  0
  152.9694  138.0749  154.1873 H   0  0  0  0  0  0  0  0  0  0  0  0
  150.7985  138.9848  153.4363 H   0  0  0  0  0  0  0  0  0  0  0  0
  148.5202  139.6843  154.6711 H   0  0  0  0  0  0  0  0  0  0  0  0
  149.5503  140.9120  155.3931 H   0  0  0  0  0  0  0  0  0  0  0  0
  149.2713  140.4216  152.6304 H   0  0  0  0  0  0  0  0  0  0  0  0
  1  2  2  0  0  0  0
  2  3  1  0  0  0  0
  2  9  1  0  0  0  0
  3  4  1  0  0  0  0
  3 19  1  0  0  0  0
  4  8  1  0  0  0  0
  4  5  2  0  0  0  0
  5  6  1  0  0  0  0
  6  7  2  0  0  0  0
  7  8  1  0  0  0  0
  7 20  1  0  0  0  0
  9 10  1  0  0  0  0
  9 21  1  0  0  0  0
 10 16  1  0  0  0  0
 10 11  1  0  0  0  0
 10 22  1  0  0  0  0
 11 15  1  0  0  0  0
 11 12  1  0  0  0  0
 11 23  1  0  0  0  0
 12 13  1  0  0  0  0
 12 24  1  0  0  0  0
 12 25  1  0  0  0  0
 13 14  1  0  0  0  0
 13 26  1  0  0  0  0
 13 27  1  0  0  0  0
 14 15  1  0  0  0  0
 14 16  1  0  0  0  0
 14 28  1  0  0  0  0
 15 29  1  0  0  0  0
 15 30  1  0  0  0  0
 16 17  1  0  0  0  0
 16 31  1  0  0  0  0
 17 18  1  0  0  0  0
 17 32  1  0  0  0  0
 17 33  1  0  0  0  0
 18 34  1  0  0  0  0
M  END
> <s_m_source_file>
AV-unprocessed.smi

> <i_m_source_file_index>
798

> <i_lp_mmshare_version>
43012

> <i_f3d_flags>
0

> <s_epik_input>
W0NIMl0xW0NIMl1bQ0BASF0oW0NIMl0yKVtDQEBIXShbQ0gyXVtPSF0pW0NAQEhdKFtDQEhdMTIpW05IXUMoPU8pW05IXWMzbm5bY0hdczM=

> <s_epik_cmdline>
J2VwaWtfcHl0aG9uJywgJy1waCcsICc3LjAnLCAnLXRuJywgJzgnLCAnLW1hJywgJzIwMCcsICctbWV0YWxfYmluZGluZycsICctaW1hZScsICc8aW5maWxlLm1hZT4nLCAnLW9tYWUnLCAnPG91dGZpbGUubWFlPic=

> <r_lp_tautomer_probability>
1

> <r_epik_Ionization_Penalty>
0.000329046

> <r_epik_Ionization_Penalty_Charging>
0

> <r_epik_Ionization_Penalty_Neutral>
0.000329046

> <r_epik_State_Penalty>
-0

> <r_epik_Charging_Adjusted_Penalty>
0

> <i_epik_Tot_Q>
0

> <i_epik_Tot_abs_Q>
0

> <r_epik_Metal_State_Penalty>
0.173433

> <b_epik_Metal_Only>
0

> <s_lp_Force_Field>
OPLS_2005

> <r_lp_Energy>
48.4277

> <b_lp_Chiralities_Consistent>
1

> <s_lp_Variant>
AV-unprocessed.smi:798-6

> <Gold.Version>
5.8.1

> <Gold.Id.Protein>
6NUR|6NUR_protein|mol2

> <Gold.PLP.Fitness>
40.4526

> <Gold.PLP.PLP>
-30.9954

> <Gold.PLP.part.hbond>
-4.4351

> <Gold.PLP.part.metal>
0.0000

> <Gold.PLP.part.buried>
-1.4744

> <Gold.PLP.part.nonpolar>
-25.0582

> <Gold.PLP.part.repulsive>
0.0798

> <Gold.PLP.ligand.clash>
0.0000

> <Gold.PLP.ligand.torsion>
0.5347

> <Gold.PLP.Chemscore.Hbond>
3.5016

> <Gold.PLP.Chemscore.CHOScore>
0.0000

> <Gold.PLP.Chemscore.Metal>
0.0000

> <Gold.Chemscore.Hbonds>
donor molecule, donor type, donor heavy atom, donor atom, acceptor molecule, acceptor atom, score
      L1  H     9    21       P1  7948  0.60
      L1  H    18    34       P1  7957  0.99
      P1  H  7989  7998       L1    18  0.02
      P1  H  8011  8017       L1    18  0.65

> <Gold.PLP.Chemscore.Internal.Correction>
0.0216

> <Gold.Rescore>
     Score         DG    S(hbond)    S(metal)    S(lipo)     H(rot)  DE(clash)    DE(int)     intcor
     13.38     -17.40       2.84        0.00      63.22       1.94       1.58       2.44       ----

> <Gold.Chemscore.Fitness>
13.3833

> <Gold.Chemscore.DG>
-17.4001

> <Gold.Chemscore.ZeroCoef>
-5.4800

> <Gold.Chemscore.Hbond>
2.8445

> <Gold.Chemscore.Metal>
0.0000

> <Gold.Chemscore.Lipo>
63.2185

> <Gold.Chemscore.Internal_Hbond>
0.0000

> <Gold.Chemscore.DEClash>
1.5769

> <Gold.Chemscore.DEInternal>
2.4399

> <Gold.Chemscore.Rot>
1.9442

> <Gold.Chemscore.Internal.Correction>
   9.000000E+99

> <Gold.Chemscore.Hbonds>
donor molecule, donor type, donor heavy atom, donor atom, acceptor molecule, acceptor atom, score
      L1  H     9    21       P1  7948  0.13
      L1  H    18    34       P1  7957  0.89
      P1  H  8011  8017       L1    18  0.06

> <Gold.Chemscore.Hbond.Weighted>
-9.5006

> <Gold.Chemscore.Metal.Weighted>
-0.0000

> <Gold.Chemscore.Lipo.Weighted>
-7.3966

> <Gold.Chemscore.Internal_Hbond.Weighted>
0.0000

> <Gold.Chemscore.DEClash.Weighted>
1.5769

> <Gold.Chemscore.DEInternal.Weighted>
2.4399

> <Gold.Chemscore.Rot.Weighted>
4.9771

> <Gold.Chemscore.Internal.Correction.Weighted>
   9.000000E+99

> <Gold.Protein.RotatedTorsions>
[ 6907 6896 6895 6894 ] final -124.83 input  -60.11 | X-H torsion
[ 7974 7965 7964 7962 ] final -107.97 input  175.53 | X-H torsion
[ 8008 7997 7996 7995 ] final  -57.84 input   59.86 | X-H torsion
[ 10167 10162 10161 10158 ] final   13.39 input  -65.29 | X-H torsion
[ 10718 10713 10712 10709 ] final -109.88 input   66.30 | X-H torsion
[ 10763 10752 10751 10750 ] final  124.69 input  -60.55 | X-H torsion
[ 11005 11000 10999 10996 ] final  105.84 input  -57.11 | X-H torsion

> <Gold.Protein.ActiveResidues>
 VAL166  LYS551  ARG553  GLY616  TRP617  ASP618  TYR619  PRO620  LYS621  CYS622 
 ASP623  PHE694  ASN695  SER759  ASP760  ASP761  ALA762  ILE779  LEU786  VAL792 
 PHE793  MET794  SER795  GLU796  ALA797  LYS798  CYS799  TRP800  GLU811  SER814 

> <Gold.Protein.RotatedAtoms>
  150.8807  133.7376  159.2932 H   0  0  0  0  0  0  0  0  0  0  0  0  # atno 6907 bound_to 6896
  151.4958  135.1058  159.9825 H   0  0  0  0  0  0  0  0  0  0  0  0  # atno 6908 bound_to 6896
  152.4758  133.8089  159.7048 H   0  0  0  0  0  0  0  0  0  0  0  0  # atno 6909 bound_to 6896
  145.1987  140.9047  143.3382 H   0  0  0  0  0  0  0  0  0  0  0  0  # atno 7974 bound_to 7965
  154.4284  140.1097  156.5862 H   0  0  0  0  0  0  0  0  0  0  0  0  # atno 8008 bound_to 7997
  155.6060  140.3494  155.4589 H   0  0  0  0  0  0  0  0  0  0  0  0  # atno 8009 bound_to 7997
  156.0136  140.1224  157.0418 H   0  0  0  0  0  0  0  0  0  0  0  0  # atno 8010 bound_to 7997
  140.6006  143.8613  150.6961 H   0  0  0  0  0  0  0  0  0  0  0  0  # atno 10167 bound_to 10162
  156.0561  130.5787  150.8161 H   0  0  0  0  0  0  0  0  0  0  0  0  # atno 10718 bound_to 10713
  153.6654  135.3339  155.3139 H   0  0  0  0  0  0  0  0  0  0  0  0  # atno 10763 bound_to 10752
  154.8504  135.4373  154.1761 H   0  0  0  0  0  0  0  0  0  0  0  0  # atno 10764 bound_to 10752
  153.2738  135.7003  153.7529 H   0  0  0  0  0  0  0  0  0  0  0  0  # atno 10765 bound_to 10752
  139.8806  134.9349  156.5575 H   0  0  0  0  0  0  0  0  0  0  0  0  # atno 11005 bound_to 11000
  144.9969  139.3635  143.6187 LP  0  0  0  0  0  0  0  0  0  0  0  0  # atno 17320 bound_to 7965
  146.3422  139.9176  142.8771 LP  0  0  0  0  0  0  0  0  0  0  0  0  # atno 17321 bound_to 7965
  140.2158  143.3848  152.1682 LP  0  0  0  0  0  0  0  0  0  0  0  0  # atno 17342 bound_to 10162
  139.5288  144.7135  151.5131 LP  0  0  0  0  0  0  0  0  0  0  0  0  # atno 17343 bound_to 10162
  157.5531  131.0944  150.9667 LP  0  0  0  0  0  0  0  0  0  0  0  0  # atno 17370 bound_to 10713
  156.9922  130.5567  149.5304 LP  0  0  0  0  0  0  0  0  0  0  0  0  # atno 17371 bound_to 10713
  140.8194  133.8365  155.8882 LP  0  0  0  0  0  0  0  0  0  0  0  0  # atno 17394 bound_to 11000
  140.9432  134.1874  157.4782 LP  0  0  0  0  0  0  0  0  0  0  0  0  # atno 17395 bound_to 11000

$$$$
