AV-unprocessed.smi:2684|AV-procd|sdf|10378|dock9
  -GOLD-   2272014403D 1   1.00000     0.00000
 Structure written by MMmdl.
 45 46  0  0  0  0  0  0  0  0  2 V2000
  143.0835  146.6263  153.9844 C   0  0  0  0  0  0  0  0  0  0  0  0
  144.0040  145.4422  153.9139 C   0  0  0  0  0  0  0  0  0  0  0  0
  144.9892  145.1567  152.9262 C   0  0  0  0  0  0  0  0  0  0  0  0
  145.6460  144.0331  153.1655 N   0  0  0  0  0  0  0  0  0  0  0  0
  145.1072  143.5645  154.3110 N   0  0  0  0  0  0  0  0  0  0  0  0
  145.6101  142.3342  154.8957 C   0  0  0  0  0  0  0  0  0  0  0  0
  146.8687  141.7861  154.1836 C   0  0  2  0  0  0  0  0  0  0  0  0
  146.7105  140.2882  153.8899 C   0  0  0  0  0  0  0  0  0  0  0  0
  148.0873  141.9981  154.9990 N   0  3  0  0  0  0  0  0  0  0  0  0
  149.2007  141.0651  154.7213 C   0  0  0  0  0  0  0  0  0  0  0  0
  150.4245  141.3676  155.5966 C   0  0  0  0  0  0  0  0  0  0  0  0
  151.4081  140.6331  155.5260 O   0  0  0  0  0  0  0  0  0  0  0  0
  150.4251  142.4375  156.4128 N   0  0  0  0  0  0  0  0  0  0  0  0
  151.4817  142.8921  157.3161 C   0  0  0  0  0  0  0  0  0  0  0  0
  151.7486  141.8761  158.4411 C   0  0  0  0  0  0  0  0  0  0  0  0
  152.7603  142.4440  159.4496 C   0  0  0  0  0  0  0  0  0  0  0  0
  152.2845  143.6786  159.9740 O   0  0  0  0  0  0  0  0  0  0  0  0
  152.1312  144.6833  158.9773 C   0  0  0  0  0  0  0  0  0  0  0  0
  151.0869  144.2390  157.9396 C   0  0  0  0  0  0  0  0  0  0  0  0
  144.1058  144.3896  154.7784 C   0  0  0  0  0  0  0  0  0  0  0  0
  143.2294  147.3040  153.1432 H   0  0  0  0  0  0  0  0  0  0  0  0
  143.2438  147.2055  154.8941 H   0  0  0  0  0  0  0  0  0  0  0  0
  142.0363  146.3234  153.9757 H   0  0  0  0  0  0  0  0  0  0  0  0
  145.2490  145.7338  152.0509 H   0  0  0  0  0  0  0  0  0  0  0  0
  145.8180  142.5118  155.9519 H   0  0  0  0  0  0  0  0  0  0  0  0
  144.8081  141.5955  154.8600 H   0  0  0  0  0  0  0  0  0  0  0  0
  146.9913  142.2901  153.2231 H   0  0  0  0  0  0  0  0  0  0  0  0
  145.8394  140.1012  153.2613 H   0  0  0  0  0  0  0  0  0  0  0  0
  146.5871  139.7125  154.8081 H   0  0  0  0  0  0  0  0  0  0  0  0
  147.5823  139.8959  153.3652 H   0  0  0  0  0  0  0  0  0  0  0  0
  148.4069  142.9460  154.8601 H   0  0  0  0  0  0  0  0  0  0  0  0
  148.8680  140.0467  154.9234 H   0  0  0  0  0  0  0  0  0  0  0  0
  149.4499  141.1077  153.6663 H   0  0  0  0  0  0  0  0  0  0  0  0
  149.6004  143.0202  156.3852 H   0  0  0  0  0  0  0  0  0  0  0  0
  152.3974  143.0583  156.7500 H   0  0  0  0  0  0  0  0  0  0  0  0
  150.8173  141.6418  158.9586 H   0  0  0  0  0  0  0  0  0  0  0  0
  152.1248  140.9363  158.0378 H   0  0  0  0  0  0  0  0  0  0  0  0
  152.9021  141.7434  160.2727 H   0  0  0  0  0  0  0  0  0  0  0  0
  153.7361  142.5870  158.9823 H   0  0  0  0  0  0  0  0  0  0  0  0
  151.8123  145.6089  159.4569 H   0  0  0  0  0  0  0  0  0  0  0  0
  153.0917  144.8869  158.5018 H   0  0  0  0  0  0  0  0  0  0  0  0
  150.9868  145.0001  157.1649 H   0  0  0  0  0  0  0  0  0  0  0  0
  150.1130  144.1552  158.4244 H   0  0  0  0  0  0  0  0  0  0  0  0
  143.5622  144.1696  155.6856 H   0  0  0  0  0  0  0  0  0  0  0  0
  147.8433  141.8864  155.9728 H   0  0  0  0  0  0  0  0  0  0  0  0
  1  2  1  0  0  0  0
  1 21  1  0  0  0  0
  1 22  1  0  0  0  0
  1 23  1  0  0  0  0
  2 20  2  0  0  0  0
  2  3  1  0  0  0  0
  3  4  2  0  0  0  0
  3 24  1  0  0  0  0
  4  5  1  0  0  0  0
  5  6  1  0  0  0  0
  5 20  1  0  0  0  0
  6  7  1  0  0  0  0
  6 25  1  0  0  0  0
  6 26  1  0  0  0  0
  7  8  1  0  0  0  0
  7  9  1  0  0  0  0
  7 27  1  0  0  0  0
  8 28  1  0  0  0  0
  8 29  1  0  0  0  0
  8 30  1  0  0  0  0
  9 10  1  0  0  0  0
  9 31  1  0  0  0  0
  9 45  1  0  0  0  0
 10 11  1  0  0  0  0
 10 32  1  0  0  0  0
 10 33  1  0  0  0  0
 11 12  2  0  0  0  0
 11 13  1  0  0  0  0
 13 14  1  0  0  0  0
 13 34  1  0  0  0  0
 14 19  1  0  0  0  0
 14 15  1  0  0  0  0
 14 35  1  0  0  0  0
 15 16  1  0  0  0  0
 15 36  1  0  0  0  0
 15 37  1  0  0  0  0
 16 17  1  0  0  0  0
 16 38  1  0  0  0  0
 16 39  1  0  0  0  0
 17 18  1  0  0  0  0
 18 19  1  0  0  0  0
 18 40  1  0  0  0  0
 18 41  1  0  0  0  0
 19 42  1  0  0  0  0
 19 43  1  0  0  0  0
 20 44  1  0  0  0  0
M  CHG  1   9   1
M  END
> <s_m_source_file>
AV-unprocessed.smi

> <i_m_source_file_index>
2684

> <i_lp_mmshare_version>
43012

> <i_f3d_flags>
0

> <s_epik_input>
W0NIM11jMVtjSF1ubihbY0hdMSlbQ0gyXVtDQEhdKFtDSDNdKVtOSF1bQ0gyXUMoPU8pW05IXVtDSF0yW0NIMl1bQ0gyXU9bQ0gyXVtDSDJdMg==

> <s_epik_cmdline>
J2VwaWtfcHl0aG9uJywgJy1waCcsICc3LjAnLCAnLXRuJywgJzgnLCAnLW1hJywgJzIwMCcsICctbWV0YWxfYmluZGluZycsICctaW1hZScsICc8aW5maWxlLm1hZT4nLCAnLW9tYWUnLCAnPG91dGZpbGUubWFlPic=

> <r_lp_tautomer_probability>
1

> <r_epik_Ionization_Penalty>
0.128576

> <r_epik_Ionization_Penalty_Charging>
0.128567

> <r_epik_Ionization_Penalty_Neutral>
8.60003e-06

> <r_epik_State_Penalty>
0.117991

> <r_epik_Charging_Adjusted_Penalty>
0.246558

> <i_epik_Tot_Q>
1

> <i_epik_Tot_abs_Q>
1

> <r_epik_Metal_State_Penalty>
0.118015

> <b_epik_Metal_Only>
0

> <s_lp_Force_Field>
OPLS_2005

> <r_lp_Energy>
10.3737

> <b_lp_Chiralities_Consistent>
1

> <s_lp_Variant>
AV-unprocessed.smi:2684-1

> <Gold.Version>
5.8.1

> <Gold.Id.Protein>
6NUR|6NUR_protein|mol2

> <Gold.PLP.Fitness>
54.2032

> <Gold.PLP.PLP>
-46.3016

> <Gold.PLP.part.hbond>
-3.5987

> <Gold.PLP.part.metal>
0.0000

> <Gold.PLP.part.buried>
-5.3372

> <Gold.PLP.part.nonpolar>
-38.1591

> <Gold.PLP.part.repulsive>
0.4598

> <Gold.PLP.ligand.clash>
0.4404

> <Gold.PLP.ligand.torsion>
1.0559

> <Gold.PLP.Chemscore.Hbond>
3.4592

> <Gold.PLP.Chemscore.CHOScore>
0.0000

> <Gold.PLP.Chemscore.Metal>
0.0000

> <Gold.Chemscore.Hbonds>
donor molecule, donor type, donor heavy atom, donor atom, acceptor molecule, acceptor atom, score
      L1  H     9    31       P1  8028  1.98
      L1  H    13    34       P1  8028  0.86
      P1  H  7989  7998       L1    12  0.54

> <Gold.PLP.Chemscore.Internal.Correction>
0.0761

> <Gold.Rescore>
     Score         DG    S(hbond)    S(metal)    S(lipo)     H(rot)  DE(clash)    DE(int)     intcor
     18.99     -20.27       1.96        0.00     115.24       2.04       0.10       1.18       ----

> <Gold.Chemscore.Fitness>
18.9856

> <Gold.Chemscore.DG>
-20.2674

> <Gold.Chemscore.ZeroCoef>
-5.4800

> <Gold.Chemscore.Hbond>
1.9571

> <Gold.Chemscore.Metal>
0.0000

> <Gold.Chemscore.Lipo>
115.2351

> <Gold.Chemscore.Internal_Hbond>
0.0000

> <Gold.Chemscore.DEClash>
0.1010

> <Gold.Chemscore.DEInternal>
1.1808

> <Gold.Chemscore.Rot>
2.0437

> <Gold.Chemscore.Internal.Correction>
   9.000000E+99

> <Gold.Chemscore.Hbonds>
donor molecule, donor type, donor heavy atom, donor atom, acceptor molecule, acceptor atom, score
      L1  H     9    31       P1  8028  0.91
      L1  H    13    34       P1  8028  0.83
      P1  H  7989  7998       L1    12  0.05

> <Gold.Chemscore.Hbond.Weighted>
-6.5367

> <Gold.Chemscore.Metal.Weighted>
-0.0000

> <Gold.Chemscore.Lipo.Weighted>
-13.4825

> <Gold.Chemscore.Internal_Hbond.Weighted>
0.0000

> <Gold.Chemscore.DEClash.Weighted>
0.1010

> <Gold.Chemscore.DEInternal.Weighted>
1.1808

> <Gold.Chemscore.Rot.Weighted>
5.2318

> <Gold.Chemscore.Internal.Correction.Weighted>
   9.000000E+99

> <Gold.Protein.RotatedTorsions>
[ 6907 6896 6895 6894 ] final -127.48 input  -60.11 | X-H torsion
[ 7974 7965 7964 7962 ] final   89.61 input  175.53 | X-H torsion
[ 8008 7997 7996 7995 ] final   64.49 input   59.86 | X-H torsion
[ 10167 10162 10161 10158 ] final   80.08 input  -65.29 | X-H torsion
[ 10718 10713 10712 10709 ] final   50.47 input   66.30 | X-H torsion
[ 10763 10752 10751 10750 ] final -130.66 input  -60.55 | X-H torsion
[ 11005 11000 10999 10996 ] final  -21.64 input  -57.11 | X-H torsion

> <Gold.Protein.ActiveResidues>
 VAL166  LYS551  ARG553  GLY616  TRP617  ASP618  TYR619  PRO620  LYS621  CYS622 
 ASP623  PHE694  ASN695  SER759  ASP760  ASP761  ALA762  ILE779  LEU786  VAL792 
 PHE793  MET794  SER795  GLU796  ALA797  LYS798  CYS799  TRP800  GLU811  SER814 

> <Gold.Protein.RotatedAtoms>
  150.9077  133.7037  159.2862 H   0  0  0  0  0  0  0  0  0  0  0  0  # atno 6907 bound_to 6896
  151.4534  135.1030  159.9714 H   0  0  0  0  0  0  0  0  0  0  0  0  # atno 6908 bound_to 6896
  152.4913  133.8458  159.7231 H   0  0  0  0  0  0  0  0  0  0  0  0  # atno 6909 bound_to 6896
  145.5300  139.2283  143.2624 H   0  0  0  0  0  0  0  0  0  0  0  0  # atno 7974 bound_to 7965
  155.6469  140.3497  155.4734 H   0  0  0  0  0  0  0  0  0  0  0  0  # atno 8008 bound_to 7997
  155.9880  140.1188  157.0688 H   0  0  0  0  0  0  0  0  0  0  0  0  # atno 8009 bound_to 7997
  154.4210  140.1125  156.5512 H   0  0  0  0  0  0  0  0  0  0  0  0  # atno 8010 bound_to 7997
  139.9535  144.6010  150.8138 H   0  0  0  0  0  0  0  0  0  0  0  0  # atno 10167 bound_to 10162
  157.4888  130.8362  149.8178 H   0  0  0  0  0  0  0  0  0  0  0  0  # atno 10718 bound_to 10713
  154.8754  135.3855  154.4120 H   0  0  0  0  0  0  0  0  0  0  0  0  # atno 10763 bound_to 10752
  153.4833  135.7030  153.5931 H   0  0  0  0  0  0  0  0  0  0  0  0  # atno 10764 bound_to 10752
  153.4337  135.3872  155.2153 H   0  0  0  0  0  0  0  0  0  0  0  0  # atno 10765 bound_to 10752
  140.8580  133.7808  156.0042 H   0  0  0  0  0  0  0  0  0  0  0  0  # atno 11005 bound_to 11000
  146.2050  140.6116  142.9085 LP  0  0  0  0  0  0  0  0  0  0  0  0  # atno 17320 bound_to 7965
  144.7631  140.5467  143.6722 LP  0  0  0  0  0  0  0  0  0  0  0  0  # atno 17321 bound_to 7965
  140.7575  143.3088  151.2895 LP  0  0  0  0  0  0  0  0  0  0  0  0  # atno 17342 bound_to 10162
  139.6609  144.0190  152.2692 LP  0  0  0  0  0  0  0  0  0  0  0  0  # atno 17343 bound_to 10162
  156.0162  130.3813  150.2105 LP  0  0  0  0  0  0  0  0  0  0  0  0  # atno 17370 bound_to 10713
  157.0293  131.0002  151.3317 LP  0  0  0  0  0  0  0  0  0  0  0  0  # atno 17371 bound_to 10713
  140.8715  134.2721  157.5188 LP  0  0  0  0  0  0  0  0  0  0  0  0  # atno 17394 bound_to 11000
  139.8706  134.9569  156.4253 LP  0  0  0  0  0  0  0  0  0  0  0  0  # atno 17395 bound_to 11000

$$$$
