#       Name:                AV-unprocessed.smi:1951
#       Creating user name   scv26
#       Creation time:       Fri Mar 27 10:03:27 2020


#       File generated by GOLD software.
#

@<TRIPOS>MOLECULE
AV-unprocessed.smi:1951
    51    52     1
SMALL
NO_CHARGES


@<TRIPOS>ATOM
      1 ****        -6.6672  -1.0023  -0.2259 C.3            1 S1                 0.0000
      2 ****        -5.3783  -0.5296  -0.6024 O.3            1 S1                 0.0000
      3 ****        -5.1988   0.8299  -0.7740 C.ar           1 S1                 0.0000
      4 ****        -6.2614   1.6509  -0.5797 N.ar           1 S1                 0.0000
      5 ****        -6.0882   2.9777  -0.7496 C.ar           1 S1                 0.0000
      6 ****        -4.8601   3.5526  -1.1248 C.ar           1 S1                 0.0000
      7 ****        -3.7562   2.7035  -1.3256 C.ar           1 S1                 0.0000
      8 ****        -3.9185   1.3098  -1.1366 C.ar           1 S1                 0.0000
      9 ****        -2.8742   0.3653  -1.3351 N.am           1 S1                 0.0000
     10 ****        -1.5492   0.5527  -1.2151 C.2            1 S1                 0.0000
     11 ****        -1.0044   1.6111  -0.9012 O.2            1 S1                 0.0000
     12 ****        -0.8744  -0.5805  -1.4547 N.am           1 S1                 0.0000
     13 ****         0.5743  -0.7238  -1.3659 C.3            1 S1                 0.0000
     14 ****         1.0351  -0.8577   0.0985 C.3            1 S1                 0.0000
     15 ****         2.5005  -1.0633   0.2173 N.4            1 S1                 1.0000
     16 ****         2.8701  -1.7277   1.4940 C.3            1 S1                 0.0000
     17 ****         4.3734  -2.0549   1.5397 C.3            1 S1                 0.0000
     18 ****         5.2472  -0.8089   1.3097 C.3            1 S1                 0.0000
     19 ****         5.2711   0.1335   2.5262 C.3            1 S1                 0.0000
     20 ****         4.7985  -0.1038   0.0170 C.3            1 S1                 0.0000
     21 ****         3.2857   0.1815   0.0026 C.3            1 S1                 0.0000
     22 ****        -6.6399  -2.0879  -0.1328 H              1 S1                 0.0000
     23 ****        -7.4182  -0.7535  -0.9772 H              1 S1                 0.0000
     24 ****        -6.9756  -0.5955   0.7386 H              1 S1                 0.0000
     25 ****        -6.9567   3.5990  -0.5877 H              1 S1                 0.0000
     26 ****        -4.7685   4.6200  -1.2605 H              1 S1                 0.0000
     27 ****        -2.8153   3.1323  -1.6336 H              1 S1                 0.0000
     28 ****        -3.1779  -0.5821  -1.5076 H              1 S1                 0.0000
     29 ****        -1.4013  -1.4045  -1.7064 H              1 S1                 0.0000
     30 ****         0.8616  -1.6124  -1.9287 H              1 S1                 0.0000
     31 ****         1.0491   0.1238  -1.8612 H              1 S1                 0.0000
     32 ****         0.7405   0.0134   0.6858 H              1 S1                 0.0000
     33 ****         0.5152  -1.7115   0.5356 H              1 S1                 0.0000
     34 ****         2.5900  -1.0903   2.3338 H              1 S1                 0.0000
     35 ****         2.3049  -2.6541   1.6028 H              1 S1                 0.0000
     36 ****         4.6265  -2.5238   2.4912 H              1 S1                 0.0000
     37 ****         4.5973  -2.7953   0.7703 H              1 S1                 0.0000
     38 ****         6.2736  -1.1475   1.1618 H              1 S1                 0.0000
     39 ****         4.2839   0.5306   2.7604 H              1 S1                 0.0000
     40 ****         5.9332   0.9818   2.3502 H              1 S1                 0.0000
     41 ****         5.6360  -0.3847   3.4135 H              1 S1                 0.0000
     42 ****         5.3567   0.8229  -0.1209 H              1 S1                 0.0000
     43 ****         5.0461  -0.7349  -0.8377 H              1 S1                 0.0000
     44 ****         3.0264   0.6307  -0.9552 H              1 S1                 0.0000
     45 ****         3.0288   0.9149   0.7682 H              1 S1                 0.0000
     46 ****         2.7597  -1.7062  -0.5174 H              1 S1                 0.0000
     47 ****        -5.1439  -0.9701  -1.4690 LP             1 S1                 0.0000
     48 ****        -4.7371  -0.8250   0.1058 LP             1 S1                 0.0000
     49 ****        -7.1524   1.2808  -0.3166 LP             1 S1                 0.0000
     50 ****        -1.5585   2.4217  -0.7117 LP             1 S1                 0.0000
     51 ****        -0.0078   1.6602  -0.8357 LP             1 S1                 0.0000
@<TRIPOS>BOND
    1    1    2 1     
    2    1   22 1     
    3    1   23 1     
    4    1   24 1     
    5    2    3 1     
    6    3    8 ar    
    7    3    4 ar    
    8    4    5 ar    
    9    5    6 ar    
   10    5   25 1     
   11    6    7 ar    
   12    6   26 1     
   13    7    8 ar    
   14    7   27 1     
   15    8    9 1     
   16    9   10 am    
   17    9   28 1     
   18   10   11 2     
   19   10   12 am    
   20   12   13 1     
   21   12   29 1     
   22   13   14 1     
   23   13   30 1     
   24   13   31 1     
   25   14   15 1     
   26   14   32 1     
   27   14   33 1     
   28   15   21 1     
   29   15   16 1     
   30   15   46 1     
   31   16   17 1     
   32   16   34 1     
   33   16   35 1     
   34   17   18 1     
   35   17   36 1     
   36   17   37 1     
   37   18   19 1     
   38   18   20 1     
   39   18   38 1     
   40   19   39 1     
   41   19   40 1     
   42   19   41 1     
   43   20   21 1     
   44   20   42 1     
   45   20   43 1     
   46   21   44 1     
   47   21   45 1     
   48    2   47 1     
   49    2   48 1     
   50    4   49 1     
   51   11   50 1     
   52   11   51 1     
@<TRIPOS>SUBSTRUCTURE
      1 S1             1
@<TRIPOS>SET
LONE_PAIRS      STATIC     ATOMS    <user>   **** ""
5 47 48 49 50 51
DONOR_HYDROGENS      STATIC     ATOMS    <user>   **** ""
3 28 29 46
ATOM$BLUE        STATIC     ATOMS    COLORGROUP SYSTEM
5 47 48 49 50 51
ATOM$RED        STATIC     ATOMS    COLORGROUP SYSTEM
3 28 29 46
