AV-unprocessed.smi:2750|AV-procd|sdf|10589|dock1
  -GOLD-   2272015 43D 1   1.00000     0.00000
 Structure written by MMmdl.
 25 26  0  0  0  0  0  0  0  0  2 V2000
  150.6539  138.2544  159.8849 O   0  0  0  0  0  0  0  0  0  0  0  0
  151.4805  137.9553  158.9958 C   0  0  0  0  0  0  0  0  0  0  0  0
  151.7230  136.7972  158.5892 O   0  5  0  0  0  0  0  0  0  0  0  0
  152.2497  139.1063  158.3437 C   0  0  0  0  0  0  0  0  0  0  0  0
  151.6692  139.5079  157.0752 N   0  0  0  0  0  0  0  0  0  0  0  0
  150.3781  139.9167  156.8124 C   0  0  0  0  0  0  0  0  0  0  0  0
  150.3838  140.1363  155.4649 C   0  0  0  0  0  0  0  0  0  0  0  0
  149.2543  140.5537  154.5718 C   0  0  0  0  0  0  0  0  0  0  0  0
  147.9522  139.7767  154.8538 C   0  0  2  0  0  0  0  0  0  0  0  0
  147.7576  138.6402  153.9688 N   0  0  0  0  0  0  0  0  0  0  0  0
  146.6233  138.7307  153.2619 C   0  0  0  0  0  0  0  0  0  0  0  0
  146.2138  137.9100  152.4443 O   0  0  0  0  0  0  0  0  0  0  0  0
  146.0159  139.8730  153.6015 N   0  0  0  0  0  0  0  0  0  0  0  0
  146.7035  140.5656  154.5079 C   0  0  0  0  0  0  0  0  0  0  0  0
  146.4026  141.6548  154.9925 O   0  0  0  0  0  0  0  0  0  0  0  0
  151.6602  139.8655  154.9720 N   0  0  0  0  0  0  0  0  0  0  0  0
  152.4231  139.4889  155.9497 N   0  0  0  0  0  0  0  0  0  0  0  0
  152.2468  139.9642  159.0166 H   0  0  0  0  0  0  0  0  0  0  0  0
  153.2933  138.8268  158.1887 H   0  0  0  0  0  0  0  0  0  0  0  0
  149.6085  139.9892  157.5665 H   0  0  0  0  0  0  0  0  0  0  0  0
  149.0683  141.6213  154.6948 H   0  0  0  0  0  0  0  0  0  0  0  0
  149.5457  140.4246  153.5280 H   0  0  0  0  0  0  0  0  0  0  0  0
  147.9108  139.4416  155.8912 H   0  0  0  0  0  0  0  0  0  0  0  0
  148.4165  137.8774  153.9035 H   0  0  0  0  0  0  0  0  0  0  0  0
  145.1399  140.1811  153.2059 H   0  0  0  0  0  0  0  0  0  0  0  0
  1  2  2  0  0  0  0
  2  3  1  0  0  0  0
  2  4  1  0  0  0  0
  4  5  1  0  0  0  0
  4 18  1  0  0  0  0
  4 19  1  0  0  0  0
  5 17  1  0  0  0  0
  5  6  1  0  0  0  0
  6  7  2  0  0  0  0
  6 20  1  0  0  0  0
  7  8  1  0  0  0  0
  7 16  1  0  0  0  0
  8  9  1  0  0  0  0
  8 21  1  0  0  0  0
  8 22  1  0  0  0  0
  9 14  1  0  0  0  0
  9 10  1  0  0  0  0
  9 23  1  0  0  0  0
 10 11  1  0  0  0  0
 10 24  1  0  0  0  0
 11 12  2  0  0  0  0
 11 13  1  0  0  0  0
 13 14  1  0  0  0  0
 13 25  1  0  0  0  0
 14 15  2  0  0  0  0
 16 17  2  0  0  0  0
M  CHG  1   3  -1
M  END
> <s_m_source_file>
AV-unprocessed.smi

> <i_m_source_file_index>
2750

> <i_lp_mmshare_version>
43012

> <i_f3d_flags>
0

> <s_epik_input>
Tz1DKFtPSF0pW0NIMl1uMVtjSF1jKG5uMSlbQ0gyXVtDQEBIXTJbTkhdQyg9TylbTkhdQzI9Tw==

> <s_epik_cmdline>
J2VwaWtfcHl0aG9uJywgJy1waCcsICc3LjAnLCAnLXRuJywgJzgnLCAnLW1hJywgJzIwMCcsICctbWV0YWxfYmluZGluZycsICctaW1hZScsICc8aW5maWxlLm1hZT4nLCAnLW9tYWUnLCAnPG91dGZpbGUubWFlPic=

> <r_lp_tautomer_probability>
1

> <r_epik_Ionization_Penalty>
0.019671

> <r_epik_Ionization_Penalty_Charging>
2.66176e-05

> <r_epik_Ionization_Penalty_Neutral>
0.0196444

> <r_epik_State_Penalty>
0.0155882

> <r_epik_Charging_Adjusted_Penalty>
0.0156148

> <i_epik_Tot_Q>
-1

> <i_epik_Tot_abs_Q>
1

> <r_epik_Metal_State_Penalty>
0.396229

> <b_epik_Metal_Only>
0

> <s_lp_Force_Field>
OPLS_2005

> <r_lp_Energy>
13.3356

> <b_lp_Chiralities_Consistent>
1

> <s_lp_Variant>
AV-unprocessed.smi:2750-1

> <Gold.Version>
5.8.1

> <Gold.Id.Protein>
6NUR|6NUR_protein|mol2

> <Gold.PLP.Fitness>
45.5571

> <Gold.PLP.PLP>
-23.1667

> <Gold.PLP.part.hbond>
-7.5905

> <Gold.PLP.part.metal>
0.0000

> <Gold.PLP.part.buried>
-3.0214

> <Gold.PLP.part.nonpolar>
-14.0571

> <Gold.PLP.part.repulsive>
0.5749

> <Gold.PLP.ligand.clash>
0.0000

> <Gold.PLP.ligand.torsion>
0.9040

> <Gold.PLP.Chemscore.Hbond>
8.0498

> <Gold.PLP.Chemscore.CHOScore>
0.0000

> <Gold.PLP.Chemscore.Metal>
0.0000

> <Gold.Chemscore.Hbonds>
donor molecule, donor type, donor heavy atom, donor atom, acceptor molecule, acceptor atom, score
      L1  H    13    25       P1 10175  1.00
      P1  H  6896  6908       L1     3  0.75
      P1  H  7989  7998       L1    16  1.00
      P1  H  7997  8009       L1    17  0.89

> <Gold.PLP.Chemscore.Internal.Correction>
0.0489

> <Gold.Rescore>
     Score         DG    S(hbond)    S(metal)    S(lipo)     H(rot)  DE(clash)    DE(int)     intcor
     18.61     -19.92       5.60        0.00      25.63       2.84       0.56       0.75       ----

> <Gold.Chemscore.Fitness>
18.6105

> <Gold.Chemscore.DG>
-19.9246

> <Gold.Chemscore.ZeroCoef>
-5.4800

> <Gold.Chemscore.Hbond>
5.6000

> <Gold.Chemscore.Metal>
0.0000

> <Gold.Chemscore.Lipo>
25.6349

> <Gold.Chemscore.Internal_Hbond>
0.0000

> <Gold.Chemscore.DEClash>
0.5639

> <Gold.Chemscore.DEInternal>
0.7501

> <Gold.Chemscore.Rot>
2.8354

> <Gold.Chemscore.Internal.Correction>
   9.000000E+99

> <Gold.Chemscore.Hbonds>
donor molecule, donor type, donor heavy atom, donor atom, acceptor molecule, acceptor atom, score
      L1  H    13    25       P1 10175  1.00
      P1  H  6896  6908       L1     3  0.36
      P1  H  7989  7998       L1    16  0.29
      P1  H  7997  8009       L1    17  0.80

> <Gold.Chemscore.Hbond.Weighted>
-18.7039

> <Gold.Chemscore.Metal.Weighted>
-0.0000

> <Gold.Chemscore.Lipo.Weighted>
-2.9993

> <Gold.Chemscore.Internal_Hbond.Weighted>
0.0000

> <Gold.Chemscore.DEClash.Weighted>
0.5639

> <Gold.Chemscore.DEInternal.Weighted>
0.7501

> <Gold.Chemscore.Rot.Weighted>
7.2586

> <Gold.Chemscore.Internal.Correction.Weighted>
   9.000000E+99

> <Gold.Protein.RotatedTorsions>
[ 6907 6896 6895 6894 ] final -148.85 input  -60.11 | X-H torsion
[ 7974 7965 7964 7962 ] final -174.78 input  175.53 | X-H torsion
[ 8008 7997 7996 7995 ] final -145.36 input   59.86 | X-H torsion
[ 10167 10162 10161 10158 ] final -123.30 input  -65.29 | X-H torsion
[ 10718 10713 10712 10709 ] final  152.67 input   66.30 | X-H torsion
[ 10763 10752 10751 10750 ] final  -33.33 input  -60.55 | X-H torsion
[ 11005 11000 10999 10996 ] final -140.13 input  -57.11 | X-H torsion

> <Gold.Protein.ActiveResidues>
 VAL166  LYS551  ARG553  GLY616  TRP617  ASP618  TYR619  PRO620  LYS621  CYS622 
 ASP623  PHE694  ASN695  SER759  ASP760  ASP761  ALA762  ILE779  LEU786  VAL792 
 PHE793  MET794  SER795  GLU796  ALA797  LYS798  CYS799  TRP800  GLU811  SER814 

> <Gold.Protein.RotatedAtoms>
  151.1757  133.4756  159.2593 H   0  0  0  0  0  0  0  0  0  0  0  0  # atno 6907 bound_to 6896
  151.1311  135.0130  159.8593 H   0  0  0  0  0  0  0  0  0  0  0  0  # atno 6908 bound_to 6896
  152.5460  134.1659  159.8630 H   0  0  0  0  0  0  0  0  0  0  0  0  # atno 6909 bound_to 6896
  144.7130  140.1419  143.6391 H   0  0  0  0  0  0  0  0  0  0  0  0  # atno 7974 bound_to 7965
  155.5419  140.0609  157.2868 H   0  0  0  0  0  0  0  0  0  0  0  0  # atno 8008 bound_to 7997
  154.4449  140.1917  156.0643 H   0  0  0  0  0  0  0  0  0  0  0  0  # atno 8009 bound_to 7997
  156.0579  140.3276  155.7430 H   0  0  0  0  0  0  0  0  0  0  0  0  # atno 8010 bound_to 7997
  140.0049  143.5501  152.2288 H   0  0  0  0  0  0  0  0  0  0  0  0  # atno 10167 bound_to 10162
  157.2548  131.0786  151.1706 H   0  0  0  0  0  0  0  0  0  0  0  0  # atno 10718 bound_to 10713
  153.8284  135.6868  153.4818 H   0  0  0  0  0  0  0  0  0  0  0  0  # atno 10763 bound_to 10752
  153.1526  135.4612  154.9657 H   0  0  0  0  0  0  0  0  0  0  0  0  # atno 10764 bound_to 10752
  154.7897  135.3297  154.7749 H   0  0  0  0  0  0  0  0  0  0  0  0  # atno 10765 bound_to 10752
  140.8452  134.2353  157.4789 H   0  0  0  0  0  0  0  0  0  0  0  0  # atno 11005 bound_to 11000
  145.9194  139.2536  143.1390 LP  0  0  0  0  0  0  0  0  0  0  0  0  # atno 17320 bound_to 7965
  145.9636  140.8816  143.0198 LP  0  0  0  0  0  0  0  0  0  0  0  0  # atno 17321 bound_to 7965
  139.6245  144.7635  151.2668 LP  0  0  0  0  0  0  0  0  0  0  0  0  # atno 17342 bound_to 10162
  140.7404  143.6588  150.8182 LP  0  0  0  0  0  0  0  0  0  0  0  0  # atno 17343 bound_to 10162
  157.3239  130.6951  149.6285 LP  0  0  0  0  0  0  0  0  0  0  0  0  # atno 17370 bound_to 10713
  155.9665  130.4327  150.4975 LP  0  0  0  0  0  0  0  0  0  0  0  0  # atno 17371 bound_to 10713
  139.8703  134.9655  156.4533 LP  0  0  0  0  0  0  0  0  0  0  0  0  # atno 17394 bound_to 11000
  140.8851  133.7889  155.9509 LP  0  0  0  0  0  0  0  0  0  0  0  0  # atno 17395 bound_to 11000

$$$$
