AV-unprocessed.smi:1157|AV-procd|sdf|4907|dock3
  -GOLD-   22720 3483D 1   1.00000     0.00000
 Structure written by MMmdl.
 55 57  0  0  0  0  0  0  0  0  2 V2000
  149.1747  133.6419  153.9677 C   0  0  0  0  0  0  0  0  0  0  0  0
  147.6480  133.8454  154.1380 C   0  0  0  0  0  0  0  0  0  0  0  0
  147.1029  132.5223  154.7319 C   0  0  0  0  0  0  0  0  0  0  0  0
  147.3589  135.0192  155.1222 C   0  0  0  0  0  0  0  0  0  0  0  0
  148.1465  136.2202  154.8453 N   0  0  0  0  0  0  0  0  0  0  0  0
  148.4767  137.1598  155.7431 C   0  0  0  0  0  0  0  0  0  0  0  0
  148.1312  137.1202  156.9237 O   0  0  0  0  0  0  0  0  0  0  0  0
  149.1988  138.1407  155.1753 N   0  0  0  0  0  0  0  0  0  0  0  0
  149.7355  139.3090  155.7808 C   0  0  0  0  0  0  0  0  0  0  0  0
  149.8630  140.5592  155.1317 C   0  0  0  0  0  0  0  0  0  0  0  0
  150.3944  141.6486  155.8480 C   0  0  0  0  0  0  0  0  0  0  0  0
  150.7762  141.4672  157.1984 C   0  0  0  0  0  0  0  0  0  0  0  0
  151.3174  142.5308  157.9473 N   0  0  0  0  0  0  0  0  0  0  0  0
  151.5905  143.8291  157.3504 C   0  0  0  0  0  0  0  0  0  0  0  0
  152.2900  144.6214  158.4537 C   0  0  0  0  0  0  0  0  0  0  0  0
  153.0570  143.5445  159.2213 C   0  0  0  0  0  0  0  0  0  0  0  0
  152.1719  142.2984  159.1038 C   0  0  0  0  0  0  0  0  0  0  0  0
  150.6470  140.2707  157.8196 N   0  0  0  0  0  0  0  0  0  0  0  0
  150.1357  139.2301  157.1295 C   0  0  0  0  0  0  0  0  0  0  0  0
  147.0230  134.0947  152.7886 N   0  3  0  0  0  0  0  0  0  0  0  0
  146.8407  132.8941  151.9240 C   0  0  0  0  0  0  0  0  0  0  0  0
  146.3725  133.3053  150.5178 C   0  0  0  0  0  0  0  0  0  0  0  0
  145.1648  134.0467  150.6112 O   0  0  0  0  0  0  0  0  0  0  0  0
  145.3403  135.2430  151.3563 C   0  0  0  0  0  0  0  0  0  0  0  0
  145.7683  134.8998  152.7928 C   0  0  0  0  0  0  0  0  0  0  0  0
  149.6348  133.2475  154.8742 H   0  0  0  0  0  0  0  0  0  0  0  0
  149.6953  134.5734  153.7461 H   0  0  0  0  0  0  0  0  0  0  0  0
  149.3953  132.9346  153.1673 H   0  0  0  0  0  0  0  0  0  0  0  0
  147.6739  132.2067  155.6059 H   0  0  0  0  0  0  0  0  0  0  0  0
  147.1552  131.7094  154.0067 H   0  0  0  0  0  0  0  0  0  0  0  0
  146.0689  132.6114  155.0644 H   0  0  0  0  0  0  0  0  0  0  0  0
  146.2985  135.2720  155.1312 H   0  0  0  0  0  0  0  0  0  0  0  0
  147.6016  134.7265  156.1431 H   0  0  0  0  0  0  0  0  0  0  0  0
  148.4698  136.3403  153.8963 H   0  0  0  0  0  0  0  0  0  0  0  0
  149.3350  138.0721  154.1775 H   0  0  0  0  0  0  0  0  0  0  0  0
  149.5552  140.7102  154.1088 H   0  0  0  0  0  0  0  0  0  0  0  0
  150.5032  142.6019  155.3527 H   0  0  0  0  0  0  0  0  0  0  0  0
  152.2490  143.7033  156.4897 H   0  0  0  0  0  0  0  0  0  0  0  0
  150.6756  144.3210  157.0183 H   0  0  0  0  0  0  0  0  0  0  0  0
  152.9339  145.4114  158.0662 H   0  0  0  0  0  0  0  0  0  0  0  0
  151.5468  145.0802  159.1075 H   0  0  0  0  0  0  0  0  0  0  0  0
  154.0130  143.3601  158.7298 H   0  0  0  0  0  0  0  0  0  0  0  0
  153.2613  143.8220  160.2559 H   0  0  0  0  0  0  0  0  0  0  0  0
  151.5442  142.1846  159.9881 H   0  0  0  0  0  0  0  0  0  0  0  0
  152.7793  141.3994  158.9946 H   0  0  0  0  0  0  0  0  0  0  0  0
  150.0484  138.3012  157.6743 H   0  0  0  0  0  0  0  0  0  0  0  0
  147.7674  132.3348  151.8127 H   0  0  0  0  0  0  0  0  0  0  0  0
  146.1068  132.2188  152.3642 H   0  0  0  0  0  0  0  0  0  0  0  0
  147.1377  133.8930  150.0081 H   0  0  0  0  0  0  0  0  0  0  0  0
  146.1949  132.4192  149.9082 H   0  0  0  0  0  0  0  0  0  0  0  0
  146.0774  135.8857  150.8720 H   0  0  0  0  0  0  0  0  0  0  0  0
  144.3985  135.7920  151.3669 H   0  0  0  0  0  0  0  0  0  0  0  0
  144.9656  134.3485  153.2828 H   0  0  0  0  0  0  0  0  0  0  0  0
  145.8929  135.8354  153.3341 H   0  0  0  0  0  0  0  0  0  0  0  0
  147.6978  134.6671  152.3013 H   0  0  0  0  0  0  0  0  0  0  0  0
  1  2  1  0  0  0  0
  1 26  1  0  0  0  0
  1 27  1  0  0  0  0
  1 28  1  0  0  0  0
  2  3  1  0  0  0  0
  2  4  1  0  0  0  0
  2 20  1  0  0  0  0
  3 29  1  0  0  0  0
  3 30  1  0  0  0  0
  3 31  1  0  0  0  0
  4  5  1  0  0  0  0
  4 32  1  0  0  0  0
  4 33  1  0  0  0  0
  5  6  1  0  0  0  0
  5 34  1  0  0  0  0
  6  7  2  0  0  0  0
  6  8  1  0  0  0  0
  8  9  1  0  0  0  0
  8 35  1  0  0  0  0
  9 19  1  0  0  0  0
  9 10  2  0  0  0  0
 10 11  1  0  0  0  0
 10 36  1  0  0  0  0
 11 12  2  0  0  0  0
 11 37  1  0  0  0  0
 12 13  1  0  0  0  0
 12 18  1  0  0  0  0
 13 17  1  0  0  0  0
 13 14  1  0  0  0  0
 14 15  1  0  0  0  0
 14 38  1  0  0  0  0
 14 39  1  0  0  0  0
 15 16  1  0  0  0  0
 15 40  1  0  0  0  0
 15 41  1  0  0  0  0
 16 17  1  0  0  0  0
 16 42  1  0  0  0  0
 16 43  1  0  0  0  0
 17 44  1  0  0  0  0
 17 45  1  0  0  0  0
 18 19  2  0  0  0  0
 19 46  1  0  0  0  0
 20 25  1  0  0  0  0
 20 21  1  0  0  0  0
 20 55  1  0  0  0  0
 21 22  1  0  0  0  0
 21 47  1  0  0  0  0
 21 48  1  0  0  0  0
 22 23  1  0  0  0  0
 22 49  1  0  0  0  0
 22 50  1  0  0  0  0
 23 24  1  0  0  0  0
 24 25  1  0  0  0  0
 24 51  1  0  0  0  0
 24 52  1  0  0  0  0
 25 53  1  0  0  0  0
 25 54  1  0  0  0  0
M  CHG  1  20   1
M  END
> <s_m_source_file>
AV-unprocessed.smi

> <i_m_source_file_index>
1157

> <i_lp_mmshare_version>
43012

> <i_f3d_flags>
0

> <s_epik_input>
W0NIMl0xW0NIMl1PW0NIMl1bQ0gyXU4xQyhbQ0gzXSkoW0NIM10pW0NIMl1bTkhdQyg9TylbTkhdYzJbY0hdW2NIXWMobltjSF0yKU4zW0NIMl1bQ0gyXVtDSDJdW0NIMl0z

> <s_epik_cmdline>
J2VwaWtfcHl0aG9uJywgJy1waCcsICc3LjAnLCAnLXRuJywgJzgnLCAnLW1hJywgJzIwMCcsICctbWV0YWxfYmluZGluZycsICctaW1hZScsICc8aW5maWxlLm1hZT4nLCAnLW9tYWUnLCAnPG91dGZpbGUubWFlPic=

> <r_lp_tautomer_probability>
1

> <r_epik_Ionization_Penalty>
0.687101

> <r_epik_Ionization_Penalty_Charging>
0.602531

> <r_epik_Ionization_Penalty_Neutral>
0.0845707

> <r_epik_State_Penalty>
0.681137

> <r_epik_Charging_Adjusted_Penalty>
1.28367

> <i_epik_Tot_Q>
1

> <i_epik_Tot_abs_Q>
1

> <r_epik_Metal_State_Penalty>
0.680046

> <b_epik_Metal_Only>
0

> <s_lp_Force_Field>
OPLS_2005

> <r_lp_Energy>
50.3969

> <b_lp_Chiralities_Consistent>
1

> <s_lp_Variant>
AV-unprocessed.smi:1157-2

> <Gold.Version>
5.8.1

> <Gold.Id.Protein>
6NUR|6NUR_protein|mol2

> <Gold.PLP.Fitness>
48.1260

> <Gold.PLP.PLP>
-41.7127

> <Gold.PLP.part.hbond>
-2.0000

> <Gold.PLP.part.metal>
0.0000

> <Gold.PLP.part.buried>
-3.8753

> <Gold.PLP.part.nonpolar>
-36.0735

> <Gold.PLP.part.repulsive>
0.1636

> <Gold.PLP.ligand.clash>
0.0000

> <Gold.PLP.ligand.torsion>
1.4750

> <Gold.PLP.Chemscore.Hbond>
3.0000

> <Gold.PLP.Chemscore.CHOScore>
0.0000

> <Gold.PLP.Chemscore.Metal>
0.0000

> <Gold.Chemscore.Hbonds>
donor molecule, donor type, donor heavy atom, donor atom, acceptor molecule, acceptor atom, score
      L1  H     5    34       P1  7948  0.86
      L1  H    20    55       P1  7948  2.00

> <Gold.PLP.Chemscore.Internal.Correction>
0.3634

> <Gold.Rescore>
     Score         DG    S(hbond)    S(metal)    S(lipo)     H(rot)  DE(clash)    DE(int)     intcor
     18.65     -20.94       1.85        0.00     110.37       1.42       0.15       2.14       ----

> <Gold.Chemscore.Fitness>
18.6515

> <Gold.Chemscore.DG>
-20.9419

> <Gold.Chemscore.ZeroCoef>
-5.4800

> <Gold.Chemscore.Hbond>
1.8546

> <Gold.Chemscore.Metal>
0.0000

> <Gold.Chemscore.Lipo>
110.3741

> <Gold.Chemscore.Internal_Hbond>
0.0000

> <Gold.Chemscore.DEClash>
0.1538

> <Gold.Chemscore.DEInternal>
2.1366

> <Gold.Chemscore.Rot>
1.4243

> <Gold.Chemscore.Internal.Correction>
   9.000000E+99

> <Gold.Chemscore.Hbonds>
donor molecule, donor type, donor heavy atom, donor atom, acceptor molecule, acceptor atom, score
      L1  H     5    34       P1  7948  0.84
      L1  H    20    55       P1  7948  0.71

> <Gold.Chemscore.Hbond.Weighted>
-6.1943

> <Gold.Chemscore.Metal.Weighted>
-0.0000

> <Gold.Chemscore.Lipo.Weighted>
-12.9138

> <Gold.Chemscore.Internal_Hbond.Weighted>
0.0000

> <Gold.Chemscore.DEClash.Weighted>
0.1538

> <Gold.Chemscore.DEInternal.Weighted>
2.1366

> <Gold.Chemscore.Rot.Weighted>
3.6462

> <Gold.Chemscore.Internal.Correction.Weighted>
   9.000000E+99

> <Gold.Protein.RotatedTorsions>
[ 6907 6896 6895 6894 ] final  107.35 input  -60.11 | X-H torsion
[ 7974 7965 7964 7962 ] final  138.69 input  175.53 | X-H torsion
[ 8008 7997 7996 7995 ] final -153.40 input   59.86 | X-H torsion
[ 10167 10162 10161 10158 ] final  -40.54 input  -65.29 | X-H torsion
[ 10718 10713 10712 10709 ] final  159.48 input   66.30 | X-H torsion
[ 10763 10752 10751 10750 ] final  -56.20 input  -60.55 | X-H torsion
[ 11005 11000 10999 10996 ] final   56.84 input  -57.11 | X-H torsion

> <Gold.Protein.ActiveResidues>
 VAL166  LYS551  ARG553  GLY616  TRP617  ASP618  TYR619  PRO620  LYS621  CYS622 
 ASP623  PHE694  ASN695  SER759  ASP760  ASP761  ALA762  ILE779  LEU786  VAL792 
 PHE793  MET794  SER795  GLU796  ALA797  LYS798  CYS799  TRP800  GLU811  SER814 

> <Gold.Protein.RotatedAtoms>
  152.5158  133.9247  159.7551 H   0  0  0  0  0  0  0  0  0  0  0  0  # atno 6907 bound_to 6896
  150.9611  133.6436  159.2761 H   0  0  0  0  0  0  0  0  0  0  0  0  # atno 6908 bound_to 6896
  151.3680  135.0922  159.9509 H   0  0  0  0  0  0  0  0  0  0  0  0  # atno 6909 bound_to 6896
  144.9349  139.5001  143.5600 H   0  0  0  0  0  0  0  0  0  0  0  0  # atno 7974 bound_to 7965
  155.6702  140.0732  157.2523 H   0  0  0  0  0  0  0  0  0  0  0  0  # atno 8008 bound_to 7997
  154.4125  140.1700  156.1922 H   0  0  0  0  0  0  0  0  0  0  0  0  # atno 8009 bound_to 7997
  155.9623  140.3369  155.6504 H   0  0  0  0  0  0  0  0  0  0  0  0  # atno 8010 bound_to 7997
  140.7031  143.3147  151.2939 H   0  0  0  0  0  0  0  0  0  0  0  0  # atno 10167 bound_to 10162
  157.1636  131.0593  151.2219 H   0  0  0  0  0  0  0  0  0  0  0  0  # atno 10718 bound_to 10713
  154.2029  135.6408  153.5092 H   0  0  0  0  0  0  0  0  0  0  0  0  # atno 10763 bound_to 10752
  153.0007  135.5456  154.6296 H   0  0  0  0  0  0  0  0  0  0  0  0  # atno 10764 bound_to 10752
  154.5713  135.2917  155.0797 H   0  0  0  0  0  0  0  0  0  0  0  0  # atno 10765 bound_to 10752
  140.0498  134.5753  155.9278 H   0  0  0  0  0  0  0  0  0  0  0  0  # atno 11005 bound_to 11000
  146.3262  139.8326  142.8905 LP  0  0  0  0  0  0  0  0  0  0  0  0  # atno 17320 bound_to 7965
  145.3083  141.0213  143.3569 LP  0  0  0  0  0  0  0  0  0  0  0  0  # atno 17321 bound_to 7965
  139.6582  144.0238  152.2674 LP  0  0  0  0  0  0  0  0  0  0  0  0  # atno 17342 bound_to 10162
  139.9796  144.6437  150.7913 LP  0  0  0  0  0  0  0  0  0  0  0  0  # atno 17343 bound_to 10162
  157.4109  130.7385  149.6838 LP  0  0  0  0  0  0  0  0  0  0  0  0  # atno 17370 bound_to 10713
  155.9750  130.4095  150.3884 LP  0  0  0  0  0  0  0  0  0  0  0  0  # atno 17371 bound_to 10713
  141.1925  133.6575  156.5503 LP  0  0  0  0  0  0  0  0  0  0  0  0  # atno 17394 bound_to 11000
  140.3936  134.7419  157.4736 LP  0  0  0  0  0  0  0  0  0  0  0  0  # atno 17395 bound_to 11000

$$$$
