AV-unprocessed.smi:3188|AV-procd|sdf|12183|dock1
  -GOLD-   2272018 23D 1   1.00000     0.00000
 Structure written by MMmdl.
 40 41  0  0  0  0  0  0  0  0  2 V2000
  153.1980  144.6747  157.0415 C   0  0  0  0  0  0  0  0  0  0  0  0
  152.5386  144.4692  158.3954 C   0  0  0  0  0  0  0  0  0  0  0  0
  151.6068  145.3326  158.8457 C   0  0  0  0  0  0  0  0  0  0  0  0
  150.9332  145.2507  160.2043 C   0  0  0  0  0  0  0  0  0  0  0  0
  151.2759  143.9633  160.9718 C   0  0  0  0  0  0  0  0  0  0  0  0
  152.7392  143.5458  160.7453 C   0  0  1  0  0  0  0  0  0  0  0  0
  153.1668  142.4041  161.6839 C   0  0  0  0  0  0  0  0  0  0  0  0
  153.0158  143.2784  159.2383 C   0  0  1  0  0  0  0  0  0  0  0  0
  152.4227  141.9321  158.7448 C   0  0  0  0  0  0  0  0  0  0  0  0
  151.0868  142.0783  158.1341 N   0  3  0  0  0  0  0  0  0  0  0  0
  150.6719  140.9263  157.3107 C   0  0  0  0  0  0  0  0  0  0  0  0
  151.1465  141.0874  155.8595 C   0  0  0  0  0  0  0  0  0  0  0  0
  151.6480  139.8398  155.3168 N   0  0  0  0  0  0  0  0  0  0  0  0
  151.1696  139.1125  154.2466 C   0  0  0  0  0  0  0  0  0  0  0  0
  152.0155  138.0417  154.1878 C   0  0  0  0  0  0  0  0  0  0  0  0
  152.9578  138.1605  155.2079 N   0  0  0  0  0  0  0  0  0  0  0  0
  152.7250  139.2430  155.8811 N   0  0  0  0  0  0  0  0  0  0  0  0
  154.2825  144.6049  157.1286 H   0  0  0  0  0  0  0  0  0  0  0  0
  152.9626  145.6602  156.6377 H   0  0  0  0  0  0  0  0  0  0  0  0
  152.8572  143.9397  156.3143 H   0  0  0  0  0  0  0  0  0  0  0  0
  151.3173  146.1738  158.2325 H   0  0  0  0  0  0  0  0  0  0  0  0
  151.2577  146.1175  160.7809 H   0  0  0  0  0  0  0  0  0  0  0  0
  149.8534  145.3400  160.0828 H   0  0  0  0  0  0  0  0  0  0  0  0
  151.0819  144.1156  162.0342 H   0  0  0  0  0  0  0  0  0  0  0  0
  150.6097  143.1597  160.6569 H   0  0  0  0  0  0  0  0  0  0  0  0
  153.3560  144.4012  161.0271 H   0  0  0  0  0  0  0  0  0  0  0  0
  152.5169  141.5337  161.5934 H   0  0  0  0  0  0  0  0  0  0  0  0
  153.1254  142.7260  162.7248 H   0  0  0  0  0  0  0  0  0  0  0  0
  154.1903  142.0882  161.4805 H   0  0  0  0  0  0  0  0  0  0  0  0
  154.1000  143.2235  159.1290 H   0  0  0  0  0  0  0  0  0  0  0  0
  153.0646  141.4838  157.9877 H   0  0  0  0  0  0  0  0  0  0  0  0
  152.3594  141.2221  159.5701 H   0  0  0  0  0  0  0  0  0  0  0  0
  150.4110  142.2029  158.8745 H   0  0  0  0  0  0  0  0  0  0  0  0
  151.0840  140.0110  157.7379 H   0  0  0  0  0  0  0  0  0  0  0  0
  149.5849  140.8375  157.3440 H   0  0  0  0  0  0  0  0  0  0  0  0
  150.3314  141.4399  155.2252 H   0  0  0  0  0  0  0  0  0  0  0  0
  151.9399  141.8337  155.8003 H   0  0  0  0  0  0  0  0  0  0  0  0
  150.3157  139.4032  153.6524 H   0  0  0  0  0  0  0  0  0  0  0  0
  152.0253  137.2049  153.5048 H   0  0  0  0  0  0  0  0  0  0  0  0
  151.0878  142.9057  157.5547 H   0  0  0  0  0  0  0  0  0  0  0  0
  1  2  1  0  0  0  0
  1 18  1  0  0  0  0
  1 19  1  0  0  0  0
  1 20  1  0  0  0  0
  2  8  1  0  0  0  0
  2  3  2  0  0  0  0
  3  4  1  0  0  0  0
  3 21  1  0  0  0  0
  4  5  1  0  0  0  0
  4 22  1  0  0  0  0
  4 23  1  0  0  0  0
  5  6  1  0  0  0  0
  5 24  1  0  0  0  0
  5 25  1  0  0  0  0
  6  7  1  0  0  0  0
  6  8  1  0  0  0  0
  6 26  1  0  0  0  0
  7 27  1  0  0  0  0
  7 28  1  0  0  0  0
  7 29  1  0  0  0  0
  8  9  1  0  0  0  0
  8 30  1  0  0  0  0
  9 10  1  0  0  0  0
  9 31  1  0  0  0  0
  9 32  1  0  0  0  0
 10 11  1  0  0  0  0
 10 33  1  0  0  0  0
 10 40  1  0  0  0  0
 11 12  1  0  0  0  0
 11 34  1  0  0  0  0
 11 35  1  0  0  0  0
 12 13  1  0  0  0  0
 12 36  1  0  0  0  0
 12 37  1  0  0  0  0
 13 17  1  0  0  0  0
 13 14  1  0  0  0  0
 14 15  2  0  0  0  0
 14 38  1  0  0  0  0
 15 16  1  0  0  0  0
 15 39  1  0  0  0  0
 16 17  2  0  0  0  0
M  CHG  1  10   1
M  END
> <s_m_source_file>
AV-unprocessed.smi

> <i_m_source_file_index>
3188

> <i_lp_mmshare_version>
43012

> <i_f3d_flags>
0

> <s_epik_input>
W0NIM11DMT1bQ0hdW0NIMl1bQ0gyXVtDQEBIXShbQ0gzXSlbQ0BIXTFbQ0gyXVtOSF1bQ0gyXVtDSDJdbjJbY0hdW2NIXW5uMg==

> <s_epik_cmdline>
J2VwaWtfcHl0aG9uJywgJy1waCcsICc3LjAnLCAnLXRuJywgJzgnLCAnLW1hJywgJzIwMCcsICctbWV0YWxfYmluZGluZycsICctaW1hZScsICc8aW5maWxlLm1hZT4nLCAnLW9tYWUnLCAnPG91dGZpbGUubWFlPic=

> <r_lp_tautomer_probability>
1

> <r_epik_Ionization_Penalty>
0.007268

> <r_epik_Ionization_Penalty_Charging>
0.00726786

> <r_epik_Ionization_Penalty_Neutral>
1.34882e-07

> <r_epik_State_Penalty>
0.00542069

> <r_epik_Charging_Adjusted_Penalty>
0.0126886

> <i_epik_Tot_Q>
1

> <i_epik_Tot_abs_Q>
1

> <r_epik_Metal_State_Penalty>
-0

> <b_epik_Metal_Only>
0

> <s_lp_Force_Field>
OPLS_2005

> <r_lp_Energy>
14.7496

> <b_lp_Chiralities_Consistent>
1

> <s_lp_Variant>
AV-unprocessed.smi:3188-1

> <Gold.Version>
5.8.1

> <Gold.Id.Protein>
6NUR|6NUR_protein|mol2

> <Gold.PLP.Fitness>
48.0713

> <Gold.PLP.PLP>
-42.6041

> <Gold.PLP.part.hbond>
-1.4936

> <Gold.PLP.part.metal>
0.0000

> <Gold.PLP.part.buried>
-3.9114

> <Gold.PLP.part.nonpolar>
-37.0390

> <Gold.PLP.part.repulsive>
0.0735

> <Gold.PLP.ligand.clash>
0.0000

> <Gold.PLP.ligand.torsion>
0.9575

> <Gold.PLP.Chemscore.Hbond>
1.0000

> <Gold.PLP.Chemscore.CHOScore>
1.4305

> <Gold.PLP.Chemscore.Metal>
0.0000

> <Gold.Chemscore.Hbonds>
donor molecule, donor type, donor heavy atom, donor atom, acceptor molecule, acceptor atom, score
      P1  H  7997  8009       L1    17  1.00
      L1  C    14    38       P1  7957  0.68
      L1  C    15    39       P1  7949  1.00

> <Gold.PLP.Chemscore.Internal.Correction>
0.0907

> <Gold.Rescore>
     Score         DG    S(hbond)    S(metal)    S(lipo)     H(rot)  DE(clash)    DE(int)     intcor
     17.96     -20.78       0.96        0.00     142.50       1.78       1.66       1.16       ----

> <Gold.Chemscore.Fitness>
17.9595

> <Gold.Chemscore.DG>
-20.7835

> <Gold.Chemscore.ZeroCoef>
-5.4800

> <Gold.Chemscore.Hbond>
0.9551

> <Gold.Chemscore.Metal>
0.0000

> <Gold.Chemscore.Lipo>
142.4996

> <Gold.Chemscore.Internal_Hbond>
0.0000

> <Gold.Chemscore.DEClash>
1.6638

> <Gold.Chemscore.DEInternal>
1.1601

> <Gold.Chemscore.Rot>
1.7809

> <Gold.Chemscore.Internal.Correction>
   9.000000E+99

> <Gold.Chemscore.Hbonds>
donor molecule, donor type, donor heavy atom, donor atom, acceptor molecule, acceptor atom, score
      P1  H  7997  8009       L1    17  0.78

> <Gold.Chemscore.Hbond.Weighted>
-3.1900

> <Gold.Chemscore.Metal.Weighted>
-0.0000

> <Gold.Chemscore.Lipo.Weighted>
-16.6725

> <Gold.Chemscore.Internal_Hbond.Weighted>
0.0000

> <Gold.Chemscore.DEClash.Weighted>
1.6638

> <Gold.Chemscore.DEInternal.Weighted>
1.1601

> <Gold.Chemscore.Rot.Weighted>
4.5590

> <Gold.Chemscore.Internal.Correction.Weighted>
   9.000000E+99

> <Gold.Protein.RotatedTorsions>
[ 6907 6896 6895 6894 ] final -158.88 input  -60.11 | X-H torsion
[ 7974 7965 7964 7962 ] final   60.79 input  175.53 | X-H torsion
[ 8008 7997 7996 7995 ] final -161.44 input   59.86 | X-H torsion
[ 10167 10162 10161 10158 ] final   -6.56 input  -65.29 | X-H torsion
[ 10718 10713 10712 10709 ] final  -14.13 input   66.30 | X-H torsion
[ 10763 10752 10751 10750 ] final  -50.60 input  -60.55 | X-H torsion
[ 11005 11000 10999 10996 ] final  109.10 input  -57.11 | X-H torsion

> <Gold.Protein.ActiveResidues>
 VAL166  LYS551  ARG553  GLY616  TRP617  ASP618  TYR619  PRO620  LYS621  CYS622 
 ASP623  PHE694  ASN695  SER759  ASP760  ASP761  ALA762  ILE779  LEU786  VAL792 
 PHE793  MET794  SER795  GLU796  ALA797  LYS798  CYS799  TRP800  GLU811  SER814 

> <Gold.Protein.RotatedAtoms>
  151.3249  133.4024  159.2657 H   0  0  0  0  0  0  0  0  0  0  0  0  # atno 6907 bound_to 6896
  151.0003  134.9318  159.7960 H   0  0  0  0  0  0  0  0  0  0  0  0  # atno 6908 bound_to 6896
  152.5273  134.3214  159.9202 H   0  0  0  0  0  0  0  0  0  0  0  0  # atno 6909 bound_to 6896
  145.8920  139.3518  143.0644 H   0  0  0  0  0  0  0  0  0  0  0  0  # atno 7974 bound_to 7965
  155.7922  140.0880  157.2003 H   0  0  0  0  0  0  0  0  0  0  0  0  # atno 8008 bound_to 7997
  154.3985  140.1488  156.3234 H   0  0  0  0  0  0  0  0  0  0  0  0  # atno 8009 bound_to 7997
  155.8547  140.3433  155.5719 H   0  0  0  0  0  0  0  0  0  0  0  0  # atno 8010 bound_to 7997
  140.7001  143.6180  150.8640 H   0  0  0  0  0  0  0  0  0  0  0  0  # atno 10167 bound_to 10162
  156.6203  130.4873  149.6167 H   0  0  0  0  0  0  0  0  0  0  0  0  # atno 10718 bound_to 10713
  154.1130  135.6546  153.4888 H   0  0  0  0  0  0  0  0  0  0  0  0  # atno 10763 bound_to 10752
  153.0250  135.5252  154.7173 H   0  0  0  0  0  0  0  0  0  0  0  0  # atno 10764 bound_to 10752
  154.6359  135.2982  155.0131 H   0  0  0  0  0  0  0  0  0  0  0  0  # atno 10765 bound_to 10752
  139.8856  134.9449  156.6074 H   0  0  0  0  0  0  0  0  0  0  0  0  # atno 11005 bound_to 11000
  145.8897  140.9312  143.0559 LP  0  0  0  0  0  0  0  0  0  0  0  0  # atno 17320 bound_to 7965
  144.6731  140.0889  143.7466 LP  0  0  0  0  0  0  0  0  0  0  0  0  # atno 17321 bound_to 7965
  139.9901  143.5856  152.2913 LP  0  0  0  0  0  0  0  0  0  0  0  0  # atno 17342 bound_to 10162
  139.6508  144.7660  151.2152 LP  0  0  0  0  0  0  0  0  0  0  0  0  # atno 17343 bound_to 10162
  156.2317  130.6798  151.1470 LP  0  0  0  0  0  0  0  0  0  0  0  0  # atno 17370 bound_to 10713
  157.7229  131.0669  150.6057 LP  0  0  0  0  0  0  0  0  0  0  0  0  # atno 17371 bound_to 10713
  140.7838  133.8638  155.8589 LP  0  0  0  0  0  0  0  0  0  0  0  0  # atno 17394 bound_to 11000
  140.9737  134.1497  157.4554 LP  0  0  0  0  0  0  0  0  0  0  0  0  # atno 17395 bound_to 11000

$$$$
