#       Name:                AV-unprocessed.smi:249
#       Creating user name   scv26
#       Creation time:       Thu Mar 26 21:03:26 2020


#       File generated by GOLD software.
#

@<TRIPOS>MOLECULE
AV-unprocessed.smi:249
    71    74     1
SMALL
NO_CHARGES


@<TRIPOS>ATOM
      1 ****        -5.3750  -2.2129   2.9063 C.3            1 S1                 0.0000
      2 ****        -5.1752  -1.0821   1.8856 C.3            1 S1                 0.0000
      3 ****        -4.1564  -1.4039   0.8428 N.4            1 S1                 1.0000
      4 ****        -2.7800  -1.6077   1.3776 C.3            1 S1                 0.0000
      5 ****        -2.1266  -0.2805   1.8088 C.3            1 S1                 0.0000
      6 ****        -2.1144   0.7271   0.6424 C.3            1 S1                 0.0000
      7 ****        -1.4969   2.0063   1.0115 N.pl3          1 S1                 0.0000
      8 ****        -2.0983   2.8291   2.0608 C.3            1 S1                 0.0000
      9 ****        -0.1434   2.0521   0.9027 C.ar           1 S1                 0.0000
     10 ****         0.6121   2.3027   2.0055 N.ar           1 S1                 0.0000
     11 ****         1.9452   2.3309   1.9192 C.ar           1 S1                 0.0000
     12 ****         2.7157   2.1345   0.8480 N.ar           1 S1                 0.0000
     13 ****         1.9652   1.8873  -0.2630 C.ar           1 S1                 0.0000
     14 ****         0.5440   1.8360  -0.3256 C.ar           1 S1                 0.0000
     15 ****         0.1377   1.5836  -1.6311 N.2            1 S1                 0.0000
     16 ****         1.2541   1.4783  -2.2985 C.2            1 S1                 0.0000
     17 ****         2.4006   1.6205  -1.5496 N.pl3          1 S1                 0.0000
     18 ****         3.7677   1.5504  -2.0358 C.3            1 S1                 0.0000
     19 ****         4.6289   0.4165  -1.4105 C.3            1 S1                 0.0000
     20 ****         6.0943   0.5748  -1.8834 C.3            1 S1                 0.0000
     21 ****         6.6548   1.7895  -1.4287 O.3            1 S1                 0.0000
     22 ****         4.0858  -1.0114  -1.7192 C.3            1 S1                 0.0000
     23 ****         4.9719  -2.1530  -1.2421 C.3            1 S1                 0.0000
     24 ****         4.0168  -3.3376  -1.2554 C.3            1 S1                 0.0000
     25 ****         2.7762  -2.8010  -0.8246 O.3            1 S1                 0.0000
     26 ****         2.7639  -1.3915  -1.0299 C.3            1 S1                 0.0000
     27 ****        -3.5318   0.8968   0.0608 C.3            1 S1                 0.0000
     28 ****        -4.1284  -0.4724  -0.3271 C.3            1 S1                 0.0000
     29 ****        -5.4835  -0.3426  -1.0456 C.3            1 S1                 0.0000
     30 ****        -6.2319  -1.9999   3.5456 H              1 S1                 0.0000
     31 ****        -4.5141  -2.3328   3.5630 H              1 S1                 0.0000
     32 ****        -5.5632  -3.1659   2.4112 H              1 S1                 0.0000
     33 ****        -6.1430  -0.9207   1.4149 H              1 S1                 0.0000
     34 ****        -4.9292  -0.1537   2.4004 H              1 S1                 0.0000
     35 ****        -2.7729  -2.3218   2.1992 H              1 S1                 0.0000
     36 ****        -2.1735  -2.0659   0.5948 H              1 S1                 0.0000
     37 ****        -2.6554   0.1307   2.6684 H              1 S1                 0.0000
     38 ****        -1.1063  -0.4717   2.1438 H              1 S1                 0.0000
     39 ****        -1.5193   0.2696  -0.1467 H              1 S1                 0.0000
     40 ****        -1.6353   3.8164   2.0907 H              1 S1                 0.0000
     41 ****        -1.9750   2.3655   3.0398 H              1 S1                 0.0000
     42 ****        -3.1625   2.9805   1.8864 H              1 S1                 0.0000
     43 ****         2.4697   2.5356   2.8409 H              1 S1                 0.0000
     44 ****         1.2713   1.2788  -3.3603 H              1 S1                 0.0000
     45 ****         3.7443   1.4403  -3.1208 H              1 S1                 0.0000
     46 ****         4.2166   2.5245  -1.8410 H              1 S1                 0.0000
     47 ****         4.6323   0.5383  -0.3267 H              1 S1                 0.0000
     48 ****         6.7287  -0.2195  -1.4931 H              1 S1                 0.0000
     49 ****         6.1582   0.5313  -2.9710 H              1 S1                 0.0000
     50 ****         7.5511   1.8369  -1.7244 H              1 S1                 0.0000
     51 ****         3.9577  -1.1178  -2.7978 H              1 S1                 0.0000
     52 ****         5.8400  -2.3239  -1.8792 H              1 S1                 0.0000
     53 ****         5.3212  -1.9673  -0.2250 H              1 S1                 0.0000
     54 ****         3.9022  -3.7248  -2.2686 H              1 S1                 0.0000
     55 ****         4.3473  -4.1535  -0.6123 H              1 S1                 0.0000
     56 ****         2.6757  -0.9133  -0.0538 H              1 S1                 0.0000
     57 ****         1.8941  -1.1138  -1.6237 H              1 S1                 0.0000
     58 ****        -4.1916   1.3940   0.7710 H              1 S1                 0.0000
     59 ****        -3.4860   1.5406  -0.8186 H              1 S1                 0.0000
     60 ****        -3.4534  -0.9266  -1.0547 H              1 S1                 0.0000
     61 ****        -5.3617   0.1707  -1.9999 H              1 S1                 0.0000
     62 ****        -6.2044   0.2350  -0.4670 H              1 S1                 0.0000
     63 ****        -5.9174  -1.3208  -1.2547 H              1 S1                 0.0000
     64 ****        -4.4404  -2.2975   0.4674 H              1 S1                 0.0000
     65 ****         0.1674   2.4668   2.8860 LP             1 S1                 0.0000
     66 ****         3.7152   2.1648   0.8586 LP             1 S1                 0.0000
     67 ****        -0.7962   1.5016  -1.9790 LP             1 S1                 0.0000
     68 ****         6.6275   1.8201  -0.4295 LP             1 S1                 0.0000
     69 ****         6.1363   2.5598  -1.8000 LP             1 S1                 0.0000
     70 ****         2.6497  -2.9961   0.1480 LP             1 S1                 0.0000
     71 ****         2.0338  -3.2193  -1.3478 LP             1 S1                 0.0000
@<TRIPOS>BOND
    1    1    2 1     
    2    1   30 1     
    3    1   31 1     
    4    1   32 1     
    5    2    3 1     
    6    2   33 1     
    7    2   34 1     
    8    3   28 1     
    9    3    4 1     
   10    3   64 1     
   11    4    5 1     
   12    4   35 1     
   13    4   36 1     
   14    5    6 1     
   15    5   37 1     
   16    5   38 1     
   17    6    7 1     
   18    6   27 1     
   19    6   39 1     
   20    7    8 1     
   21    7    9 1     
   22    8   40 1     
   23    8   41 1     
   24    8   42 1     
   25    9   14 ar    
   26    9   10 ar    
   27   10   11 ar    
   28   11   12 ar    
   29   11   43 1     
   30   12   13 ar    
   31   13   17 1     
   32   13   14 ar    
   33   14   15 1     
   34   15   16 2     
   35   16   17 1     
   36   16   44 1     
   37   17   18 1     
   38   18   19 1     
   39   18   45 1     
   40   18   46 1     
   41   19   20 1     
   42   19   22 1     
   43   19   47 1     
   44   20   21 1     
   45   20   48 1     
   46   20   49 1     
   47   21   50 1     
   48   22   26 1     
   49   22   23 1     
   50   22   51 1     
   51   23   24 1     
   52   23   52 1     
   53   23   53 1     
   54   24   25 1     
   55   24   54 1     
   56   24   55 1     
   57   25   26 1     
   58   26   56 1     
   59   26   57 1     
   60   27   28 1     
   61   27   58 1     
   62   27   59 1     
   63   28   29 1     
   64   28   60 1     
   65   29   61 1     
   66   29   62 1     
   67   29   63 1     
   68   10   65 1     
   69   12   66 1     
   70   15   67 1     
   71   21   68 1     
   72   21   69 1     
   73   25   70 1     
   74   25   71 1     
@<TRIPOS>SUBSTRUCTURE
      1 S1             1
@<TRIPOS>SET
LONE_PAIRS      STATIC     ATOMS    <user>   **** ""
7 65 66 67 68 69 70 71
DONOR_HYDROGENS      STATIC     ATOMS    <user>   **** ""
2 64 50
ATOM$BLUE        STATIC     ATOMS    COLORGROUP SYSTEM
7 65 66 67 68 69 70 71
ATOM$RED        STATIC     ATOMS    COLORGROUP SYSTEM
2 64 50
