AV-unprocessed.smi:2893|AV-procd|sdf|11125|dock2
  -GOLD-   2272015593D 1   1.00000     0.00000
 Structure written by MMmdl.
 37 39  0  0  0  0  0  0  0  0  1 V2000
  153.9090  129.3283  156.8034 C   0  0  0  0  0  0  0  0  0  0  0  0
  152.5661  129.6497  157.4724 C   0  0  0  0  0  0  0  0  0  0  0  0
  151.6468  130.2995  156.5459 N   0  0  0  0  0  0  0  0  0  0  0  0
  151.1368  131.5340  156.6963 C   0  0  0  0  0  0  0  0  0  0  0  0
  151.4083  132.2643  157.6504 O   0  0  0  0  0  0  0  0  0  0  0  0
  150.2277  132.0087  155.5940 C   0  0  0  0  0  0  0  0  0  0  0  0
  149.5913  131.0743  154.7483 C   0  0  0  0  0  0  0  0  0  0  0  0
  148.7633  131.5704  153.7269 C   0  0  0  0  0  0  0  0  0  0  0  0
  148.6287  132.9669  153.6136 C   0  0  0  0  0  0  0  0  0  0  0  0
  147.8100  133.4892  152.6025 N   0  0  0  0  0  0  0  0  0  0  0  0
  146.6180  132.7772  152.1547 C   0  0  1  0  0  0  0  0  0  0  0  0
  145.3227  133.3266  152.7666 C   0  0  0  0  0  0  0  0  0  0  0  0
  144.4968  133.6566  151.5175 C   0  0  2  0  0  0  0  0  0  0  0  0
  144.0535  132.3958  150.7628 C   0  0  0  0  0  0  0  0  0  0  0  0
  145.3633  131.9389  150.1214 C   0  0  0  0  0  0  0  0  0  0  0  0
  146.3561  132.9815  150.6528 C   0  0  1  0  0  0  0  0  0  0  0  0
  145.5224  134.1292  150.6625 O   0  0  0  0  0  0  0  0  0  0  0  0
  149.2669  133.8164  154.4555 N   0  0  0  0  0  0  0  0  0  0  0  0
  150.0556  133.3448  155.4266 N   0  0  0  0  0  0  0  0  0  0  0  0
  154.5959  128.8704  157.5153 H   0  0  0  0  0  0  0  0  0  0  0  0
  154.3835  130.2312  156.4179 H   0  0  0  0  0  0  0  0  0  0  0  0
  153.7832  128.6336  155.9724 H   0  0  0  0  0  0  0  0  0  0  0  0
  152.1165  128.7421  157.8787 H   0  0  0  0  0  0  0  0  0  0  0  0
  152.7276  130.3202  158.3166 H   0  0  0  0  0  0  0  0  0  0  0  0
  151.3747  129.7759  155.7260 H   0  0  0  0  0  0  0  0  0  0  0  0
  149.7278  130.0099  154.8728 H   0  0  0  0  0  0  0  0  0  0  0  0
  148.2518  130.8985  153.0532 H   0  0  0  0  0  0  0  0  0  0  0  0
  147.9325  134.4486  152.3124 H   0  0  0  0  0  0  0  0  0  0  0  0
  146.7385  131.7134  152.3643 H   0  0  0  0  0  0  0  0  0  0  0  0
  144.8269  132.6050  153.4165 H   0  0  0  0  0  0  0  0  0  0  0  0
  145.5037  134.2334  153.3461 H   0  0  0  0  0  0  0  0  0  0  0  0
  143.6943  134.3729  151.6947 H   0  0  0  0  0  0  0  0  0  0  0  0
  143.6224  131.6463  151.4276 H   0  0  0  0  0  0  0  0  0  0  0  0
  143.3169  132.6387  149.9963 H   0  0  0  0  0  0  0  0  0  0  0  0
  145.6387  130.9201  150.3962 H   0  0  0  0  0  0  0  0  0  0  0  0
  145.2935  131.9919  149.0343 H   0  0  0  0  0  0  0  0  0  0  0  0
  147.2556  133.0767  150.0433 H   0  0  0  0  0  0  0  0  0  0  0  0
  1  2  1  0  0  0  0
  1 20  1  0  0  0  0
  1 21  1  0  0  0  0
  1 22  1  0  0  0  0
  2  3  1  0  0  0  0
  2 23  1  0  0  0  0
  2 24  1  0  0  0  0
  3  4  1  0  0  0  0
  3 25  1  0  0  0  0
  4  5  2  0  0  0  0
  4  6  1  0  0  0  0
  6 19  1  0  0  0  0
  6  7  2  0  0  0  0
  7  8  1  0  0  0  0
  7 26  1  0  0  0  0
  8  9  2  0  0  0  0
  8 27  1  0  0  0  0
  9 10  1  0  0  0  0
  9 18  1  0  0  0  0
 10 11  1  0  0  0  0
 10 28  1  0  0  0  0
 11 16  1  0  0  0  0
 11 12  1  0  0  0  0
 11 29  1  0  0  0  0
 12 13  1  0  0  0  0
 12 30  1  0  0  0  0
 12 31  1  0  0  0  0
 13 17  1  0  0  0  0
 13 14  1  0  0  0  0
 13 32  1  0  0  0  0
 14 15  1  0  0  0  0
 14 33  1  0  0  0  0
 14 34  1  0  0  0  0
 15 16  1  0  0  0  0
 15 35  1  0  0  0  0
 15 36  1  0  0  0  0
 16 17  1  0  0  0  0
 16 37  1  0  0  0  0
 18 19  2  0  0  0  0
M  END
> <s_m_source_file>
AV-unprocessed.smi

> <i_m_source_file_index>
2893

> <i_lp_mmshare_version>
43012

> <i_f3d_flags>
0

> <s_epik_input>
W0NIM11bQ0gyXVtOSF1DKD1PKWMxW2NIXVtjSF1jKG5uMSlbTkhdW0NASF0oW0NIMl1bQ0BASF0yMylbQ0BASF0oTzMpW0NIMl1bQ0gyXTI=

> <s_epik_cmdline>
J2VwaWtfcHl0aG9uJywgJy1waCcsICc3LjAnLCAnLXRuJywgJzgnLCAnLW1hJywgJzIwMCcsICctbWV0YWxfYmluZGluZycsICctaW1hZScsICc8aW5maWxlLm1hZT4nLCAnLW9tYWUnLCAnPG91dGZpbGUubWFlPic=

> <r_lp_tautomer_probability>
1

> <r_epik_Ionization_Penalty>
0.00432031

> <r_epik_Ionization_Penalty_Charging>
0

> <r_epik_Ionization_Penalty_Neutral>
0.00432031

> <r_epik_State_Penalty>
-0

> <r_epik_Charging_Adjusted_Penalty>
0

> <i_epik_Tot_Q>
0

> <i_epik_Tot_abs_Q>
0

> <r_epik_Metal_State_Penalty>
-0

> <b_epik_Metal_Only>
0

> <s_lp_Force_Field>
OPLS_2005

> <r_lp_Energy>
49.39

> <b_lp_Chiralities_Consistent>
1

> <s_lp_Variant>
AV-unprocessed.smi:2893-4

> <Gold.Version>
5.8.1

> <Gold.Id.Protein>
6NUR|6NUR_protein|mol2

> <Gold.PLP.Fitness>
35.9003

> <Gold.PLP.PLP>
-31.7147

> <Gold.PLP.part.hbond>
-2.0000

> <Gold.PLP.part.metal>
0.0000

> <Gold.PLP.part.buried>
-5.8242

> <Gold.PLP.part.nonpolar>
-24.3431

> <Gold.PLP.part.repulsive>
0.3731

> <Gold.PLP.ligand.clash>
0.0000

> <Gold.PLP.ligand.torsion>
0.7384

> <Gold.PLP.Chemscore.Hbond>
1.8800

> <Gold.PLP.Chemscore.CHOScore>
0.0000

> <Gold.PLP.Chemscore.Metal>
0.0000

> <Gold.Chemscore.Hbonds>
donor molecule, donor type, donor heavy atom, donor atom, acceptor molecule, acceptor atom, score
      L1  H    10    28       P1  7948  0.94
      P1  H  6896  6907       L1     5  1.00

> <Gold.PLP.Chemscore.Internal.Correction>
0.0224

> <Gold.Rescore>
     Score         DG    S(hbond)    S(metal)    S(lipo)     H(rot)  DE(clash)    DE(int)     intcor
     14.81     -15.86       1.65        0.00      68.00       1.21       0.11       0.94       ----

> <Gold.Chemscore.Fitness>
14.8111

> <Gold.Chemscore.DG>
-15.8596

> <Gold.Chemscore.ZeroCoef>
-5.4800

> <Gold.Chemscore.Hbond>
1.6502

> <Gold.Chemscore.Metal>
0.0000

> <Gold.Chemscore.Lipo>
67.9972

> <Gold.Chemscore.Internal_Hbond>
0.0000

> <Gold.Chemscore.DEClash>
0.1103

> <Gold.Chemscore.DEInternal>
0.9382

> <Gold.Chemscore.Rot>
1.2061

> <Gold.Chemscore.Internal.Correction>
   9.000000E+99

> <Gold.Chemscore.Hbonds>
donor molecule, donor type, donor heavy atom, donor atom, acceptor molecule, acceptor atom, score
      L1  H    10    28       P1  7948  0.31
      P1  H  6896  6907       L1     5  0.97

> <Gold.Chemscore.Hbond.Weighted>
-5.5115

> <Gold.Chemscore.Metal.Weighted>
-0.0000

> <Gold.Chemscore.Lipo.Weighted>
-7.9557

> <Gold.Chemscore.Internal_Hbond.Weighted>
0.0000

> <Gold.Chemscore.DEClash.Weighted>
0.1103

> <Gold.Chemscore.DEInternal.Weighted>
0.9382

> <Gold.Chemscore.Rot.Weighted>
3.0876

> <Gold.Chemscore.Internal.Correction.Weighted>
   9.000000E+99

> <Gold.Protein.RotatedTorsions>
[ 6907 6896 6895 6894 ] final  177.52 input  -60.11 | X-H torsion
[ 7974 7965 7964 7962 ] final   45.16 input  175.53 | X-H torsion
[ 8008 7997 7996 7995 ] final  -89.10 input   59.86 | X-H torsion
[ 10167 10162 10161 10158 ] final  -73.01 input  -65.29 | X-H torsion
[ 10718 10713 10712 10709 ] final   38.79 input   66.30 | X-H torsion
[ 10763 10752 10751 10750 ] final -115.52 input  -60.55 | X-H torsion
[ 11005 11000 10999 10996 ] final -126.43 input  -57.11 | X-H torsion

> <Gold.Protein.ActiveResidues>
 VAL166  LYS551  ARG553  GLY616  TRP617  ASP618  TYR619  PRO620  LYS621  CYS622 
 ASP623  PHE694  ASN695  SER759  ASP760  ASP761  ALA762  ILE779  LEU786  VAL792 
 PHE793  MET794  SER795  GLU796  ALA797  LYS798  CYS799  TRP800  GLU811  SER814 

> <Gold.Protein.RotatedAtoms>
  151.7027  133.3311  159.3270 H   0  0  0  0  0  0  0  0  0  0  0  0  # atno 6907 bound_to 6896
  150.7729  134.6601  159.6344 H   0  0  0  0  0  0  0  0  0  0  0  0  # atno 6908 bound_to 6896
  152.3760  134.6666  160.0211 H   0  0  0  0  0  0  0  0  0  0  0  0  # atno 6909 bound_to 6896
  146.0504  139.4994  142.9722 H   0  0  0  0  0  0  0  0  0  0  0  0  # atno 7974 bound_to 7965
  154.6825  140.0546  157.0281 H   0  0  0  0  0  0  0  0  0  0  0  0  # atno 8008 bound_to 7997
  155.0931  140.3221  155.4549 H   0  0  0  0  0  0  0  0  0  0  0  0  # atno 8009 bound_to 7997
  156.2699  140.2044  156.6058 H   0  0  0  0  0  0  0  0  0  0  0  0  # atno 8010 bound_to 7997
  140.5145  143.2340  151.7536 H   0  0  0  0  0  0  0  0  0  0  0  0  # atno 10167 bound_to 10162
  157.3629  130.7659  149.7061 H   0  0  0  0  0  0  0  0  0  0  0  0  # atno 10718 bound_to 10713
  154.8484  135.4378  154.1677 H   0  0  0  0  0  0  0  0  0  0  0  0  # atno 10763 bound_to 10752
  153.2798  135.6952  153.7403 H   0  0  0  0  0  0  0  0  0  0  0  0  # atno 10764 bound_to 10752
  153.6611  135.3435  155.3102 H   0  0  0  0  0  0  0  0  0  0  0  0  # atno 10765 bound_to 10752
  140.9682  134.0842  157.3897 H   0  0  0  0  0  0  0  0  0  0  0  0  # atno 11005 bound_to 11000
  145.6733  141.0210  143.1645 LP  0  0  0  0  0  0  0  0  0  0  0  0  # atno 17320 bound_to 7965
  144.7120  139.8336  143.7411 LP  0  0  0  0  0  0  0  0  0  0  0  0  # atno 17321 bound_to 7965
  139.4905  144.4343  151.9836 LP  0  0  0  0  0  0  0  0  0  0  0  0  # atno 17342 bound_to 10162
  140.3437  144.3172  150.5962 LP  0  0  0  0  0  0  0  0  0  0  0  0  # atno 17343 bound_to 10162
  155.9741  130.4109  150.3952 LP  0  0  0  0  0  0  0  0  0  0  0  0  # atno 17370 bound_to 10713
  157.2032  131.0443  151.2639 LP  0  0  0  0  0  0  0  0  0  0  0  0  # atno 17371 bound_to 10713
  139.8902  135.0110  156.6724 LP  0  0  0  0  0  0  0  0  0  0  0  0  # atno 17394 bound_to 11000
  140.7368  133.9012  155.8249 LP  0  0  0  0  0  0  0  0  0  0  0  0  # atno 17395 bound_to 11000

$$$$
