#       Name:                AV-unprocessed.smi:528
#       Creating user name   scv26
#       Creation time:       Thu Mar 26 23:32:04 2020


#       File generated by GOLD software.
#

@<TRIPOS>MOLECULE
AV-unprocessed.smi:528
    49    51     1
SMALL
NO_CHARGES


@<TRIPOS>ATOM
      1 ****        -2.0577  -1.7250   1.3276 C.3            1 S1                 0.0000
      2 ****        -1.4998  -0.9639   0.1125 C.3            1 S1                 0.0000
      3 ****        -0.0389  -0.9897   0.1435 N.am           1 S1                 0.0000
      4 ****         0.7444  -0.1347   0.8189 C.2            1 S1                 0.0000
      5 ****         0.3030   0.7721   1.5262 O.2            1 S1                 0.0000
      6 ****         2.2565  -0.3625   0.6814 C.3            1 S1                 0.0000
      7 ****         3.0612   0.8154   1.0468 N.am           1 S1                 0.0000
      8 ****         3.6109   0.8403   2.3439 C.2            1 S1                 0.0000
      9 ****         4.3547   1.8641   2.8052 C.2            1 S1                 0.0000
     10 ****         4.9781   1.8395   4.1921 C.3            1 S1                 0.0000
     11 ****         6.1092   2.5445   4.2221 F              1 S1                 0.0000
     12 ****         4.1354   2.3693   5.0772 F              1 S1                 0.0000
     13 ****         5.2523   0.5919   4.5753 F              1 S1                 0.0000
     14 ****         4.6004   2.9517   1.8787 C.2            1 S1                 0.0000
     15 ****         4.0854   2.9419   0.6336 C.2            1 S1                 0.0000
     16 ****         3.2583   1.8321   0.1547 C.2            1 S1                 0.0000
     17 ****         2.7747   1.8159  -0.9776 O.2            1 S1                 0.0000
     18 ****        -1.9907  -1.5554  -1.2301 C.3            1 S1                 0.0000
     19 ****        -1.5081  -0.7968  -2.4883 C.3            1 S1                 0.0000
     20 ****        -2.8052  -0.6016  -3.2948 C.3            1 S1                 0.0000
     21 ****        -3.6564   0.4894  -2.6203 C.3            1 S1                 0.0000
     22 ****        -4.1772  -0.2217  -1.3580 C.3            1 S1                 0.0000
     23 ****        -3.5225  -1.6156  -1.4545 C.3            1 S1                 0.0000
     24 ****        -3.5882  -1.8655  -2.9581 C.3            1 S1                 0.0000
     25 ****        -3.1460  -1.6747   1.3610 H              1 S1                 0.0000
     26 ****        -1.6882  -1.3027   2.2625 H              1 S1                 0.0000
     27 ****        -1.7732  -2.7773   1.3022 H              1 S1                 0.0000
     28 ****        -1.8201   0.0764   0.1772 H              1 S1                 0.0000
     29 ****         0.4116  -1.7080  -0.4049 H              1 S1                 0.0000
     30 ****         2.5274  -1.2195   1.2995 H              1 S1                 0.0000
     31 ****         2.4839  -0.6669  -0.3421 H              1 S1                 0.0000
     32 ****         3.3844  -0.0285   2.9449 H              1 S1                 0.0000
     33 ****         5.2029   3.7924   2.1898 H              1 S1                 0.0000
     34 ****         4.2857   3.7716  -0.0284 H              1 S1                 0.0000
     35 ****        -1.6160  -2.5790  -1.2941 H              1 S1                 0.0000
     36 ****        -1.0320   0.1571  -2.2573 H              1 S1                 0.0000
     37 ****        -0.7876  -1.3985  -3.0437 H              1 S1                 0.0000
     38 ****        -2.6378  -0.4297  -4.3583 H              1 S1                 0.0000
     39 ****        -3.0757   1.3824  -2.3861 H              1 S1                 0.0000
     40 ****        -4.4864   0.7887  -3.2616 H              1 S1                 0.0000
     41 ****        -3.9356   0.3115  -0.4396 H              1 S1                 0.0000
     42 ****        -5.2635  -0.3111  -1.3998 H              1 S1                 0.0000
     43 ****        -4.0227  -2.3743  -0.8521 H              1 S1                 0.0000
     44 ****        -4.6051  -1.8632  -3.3552 H              1 S1                 0.0000
     45 ****        -3.0855  -2.7826  -3.2703 H              1 S1                 0.0000
     46 ****        -0.6847   0.8987   1.6183 LP             1 S1                 0.0000
     47 ****         0.9323   1.3817   2.0082 LP             1 S1                 0.0000
     48 ****         2.2160   1.0404  -1.2717 LP             1 S1                 0.0000
     49 ****         2.9407   2.5782  -1.6032 LP             1 S1                 0.0000
@<TRIPOS>BOND
    1    1    2 1     
    2    1   25 1     
    3    1   26 1     
    4    1   27 1     
    5    2    3 1     
    6    2   18 1     
    7    2   28 1     
    8    3    4 am    
    9    3   29 1     
   10    4    5 2     
   11    4    6 1     
   12    6    7 1     
   13    6   30 1     
   14    6   31 1     
   15    7   16 am    
   16    7    8 1     
   17    8    9 2     
   18    8   32 1     
   19    9   10 1     
   20    9   14 1     
   21   10   11 1     
   22   10   12 1     
   23   10   13 1     
   24   14   15 2     
   25   14   33 1     
   26   15   16 1     
   27   15   34 1     
   28   16   17 2     
   29   18   23 1     
   30   18   19 1     
   31   18   35 1     
   32   19   20 1     
   33   19   36 1     
   34   19   37 1     
   35   20   24 1     
   36   20   21 1     
   37   20   38 1     
   38   21   22 1     
   39   21   39 1     
   40   21   40 1     
   41   22   23 1     
   42   22   41 1     
   43   22   42 1     
   44   23   24 1     
   45   23   43 1     
   46   24   44 1     
   47   24   45 1     
   48    5   46 1     
   49    5   47 1     
   50   17   48 1     
   51   17   49 1     
@<TRIPOS>SUBSTRUCTURE
      1 S1             1
@<TRIPOS>SET
LONE_PAIRS      STATIC     ATOMS    <user>   **** ""
4 46 47 48 49
DONOR_HYDROGENS      STATIC     ATOMS    <user>   **** ""
1 29
ATOM$BLUE        STATIC     ATOMS    COLORGROUP SYSTEM
4 46 47 48 49
ATOM$RED        STATIC     ATOMS    COLORGROUP SYSTEM
1 29
