AV-unprocessed.smi:1188|AV-procd|sdf|4977|dock6
  -GOLD-   22720 3573D 1   1.00000     0.00000
 Structure written by MMmdl.
 48 49  0  0  0  0  0  0  0  0  1 V2000
  154.8045  137.5989  162.9721 C   0  0  0  0  0  0  0  0  0  0  0  0
  155.2890  138.7190  162.9305 C   0  0  0  0  0  0  0  0  0  0  0  0
  155.8640  140.0718  162.8944 C   0  0  0  0  0  0  0  0  0  0  0  0
  154.9318  141.0380  162.3333 N   0  0  0  0  0  0  0  0  0  0  0  0
  154.2548  140.8723  161.1838 C   0  0  0  0  0  0  0  0  0  0  0  0
  154.3841  139.8559  160.5001 O   0  0  0  0  0  0  0  0  0  0  0  0
  153.3715  141.9901  160.8393 C   0  0  0  0  0  0  0  0  0  0  0  0
  152.9840  142.9296  161.8737 C   0  0  0  0  0  0  0  0  0  0  0  0
  152.1847  143.9766  161.5906 C   0  0  0  0  0  0  0  0  0  0  0  0
  151.6711  144.2097  160.2381 C   0  0  0  0  0  0  0  0  0  0  0  0
  150.9454  145.1680  159.9708 O   0  0  0  0  0  0  0  0  0  0  0  0
  152.0478  143.2950  159.2937 N   0  0  0  0  0  0  0  0  0  0  0  0
  151.5887  143.4228  157.9003 C   0  0  0  0  0  0  0  0  0  0  0  0
  150.7962  142.2022  157.4112 C   0  0  0  0  0  0  0  0  0  0  0  0
  151.2501  141.0642  157.5380 O   0  0  0  0  0  0  0  0  0  0  0  0
  149.5964  142.4587  156.8687 N   0  0  0  0  0  0  0  0  0  0  0  0
  148.6808  141.4528  156.3434 C   0  0  0  0  0  0  0  0  0  0  0  0
  148.2439  141.7804  154.9042 C   0  0  0  0  0  0  0  0  0  0  0  0
  147.6921  140.5712  154.1672 C   0  0  0  0  0  0  0  0  0  0  0  0
  147.4085  140.6067  152.8504 C   0  0  0  0  0  0  0  0  0  0  0  0
  146.8412  139.4354  152.0674 C   0  0  0  0  0  0  0  0  0  0  0  0
  146.3024  138.3242  152.9842 C   0  0  0  0  0  0  0  0  0  0  0  0
  147.2636  138.0531  154.1482 C   0  0  0  0  0  0  0  0  0  0  0  0
  147.4773  139.3147  155.0039 C   0  0  0  0  0  0  0  0  0  0  0  0
  152.8906  142.2062  159.5948 C   0  0  0  0  0  0  0  0  0  0  0  0
  154.3777  136.6216  163.0080 H   0  0  0  0  0  0  0  0  0  0  0  0
  156.1341  140.3578  163.9117 H   0  0  0  0  0  0  0  0  0  0  0  0
  156.7781  140.0370  162.3000 H   0  0  0  0  0  0  0  0  0  0  0  0
  154.7852  141.8901  162.8545 H   0  0  0  0  0  0  0  0  0  0  0  0
  153.3357  142.8028  162.8875 H   0  0  0  0  0  0  0  0  0  0  0  0
  151.9140  144.6626  162.3798 H   0  0  0  0  0  0  0  0  0  0  0  0
  150.9584  144.3052  157.7825 H   0  0  0  0  0  0  0  0  0  0  0  0
  152.4409  143.5935  157.2393 H   0  0  0  0  0  0  0  0  0  0  0  0
  149.2981  143.4215  156.8104 H   0  0  0  0  0  0  0  0  0  0  0  0
  149.1464  140.4674  156.3960 H   0  0  0  0  0  0  0  0  0  0  0  0
  147.8081  141.4204  156.9964 H   0  0  0  0  0  0  0  0  0  0  0  0
  147.4869  142.5661  154.9249 H   0  0  0  0  0  0  0  0  0  0  0  0
  149.0833  142.1794  154.3333 H   0  0  0  0  0  0  0  0  0  0  0  0
  147.5924  141.5085  152.2847 H   0  0  0  0  0  0  0  0  0  0  0  0
  146.0475  139.7922  151.4106 H   0  0  0  0  0  0  0  0  0  0  0  0
  147.6322  139.0445  151.4267 H   0  0  0  0  0  0  0  0  0  0  0  0
  145.3313  138.6201  153.3834 H   0  0  0  0  0  0  0  0  0  0  0  0
  146.1349  137.4136  152.4084 H   0  0  0  0  0  0  0  0  0  0  0  0
  146.8866  137.2410  154.7707 H   0  0  0  0  0  0  0  0  0  0  0  0
  148.2218  137.7169  153.7501 H   0  0  0  0  0  0  0  0  0  0  0  0
  148.3317  139.1654  155.6653 H   0  0  0  0  0  0  0  0  0  0  0  0
  146.6079  139.4747  155.6423 H   0  0  0  0  0  0  0  0  0  0  0  0
  153.1135  141.5808  158.7422 H   0  0  0  0  0  0  0  0  0  0  0  0
  1  2  3  0  0  0  0
  1 26  1  0  0  0  0
  2  3  1  0  0  0  0
  3  4  1  0  0  0  0
  3 27  1  0  0  0  0
  3 28  1  0  0  0  0
  4  5  1  0  0  0  0
  4 29  1  0  0  0  0
  5  6  2  0  0  0  0
  5  7  1  0  0  0  0
  7 25  2  0  0  0  0
  7  8  1  0  0  0  0
  8  9  2  0  0  0  0
  8 30  1  0  0  0  0
  9 10  1  0  0  0  0
  9 31  1  0  0  0  0
 10 11  2  0  0  0  0
 10 12  1  0  0  0  0
 12 13  1  0  0  0  0
 12 25  1  0  0  0  0
 13 14  1  0  0  0  0
 13 32  1  0  0  0  0
 13 33  1  0  0  0  0
 14 15  2  0  0  0  0
 14 16  1  0  0  0  0
 16 17  1  0  0  0  0
 16 34  1  0  0  0  0
 17 18  1  0  0  0  0
 17 35  1  0  0  0  0
 17 36  1  0  0  0  0
 18 19  1  0  0  0  0
 18 37  1  0  0  0  0
 18 38  1  0  0  0  0
 19 24  1  0  0  0  0
 19 20  2  0  0  0  0
 20 21  1  0  0  0  0
 20 39  1  0  0  0  0
 21 22  1  0  0  0  0
 21 40  1  0  0  0  0
 21 41  1  0  0  0  0
 22 23  1  0  0  0  0
 22 42  1  0  0  0  0
 22 43  1  0  0  0  0
 23 24  1  0  0  0  0
 23 44  1  0  0  0  0
 23 45  1  0  0  0  0
 24 46  1  0  0  0  0
 24 47  1  0  0  0  0
 25 48  1  0  0  0  0
M  END
> <s_m_source_file>
AV-unprocessed.smi

> <i_m_source_file_index>
1188

> <i_lp_mmshare_version>
43012

> <i_f3d_flags>
0

> <s_epik_input>
W0NIXSNDW0NIMl1bTkhdQyg9TyljMVtjSF1bY0hdYyg9TyluKFtjSF0xKVtDSDJdQyg9TylbTkhdW0NIMl1bQ0gyXUMyPVtDSF1bQ0gyXVtDSDJdW0NIMl1bQ0gyXTI=

> <s_epik_cmdline>
J2VwaWtfcHl0aG9uJywgJy1waCcsICc3LjAnLCAnLXRuJywgJzgnLCAnLW1hJywgJzIwMCcsICctbWV0YWxfYmluZGluZycsICctaW1hZScsICc8aW5maWxlLm1hZT4nLCAnLW9tYWUnLCAnPG91dGZpbGUubWFlPic=

> <r_lp_tautomer_probability>
1

> <r_epik_Ionization_Penalty>
3.04448e-06

> <r_epik_Ionization_Penalty_Charging>
4.20752e-08

> <r_epik_Ionization_Penalty_Neutral>
3.00241e-06

> <r_epik_State_Penalty>
-0

> <r_epik_Charging_Adjusted_Penalty>
4.20752e-08

> <i_epik_Tot_Q>
0

> <i_epik_Tot_abs_Q>
0

> <r_epik_Metal_State_Penalty>
-0

> <b_epik_Metal_Only>
0

> <s_lp_Force_Field>
OPLS_2005

> <r_lp_Energy>
18.5418

> <b_lp_Chiralities_Consistent>
1

> <s_lp_Variant>
AV-unprocessed.smi:1188-1

> <Gold.Version>
5.8.1

> <Gold.Id.Protein>
6NUR|6NUR_protein|mol2

> <Gold.PLP.Fitness>
54.0644

> <Gold.PLP.PLP>
-51.8727

> <Gold.PLP.part.hbond>
-2.0000

> <Gold.PLP.part.metal>
0.0000

> <Gold.PLP.part.buried>
-3.5973

> <Gold.PLP.part.nonpolar>
-46.4540

> <Gold.PLP.part.repulsive>
0.1817

> <Gold.PLP.ligand.clash>
0.0000

> <Gold.PLP.ligand.torsion>
0.4533

> <Gold.PLP.Chemscore.Hbond>
0.9760

> <Gold.PLP.Chemscore.CHOScore>
0.0000

> <Gold.PLP.Chemscore.Metal>
0.0000

> <Gold.Chemscore.Hbonds>
donor molecule, donor type, donor heavy atom, donor atom, acceptor molecule, acceptor atom, score
      L1  H    16    34       P1  8028  0.88

> <Gold.PLP.Chemscore.Internal.Correction>
0.1702

> <Gold.Rescore>
     Score         DG    S(hbond)    S(metal)    S(lipo)     H(rot)  DE(clash)    DE(int)     intcor
     15.50     -17.25       0.91        0.00     117.61       1.97       0.05       1.70       ----

> <Gold.Chemscore.Fitness>
15.4982

> <Gold.Chemscore.DG>
-17.2488

> <Gold.Chemscore.ZeroCoef>
-5.4800

> <Gold.Chemscore.Hbond>
0.9132

> <Gold.Chemscore.Metal>
0.0000

> <Gold.Chemscore.Lipo>
117.6080

> <Gold.Chemscore.Internal_Hbond>
0.0000

> <Gold.Chemscore.DEClash>
0.0529

> <Gold.Chemscore.DEInternal>
1.6977

> <Gold.Chemscore.Rot>
1.9694

> <Gold.Chemscore.Internal.Correction>
   9.000000E+99

> <Gold.Chemscore.Hbonds>
donor molecule, donor type, donor heavy atom, donor atom, acceptor molecule, acceptor atom, score
      L1  H    16    34       P1  8028  0.83

> <Gold.Chemscore.Hbond.Weighted>
-3.0502

> <Gold.Chemscore.Metal.Weighted>
-0.0000

> <Gold.Chemscore.Lipo.Weighted>
-13.7601

> <Gold.Chemscore.Internal_Hbond.Weighted>
0.0000

> <Gold.Chemscore.DEClash.Weighted>
0.0529

> <Gold.Chemscore.DEInternal.Weighted>
1.6977

> <Gold.Chemscore.Rot.Weighted>
5.0416

> <Gold.Chemscore.Internal.Correction.Weighted>
   9.000000E+99

> <Gold.Protein.RotatedTorsions>
[ 6907 6896 6895 6894 ] final   31.93 input  -60.11 | X-H torsion
[ 7974 7965 7964 7962 ] final   62.14 input  175.53 | X-H torsion
[ 8008 7997 7996 7995 ] final  121.75 input   59.86 | X-H torsion
[ 10167 10162 10161 10158 ] final   84.77 input  -65.29 | X-H torsion
[ 10718 10713 10712 10709 ] final -175.50 input   66.30 | X-H torsion
[ 10763 10752 10751 10750 ] final  -43.70 input  -60.55 | X-H torsion
[ 11005 11000 10999 10996 ] final -104.31 input  -57.11 | X-H torsion

> <Gold.Protein.ActiveResidues>
 VAL166  LYS551  ARG553  GLY616  TRP617  ASP618  TYR619  PRO620  LYS621  CYS622 
 ASP623  PHE694  ASN695  SER759  ASP760  ASP761  ALA762  ILE779  LEU786  VAL792 
 PHE793  MET794  SER795  GLU796  ALA797  LYS798  CYS799  TRP800  GLU811  SER814 

> <Gold.Protein.RotatedAtoms>
  152.0672  134.9556  160.0574 H   0  0  0  0  0  0  0  0  0  0  0  0  # atno 6907 bound_to 6896
  152.0897  133.4189  159.4546 H   0  0  0  0  0  0  0  0  0  0  0  0  # atno 6908 bound_to 6896
  150.6836  134.2806  159.4669 H   0  0  0  0  0  0  0  0  0  0  0  0  # atno 6909 bound_to 6896
  145.8767  139.3415  143.0730 H   0  0  0  0  0  0  0  0  0  0  0  0  # atno 7974 bound_to 7965
  156.2699  140.2801  156.1358 H   0  0  0  0  0  0  0  0  0  0  0  0  # atno 8008 bound_to 7997
  155.1006  140.0389  157.2713 H   0  0  0  0  0  0  0  0  0  0  0  0  # atno 8009 bound_to 7997
  154.6818  140.2610  155.6906 H   0  0  0  0  0  0  0  0  0  0  0  0  # atno 8010 bound_to 7997
  139.9046  144.6309  150.8601 H   0  0  0  0  0  0  0  0  0  0  0  0  # atno 10167 bound_to 10162
  156.8008  130.9551  151.3118 H   0  0  0  0  0  0  0  0  0  0  0  0  # atno 10718 bound_to 10713
  153.9999  135.6695  153.4758 H   0  0  0  0  0  0  0  0  0  0  0  0  # atno 10763 bound_to 10752
  153.0667  135.4997  154.8211 H   0  0  0  0  0  0  0  0  0  0  0  0  # atno 10764 bound_to 10752
  154.7059  135.3088  154.9234 H   0  0  0  0  0  0  0  0  0  0  0  0  # atno 10765 bound_to 10752
  141.1106  133.8713  157.1595 H   0  0  0  0  0  0  0  0  0  0  0  0  # atno 11005 bound_to 11000
  145.9072  140.9204  143.0472 LP  0  0  0  0  0  0  0  0  0  0  0  0  # atno 17320 bound_to 7965
  144.6726  140.1112  143.7455 LP  0  0  0  0  0  0  0  0  0  0  0  0  # atno 17321 bound_to 7965
  140.7699  143.3411  151.2206 LP  0  0  0  0  0  0  0  0  0  0  0  0  # atno 17342 bound_to 10162
  139.6996  143.9556  152.2899 LP  0  0  0  0  0  0  0  0  0  0  0  0  # atno 17343 bound_to 10162
  157.6554  130.8920  149.9719 LP  0  0  0  0  0  0  0  0  0  0  0  0  # atno 17370 bound_to 10713
  156.1102  130.3650  150.0062 LP  0  0  0  0  0  0  0  0  0  0  0  0  # atno 17371 bound_to 10713
  139.9998  135.0032  157.0165 LP  0  0  0  0  0  0  0  0  0  0  0  0  # atno 17394 bound_to 11000
  140.4785  134.1314  155.7213 LP  0  0  0  0  0  0  0  0  0  0  0  0  # atno 17395 bound_to 11000

$$$$
