AV-unprocessed.smi:652|AV-procd|sdf|3195|dock10
  -GOLD-   22720 0123D 1   1.00000     0.00000
 Structure written by MMmdl.
 48 49  0  0  0  0  0  0  0  0  2 V2000
  152.6740  141.6016  160.0405 C   0  0  0  0  0  0  0  0  0  0  0  0
  152.4009  142.3812  158.7443 C   0  0  0  0  0  0  0  0  0  0  0  0
  151.9746  143.8264  159.0337 C   0  0  0  0  0  0  0  0  0  0  0  0
  151.3664  141.7179  157.9549 N   0  0  0  0  0  0  0  0  0  0  0  0
  151.5030  140.5388  157.3279 C   0  0  0  0  0  0  0  0  0  0  0  0
  152.5395  139.8746  157.3571 O   0  0  0  0  0  0  0  0  0  0  0  0
  150.2818  140.0436  156.5460 C   0  0  0  0  0  0  0  0  0  0  0  0
  150.5691  139.8439  155.0432 C   0  0  0  0  0  0  0  0  0  0  0  0
  149.3986  140.1656  154.1885 N   0  3  2  0  0  0  0  0  0  0  0  0
  148.7396  141.4294  154.5957 C   0  0  0  0  0  0  0  0  0  0  0  0
  147.5592  141.7473  153.6643 C   0  0  0  0  0  0  0  0  0  0  0  0
  146.6471  140.6568  153.6686 O   0  0  0  0  0  0  0  0  0  0  0  0
  147.2373  139.4579  153.1761 C   0  0  2  0  0  0  0  0  0  0  0  0
  146.1546  138.3703  153.1372 C   0  0  0  0  0  0  0  0  0  0  0  0
  146.5855  137.2152  152.3647 N   0  0  0  0  0  0  0  0  0  0  0  0
  145.6446  136.3174  151.8455 C   0  0  0  0  0  0  0  0  0  0  0  0
  145.9281  135.4420  150.7719 C   0  0  0  0  0  0  0  0  0  0  0  0
  144.9001  134.5838  150.3443 C   0  0  0  0  0  0  0  0  0  0  0  0
  143.6684  134.6643  151.0190 C   0  0  0  0  0  0  0  0  0  0  0  0
  143.4531  135.5234  152.0402 N   0  0  0  0  0  0  0  0  0  0  0  0
  144.4321  136.3398  152.4465 N   0  0  0  0  0  0  0  0  0  0  0  0
  148.4034  139.0675  154.1056 C   0  0  0  0  0  0  0  0  0  0  0  0
  153.4501  142.0878  160.6319 H   0  0  0  0  0  0  0  0  0  0  0  0
  153.0121  140.5864  159.8303 H   0  0  0  0  0  0  0  0  0  0  0  0
  151.7790  141.5336  160.6596 H   0  0  0  0  0  0  0  0  0  0  0  0
  153.3226  142.4187  158.1609 H   0  0  0  0  0  0  0  0  0  0  0  0
  152.7473  144.3580  159.5900 H   0  0  0  0  0  0  0  0  0  0  0  0
  151.0579  143.8605  159.6233 H   0  0  0  0  0  0  0  0  0  0  0  0
  151.7982  144.3775  158.1093 H   0  0  0  0  0  0  0  0  0  0  0  0
  150.4820  142.1984  157.8746 H   0  0  0  0  0  0  0  0  0  0  0  0
  149.9482  139.1001  156.9812 H   0  0  0  0  0  0  0  0  0  0  0  0
  149.4764  140.7630  156.6939 H   0  0  0  0  0  0  0  0  0  0  0  0
  151.4278  140.4401  154.7294 H   0  0  0  0  0  0  0  0  0  0  0  0
  150.8392  138.7993  154.8770 H   0  0  0  0  0  0  0  0  0  0  0  0
  148.3887  141.3438  155.6254 H   0  0  0  0  0  0  0  0  0  0  0  0
  149.4580  142.2497  154.5685 H   0  0  0  0  0  0  0  0  0  0  0  0
  147.0406  142.6427  154.0070 H   0  0  0  0  0  0  0  0  0  0  0  0
  147.9044  141.9475  152.6487 H   0  0  0  0  0  0  0  0  0  0  0  0
  147.6178  139.6209  152.1656 H   0  0  0  0  0  0  0  0  0  0  0  0
  145.9354  138.0407  154.1534 H   0  0  0  0  0  0  0  0  0  0  0  0
  145.2310  138.7737  152.7196 H   0  0  0  0  0  0  0  0  0  0  0  0
  147.5163  137.2170  151.9723 H   0  0  0  0  0  0  0  0  0  0  0  0
  146.8903  135.4179  150.2830 H   0  0  0  0  0  0  0  0  0  0  0  0
  145.0493  133.8902  149.5303 H   0  0  0  0  0  0  0  0  0  0  0  0
  142.8416  134.0301  150.7359 H   0  0  0  0  0  0  0  0  0  0  0  0
  148.8736  138.1613  153.7249 H   0  0  0  0  0  0  0  0  0  0  0  0
  148.0285  138.8384  155.1047 H   0  0  0  0  0  0  0  0  0  0  0  0
  149.7508  140.3175  153.2540 H   0  0  0  0  0  0  0  0  0  0  0  0
  1  2  1  0  0  0  0
  1 23  1  0  0  0  0
  1 24  1  0  0  0  0
  1 25  1  0  0  0  0
  2  3  1  0  0  0  0
  2  4  1  0  0  0  0
  2 26  1  0  0  0  0
  3 27  1  0  0  0  0
  3 28  1  0  0  0  0
  3 29  1  0  0  0  0
  4  5  1  0  0  0  0
  4 30  1  0  0  0  0
  5  6  2  0  0  0  0
  5  7  1  0  0  0  0
  7  8  1  0  0  0  0
  7 31  1  0  0  0  0
  7 32  1  0  0  0  0
  8  9  1  0  0  0  0
  8 33  1  0  0  0  0
  8 34  1  0  0  0  0
  9 22  1  0  0  0  0
  9 10  1  0  0  0  0
  9 48  1  0  0  0  0
 10 11  1  0  0  0  0
 10 35  1  0  0  0  0
 10 36  1  0  0  0  0
 11 12  1  0  0  0  0
 11 37  1  0  0  0  0
 11 38  1  0  0  0  0
 12 13  1  0  0  0  0
 13 14  1  0  0  0  0
 13 22  1  0  0  0  0
 13 39  1  0  0  0  0
 14 15  1  0  0  0  0
 14 40  1  0  0  0  0
 14 41  1  0  0  0  0
 15 16  1  0  0  0  0
 15 42  1  0  0  0  0
 16 21  1  0  0  0  0
 16 17  2  0  0  0  0
 17 18  1  0  0  0  0
 17 43  1  0  0  0  0
 18 19  2  0  0  0  0
 18 44  1  0  0  0  0
 19 20  1  0  0  0  0
 19 45  1  0  0  0  0
 20 21  2  0  0  0  0
 22 46  1  0  0  0  0
 22 47  1  0  0  0  0
M  CHG  1   9   1
M  END
> <s_m_source_file>
AV-unprocessed.smi

> <i_m_source_file_index>
652

> <i_lp_mmshare_version>
43012

> <i_f3d_flags>
0

> <s_epik_input>
W0NIM11bQ0hdKFtDSDNdKVtOSF1DKD1PKVtDSDJdW0NIMl1OMVtDSDJdW0NIMl1PW0NASF0oW0NIMl0xKVtDSDJdW05IXWMyW2NIXVtjSF1bY0hdbm4y

> <s_epik_cmdline>
J2VwaWtfcHl0aG9uJywgJy1waCcsICc3LjAnLCAnLXRuJywgJzgnLCAnLW1hJywgJzIwMCcsICctbWV0YWxfYmluZGluZycsICctaW1hZScsICc8aW5maWxlLm1hZT4nLCAnLW9tYWUnLCAnPG91dGZpbGUubWFlPic=

> <r_lp_tautomer_probability>
0.999978

> <r_epik_Ionization_Penalty>
0.433079

> <r_epik_Ionization_Penalty_Charging>
0.413784

> <r_epik_Ionization_Penalty_Neutral>
0.0192945

> <r_epik_State_Penalty>
0.425138

> <r_epik_Charging_Adjusted_Penalty>
0.838922

> <i_epik_Tot_Q>
1

> <i_epik_Tot_abs_Q>
1

> <r_epik_Metal_State_Penalty>
0.422073

> <b_epik_Metal_Only>
0

> <s_lp_Force_Field>
OPLS_2005

> <r_lp_Energy>
22.402

> <b_lp_Chiralities_Consistent>
1

> <s_lp_Variant>
AV-unprocessed.smi:652-4

> <Gold.Version>
5.8.1

> <Gold.Id.Protein>
6NUR|6NUR_protein|mol2

> <Gold.PLP.Fitness>
47.7254

> <Gold.PLP.PLP>
-37.6250

> <Gold.PLP.part.hbond>
-3.0000

> <Gold.PLP.part.metal>
0.0000

> <Gold.PLP.part.buried>
-3.1643

> <Gold.PLP.part.nonpolar>
-31.2805

> <Gold.PLP.part.repulsive>
0.7091

> <Gold.PLP.ligand.clash>
0.0000

> <Gold.PLP.ligand.torsion>
0.8210

> <Gold.PLP.Chemscore.Hbond>
2.9913

> <Gold.PLP.Chemscore.CHOScore>
0.8669

> <Gold.PLP.Chemscore.Metal>
0.0000

> <Gold.Chemscore.Hbonds>
donor molecule, donor type, donor heavy atom, donor atom, acceptor molecule, acceptor atom, score
      L1  H     9    48       P1  7957  0.80
      L1  H    15    42       P1  7948  0.85
      P1  H  7997  8009       L1     6  1.00
      L1  C    19    45       P1 10186  1.00

> <Gold.PLP.Chemscore.Internal.Correction>
0.1680

> <Gold.Rescore>
     Score         DG    S(hbond)    S(metal)    S(lipo)     H(rot)  DE(clash)    DE(int)     intcor
     19.21     -20.29       2.93        0.00      92.44       2.26       0.38       0.70       ----

> <Gold.Chemscore.Fitness>
19.2067

> <Gold.Chemscore.DG>
-20.2866

> <Gold.Chemscore.ZeroCoef>
-5.4800

> <Gold.Chemscore.Hbond>
2.9268

> <Gold.Chemscore.Metal>
0.0000

> <Gold.Chemscore.Lipo>
92.4380

> <Gold.Chemscore.Internal_Hbond>
0.0000

> <Gold.Chemscore.DEClash>
0.3805

> <Gold.Chemscore.DEInternal>
0.6994

> <Gold.Chemscore.Rot>
2.2594

> <Gold.Chemscore.Internal.Correction>
   9.000000E+99

> <Gold.Chemscore.Hbonds>
donor molecule, donor type, donor heavy atom, donor atom, acceptor molecule, acceptor atom, score
      L1  H     9    48       P1  7957  0.75
      L1  H    15    42       P1  7948  0.85
      P1  H  7997  8009       L1     6  0.97

> <Gold.Chemscore.Hbond.Weighted>
-9.7755

> <Gold.Chemscore.Metal.Weighted>
-0.0000

> <Gold.Chemscore.Lipo.Weighted>
-10.8152

> <Gold.Chemscore.Internal_Hbond.Weighted>
0.0000

> <Gold.Chemscore.DEClash.Weighted>
0.3805

> <Gold.Chemscore.DEInternal.Weighted>
0.6994

> <Gold.Chemscore.Rot.Weighted>
5.7841

> <Gold.Chemscore.Internal.Correction.Weighted>
   9.000000E+99

> <Gold.Protein.RotatedTorsions>
[ 6907 6896 6895 6894 ] final   83.53 input  -60.11 | X-H torsion
[ 7974 7965 7964 7962 ] final  139.59 input  175.53 | X-H torsion
[ 8008 7997 7996 7995 ] final -178.51 input   59.86 | X-H torsion
[ 10167 10162 10161 10158 ] final   71.26 input  -65.29 | X-H torsion
[ 10718 10713 10712 10709 ] final  150.17 input   66.30 | X-H torsion
[ 10763 10752 10751 10750 ] final -123.59 input  -60.55 | X-H torsion
[ 11005 11000 10999 10996 ] final -142.19 input  -57.11 | X-H torsion

> <Gold.Protein.ActiveResidues>
 VAL166  LYS551  ARG553  GLY616  TRP617  ASP618  TYR619  PRO620  LYS621  CYS622 
 ASP623  PHE694  ASN695  SER759  ASP760  ASP761  ALA762  ILE779  LEU786  VAL792 
 PHE793  MET794  SER795  GLU796  ALA797  LYS798  CYS799  TRP800  GLU811  SER814 

> <Gold.Protein.RotatedAtoms>
  152.5329  134.2881  159.9032 H   0  0  0  0  0  0  0  0  0  0  0  0  # atno 6907 bound_to 6896
  151.2833  133.4193  159.2636 H   0  0  0  0  0  0  0  0  0  0  0  0  # atno 6908 bound_to 6896
  151.0264  134.9523  159.8144 H   0  0  0  0  0  0  0  0  0  0  0  0  # atno 6909 bound_to 6896
  144.9265  139.5101  143.5638 H   0  0  0  0  0  0  0  0  0  0  0  0  # atno 7974 bound_to 7965
  156.0197  140.1258  157.0370 H   0  0  0  0  0  0  0  0  0  0  0  0  # atno 8008 bound_to 7997
  154.4307  140.1071  156.6016 H   0  0  0  0  0  0  0  0  0  0  0  0  # atno 8009 bound_to 7997
  155.5962  140.3470  155.4583 H   0  0  0  0  0  0  0  0  0  0  0  0  # atno 8010 bound_to 7997
  140.0480  144.5335  150.7384 H   0  0  0  0  0  0  0  0  0  0  0  0  # atno 10167 bound_to 10162
  157.2869  131.0846  151.1491 H   0  0  0  0  0  0  0  0  0  0  0  0  # atno 10718 bound_to 10713
  154.8710  135.4093  154.2968 H   0  0  0  0  0  0  0  0  0  0  0  0  # atno 10763 bound_to 10752
  153.3834  135.7012  153.6554 H   0  0  0  0  0  0  0  0  0  0  0  0  # atno 10764 bound_to 10752
  153.5366  135.3656  155.2671 H   0  0  0  0  0  0  0  0  0  0  0  0  # atno 10765 bound_to 10752
  140.8250  134.2585  157.4883 H   0  0  0  0  0  0  0  0  0  0  0  0  # atno 11005 bound_to 11000
  146.3228  139.8183  142.8932 LP  0  0  0  0  0  0  0  0  0  0  0  0  # atno 17320 bound_to 7965
  145.3211  141.0244  143.3500 LP  0  0  0  0  0  0  0  0  0  0  0  0  # atno 17321 bound_to 7965
  140.7230  143.2607  151.4216 LP  0  0  0  0  0  0  0  0  0  0  0  0  # atno 17342 bound_to 10162
  139.5971  144.1374  152.2156 LP  0  0  0  0  0  0  0  0  0  0  0  0  # atno 17343 bound_to 10162
  157.2903  130.6793  149.6110 LP  0  0  0  0  0  0  0  0  0  0  0  0  # atno 17370 bound_to 10713
  155.9666  130.4423  150.5374 LP  0  0  0  0  0  0  0  0  0  0  0  0  # atno 17371 bound_to 10713
  139.8707  134.9556  156.4210 LP  0  0  0  0  0  0  0  0  0  0  0  0  # atno 17394 bound_to 11000
  140.9059  133.7746  155.9734 LP  0  0  0  0  0  0  0  0  0  0  0  0  # atno 17395 bound_to 11000

$$$$
