#       Name:                AV-unprocessed.smi:1525
#       Creating user name   scv26
#       Creation time:       Fri Mar 27 06:29:03 2020


#       File generated by GOLD software.
#

@<TRIPOS>MOLECULE
AV-unprocessed.smi:1525
    55    57     1
SMALL
NO_CHARGES


@<TRIPOS>ATOM
      1 ****         0.4688   1.6821   0.2466 O.2            1 S1                 0.0000
      2 ****        -0.0489   0.5844   0.0423 C.2            1 S1                 0.0000
      3 ****         0.6503  -0.5555  -0.0522 N.am           1 S1                 0.0000
      4 ****         2.1000  -0.6563   0.0726 C.3            1 S1                 0.0000
      5 ****         2.8091  -0.2635  -1.2381 C.3            1 S1                 0.0000
      6 ****         4.2883  -0.3061  -1.1216 N.4            1 S1                 1.0000
      7 ****         4.8439  -1.6815  -1.0685 C.3            1 S1                 0.0000
      8 ****         6.3743  -1.6385  -0.9181 C.3            1 S1                 0.0000
      9 ****         6.9405  -0.8933  -1.9887 O.3            1 S1                 0.0000
     10 ****         6.4850   0.4536  -1.9969 C.3            1 S1                 0.0000
     11 ****         4.9589   0.4794  -2.1856 C.3            1 S1                 0.0000
     12 ****        -1.3671   0.3641  -0.0975 N.am           1 S1                 0.0000
     13 ****        -2.4264   1.3140  -0.0303 C.ar           1 S1                 0.0000
     14 ****        -2.2586   2.6565  -0.4567 C.ar           1 S1                 0.0000
     15 ****        -3.3476   3.5479  -0.4106 C.ar           1 S1                 0.0000
     16 ****        -4.5910   3.0822   0.0518 C.ar           1 S1                 0.0000
     17 ****        -4.7223   1.7956   0.4361 N.pl3          1 S1                 1.0000
     18 ****        -3.7110   0.8926   0.4117 C.ar           1 S1                 0.0000
     19 ****        -3.9607  -0.4226   0.8584 N.3            1 S1                 0.0000
     20 ****        -3.3121  -0.7607   2.1227 C.3            1 S1                 0.0000
     21 ****        -4.2726  -1.6909   2.8666 C.3            1 S1                 0.0000
     22 ****        -5.6371  -1.2809   2.3268 C.3            1 S1                 0.0000
     23 ****        -5.3278  -0.9417   0.8698 C.3            1 S1                 0.0000
     24 ****         0.1464  -1.4149  -0.2168 H              1 S1                 0.0000
     25 ****         2.4486  -0.0339   0.8988 H              1 S1                 0.0000
     26 ****         2.3274  -1.6870   0.3428 H              1 S1                 0.0000
     27 ****         2.4842  -0.9028  -2.0606 H              1 S1                 0.0000
     28 ****         2.5108   0.7526  -1.5011 H              1 S1                 0.0000
     29 ****         4.4204  -2.2341  -0.2309 H              1 S1                 0.0000
     30 ****         4.5748  -2.2214  -1.9778 H              1 S1                 0.0000
     31 ****         6.6596  -1.1987   0.0389 H              1 S1                 0.0000
     32 ****         6.7817  -2.6496  -0.9375 H              1 S1                 0.0000
     33 ****         6.7725   0.9543  -1.0710 H              1 S1                 0.0000
     34 ****         6.9738   0.9871  -2.8124 H              1 S1                 0.0000
     35 ****         4.6965   0.0707  -3.1629 H              1 S1                 0.0000
     36 ****         4.6066   1.5115  -2.1642 H              1 S1                 0.0000
     37 ****        -1.6529  -0.6017  -0.1673 H              1 S1                 0.0000
     38 ****        -1.3143   3.0156  -0.8366 H              1 S1                 0.0000
     39 ****        -3.2310   4.5726  -0.7323 H              1 S1                 0.0000
     40 ****        -5.4793   3.6932   0.1217 H              1 S1                 0.0000
     41 ****        -2.3477  -1.2410   1.9573 H              1 S1                 0.0000
     42 ****        -3.1394   0.1435   2.7090 H              1 S1                 0.0000
     43 ****        -4.0678  -2.7281   2.5976 H              1 S1                 0.0000
     44 ****        -4.1960  -1.6022   3.9506 H              1 S1                 0.0000
     45 ****        -6.3913  -2.0612   2.4309 H              1 S1                 0.0000
     46 ****        -5.9923  -0.3919   2.8499 H              1 S1                 0.0000
     47 ****        -6.0755  -0.2724   0.4452 H              1 S1                 0.0000
     48 ****        -5.3407  -1.8504   0.2674 H              1 S1                 0.0000
     49 ****         4.5238   0.1430  -0.2481 H              1 S1                 0.0000
     50 ****        -5.6361   1.4857   0.7676 H              1 S1                 0.0000
     51 ****         1.4606   1.7555   0.3513 LP             1 S1                 0.0000
     52 ****        -0.1023   2.5007   0.3079 LP             1 S1                 0.0000
     53 ****         6.6860  -1.3258  -2.8536 LP             1 S1                 0.0000
     54 ****         7.9360  -0.8972  -1.8942 LP             1 S1                 0.0000
     55 ****        -3.5287  -0.8981   0.0920 LP             1 S1                 0.0000
@<TRIPOS>BOND
    1    1    2 2     
    2    2    3 am    
    3    2   12 am    
    4    3    4 1     
    5    3   24 1     
    6    4    5 1     
    7    4   25 1     
    8    4   26 1     
    9    5    6 1     
   10    5   27 1     
   11    5   28 1     
   12    6   11 1     
   13    6    7 1     
   14    6   49 1     
   15    7    8 1     
   16    7   29 1     
   17    7   30 1     
   18    8    9 1     
   19    8   31 1     
   20    8   32 1     
   21    9   10 1     
   22   10   11 1     
   23   10   33 1     
   24   10   34 1     
   25   11   35 1     
   26   11   36 1     
   27   12   13 1     
   28   12   37 1     
   29   13   18 ar    
   30   13   14 ar    
   31   14   15 ar    
   32   14   38 1     
   33   15   16 ar    
   34   15   39 1     
   35   16   17 ar    
   36   16   40 1     
   37   17   18 ar    
   38   17   50 1     
   39   18   19 1     
   40   19   23 1     
   41   19   20 1     
   42   20   21 1     
   43   20   41 1     
   44   20   42 1     
   45   21   22 1     
   46   21   43 1     
   47   21   44 1     
   48   22   23 1     
   49   22   45 1     
   50   22   46 1     
   51   23   47 1     
   52   23   48 1     
   53    1   51 1     
   54    1   52 1     
   55    9   53 1     
   56    9   54 1     
   57   19   55 1     
@<TRIPOS>SUBSTRUCTURE
      1 S1             1
@<TRIPOS>SET
LONE_PAIRS      STATIC     ATOMS    <user>   **** ""
5 51 52 53 54 55
DONOR_HYDROGENS      STATIC     ATOMS    <user>   **** ""
4 24 49 37 50
ATOM$BLUE        STATIC     ATOMS    COLORGROUP SYSTEM
5 51 52 53 54 55
ATOM$RED        STATIC     ATOMS    COLORGROUP SYSTEM
4 24 49 37 50
