AV-unprocessed.smi:1542|AV-procd|sdf|6203|dock5
  -GOLD-   22720 6373D 1   1.00000     0.00000
 Structure written by MMmdl.
 45 47  0  0  0  0  0  0  0  0  1 V2000
  150.3484  140.3206  153.6683 O   0  0  0  0  0  0  0  0  0  0  0  0
  149.2347  140.4898  154.5184 C   0  0  0  0  0  0  0  0  0  0  0  0
  149.5444  141.5529  155.5802 C   0  0  0  0  0  0  0  0  0  0  0  0
  150.8967  141.3156  156.2675 C   0  0  0  0  0  0  0  0  0  0  0  0
  151.0115  142.0418  157.5753 C   0  0  0  0  0  0  0  0  0  0  0  0
  150.7814  143.3525  157.6574 N   0  0  0  0  0  0  0  0  0  0  0  0
  150.9102  143.6013  159.0085 C   0  0  0  0  0  0  0  0  0  0  0  0
  150.7758  144.8063  159.7347 C   0  0  0  0  0  0  0  0  0  0  0  0
  150.9375  144.8177  161.1354 C   0  0  0  0  0  0  0  0  0  0  0  0
  151.2307  143.6258  161.8284 C   0  0  0  0  0  0  0  0  0  0  0  0
  151.3693  142.4149  161.1234 C   0  0  0  0  0  0  0  0  0  0  0  0
  151.2174  142.4091  159.7230 C   0  0  0  0  0  0  0  0  0  0  0  0
  151.2982  141.4166  158.7477 N   0  0  0  0  0  0  0  0  0  0  0  0
  151.5907  140.0029  158.9759 C   0  0  0  0  0  0  0  0  0  0  0  0
  153.0756  139.6862  159.3082 C   0  0  0  0  0  0  0  0  0  0  0  0
  153.8586  139.9682  158.1627 O   0  0  0  0  0  0  0  0  0  0  0  0
  153.6240  140.5447  160.4753 C   0  0  0  0  0  0  0  0  0  0  0  0
  155.0452  140.1416  160.9084 C   0  0  0  0  0  0  0  0  0  0  0  0
  155.1242  138.6475  161.2488 C   0  0  0  0  0  0  0  0  0  0  0  0
  154.6498  137.7916  160.0669 C   0  0  0  0  0  0  0  0  0  0  0  0
  153.2255  138.1804  159.6304 C   0  0  0  0  0  0  0  0  0  0  0  0
  150.0444  140.3029  152.7736 H   0  0  0  0  0  0  0  0  0  0  0  0
  148.3717  140.7825  153.9195 H   0  0  0  0  0  0  0  0  0  0  0  0
  148.9988  139.5346  154.9885 H   0  0  0  0  0  0  0  0  0  0  0  0
  149.5414  142.5403  155.1162 H   0  0  0  0  0  0  0  0  0  0  0  0
  148.7531  141.5610  156.3310 H   0  0  0  0  0  0  0  0  0  0  0  0
  151.0584  140.2490  156.4069 H   0  0  0  0  0  0  0  0  0  0  0  0
  151.7029  141.6551  155.6159 H   0  0  0  0  0  0  0  0  0  0  0  0
  150.5438  145.7228  159.2129 H   0  0  0  0  0  0  0  0  0  0  0  0
  150.8317  145.7441  161.6806 H   0  0  0  0  0  0  0  0  0  0  0  0
  151.3488  143.6413  162.9019 H   0  0  0  0  0  0  0  0  0  0  0  0
  151.5896  141.5021  161.6555 H   0  0  0  0  0  0  0  0  0  0  0  0
  150.9549  139.6603  159.7931 H   0  0  0  0  0  0  0  0  0  0  0  0
  151.2670  139.4330  158.1046 H   0  0  0  0  0  0  0  0  0  0  0  0
  153.8064  139.2285  157.5768 H   0  0  0  0  0  0  0  0  0  0  0  0
  153.6205  141.6024  160.2103 H   0  0  0  0  0  0  0  0  0  0  0  0
  152.9624  140.4405  161.3354 H   0  0  0  0  0  0  0  0  0  0  0  0
  155.7553  140.3748  160.1140 H   0  0  0  0  0  0  0  0  0  0  0  0
  155.3487  140.7335  161.7722 H   0  0  0  0  0  0  0  0  0  0  0  0
  156.1469  138.3800  161.5162 H   0  0  0  0  0  0  0  0  0  0  0  0
  154.5095  138.4375  162.1250 H   0  0  0  0  0  0  0  0  0  0  0  0
  155.3395  137.9075  159.2303 H   0  0  0  0  0  0  0  0  0  0  0  0
  154.6763  136.7365  160.3405 H   0  0  0  0  0  0  0  0  0  0  0  0
  152.5342  137.9161  160.4318 H   0  0  0  0  0  0  0  0  0  0  0  0
  152.9308  137.5789  158.7692 H   0  0  0  0  0  0  0  0  0  0  0  0
  1  2  1  0  0  0  0
  1 22  1  0  0  0  0
  2  3  1  0  0  0  0
  2 23  1  0  0  0  0
  2 24  1  0  0  0  0
  3  4  1  0  0  0  0
  3 25  1  0  0  0  0
  3 26  1  0  0  0  0
  4  5  1  0  0  0  0
  4 27  1  0  0  0  0
  4 28  1  0  0  0  0
  5 13  1  0  0  0  0
  5  6  2  0  0  0  0
  6  7  1  0  0  0  0
  7 12  2  0  0  0  0
  7  8  1  0  0  0  0
  8  9  2  0  0  0  0
  8 29  1  0  0  0  0
  9 10  1  0  0  0  0
  9 30  1  0  0  0  0
 10 11  2  0  0  0  0
 10 31  1  0  0  0  0
 11 12  1  0  0  0  0
 11 32  1  0  0  0  0
 12 13  1  0  0  0  0
 13 14  1  0  0  0  0
 14 15  1  0  0  0  0
 14 33  1  0  0  0  0
 14 34  1  0  0  0  0
 15 21  1  0  0  0  0
 15 16  1  0  0  0  0
 15 17  1  0  0  0  0
 16 35  1  0  0  0  0
 17 18  1  0  0  0  0
 17 36  1  0  0  0  0
 17 37  1  0  0  0  0
 18 19  1  0  0  0  0
 18 38  1  0  0  0  0
 18 39  1  0  0  0  0
 19 20  1  0  0  0  0
 19 40  1  0  0  0  0
 19 41  1  0  0  0  0
 20 21  1  0  0  0  0
 20 42  1  0  0  0  0
 20 43  1  0  0  0  0
 21 44  1  0  0  0  0
 21 45  1  0  0  0  0
M  END
> <s_m_source_file>
AV-unprocessed.smi

> <i_m_source_file_index>
1542

> <i_lp_mmshare_version>
43012

> <i_f3d_flags>
0

> <s_epik_input>
W09IXVtDSDJdW0NIMl1bQ0gyXWMobjEpbihjKGMxMilbY0hdW2NIXVtjSF1bY0hdMilbQ0gyXUMzKFtPSF0pW0NIMl1bQ0gyXVtDSDJdW0NIMl1bQ0gyXTM=

> <s_epik_cmdline>
J2VwaWtfcHl0aG9uJywgJy1waCcsICc3LjAnLCAnLXRuJywgJzgnLCAnLW1hJywgJzIwMCcsICctbWV0YWxfYmluZGluZycsICctaW1hZScsICc8aW5maWxlLm1hZT4nLCAnLW9tYWUnLCAnPG91dGZpbGUubWFlPic=

> <r_epik_Ionization_Penalty>
0.294093

> <r_epik_Ionization_Penalty_Charging>
0

> <r_epik_Ionization_Penalty_Neutral>
0.294093

> <r_epik_State_Penalty>
0.287281

> <r_epik_Charging_Adjusted_Penalty>
0.287281

> <i_epik_Tot_Q>
0

> <i_epik_Tot_abs_Q>
0

> <r_epik_Metal_State_Penalty>
0.000369578

> <b_epik_Metal_Only>
0

> <s_lp_Force_Field>
OPLS_2005

> <r_lp_Energy>
13.7601

> <b_lp_Chiralities_Consistent>
1

> <s_lp_Variant>
AV-unprocessed.smi:1542-1

> <Gold.Version>
5.8.1

> <Gold.Id.Protein>
6NUR|6NUR_protein|mol2

> <Gold.PLP.Fitness>
56.2295

> <Gold.PLP.PLP>
-47.9894

> <Gold.PLP.part.hbond>
-2.9834

> <Gold.PLP.part.metal>
0.0000

> <Gold.PLP.part.buried>
-4.6829

> <Gold.PLP.part.nonpolar>
-39.8094

> <Gold.PLP.part.repulsive>
0.1305

> <Gold.PLP.ligand.clash>
0.0000

> <Gold.PLP.ligand.torsion>
0.3334

> <Gold.PLP.Chemscore.Hbond>
2.8720

> <Gold.PLP.Chemscore.CHOScore>
0.0000

> <Gold.PLP.Chemscore.Metal>
0.0000

> <Gold.Chemscore.Hbonds>
donor molecule, donor type, donor heavy atom, donor atom, acceptor molecule, acceptor atom, score
      L1  H     1    22       P1  7957  1.00
      P1  H  7989  7998       L1     1  0.44

> <Gold.PLP.Chemscore.Internal.Correction>
0.2910

> <Gold.Rescore>
     Score         DG    S(hbond)    S(metal)    S(lipo)     H(rot)  DE(clash)    DE(int)     intcor
     20.92     -21.23       2.36        0.00     127.32       2.74       0.03       0.28       ----

> <Gold.Chemscore.Fitness>
20.9154

> <Gold.Chemscore.DG>
-21.2292

> <Gold.Chemscore.ZeroCoef>
-5.4800

> <Gold.Chemscore.Hbond>
2.3592

> <Gold.Chemscore.Metal>
0.0000

> <Gold.Chemscore.Lipo>
127.3208

> <Gold.Chemscore.Internal_Hbond>
0.0000

> <Gold.Chemscore.DEClash>
0.0314

> <Gold.Chemscore.DEInternal>
0.2825

> <Gold.Chemscore.Rot>
2.7449

> <Gold.Chemscore.Internal.Correction>
   9.000000E+99

> <Gold.Chemscore.Hbonds>
donor molecule, donor type, donor heavy atom, donor atom, acceptor molecule, acceptor atom, score
      L1  H     1    22       P1  7957  1.00
      P1  H  7989  7998       L1     1  0.10

> <Gold.Chemscore.Hbond.Weighted>
-7.8796

> <Gold.Chemscore.Metal.Weighted>
-0.0000

> <Gold.Chemscore.Lipo.Weighted>
-14.8965

> <Gold.Chemscore.Internal_Hbond.Weighted>
0.0000

> <Gold.Chemscore.DEClash.Weighted>
0.0314

> <Gold.Chemscore.DEInternal.Weighted>
0.2825

> <Gold.Chemscore.Rot.Weighted>
7.0269

> <Gold.Chemscore.Internal.Correction.Weighted>
   9.000000E+99

> <Gold.Protein.RotatedTorsions>
[ 6907 6896 6895 6894 ] final   62.92 input  -60.11 | X-H torsion
[ 7974 7965 7964 7962 ] final  129.29 input  175.53 | X-H torsion
[ 8008 7997 7996 7995 ] final  128.68 input   59.86 | X-H torsion
[ 10167 10162 10161 10158 ] final   34.81 input  -65.29 | X-H torsion
[ 10718 10713 10712 10709 ] final -158.34 input   66.30 | X-H torsion
[ 10763 10752 10751 10750 ] final  -87.29 input  -60.55 | X-H torsion
[ 11005 11000 10999 10996 ] final  -71.84 input  -57.11 | X-H torsion

> <Gold.Protein.ActiveResidues>
 VAL166  LYS551  ARG553  GLY616  TRP617  ASP618  TYR619  PRO620  LYS621  CYS622 
 ASP623  PHE694  ASN695  SER759  ASP760  ASP761  ALA762  ILE779  LEU786  VAL792 
 PHE793  MET794  SER795  GLU796  ALA797  LYS798  CYS799  TRP800  GLU811  SER814 

> <Gold.Protein.RotatedAtoms>
  152.4211  134.5952  159.9984 H   0  0  0  0  0  0  0  0  0  0  0  0  # atno 6907 bound_to 6896
  151.6102  133.3342  159.3074 H   0  0  0  0  0  0  0  0  0  0  0  0  # atno 6908 bound_to 6896
  150.8100  134.7286  159.6745 H   0  0  0  0  0  0  0  0  0  0  0  0  # atno 6909 bound_to 6896
  145.0303  139.4052  143.5153 H   0  0  0  0  0  0  0  0  0  0  0  0  # atno 7974 bound_to 7965
  156.2920  140.2639  156.2475 H   0  0  0  0  0  0  0  0  0  0  0  0  # atno 8008 bound_to 7997
  154.9916  140.0388  157.2340 H   0  0  0  0  0  0  0  0  0  0  0  0  # atno 8009 bound_to 7997
  154.7681  140.2773  155.6165 H   0  0  0  0  0  0  0  0  0  0  0  0  # atno 8010 bound_to 7997
  140.4280  144.1365  150.6156 H   0  0  0  0  0  0  0  0  0  0  0  0  # atno 10167 bound_to 10162
  156.5528  130.8613  151.2785 H   0  0  0  0  0  0  0  0  0  0  0  0  # atno 10718 bound_to 10713
  154.6319  135.5418  153.7690 H   0  0  0  0  0  0  0  0  0  0  0  0  # atno 10763 bound_to 10752
  153.0289  135.6438  154.1288 H   0  0  0  0  0  0  0  0  0  0  0  0  # atno 10764 bound_to 10752
  154.1217  135.2920  155.3186 H   0  0  0  0  0  0  0  0  0  0  0  0  # atno 10765 bound_to 10752
  141.1599  133.6829  156.6967 H   0  0  0  0  0  0  0  0  0  0  0  0  # atno 11005 bound_to 11000
  146.3497  139.9849  142.8692 LP  0  0  0  0  0  0  0  0  0  0  0  0  # atno 17320 bound_to 7965
  145.1779  140.9753  143.4283 LP  0  0  0  0  0  0  0  0  0  0  0  0  # atno 17321 bound_to 7965
  140.4459  143.2507  151.9412 LP  0  0  0  0  0  0  0  0  0  0  0  0  # atno 17342 bound_to 10162
  139.4784  144.5609  151.8240 LP  0  0  0  0  0  0  0  0  0  0  0  0  # atno 17343 bound_to 10162
  157.7384  130.9813  150.2251 LP  0  0  0  0  0  0  0  0  0  0  0  0  # atno 17370 bound_to 10713
  156.2869  130.3740  149.7879 LP  0  0  0  0  0  0  0  0  0  0  0  0  # atno 17371 bound_to 10713
  140.2990  134.8179  157.4081 LP  0  0  0  0  0  0  0  0  0  0  0  0  # atno 17394 bound_to 11000
  140.1279  134.5134  155.8129 LP  0  0  0  0  0  0  0  0  0  0  0  0  # atno 17395 bound_to 11000

$$$$
