AV-unprocessed.smi:2539|AV-procd|sdf|9985|dock2
  -GOLD-   2272014 33D 1   1.00000     0.00000
 Structure written by MMmdl.
 40 41  0  0  0  0  0  0  0  0  1 V2000
  154.9812  138.9837  158.6077 O   0  0  0  0  0  0  0  0  0  0  0  0
  153.8114  139.0425  158.9890 C   0  0  0  0  0  0  0  0  0  0  0  0
  153.3962  139.9468  159.8938 N   0  0  0  0  0  0  0  0  0  0  0  0
  154.2069  141.0230  160.4582 C   0  0  0  0  0  0  0  0  0  0  0  0
  153.3588  142.0162  161.2777 C   0  0  0  0  0  0  0  0  0  0  0  0
  152.7658  143.1410  160.4463 C   0  0  0  0  0  0  0  0  0  0  0  0
  153.0253  143.2390  159.0630 C   0  0  0  0  0  0  0  0  0  0  0  0
  152.4790  144.3203  158.3457 C   0  0  0  0  0  0  0  0  0  0  0  0
  151.6924  145.2586  159.0429 C   0  0  0  0  0  0  0  0  0  0  0  0
  151.4324  145.1721  160.3651 N   0  0  0  0  0  0  0  0  0  0  0  0
  151.9612  144.1330  161.0463 C   0  0  0  0  0  0  0  0  0  0  0  0
  152.8280  138.2545  158.4866 N   0  0  0  0  0  0  0  0  0  0  0  0
  151.4155  138.2524  158.8958 C   0  0  0  0  0  0  0  0  0  0  0  0
  150.5894  138.9681  157.8099 C   0  0  0  0  0  0  0  0  0  0  0  0
  150.7901  138.3366  156.4068 C   0  0  0  0  0  0  0  0  0  0  0  0
  150.1507  137.0720  156.4095 O   0  0  0  0  0  0  0  0  0  0  0  0
  150.1165  139.1844  155.3011 C   0  0  0  0  0  0  0  0  0  0  0  0
  148.8028  139.2586  155.5155 F   0  0  0  0  0  0  0  0  0  0  0  0
  150.6072  140.4247  155.2963 F   0  0  0  0  0  0  0  0  0  0  0  0
  150.3099  138.6341  154.1016 F   0  0  0  0  0  0  0  0  0  0  0  0
  152.2952  138.0999  156.1112 C   0  0  0  0  0  0  0  0  0  0  0  0
  153.0278  137.4299  157.2910 C   0  0  0  0  0  0  0  0  0  0  0  0
  152.4210  139.9323  160.1541 H   0  0  0  0  0  0  0  0  0  0  0  0
  154.9667  140.5765  161.0996 H   0  0  0  0  0  0  0  0  0  0  0  0
  154.7479  141.5511  159.6711 H   0  0  0  0  0  0  0  0  0  0  0  0
  152.5507  141.4815  161.7788 H   0  0  0  0  0  0  0  0  0  0  0  0
  153.9688  142.4520  162.0697 H   0  0  0  0  0  0  0  0  0  0  0  0
  153.6411  142.5074  158.5611 H   0  0  0  0  0  0  0  0  0  0  0  0
  152.6602  144.4301  157.2869 H   0  0  0  0  0  0  0  0  0  0  0  0
  151.2591  146.1010  158.5242 H   0  0  0  0  0  0  0  0  0  0  0  0
  151.7451  144.0983  162.1040 H   0  0  0  0  0  0  0  0  0  0  0  0
  151.0755  137.2218  159.0070 H   0  0  0  0  0  0  0  0  0  0  0  0
  151.2410  138.7132  159.8681 H   0  0  0  0  0  0  0  0  0  0  0  0
  149.5334  138.9613  158.0824 H   0  0  0  0  0  0  0  0  0  0  0  0
  150.8878  140.0168  157.7837 H   0  0  0  0  0  0  0  0  0  0  0  0
  150.7925  136.4139  156.6293 H   0  0  0  0  0  0  0  0  0  0  0  0
  152.4176  137.4993  155.2092 H   0  0  0  0  0  0  0  0  0  0  0  0
  152.7787  139.0556  155.9035 H   0  0  0  0  0  0  0  0  0  0  0  0
  154.0812  137.2930  157.0428 H   0  0  0  0  0  0  0  0  0  0  0  0
  152.6350  136.4273  157.4656 H   0  0  0  0  0  0  0  0  0  0  0  0
  1  2  2  0  0  0  0
  2  3  1  0  0  0  0
  2 12  1  0  0  0  0
  3  4  1  0  0  0  0
  3 23  1  0  0  0  0
  4  5  1  0  0  0  0
  4 24  1  0  0  0  0
  4 25  1  0  0  0  0
  5  6  1  0  0  0  0
  5 26  1  0  0  0  0
  5 27  1  0  0  0  0
  6 11  1  0  0  0  0
  6  7  2  0  0  0  0
  7  8  1  0  0  0  0
  7 28  1  0  0  0  0
  8  9  2  0  0  0  0
  8 29  1  0  0  0  0
  9 10  1  0  0  0  0
  9 30  1  0  0  0  0
 10 11  2  0  0  0  0
 11 31  1  0  0  0  0
 12 22  1  0  0  0  0
 12 13  1  0  0  0  0
 13 14  1  0  0  0  0
 13 32  1  0  0  0  0
 13 33  1  0  0  0  0
 14 15  1  0  0  0  0
 14 34  1  0  0  0  0
 14 35  1  0  0  0  0
 15 16  1  0  0  0  0
 15 17  1  0  0  0  0
 15 21  1  0  0  0  0
 16 36  1  0  0  0  0
 17 18  1  0  0  0  0
 17 19  1  0  0  0  0
 17 20  1  0  0  0  0
 21 22  1  0  0  0  0
 21 37  1  0  0  0  0
 21 38  1  0  0  0  0
 22 39  1  0  0  0  0
 22 40  1  0  0  0  0
M  END
> <s_m_source_file>
AV-unprocessed.smi

> <i_m_source_file_index>
2539

> <i_lp_mmshare_version>
43012

> <i_f3d_flags>
0

> <s_epik_input>
RkMoRikoRilDMShbT0hdKVtDSDJdW0NIMl1OKFtDSDJdW0NIMl0xKUMoPU8pW05IXVtDSDJdW0NIMl1jMltjSF1bY0hdW2NIXW5bY0hdMg==

> <s_epik_cmdline>
J2VwaWtfcHl0aG9uJywgJy1waCcsICc3LjAnLCAnLXRuJywgJzgnLCAnLW1hJywgJzIwMCcsICctbWV0YWxfYmluZGluZycsICctaW1hZScsICc8aW5maWxlLm1hZT4nLCAnLW9tYWUnLCAnPG91dGZpbGUubWFlPic=

> <r_epik_Ionization_Penalty>
0.0144431

> <r_epik_Ionization_Penalty_Charging>
0

> <r_epik_Ionization_Penalty_Neutral>
0.0144431

> <r_epik_State_Penalty>
0.0112443

> <r_epik_Charging_Adjusted_Penalty>
0.0112443

> <i_epik_Tot_Q>
0

> <i_epik_Tot_abs_Q>
0

> <r_epik_Metal_State_Penalty>
0.0109773

> <b_epik_Metal_Only>
0

> <s_lp_Force_Field>
OPLS_2005

> <r_lp_Energy>
34.3491

> <b_lp_Chiralities_Consistent>
1

> <s_lp_Variant>
AV-unprocessed.smi:2539-1

> <Gold.Version>
5.8.1

> <Gold.Id.Protein>
6NUR|6NUR_protein|mol2

> <Gold.PLP.Fitness>
46.4151

> <Gold.PLP.PLP>
-43.9433

> <Gold.PLP.part.hbond>
-1.0000

> <Gold.PLP.part.metal>
0.0000

> <Gold.PLP.part.buried>
-4.8017

> <Gold.PLP.part.nonpolar>
-38.5621

> <Gold.PLP.part.repulsive>
0.2706

> <Gold.PLP.ligand.clash>
0.0000

> <Gold.PLP.ligand.torsion>
0.2892

> <Gold.PLP.Chemscore.Hbond>
1.0000

> <Gold.PLP.Chemscore.CHOScore>
0.0000

> <Gold.PLP.Chemscore.Metal>
0.0000

> <Gold.Chemscore.Hbonds>
donor molecule, donor type, donor heavy atom, donor atom, acceptor molecule, acceptor atom, score
      P1  H  7997  8008       L1     1  1.00

> <Gold.PLP.Chemscore.Internal.Correction>
0.0503

> <Gold.Rescore>
     Score         DG    S(hbond)    S(metal)    S(lipo)     H(rot)  DE(clash)    DE(int)     intcor
     16.64     -16.98       0.97        0.00     113.83       1.97       0.04       0.30       ----

> <Gold.Chemscore.Fitness>
16.6379

> <Gold.Chemscore.DG>
-16.9778

> <Gold.Chemscore.ZeroCoef>
-5.4800

> <Gold.Chemscore.Hbond>
0.9680

> <Gold.Chemscore.Metal>
0.0000

> <Gold.Chemscore.Lipo>
113.8253

> <Gold.Chemscore.Internal_Hbond>
0.0000

> <Gold.Chemscore.DEClash>
0.0356

> <Gold.Chemscore.DEInternal>
0.3043

> <Gold.Chemscore.Rot>
1.9737

> <Gold.Chemscore.Internal.Correction>
   9.000000E+99

> <Gold.Chemscore.Hbonds>
donor molecule, donor type, donor heavy atom, donor atom, acceptor molecule, acceptor atom, score
      P1  H  7997  8008       L1     1  0.92

> <Gold.Chemscore.Hbond.Weighted>
-3.2330

> <Gold.Chemscore.Metal.Weighted>
-0.0000

> <Gold.Chemscore.Lipo.Weighted>
-13.3176

> <Gold.Chemscore.Internal_Hbond.Weighted>
0.0000

> <Gold.Chemscore.DEClash.Weighted>
0.0356

> <Gold.Chemscore.DEInternal.Weighted>
0.3043

> <Gold.Chemscore.Rot.Weighted>
5.0528

> <Gold.Chemscore.Internal.Correction.Weighted>
   9.000000E+99

> <Gold.Protein.RotatedTorsions>
[ 6907 6896 6895 6894 ] final   63.13 input  -60.11 | X-H torsion
[ 7974 7965 7964 7962 ] final  129.90 input  175.53 | X-H torsion
[ 8008 7997 7996 7995 ] final -136.84 input   59.86 | X-H torsion
[ 10167 10162 10161 10158 ] final -139.52 input  -65.29 | X-H torsion
[ 10718 10713 10712 10709 ] final -155.00 input   66.30 | X-H torsion
[ 10763 10752 10751 10750 ] final   83.85 input  -60.55 | X-H torsion
[ 11005 11000 10999 10996 ] final  145.78 input  -57.11 | X-H torsion

> <Gold.Protein.ActiveResidues>
 VAL166  LYS551  ARG553  GLY616  TRP617  ASP618  TYR619  PRO620  LYS621  CYS622 
 ASP623  PHE694  ASN695  SER759  ASP760  ASP761  ALA762  ILE779  LEU786  VAL792 
 PHE793  MET794  SER795  GLU796  ALA797  LYS798  CYS799  TRP800  GLU811  SER814 

> <Gold.Protein.RotatedAtoms>
  152.4228  134.5923  159.9977 H   0  0  0  0  0  0  0  0  0  0  0  0  # atno 6907 bound_to 6896
  151.6068  133.3345  159.3067 H   0  0  0  0  0  0  0  0  0  0  0  0  # atno 6908 bound_to 6896
  150.8117  134.7313  159.6759 H   0  0  0  0  0  0  0  0  0  0  0  0  # atno 6909 bound_to 6896
  145.0237  139.4108  143.5184 H   0  0  0  0  0  0  0  0  0  0  0  0  # atno 7974 bound_to 7965
  155.4019  140.0506  157.3036 H   0  0  0  0  0  0  0  0  0  0  0  0  # atno 8008 bound_to 7997
  154.4986  140.2148  155.9354 H   0  0  0  0  0  0  0  0  0  0  0  0  # atno 8009 bound_to 7997
  156.1438  140.3149  155.8543 H   0  0  0  0  0  0  0  0  0  0  0  0  # atno 8010 bound_to 7997
  139.8371  143.7370  152.2664 H   0  0  0  0  0  0  0  0  0  0  0  0  # atno 10167 bound_to 10162
  156.5069  130.8417  151.2631 H   0  0  0  0  0  0  0  0  0  0  0  0  # atno 10718 bound_to 10713
  153.1328  135.4676  154.9375 H   0  0  0  0  0  0  0  0  0  0  0  0  # atno 10763 bound_to 10752
  154.7679  135.3150  154.8251 H   0  0  0  0  0  0  0  0  0  0  0  0  # atno 10764 bound_to 10752
  153.8790  135.6896  153.4822 H   0  0  0  0  0  0  0  0  0  0  0  0  # atno 10765 bound_to 10752
  140.0740  134.9135  157.1392 H   0  0  0  0  0  0  0  0  0  0  0  0  # atno 11005 bound_to 11000
  146.3489  139.9749  142.8702 LP  0  0  0  0  0  0  0  0  0  0  0  0  # atno 17320 bound_to 7965
  145.1861  140.9790  143.4238 LP  0  0  0  0  0  0  0  0  0  0  0  0  # atno 17321 bound_to 7965
  139.7596  144.7510  151.0384 LP  0  0  0  0  0  0  0  0  0  0  0  0  # atno 17342 bound_to 10162
  140.7801  143.4766  151.0073 LP  0  0  0  0  0  0  0  0  0  0  0  0  # atno 17343 bound_to 10162
  157.7456  130.9963  150.2774 LP  0  0  0  0  0  0  0  0  0  0  0  0  # atno 17370 bound_to 10713
  156.3278  130.3795  149.7517 LP  0  0  0  0  0  0  0  0  0  0  0  0  # atno 17371 bound_to 10713
  140.3585  134.2520  155.7190 LP  0  0  0  0  0  0  0  0  0  0  0  0  # atno 17394 bound_to 11000
  141.2022  133.7942  157.0400 LP  0  0  0  0  0  0  0  0  0  0  0  0  # atno 17395 bound_to 11000

$$$$
