AV-unprocessed.smi:1758|AV-procd|sdf|7083|dock3
  -GOLD-   22720 8303D 1   1.00000     0.00000
 Structure written by MMmdl.
 44 46  0  0  0  0  0  0  0  0  2 V2000
  151.2705  141.0663  157.5606 C   0  0  0  0  0  0  0  0  0  0  0  0
  152.0451  139.8306  157.0878 C   0  0  0  0  0  0  0  0  0  0  0  0
  151.3348  139.1144  156.0461 N   0  0  0  0  0  0  0  0  0  0  0  0
  150.8877  137.8080  156.0607 C   0  0  0  0  0  0  0  0  0  0  0  0
  150.2891  137.6084  154.8486 C   0  0  0  0  0  0  0  0  0  0  0  0
  149.6710  136.4417  154.3309 N   0  0  0  0  0  0  0  0  0  0  0  0
  149.4043  135.3015  154.9891 C   0  0  0  0  0  0  0  0  0  0  0  0
  149.6270  135.1077  156.1840 O   0  0  0  0  0  0  0  0  0  0  0  0
  148.8519  134.3885  154.1769 N   0  0  0  0  0  0  0  0  0  0  0  0
  148.4309  133.0422  154.5656 C   0  0  2  0  0  0  0  0  0  0  0  0
  149.5492  131.9924  154.4157 C   0  0  0  0  0  0  0  0  0  0  0  0
  148.8541  130.7682  153.8101 C   0  0  0  0  0  0  0  0  0  0  0  0
  147.8128  131.3663  152.9663 N   0  3  1  0  0  0  0  0  0  0  0  0
  146.7671  130.4878  152.4038 C   0  0  0  0  0  0  0  0  0  0  0  0
  145.9079  131.3170  151.4245 C   0  0  0  0  0  0  0  0  0  0  0  0
  145.3736  132.6178  152.0676 C   0  0  0  0  0  0  0  0  0  0  0  0
  146.5000  133.4264  152.7475 C   0  0  0  0  0  0  0  0  0  0  0  0
  147.2564  132.5037  153.7189 C   0  0  2  0  0  0  0  0  0  0  0  0
  150.4099  138.8382  154.1506 C   0  0  0  0  0  0  0  0  0  0  0  0
  151.0413  139.7442  154.8815 N   0  0  0  0  0  0  0  0  0  0  0  0
  151.8150  141.5847  158.3500 H   0  0  0  0  0  0  0  0  0  0  0  0
  150.2924  140.7909  157.9560 H   0  0  0  0  0  0  0  0  0  0  0  0
  151.1161  141.7728  156.7444 H   0  0  0  0  0  0  0  0  0  0  0  0
  153.0264  140.1200  156.7092 H   0  0  0  0  0  0  0  0  0  0  0  0
  152.2166  139.1509  157.9235 H   0  0  0  0  0  0  0  0  0  0  0  0
  151.0384  137.1602  156.9117 H   0  0  0  0  0  0  0  0  0  0  0  0
  149.4168  136.4771  153.3546 H   0  0  0  0  0  0  0  0  0  0  0  0
  148.7119  134.6455  153.2106 H   0  0  0  0  0  0  0  0  0  0  0  0
  148.1095  133.0392  155.6088 H   0  0  0  0  0  0  0  0  0  0  0  0
  150.3151  132.3493  153.7251 H   0  0  0  0  0  0  0  0  0  0  0  0
  150.0409  131.7651  155.3623 H   0  0  0  0  0  0  0  0  0  0  0  0
  149.5341  130.1375  153.2367 H   0  0  0  0  0  0  0  0  0  0  0  0
  148.3931  130.1621  154.5919 H   0  0  0  0  0  0  0  0  0  0  0  0
  147.2308  129.6504  151.8815 H   0  0  0  0  0  0  0  0  0  0  0  0
  146.1538  130.0715  153.2045 H   0  0  0  0  0  0  0  0  0  0  0  0
  146.5104  131.5750  150.5524 H   0  0  0  0  0  0  0  0  0  0  0  0
  145.0776  130.7151  151.0542 H   0  0  0  0  0  0  0  0  0  0  0  0
  144.8737  133.2294  151.3161 H   0  0  0  0  0  0  0  0  0  0  0  0
  144.6153  132.3640  152.8094 H   0  0  0  0  0  0  0  0  0  0  0  0
  147.1788  133.8265  151.9931 H   0  0  0  0  0  0  0  0  0  0  0  0
  146.0777  134.2786  153.2814 H   0  0  0  0  0  0  0  0  0  0  0  0
  146.5295  132.1004  154.4279 H   0  0  0  0  0  0  0  0  0  0  0  0
  150.0696  139.0986  153.1593 H   0  0  0  0  0  0  0  0  0  0  0  0
  148.3033  131.7664  152.1793 H   0  0  0  0  0  0  0  0  0  0  0  0
  1  2  1  0  0  0  0
  1 21  1  0  0  0  0
  1 22  1  0  0  0  0
  1 23  1  0  0  0  0
  2  3  1  0  0  0  0
  2 24  1  0  0  0  0
  2 25  1  0  0  0  0
  3 20  1  0  0  0  0
  3  4  1  0  0  0  0
  4  5  2  0  0  0  0
  4 26  1  0  0  0  0
  5  6  1  0  0  0  0
  5 19  1  0  0  0  0
  6  7  1  0  0  0  0
  6 27  1  0  0  0  0
  7  8  2  0  0  0  0
  7  9  1  0  0  0  0
  9 10  1  0  0  0  0
  9 28  1  0  0  0  0
 10 18  1  0  0  0  0
 10 11  1  0  0  0  0
 10 29  1  0  0  0  0
 11 12  1  0  0  0  0
 11 30  1  0  0  0  0
 11 31  1  0  0  0  0
 12 13  1  0  0  0  0
 12 32  1  0  0  0  0
 12 33  1  0  0  0  0
 13 18  1  0  0  0  0
 13 14  1  0  0  0  0
 13 44  1  0  0  0  0
 14 15  1  0  0  0  0
 14 34  1  0  0  0  0
 14 35  1  0  0  0  0
 15 16  1  0  0  0  0
 15 36  1  0  0  0  0
 15 37  1  0  0  0  0
 16 17  1  0  0  0  0
 16 38  1  0  0  0  0
 16 39  1  0  0  0  0
 17 18  1  0  0  0  0
 17 40  1  0  0  0  0
 17 41  1  0  0  0  0
 18 42  1  0  0  0  0
 19 20  2  0  0  0  0
 19 43  1  0  0  0  0
M  CHG  1  13   1
M  END
> <s_m_source_file>
AV-unprocessed.smi

> <i_m_source_file_index>
1758

> <i_lp_mmshare_version>
43012

> <i_f3d_flags>
0

> <s_epik_input>
W0NIM11bQ0gyXW4xW2NIXWMoW2NIXW4xKVtOSF1DKD1PKVtOSF1bQ0BIXShbQ0gyXVtDSDJdMilbQ0BASF0oTjIzKVtDSDJdW0NIMl1bQ0gyXVtDSDJdMw==

> <s_epik_cmdline>
J2VwaWtfcHl0aG9uJywgJy1waCcsICc3LjAnLCAnLXRuJywgJzgnLCAnLW1hJywgJzIwMCcsICctbWV0YWxfYmluZGluZycsICctaW1hZScsICc8aW5maWxlLm1hZT4nLCAnLW9tYWUnLCAnPG91dGZpbGUubWFlPic=

> <r_lp_tautomer_probability>
1

> <r_epik_Ionization_Penalty>
0.00111541

> <r_epik_Ionization_Penalty_Charging>
0.000974069

> <r_epik_Ionization_Penalty_Neutral>
0.000141346

> <r_epik_State_Penalty>
0.000633842

> <r_epik_Charging_Adjusted_Penalty>
0.00160791

> <i_epik_Tot_Q>
1

> <i_epik_Tot_abs_Q>
1

> <r_epik_Metal_State_Penalty>
-0

> <b_epik_Metal_Only>
0

> <s_lp_Force_Field>
OPLS_2005

> <r_lp_Energy>
45.8918

> <b_lp_Chiralities_Consistent>
1

> <s_lp_Variant>
AV-unprocessed.smi:1758-5

> <Gold.Version>
5.8.1

> <Gold.Id.Protein>
6NUR|6NUR_protein|mol2

> <Gold.PLP.Fitness>
42.7363

> <Gold.PLP.PLP>
-30.7913

> <Gold.PLP.part.hbond>
-4.5335

> <Gold.PLP.part.metal>
0.0000

> <Gold.PLP.part.buried>
-2.4200

> <Gold.PLP.part.nonpolar>
-24.2731

> <Gold.PLP.part.repulsive>
0.1209

> <Gold.PLP.ligand.clash>
0.0000

> <Gold.PLP.ligand.torsion>
0.3883

> <Gold.PLP.Chemscore.Hbond>
3.2394

> <Gold.PLP.Chemscore.CHOScore>
1.0000

> <Gold.PLP.Chemscore.Metal>
0.0000

> <Gold.Chemscore.Hbonds>
donor molecule, donor type, donor heavy atom, donor atom, acceptor molecule, acceptor atom, score
      L1  H     6    27       P1  7948  1.00
      L1  H     9    28       P1  7948  0.81
      L1  H    13    44       P1 10747  0.35
      P1  H  7989  7998       L1    20  0.95
      L1  C    19    43       P1  7957  1.00

> <Gold.PLP.Chemscore.Internal.Correction>
0.0032

> <Gold.Rescore>
     Score         DG    S(hbond)    S(metal)    S(lipo)     H(rot)  DE(clash)    DE(int)     intcor
     16.35     -17.96       2.06        0.00      73.90       1.19       0.12       1.48       ----

> <Gold.Chemscore.Fitness>
16.3488

> <Gold.Chemscore.DG>
-17.9578

> <Gold.Chemscore.ZeroCoef>
-5.4800

> <Gold.Chemscore.Hbond>
2.0580

> <Gold.Chemscore.Metal>
0.0000

> <Gold.Chemscore.Lipo>
73.9010

> <Gold.Chemscore.Internal_Hbond>
0.0000

> <Gold.Chemscore.DEClash>
0.1242

> <Gold.Chemscore.DEInternal>
1.4848

> <Gold.Chemscore.Rot>
1.1884

> <Gold.Chemscore.Internal.Correction>
   9.000000E+99

> <Gold.Chemscore.Hbonds>
donor molecule, donor type, donor heavy atom, donor atom, acceptor molecule, acceptor atom, score
      L1  H     6    27       P1  7948  0.75
      L1  H     9    28       P1  7948  0.20
      L1  H    13    44       P1 10747  0.35
      P1  H  7989  7998       L1    20  0.22

> <Gold.Chemscore.Hbond.Weighted>
-6.8737

> <Gold.Chemscore.Metal.Weighted>
-0.0000

> <Gold.Chemscore.Lipo.Weighted>
-8.6464

> <Gold.Chemscore.Internal_Hbond.Weighted>
0.0000

> <Gold.Chemscore.DEClash.Weighted>
0.1242

> <Gold.Chemscore.DEInternal.Weighted>
1.4848

> <Gold.Chemscore.Rot.Weighted>
3.0423

> <Gold.Chemscore.Internal.Correction.Weighted>
   9.000000E+99

> <Gold.Protein.RotatedTorsions>
[ 6907 6896 6895 6894 ] final  133.85 input  -60.11 | X-H torsion
[ 7974 7965 7964 7962 ] final -104.32 input  175.53 | X-H torsion
[ 8008 7997 7996 7995 ] final -176.96 input   59.86 | X-H torsion
[ 10167 10162 10161 10158 ] final -176.23 input  -65.29 | X-H torsion
[ 10718 10713 10712 10709 ] final   19.63 input   66.30 | X-H torsion
[ 10763 10752 10751 10750 ] final -101.35 input  -60.55 | X-H torsion
[ 11005 11000 10999 10996 ] final  103.47 input  -57.11 | X-H torsion

> <Gold.Protein.ActiveResidues>
 VAL166  LYS551  ARG553  GLY616  TRP617  ASP618  TYR619  PRO620  LYS621  CYS622 
 ASP623  PHE694  ASN695  SER759  ASP760  ASP761  ALA762  ILE779  LEU786  VAL792 
 PHE793  MET794  SER795  GLU796  ALA797  LYS798  CYS799  TRP800  GLU811  SER814 

> <Gold.Protein.RotatedAtoms>
  152.3176  133.5819  159.5722 H   0  0  0  0  0  0  0  0  0  0  0  0  # atno 6907 bound_to 6896
  150.7354  134.0060  159.3662 H   0  0  0  0  0  0  0  0  0  0  0  0  # atno 6908 bound_to 6896
  151.7947  135.0726  160.0443 H   0  0  0  0  0  0  0  0  0  0  0  0  # atno 6909 bound_to 6896
  145.2446  140.9217  143.3130 H   0  0  0  0  0  0  0  0  0  0  0  0  # atno 7974 bound_to 7965
  156.0011  140.1221  157.0546 H   0  0  0  0  0  0  0  0  0  0  0  0  # atno 8008 bound_to 7997
  154.4243  140.1106  156.5767 H   0  0  0  0  0  0  0  0  0  0  0  0  # atno 8009 bound_to 7997
  155.6211  140.3472  155.4654 H   0  0  0  0  0  0  0  0  0  0  0  0  # atno 8010 bound_to 7997
  139.5540  144.2035  152.1128 H   0  0  0  0  0  0  0  0  0  0  0  0  # atno 10167 bound_to 10162
  157.1132  130.6517  149.5903 H   0  0  0  0  0  0  0  0  0  0  0  0  # atno 10718 bound_to 10713
  154.7651  135.4901  153.9538 H   0  0  0  0  0  0  0  0  0  0  0  0  # atno 10763 bound_to 10752
  153.1298  135.6750  153.9205 H   0  0  0  0  0  0  0  0  0  0  0  0  # atno 10764 bound_to 10752
  153.8912  135.3120  155.3426 H   0  0  0  0  0  0  0  0  0  0  0  0  # atno 10765 bound_to 10752
  139.8784  134.9264  156.5214 H   0  0  0  0  0  0  0  0  0  0  0  0  # atno 11005 bound_to 11000
  144.9558  139.4033  143.6380 LP  0  0  0  0  0  0  0  0  0  0  0  0  # atno 17320 bound_to 7965
  146.3319  139.8587  142.8860 LP  0  0  0  0  0  0  0  0  0  0  0  0  # atno 17321 bound_to 7965
  140.1536  144.5091  150.6673 LP  0  0  0  0  0  0  0  0  0  0  0  0  # atno 17342 bound_to 10162
  140.6809  143.2326  151.5385 LP  0  0  0  0  0  0  0  0  0  0  0  0  # atno 17343 bound_to 10162
  155.9845  130.4871  150.6989 LP  0  0  0  0  0  0  0  0  0  0  0  0  # atno 17370 bound_to 10713
  157.4541  131.0876  151.0815 LP  0  0  0  0  0  0  0  0  0  0  0  0  # atno 17371 bound_to 10713
  140.8448  133.8177  155.9110 LP  0  0  0  0  0  0  0  0  0  0  0  0  # atno 17394 bound_to 11000
  140.9202  134.2151  157.4931 LP  0  0  0  0  0  0  0  0  0  0  0  0  # atno 17395 bound_to 11000

$$$$
