AV-unprocessed.smi:199|AV-procd|sdf|1566|dock5
  -GOLD-   2262019443D 1   1.00000     0.00000
 Structure written by MMmdl.
 51 55  0  0  0  0  0  0  0  0  1 V2000
  146.6277  129.8708  152.4189 C   0  0  0  0  0  0  0  0  0  0  0  0
  146.0084  131.2742  152.3140 C   0  0  2  0  0  0  0  0  0  0  0  0
  145.6032  131.5480  150.9730 O   0  0  0  0  0  0  0  0  0  0  0  0
  146.2446  132.7232  150.4988 C   0  0  0  0  0  0  0  0  0  0  0  0
  146.5212  133.5345  151.7573 C   0  0  0  0  0  0  0  0  0  0  0  0
  146.8944  132.4584  152.7680 C   0  0  2  0  0  0  0  0  0  0  0  0
  148.2709  132.1542  152.6051 O   0  0  0  0  0  0  0  0  0  0  0  0
  146.6537  132.8668  154.2408 C   0  0  0  0  0  0  0  0  0  0  0  0
  147.3249  134.1027  154.6128 N   0  0  0  0  0  0  0  0  0  0  0  0
  146.7484  135.3440  154.7476 C   0  0  0  0  0  0  0  0  0  0  0  0
  147.5682  136.3019  155.0804 N   0  0  0  0  0  0  0  0  0  0  0  0
  148.8054  135.6777  155.2011 C   0  0  0  0  0  0  0  0  0  0  0  0
  150.1236  136.1126  155.5353 C   0  0  0  0  0  0  0  0  0  0  0  0
  150.4782  137.3942  155.8320 N   0  0  0  0  0  0  0  0  0  0  0  0
  151.4650  138.1279  155.0533 C   0  0  2  0  0  0  0  0  0  0  0  0
  151.6471  139.4125  155.8806 C   0  0  0  0  0  0  0  0  0  0  0  0
  150.2281  139.6235  156.4273 C   0  0  0  0  0  0  0  0  0  0  0  0
  149.4754  138.4499  155.7736 C   0  0  1  0  0  0  0  0  0  0  0  0
  149.2843  138.6659  154.2480 C   0  0  1  0  0  0  0  0  0  0  0  0
  148.6098  139.9750  153.7964 C   0  0  0  0  0  0  0  0  0  0  0  0
  149.5512  141.0261  153.7646 O   0  0  0  0  0  0  0  0  0  0  0  0
  150.7279  138.4799  153.7447 C   0  0  0  0  0  0  0  0  0  0  0  0
  151.1050  135.1721  155.5315 N   0  0  0  0  0  0  0  0  0  0  0  0
  150.8285  133.8985  155.2410 C   0  0  0  0  0  0  0  0  0  0  0  0
  149.6547  133.3535  154.9214 N   0  0  0  0  0  0  0  0  0  0  0  0
  148.6634  134.2891  154.9105 C   0  0  0  0  0  0  0  0  0  0  0  0
  146.9481  129.6593  153.4395 H   0  0  0  0  0  0  0  0  0  0  0  0
  147.4919  129.7616  151.7630 H   0  0  0  0  0  0  0  0  0  0  0  0
  145.9034  129.1076  152.1339 H   0  0  0  0  0  0  0  0  0  0  0  0
  145.0878  131.2797  152.8989 H   0  0  0  0  0  0  0  0  0  0  0  0
  147.1774  132.4466  150.0054 H   0  0  0  0  0  0  0  0  0  0  0  0
  145.6232  133.2579  149.7802 H   0  0  0  0  0  0  0  0  0  0  0  0
  147.2915  134.2941  151.6163 H   0  0  0  0  0  0  0  0  0  0  0  0
  145.6043  134.0394  152.0652 H   0  0  0  0  0  0  0  0  0  0  0  0
  148.3863  131.7193  151.7739 H   0  0  0  0  0  0  0  0  0  0  0  0
  145.5867  132.9983  154.4262 H   0  0  0  0  0  0  0  0  0  0  0  0
  146.9842  132.0734  154.9128 H   0  0  0  0  0  0  0  0  0  0  0  0
  145.6954  135.5201  154.5822 H   0  0  0  0  0  0  0  0  0  0  0  0
  152.4155  137.6208  154.8973 H   0  0  0  0  0  0  0  0  0  0  0  0
  152.3526  139.2561  156.6977 H   0  0  0  0  0  0  0  0  0  0  0  0
  152.0016  140.2528  155.2827 H   0  0  0  0  0  0  0  0  0  0  0  0
  150.2244  139.5149  157.5127 H   0  0  0  0  0  0  0  0  0  0  0  0
  149.8132  140.6036  156.1978 H   0  0  0  0  0  0  0  0  0  0  0  0
  148.5435  138.2221  156.2922 H   0  0  0  0  0  0  0  0  0  0  0  0
  148.6845  137.8396  153.8617 H   0  0  0  0  0  0  0  0  0  0  0  0
  148.1343  139.8775  152.8211 H   0  0  0  0  0  0  0  0  0  0  0  0
  147.8207  140.2441  154.4991 H   0  0  0  0  0  0  0  0  0  0  0  0
  150.4188  140.6515  153.7429 H   0  0  0  0  0  0  0  0  0  0  0  0
  151.1383  139.3693  153.2650 H   0  0  0  0  0  0  0  0  0  0  0  0
  150.7808  137.6597  153.0277 H   0  0  0  0  0  0  0  0  0  0  0  0
  151.6685  133.2202  155.2662 H   0  0  0  0  0  0  0  0  0  0  0  0
  1  2  1  0  0  0  0
  1 27  1  0  0  0  0
  1 28  1  0  0  0  0
  1 29  1  0  0  0  0
  2  6  1  0  0  0  0
  2  3  1  0  0  0  0
  2 30  1  0  0  0  0
  3  4  1  0  0  0  0
  4  5  1  0  0  0  0
  4 31  1  0  0  0  0
  4 32  1  0  0  0  0
  5  6  1  0  0  0  0
  5 33  1  0  0  0  0
  5 34  1  0  0  0  0
  6  7  1  0  0  0  0
  6  8  1  0  0  0  0
  7 35  1  0  0  0  0
  8  9  1  0  0  0  0
  8 36  1  0  0  0  0
  8 37  1  0  0  0  0
  9 26  1  0  0  0  0
  9 10  1  0  0  0  0
 10 11  2  0  0  0  0
 10 38  1  0  0  0  0
 11 12  1  0  0  0  0
 12 26  2  0  0  0  0
 12 13  1  0  0  0  0
 13 14  1  0  0  0  0
 13 23  2  0  0  0  0
 14 18  1  0  0  0  0
 14 15  1  0  0  0  0
 15 22  1  0  0  0  0
 15 16  1  0  0  0  0
 15 39  1  0  0  0  0
 16 17  1  0  0  0  0
 16 40  1  0  0  0  0
 16 41  1  0  0  0  0
 17 18  1  0  0  0  0
 17 42  1  0  0  0  0
 17 43  1  0  0  0  0
 18 19  1  0  0  0  0
 18 44  1  0  0  0  0
 19 20  1  0  0  0  0
 19 22  1  0  0  0  0
 19 45  1  0  0  0  0
 20 21  1  0  0  0  0
 20 46  1  0  0  0  0
 20 47  1  0  0  0  0
 21 48  1  0  0  0  0
 22 49  1  0  0  0  0
 22 50  1  0  0  0  0
 23 24  1  0  0  0  0
 24 25  2  0  0  0  0
 24 51  1  0  0  0  0
 25 26  1  0  0  0  0
M  END
> <s_m_source_file>
AV-unprocessed.smi

> <i_m_source_file_index>
199

> <i_lp_mmshare_version>
43012

> <i_f3d_flags>
0

> <s_epik_input>
W0NIMl0xW0NIMl1PW0NAQEhdKFtDSDNdKVtDQEBdMShbT0hdKVtDSDJdbihbY0hdbjIpYyhjMjMpbltjSF1uYzNOKFtDQEBIXTQ1KVtDQEhdKFtDSDJdW0NIMl00KVtDQEhdKFtDSDJdNSlbQ0gyXVtPSF0=

> <s_epik_cmdline>
J2VwaWtfcHl0aG9uJywgJy1waCcsICc3LjAnLCAnLXRuJywgJzgnLCAnLW1hJywgJzIwMCcsICctbWV0YWxfYmluZGluZycsICctaW1hZScsICc8aW5maWxlLm1hZT4nLCAnLW9tYWUnLCAnPG91dGZpbGUubWFlPic=

> <r_lp_tautomer_probability>
1

> <r_epik_Ionization_Penalty>
0.00583903

> <r_epik_Ionization_Penalty_Charging>
0

> <r_epik_Ionization_Penalty_Neutral>
0.00583903

> <r_epik_State_Penalty>
-0

> <r_epik_Charging_Adjusted_Penalty>
0

> <i_epik_Tot_Q>
0

> <i_epik_Tot_abs_Q>
0

> <r_epik_Metal_State_Penalty>
-0

> <b_epik_Metal_Only>
0

> <s_lp_Force_Field>
OPLS_2005

> <r_lp_Energy>
84.6661

> <b_lp_Chiralities_Consistent>
1

> <s_lp_Variant>
AV-unprocessed.smi:199-7

> <Gold.Version>
5.8.1

> <Gold.Id.Protein>
6NUR|6NUR_protein|mol2

> <Gold.PLP.Fitness>
40.2579

> <Gold.PLP.PLP>
-33.4115

> <Gold.PLP.part.hbond>
-4.8211

> <Gold.PLP.part.metal>
0.0000

> <Gold.PLP.part.buried>
-4.5304

> <Gold.PLP.part.nonpolar>
-23.9500

> <Gold.PLP.part.repulsive>
0.3597

> <Gold.PLP.ligand.clash>
0.0000

> <Gold.PLP.ligand.torsion>
0.5185

> <Gold.PLP.Chemscore.Hbond>
2.6103

> <Gold.PLP.Chemscore.CHOScore>
0.0000

> <Gold.PLP.Chemscore.Metal>
0.0000

> <Gold.Chemscore.Hbonds>
donor molecule, donor type, donor heavy atom, donor atom, acceptor molecule, acceptor atom, score
      L1  H     7    35       P1 10747  1.00
      P1  H  8011  8017       L1    21  0.86
      P1  H 10752 10764       L1    23  0.98

> <Gold.PLP.Chemscore.Internal.Correction>
0.0526

> <Gold.Rescore>
     Score         DG    S(hbond)    S(metal)    S(lipo)     H(rot)  DE(clash)    DE(int)     intcor
     11.17     -15.03       2.22        0.00      85.42       3.07       1.86       2.00       ----

> <Gold.Chemscore.Fitness>
11.1691

> <Gold.Chemscore.DG>
-15.0334

> <Gold.Chemscore.ZeroCoef>
-5.4800

> <Gold.Chemscore.Hbond>
2.2233

> <Gold.Chemscore.Metal>
0.0000

> <Gold.Chemscore.Lipo>
85.4219

> <Gold.Chemscore.Internal_Hbond>
0.0000

> <Gold.Chemscore.DEClash>
1.8638

> <Gold.Chemscore.DEInternal>
2.0005

> <Gold.Chemscore.Rot>
3.0729

> <Gold.Chemscore.Internal.Correction>
   9.000000E+99

> <Gold.Chemscore.Hbonds>
donor molecule, donor type, donor heavy atom, donor atom, acceptor molecule, acceptor atom, score
      L1  H     7    35       P1 10747  1.00
      P1  H  8011  8017       L1    21  0.16
      P1  H 10752 10764       L1    23  0.43

> <Gold.Chemscore.Hbond.Weighted>
-7.4258

> <Gold.Chemscore.Metal.Weighted>
-0.0000

> <Gold.Chemscore.Lipo.Weighted>
-9.9944

> <Gold.Chemscore.Internal_Hbond.Weighted>
0.0000

> <Gold.Chemscore.DEClash.Weighted>
1.8638

> <Gold.Chemscore.DEInternal.Weighted>
2.0005

> <Gold.Chemscore.Rot.Weighted>
7.8667

> <Gold.Chemscore.Internal.Correction.Weighted>
   9.000000E+99

> <Gold.Protein.RotatedTorsions>
[ 6907 6896 6895 6894 ] final -146.68 input  -60.11 | X-H torsion
[ 7974 7965 7964 7962 ] final -178.75 input  175.53 | X-H torsion
[ 8008 7997 7996 7995 ] final  -48.26 input   59.86 | X-H torsion
[ 10167 10162 10161 10158 ] final  -75.42 input  -65.29 | X-H torsion
[ 10718 10713 10712 10709 ] final   11.33 input   66.30 | X-H torsion
[ 10763 10752 10751 10750 ] final  -45.81 input  -60.55 | X-H torsion
[ 11005 11000 10999 10996 ] final  140.62 input  -57.11 | X-H torsion

> <Gold.Protein.ActiveResidues>
 VAL166  LYS551  ARG553  GLY616  TRP617  ASP618  TYR619  PRO620  LYS621  CYS622 
 ASP623  PHE694  ASN695  SER759  ASP760  ASP761  ALA762  ILE779  LEU786  VAL792 
 PHE793  MET794  SER795  GLU796  ALA797  LYS798  CYS799  TRP800  GLU811  SER814 

> <Gold.Protein.RotatedAtoms>
  151.1450  133.4946  159.2595 H   0  0  0  0  0  0  0  0  0  0  0  0  # atno 6907 bound_to 6896
  151.1614  135.0275  159.8722 H   0  0  0  0  0  0  0  0  0  0  0  0  # atno 6908 bound_to 6896
  152.5463  134.1323  159.8497 H   0  0  0  0  0  0  0  0  0  0  0  0  # atno 6909 bound_to 6896
  144.7132  140.0822  143.6425 H   0  0  0  0  0  0  0  0  0  0  0  0  # atno 7974 bound_to 7965
  154.4027  140.1326  156.4310 H   0  0  0  0  0  0  0  0  0  0  0  0  # atno 8008 bound_to 7997
  155.7551  140.3487  155.5149 H   0  0  0  0  0  0  0  0  0  0  0  0  # atno 8009 bound_to 7997
  155.8913  140.1003  157.1407 H   0  0  0  0  0  0  0  0  0  0  0  0  # atno 8010 bound_to 7997
  140.4944  143.2373  151.7854 H   0  0  0  0  0  0  0  0  0  0  0  0  # atno 10167 bound_to 10162
  156.9941  130.6054  149.5689 H   0  0  0  0  0  0  0  0  0  0  0  0  # atno 10718 bound_to 10713
  154.0347  135.6652  153.4784 H   0  0  0  0  0  0  0  0  0  0  0  0  # atno 10763 bound_to 10752
  153.0526  135.5075  154.7899 H   0  0  0  0  0  0  0  0  0  0  0  0  # atno 10764 bound_to 10752
  154.6856  135.3052  154.9518 H   0  0  0  0  0  0  0  0  0  0  0  0  # atno 10765 bound_to 10752
  140.0341  134.9337  157.0719 H   0  0  0  0  0  0  0  0  0  0  0  0  # atno 11005 bound_to 11000
  145.9692  139.2857  143.1109 LP  0  0  0  0  0  0  0  0  0  0  0  0  # atno 17320 bound_to 7965
  145.9135  140.9164  143.0442 LP  0  0  0  0  0  0  0  0  0  0  0  0  # atno 17321 bound_to 7965
  139.4858  144.4606  151.9545 LP  0  0  0  0  0  0  0  0  0  0  0  0  # atno 17342 bound_to 10162
  140.3693  144.2875  150.5922 LP  0  0  0  0  0  0  0  0  0  0  0  0  # atno 17343 bound_to 10162
  156.0196  130.5291  150.8236 LP  0  0  0  0  0  0  0  0  0  0  0  0  # atno 17370 bound_to 10713
  157.5438  131.0941  150.9791 LP  0  0  0  0  0  0  0  0  0  0  0  0  # atno 17371 bound_to 10713
  140.4177  134.1914  155.7164 LP  0  0  0  0  0  0  0  0  0  0  0  0  # atno 17394 bound_to 11000
  141.1847  133.8337  157.1129 LP  0  0  0  0  0  0  0  0  0  0  0  0  # atno 17395 bound_to 11000

$$$$
