AV-unprocessed.smi:3333|AV-procd|sdf|12831|dock6
  -GOLD-   2272019213D 1   1.00000     0.00000
 Structure written by MMmdl.
 41 43  0  0  0  0  0  0  0  0  1 V2000
  155.7203  139.2697  166.0739 C   0  0  0  0  0  0  0  0  0  0  0  0
  155.7941  139.6074  164.5811 C   0  0  0  0  0  0  0  0  0  0  0  0
  155.1432  138.5716  163.7268 C   0  0  0  0  0  0  0  0  0  0  0  0
  154.9267  138.7263  162.4181 N   0  0  0  0  0  0  0  0  0  0  0  0
  154.2760  137.6291  161.8443 C   0  0  0  0  0  0  0  0  0  0  0  0
  153.9600  137.6295  160.3754 C   0  0  0  0  0  0  0  0  0  0  0  0
  154.3514  138.9625  159.7300 C   0  0  0  0  0  0  0  0  0  0  0  0
  155.2923  139.0183  158.9374 O   0  0  0  0  0  0  0  0  0  0  0  0
  153.6246  140.0339  160.0847 N   0  0  0  0  0  0  0  0  0  0  0  0
  153.8417  141.3927  159.5992 C   0  0  0  0  0  0  0  0  0  0  0  0
  152.6348  142.3105  159.8876 C   0  0  2  0  0  0  0  0  0  0  0  0
  151.4704  142.1504  158.8820 C   0  0  0  0  0  0  0  0  0  0  0  0
  151.2461  143.5879  158.3787 C   0  0  1  0  0  0  0  0  0  0  0  0
  150.6556  144.4459  159.5133 C   0  0  0  0  0  0  0  0  0  0  0  0
  151.8570  144.6288  160.4603 C   0  0  0  0  0  0  0  0  0  0  0  0
  152.9645  143.8155  159.7635 C   0  0  2  0  0  0  0  0  0  0  0  0
  152.6744  144.1103  158.2948 C   0  0  0  0  0  0  0  0  0  0  0  0
  153.9809  136.6421  162.7526 C   0  0  0  0  0  0  0  0  0  0  0  0
  154.5199  137.0520  164.3576 S   0  0  0  0  0  0  0  0  0  0  0  0
  156.2050  140.0418  166.6713 H   0  0  0  0  0  0  0  0  0  0  0  0
  156.2155  138.3222  166.2874 H   0  0  0  0  0  0  0  0  0  0  0  0
  154.6854  139.1899  166.4083 H   0  0  0  0  0  0  0  0  0  0  0  0
  155.3182  140.5705  164.3929 H   0  0  0  0  0  0  0  0  0  0  0  0
  156.8355  139.7082  164.2746 H   0  0  0  0  0  0  0  0  0  0  0  0
  154.4786  136.8073  159.8801 H   0  0  0  0  0  0  0  0  0  0  0  0
  152.8950  137.4668  160.2063 H   0  0  0  0  0  0  0  0  0  0  0  0
  152.8710  139.8999  160.7431 H   0  0  0  0  0  0  0  0  0  0  0  0
  154.7451  141.8044  160.0523 H   0  0  0  0  0  0  0  0  0  0  0  0
  154.0346  141.3407  158.5275 H   0  0  0  0  0  0  0  0  0  0  0  0
  152.2819  142.1032  160.8989 H   0  0  0  0  0  0  0  0  0  0  0  0
  151.7486  141.5018  158.0501 H   0  0  0  0  0  0  0  0  0  0  0  0
  150.5782  141.7279  159.3453 H   0  0  0  0  0  0  0  0  0  0  0  0
  150.6797  143.6421  157.4486 H   0  0  0  0  0  0  0  0  0  0  0  0
  150.3139  145.4107  159.1366 H   0  0  0  0  0  0  0  0  0  0  0  0
  149.8114  143.9581  160.0019 H   0  0  0  0  0  0  0  0  0  0  0  0
  152.1346  145.6816  160.5266 H   0  0  0  0  0  0  0  0  0  0  0  0
  151.6503  144.2755  161.4711 H   0  0  0  0  0  0  0  0  0  0  0  0
  153.9684  144.0788  160.0984 H   0  0  0  0  0  0  0  0  0  0  0  0
  153.3016  143.5479  157.6016 H   0  0  0  0  0  0  0  0  0  0  0  0
  152.7329  145.1716  158.0468 H   0  0  0  0  0  0  0  0  0  0  0  0
  153.4821  135.7011  162.5743 H   0  0  0  0  0  0  0  0  0  0  0  0
  1  2  1  0  0  0  0
  1 20  1  0  0  0  0
  1 21  1  0  0  0  0
  1 22  1  0  0  0  0
  2  3  1  0  0  0  0
  2 23  1  0  0  0  0
  2 24  1  0  0  0  0
  3 19  1  0  0  0  0
  3  4  2  0  0  0  0
  4  5  1  0  0  0  0
  5  6  1  0  0  0  0
  5 18  2  0  0  0  0
  6  7  1  0  0  0  0
  6 25  1  0  0  0  0
  6 26  1  0  0  0  0
  7  8  2  0  0  0  0
  7  9  1  0  0  0  0
  9 10  1  0  0  0  0
  9 27  1  0  0  0  0
 10 11  1  0  0  0  0
 10 28  1  0  0  0  0
 10 29  1  0  0  0  0
 11 16  1  0  0  0  0
 11 12  1  0  0  0  0
 11 30  1  0  0  0  0
 12 13  1  0  0  0  0
 12 31  1  0  0  0  0
 12 32  1  0  0  0  0
 13 17  1  0  0  0  0
 13 14  1  0  0  0  0
 13 33  1  0  0  0  0
 14 15  1  0  0  0  0
 14 34  1  0  0  0  0
 14 35  1  0  0  0  0
 15 16  1  0  0  0  0
 15 36  1  0  0  0  0
 15 37  1  0  0  0  0
 16 17  1  0  0  0  0
 16 38  1  0  0  0  0
 17 39  1  0  0  0  0
 17 40  1  0  0  0  0
 18 19  1  0  0  0  0
 18 41  1  0  0  0  0
M  END
> <s_m_source_file>
AV-unprocessed.smi

> <i_m_source_file_index>
3333

> <i_lp_mmshare_version>
43012

> <i_f3d_flags>
0

> <s_epik_input>
W0NIM11bQ0gyXWMxbmMoW2NIXXMxKVtDSDJdQyg9TylbTkhdW0NIMl1bQ0BIXShbQ0gyXVtDQEBIXTIzKVtDQEBIXShbQ0gyXTMpW0NIMl1bQ0gyXTI=

> <s_epik_cmdline>
J2VwaWtfcHl0aG9uJywgJy1waCcsICc3LjAnLCAnLXRuJywgJzgnLCAnLW1hJywgJzIwMCcsICctbWV0YWxfYmluZGluZycsICctaW1hZScsICc8aW5maWxlLm1hZT4nLCAnLW9tYWUnLCAnPG91dGZpbGUubWFlPic=

> <r_lp_tautomer_probability>
1

> <r_epik_Ionization_Penalty>
6.68371e-05

> <r_epik_Ionization_Penalty_Charging>
0

> <r_epik_Ionization_Penalty_Neutral>
6.68371e-05

> <r_epik_State_Penalty>
-0

> <r_epik_Charging_Adjusted_Penalty>
0

> <i_epik_Tot_Q>
0

> <i_epik_Tot_abs_Q>
0

> <r_epik_Metal_State_Penalty>
-0

> <b_epik_Metal_Only>
0

> <s_lp_Force_Field>
OPLS_2005

> <r_lp_Energy>
44.1536

> <b_lp_Chiralities_Consistent>
1

> <s_lp_Variant>
AV-unprocessed.smi:3333-1

> <Gold.Version>
5.8.1

> <Gold.Id.Protein>
6NUR|6NUR_protein|mol2

> <Gold.PLP.Fitness>
46.1975

> <Gold.PLP.PLP>
-43.9852

> <Gold.PLP.part.hbond>
-1.0000

> <Gold.PLP.part.metal>
0.0000

> <Gold.PLP.part.buried>
-5.8824

> <Gold.PLP.part.nonpolar>
-36.3758

> <Gold.PLP.part.repulsive>
0.0700

> <Gold.PLP.ligand.clash>
0.0000

> <Gold.PLP.ligand.torsion>
0.4082

> <Gold.PLP.Chemscore.Hbond>
1.0000

> <Gold.PLP.Chemscore.CHOScore>
0.0000

> <Gold.PLP.Chemscore.Metal>
0.0000

> <Gold.Chemscore.Hbonds>
donor molecule, donor type, donor heavy atom, donor atom, acceptor molecule, acceptor atom, score
      P1  H  7997  8009       L1     8  1.00

> <Gold.PLP.Chemscore.Internal.Correction>
0.0286

> <Gold.Rescore>
     Score         DG    S(hbond)    S(metal)    S(lipo)     H(rot)  DE(clash)    DE(int)     intcor
     20.80     -21.30       1.00        0.00     137.85       1.42       0.05       0.45       ----

> <Gold.Chemscore.Fitness>
20.7982

> <Gold.Chemscore.DG>
-21.2952

> <Gold.Chemscore.ZeroCoef>
-5.4800

> <Gold.Chemscore.Hbond>
0.9967

> <Gold.Chemscore.Metal>
0.0000

> <Gold.Chemscore.Lipo>
137.8499

> <Gold.Chemscore.Internal_Hbond>
0.0000

> <Gold.Chemscore.DEClash>
0.0505

> <Gold.Chemscore.DEInternal>
0.4466

> <Gold.Chemscore.Rot>
1.4227

> <Gold.Chemscore.Internal.Correction>
   9.000000E+99

> <Gold.Chemscore.Hbonds>
donor molecule, donor type, donor heavy atom, donor atom, acceptor molecule, acceptor atom, score
      P1  H  7997  8009       L1     8  1.00

> <Gold.Chemscore.Hbond.Weighted>
-3.3289

> <Gold.Chemscore.Metal.Weighted>
-0.0000

> <Gold.Chemscore.Lipo.Weighted>
-16.1284

> <Gold.Chemscore.Internal_Hbond.Weighted>
0.0000

> <Gold.Chemscore.DEClash.Weighted>
0.0505

> <Gold.Chemscore.DEInternal.Weighted>
0.4466

> <Gold.Chemscore.Rot.Weighted>
3.6421

> <Gold.Chemscore.Internal.Correction.Weighted>
   9.000000E+99

> <Gold.Protein.RotatedTorsions>
[ 6907 6896 6895 6894 ] final   66.19 input  -60.11 | X-H torsion
[ 7974 7965 7964 7962 ] final  -84.68 input  175.53 | X-H torsion
[ 8008 7997 7996 7995 ] final   95.95 input   59.86 | X-H torsion
[ 10167 10162 10161 10158 ] final   93.85 input  -65.29 | X-H torsion
[ 10718 10713 10712 10709 ] final   70.93 input   66.30 | X-H torsion
[ 10763 10752 10751 10750 ] final  -85.91 input  -60.55 | X-H torsion
[ 11005 11000 10999 10996 ] final  -84.15 input  -57.11 | X-H torsion

> <Gold.Protein.ActiveResidues>
 VAL166  LYS551  ARG553  GLY616  TRP617  ASP618  TYR619  PRO620  LYS621  CYS622 
 ASP623  PHE694  ASN695  SER759  ASP760  ASP761  ALA762  ILE779  LEU786  VAL792 
 PHE793  MET794  SER795  GLU796  ALA797  LYS798  CYS799  TRP800  GLU811  SER814 

> <Gold.Protein.RotatedAtoms>
  152.4463  134.5487  159.9860 H   0  0  0  0  0  0  0  0  0  0  0  0  # atno 6907 bound_to 6896
  151.5571  133.3403  159.2972 H   0  0  0  0  0  0  0  0  0  0  0  0  # atno 6908 bound_to 6896
  150.8380  134.7694  159.6972 H   0  0  0  0  0  0  0  0  0  0  0  0  # atno 6909 bound_to 6896
  145.5034  140.9545  143.1747 H   0  0  0  0  0  0  0  0  0  0  0  0  # atno 7974 bound_to 7965
  156.0743  140.3279  155.7615 H   0  0  0  0  0  0  0  0  0  0  0  0  # atno 8008 bound_to 7997
  155.5255  140.0589  157.2916 H   0  0  0  0  0  0  0  0  0  0  0  0  # atno 8009 bound_to 7997
  154.4547  140.1936  156.0432 H   0  0  0  0  0  0  0  0  0  0  0  0  # atno 8010 bound_to 7997
  139.8140  144.6761  150.9604 H   0  0  0  0  0  0  0  0  0  0  0  0  # atno 10167 bound_to 10162
  157.6426  130.9502  150.0719 H   0  0  0  0  0  0  0  0  0  0  0  0  # atno 10718 bound_to 10713
  154.6164  135.5468  153.7528 H   0  0  0  0  0  0  0  0  0  0  0  0  # atno 10763 bound_to 10752
  153.0218  135.6402  154.1504 H   0  0  0  0  0  0  0  0  0  0  0  0  # atno 10764 bound_to 10752
  154.1440  135.2906  155.3133 H   0  0  0  0  0  0  0  0  0  0  0  0  # atno 10765 bound_to 10752
  141.1652  133.7331  156.8826 H   0  0  0  0  0  0  0  0  0  0  0  0  # atno 11005 bound_to 11000
  144.7767  139.6614  143.7171 LP  0  0  0  0  0  0  0  0  0  0  0  0  # atno 17320 bound_to 7965
  146.2212  139.5639  142.9617 LP  0  0  0  0  0  0  0  0  0  0  0  0  # atno 17321 bound_to 7965
  140.7816  143.4157  151.0921 LP  0  0  0  0  0  0  0  0  0  0  0  0  # atno 17342 bound_to 10162
  139.7822  143.8339  152.3139 LP  0  0  0  0  0  0  0  0  0  0  0  0  # atno 17343 bound_to 10162
  156.1721  130.3647  149.9151 LP  0  0  0  0  0  0  0  0  0  0  0  0  # atno 17370 bound_to 10713
  156.7124  130.8975  151.3610 LP  0  0  0  0  0  0  0  0  0  0  0  0  # atno 17371 bound_to 10713
  140.1704  134.9104  157.2826 LP  0  0  0  0  0  0  0  0  0  0  0  0  # atno 17394 bound_to 11000
  140.2508  134.3685  155.7443 LP  0  0  0  0  0  0  0  0  0  0  0  0  # atno 17395 bound_to 11000

$$$$
