AV-unprocessed.smi:1762|AV-procd|sdf|7119|dock1
  -GOLD-   22720 8353D 1   1.00000     0.00000
 Structure written by MMmdl.
 52 53  0  0  0  0  0  0  0  0  3 V2000
  149.7753  131.3587  154.5947 C   0  0  0  0  0  0  0  0  0  0  0  0
  148.7519  131.1073  153.4816 C   0  0  2  0  0  0  0  0  0  0  0  0
  148.0841  132.4114  153.0073 C   0  0  0  0  0  0  0  0  0  0  0  0
  147.0340  132.1337  151.9898 N   0  3  2  0  0  0  0  0  0  0  0  0
  146.3859  133.3488  151.3900 C   0  0  2  0  0  0  0  0  0  0  0  0
  145.6857  134.1901  152.4854 C   0  0  0  0  0  0  0  0  0  0  0  0
  144.7660  133.6744  153.1301 O   0  0  0  0  0  0  0  0  0  0  0  0
  146.2478  135.4242  152.5921 N   0  5  0  0  0  0  0  0  0  0  0  0
  145.9073  136.3973  153.6283 C   0  0  0  0  0  0  0  0  0  0  0  0
  145.9002  137.8274  153.0396 C   0  0  0  0  0  0  0  0  0  0  0  0
  146.9767  138.7636  153.5850 C   0  0  0  0  0  0  0  0  0  0  0  0
  146.8887  140.1593  153.3774 C   0  0  0  0  0  0  0  0  0  0  0  0
  147.9091  140.9842  153.8874 C   0  0  0  0  0  0  0  0  0  0  0  0
  148.9822  140.3882  154.5768 C   0  0  0  0  0  0  0  0  0  0  0  0
  148.9863  138.9873  154.7258 C   0  0  0  0  0  0  0  0  0  0  0  0
  148.0132  138.1866  154.2408 N   0  0  0  0  0  0  0  0  0  0  0  0
  145.4141  133.0547  150.1965 C   0  0  0  0  0  0  0  0  0  0  0  0
  143.9962  132.6664  150.6606 C   0  0  0  0  0  0  0  0  0  0  0  0
  145.9406  132.0194  149.1803 C   0  0  0  0  0  0  0  0  0  0  0  0
  146.0487  131.1734  152.5663 C   0  0  0  0  0  0  0  0  0  0  0  0
  146.7314  129.8894  153.0697 C   0  0  1  0  0  0  0  0  0  0  0  0
  147.2193  128.9694  151.9364 C   0  0  0  0  0  0  0  0  0  0  0  0
  147.7667  130.2169  153.9926 O   0  0  0  0  0  0  0  0  0  0  0  0
  150.5702  132.0237  154.2559 H   0  0  0  0  0  0  0  0  0  0  0  0
  150.2387  130.4253  154.9157 H   0  0  0  0  0  0  0  0  0  0  0  0
  149.3063  131.8146  155.4672 H   0  0  0  0  0  0  0  0  0  0  0  0
  149.2733  130.6395  152.6462 H   0  0  0  0  0  0  0  0  0  0  0  0
  147.6412  132.9449  153.8500 H   0  0  0  0  0  0  0  0  0  0  0  0
  148.8717  133.0443  152.6043 H   0  0  0  0  0  0  0  0  0  0  0  0
  147.2090  133.9294  150.9648 H   0  0  0  0  0  0  0  0  0  0  0  0
  144.9362  136.1846  154.0760 H   0  0  0  0  0  0  0  0  0  0  0  0
  146.6217  136.3768  154.4526 H   0  0  0  0  0  0  0  0  0  0  0  0
  146.0243  137.7629  151.9578 H   0  0  0  0  0  0  0  0  0  0  0  0
  144.9217  138.2843  153.1941 H   0  0  0  0  0  0  0  0  0  0  0  0
  146.0507  140.5868  152.8466 H   0  0  0  0  0  0  0  0  0  0  0  0
  147.8690  142.0548  153.7518 H   0  0  0  0  0  0  0  0  0  0  0  0
  149.7829  140.9893  154.9811 H   0  0  0  0  0  0  0  0  0  0  0  0
  149.7942  138.4958  155.2471 H   0  0  0  0  0  0  0  0  0  0  0  0
  145.2658  133.9892  149.6573 H   0  0  0  0  0  0  0  0  0  0  0  0
  143.9776  131.6890  151.1436 H   0  0  0  0  0  0  0  0  0  0  0  0
  143.3068  132.6239  149.8170 H   0  0  0  0  0  0  0  0  0  0  0  0
  143.6008  133.3946  151.3696 H   0  0  0  0  0  0  0  0  0  0  0  0
  145.9647  131.0147  149.6020 H   0  0  0  0  0  0  0  0  0  0  0  0
  146.9465  132.2560  148.8351 H   0  0  0  0  0  0  0  0  0  0  0  0
  145.2969  131.9813  148.3012 H   0  0  0  0  0  0  0  0  0  0  0  0
  145.5271  131.6577  153.3933 H   0  0  0  0  0  0  0  0  0  0  0  0
  145.2827  130.8918  151.8444 H   0  0  0  0  0  0  0  0  0  0  0  0
  145.9926  129.3232  153.6378 H   0  0  0  0  0  0  0  0  0  0  0  0
  146.3801  128.6263  151.3307 H   0  0  0  0  0  0  0  0  0  0  0  0
  147.7170  128.0870  152.3385 H   0  0  0  0  0  0  0  0  0  0  0  0
  147.9156  129.4713  151.2649 H   0  0  0  0  0  0  0  0  0  0  0  0
  147.4900  131.6602  151.2230 H   0  0  0  0  0  0  0  0  0  0  0  0
  1  2  1  0  0  0  0
  1 24  1  0  0  0  0
  1 25  1  0  0  0  0
  1 26  1  0  0  0  0
  2 23  1  0  0  0  0
  2  3  1  0  0  0  0
  2 27  1  0  0  0  0
  3  4  1  0  0  0  0
  3 28  1  0  0  0  0
  3 29  1  0  0  0  0
  4  5  1  0  0  0  0
  4 20  1  0  0  0  0
  4 52  1  0  0  0  0
  5  6  1  0  0  0  0
  5 17  1  0  0  0  0
  5 30  1  0  0  0  0
  6  7  2  0  0  0  0
  6  8  1  0  0  0  0
  8  9  1  0  0  0  0
  9 10  1  0  0  0  0
  9 31  1  0  0  0  0
  9 32  1  0  0  0  0
 10 11  1  0  0  0  0
 10 33  1  0  0  0  0
 10 34  1  0  0  0  0
 11 16  1  0  0  0  0
 11 12  2  0  0  0  0
 12 13  1  0  0  0  0
 12 35  1  0  0  0  0
 13 14  2  0  0  0  0
 13 36  1  0  0  0  0
 14 15  1  0  0  0  0
 14 37  1  0  0  0  0
 15 16  2  0  0  0  0
 15 38  1  0  0  0  0
 17 18  1  0  0  0  0
 17 19  1  0  0  0  0
 17 39  1  0  0  0  0
 18 40  1  0  0  0  0
 18 41  1  0  0  0  0
 18 42  1  0  0  0  0
 19 43  1  0  0  0  0
 19 44  1  0  0  0  0
 19 45  1  0  0  0  0
 20 21  1  0  0  0  0
 20 46  1  0  0  0  0
 20 47  1  0  0  0  0
 21 22  1  0  0  0  0
 21 23  1  0  0  0  0
 21 48  1  0  0  0  0
 22 49  1  0  0  0  0
 22 50  1  0  0  0  0
 22 51  1  0  0  0  0
M  CHG  1   4   1
M  CHG  1   8  -1
M  END
> <s_m_source_file>
AV-unprocessed.smi

> <i_m_source_file_index>
1762

> <i_lp_mmshare_version>
43012

> <i_f3d_flags>
0

> <s_epik_input>
W0NIM11bQ0BASF0xW0NIMl1OKFtDSDJdW0NASF0oTzEpW0NIM10pW0NAQEhdKFtDSF0oW0NIM10pW0NIM10pQyg9TylbTkhdW0NIMl1bQ0gyXWMyW2NIXVtjSF1bY0hdW2NIXW4y

> <s_epik_cmdline>
J2VwaWtfcHl0aG9uJywgJy1waCcsICc3LjAnLCAnLXRuJywgJzgnLCAnLW1hJywgJzIwMCcsICctbWV0YWxfYmluZGluZycsICctaW1hZScsICc8aW5maWxlLm1hZT4nLCAnLW9tYWUnLCAnPG91dGZpbGUubWFlPic=

> <r_epik_Ionization_Penalty>
7.82966

> <r_epik_Ionization_Penalty_Charging>
7.7461

> <r_epik_Ionization_Penalty_Neutral>
0.0835571

> <r_epik_State_Penalty>
8.52273

> <r_epik_Charging_Adjusted_Penalty>
16.2688

> <i_epik_Tot_Q>
0

> <i_epik_Tot_abs_Q>
2

> <r_epik_Metal_State_Penalty>
4.47451

> <b_epik_Metal_Only>
1

> <s_lp_Force_Field>
OPLS_2005

> <r_lp_Energy>
24.7252

> <b_lp_Chiralities_Consistent>
1

> <s_lp_Variant>
AV-unprocessed.smi:1762-21

> <Gold.Version>
5.8.1

> <Gold.Id.Protein>
6NUR|6NUR_protein|mol2

> <Gold.PLP.Fitness>
40.0421

> <Gold.PLP.PLP>
-38.8324

> <Gold.PLP.part.hbond>
-1.0000

> <Gold.PLP.part.metal>
0.0000

> <Gold.PLP.part.buried>
-2.3217

> <Gold.PLP.part.nonpolar>
-36.7392

> <Gold.PLP.part.repulsive>
2.6342

> <Gold.PLP.ligand.clash>
0.0000

> <Gold.PLP.ligand.torsion>
1.0953

> <Gold.PLP.Chemscore.Hbond>
1.0000

> <Gold.PLP.Chemscore.CHOScore>
0.0000

> <Gold.PLP.Chemscore.Metal>
0.0000

> <Gold.Chemscore.Hbonds>
donor molecule, donor type, donor heavy atom, donor atom, acceptor molecule, acceptor atom, score
      L1  H     4    52       P1 10747  1.00

> <Gold.PLP.Chemscore.Internal.Correction>
0.4004

> <Gold.Rescore>
     Score         DG    S(hbond)    S(metal)    S(lipo)     H(rot)  DE(clash)    DE(int)     intcor
     13.54     -17.64       1.00        0.00     110.52       1.60       0.37       3.74       ----

> <Gold.Chemscore.Fitness>
13.5397

> <Gold.Chemscore.DG>
-17.6437

> <Gold.Chemscore.ZeroCoef>
-5.4800

> <Gold.Chemscore.Hbond>
0.9977

> <Gold.Chemscore.Metal>
0.0000

> <Gold.Chemscore.Lipo>
110.5151

> <Gold.Chemscore.Internal_Hbond>
0.0000

> <Gold.Chemscore.DEClash>
0.3657

> <Gold.Chemscore.DEInternal>
3.7383

> <Gold.Chemscore.Rot>
1.6012

> <Gold.Chemscore.Internal.Correction>
   9.000000E+99

> <Gold.Chemscore.Hbonds>
donor molecule, donor type, donor heavy atom, donor atom, acceptor molecule, acceptor atom, score
      L1  H     4    52       P1 10747  0.98

> <Gold.Chemscore.Hbond.Weighted>
-3.3324

> <Gold.Chemscore.Metal.Weighted>
-0.0000

> <Gold.Chemscore.Lipo.Weighted>
-12.9303

> <Gold.Chemscore.Internal_Hbond.Weighted>
0.0000

> <Gold.Chemscore.DEClash.Weighted>
0.3657

> <Gold.Chemscore.DEInternal.Weighted>
3.7383

> <Gold.Chemscore.Rot.Weighted>
4.0990

> <Gold.Chemscore.Internal.Correction.Weighted>
   9.000000E+99

> <Gold.Protein.RotatedTorsions>
[ 6907 6896 6895 6894 ] final  -64.54 input  -60.11 | X-H torsion
[ 7974 7965 7964 7962 ] final -115.58 input  175.53 | X-H torsion
[ 8008 7997 7996 7995 ] final  140.94 input   59.86 | X-H torsion
[ 10167 10162 10161 10158 ] final  -41.42 input  -65.29 | X-H torsion
[ 10718 10713 10712 10709 ] final   82.55 input   66.30 | X-H torsion
[ 10763 10752 10751 10750 ] final   94.87 input  -60.55 | X-H torsion
[ 11005 11000 10999 10996 ] final  128.73 input  -57.11 | X-H torsion

> <Gold.Protein.ActiveResidues>
 VAL166  LYS551  ARG553  GLY616  TRP617  ASP618  TYR619  PRO620  LYS621  CYS622 
 ASP623  PHE694  ASN695  SER759  ASP760  ASP761  ALA762  ILE779  LEU786  VAL792 
 PHE793  MET794  SER795  GLU796  ALA797  LYS798  CYS799  TRP800  GLU811  SER814 

> <Gold.Protein.RotatedAtoms>
  150.7579  134.6284  159.6172 H   0  0  0  0  0  0  0  0  0  0  0  0  # atno 6907 bound_to 6896
  152.3569  134.6924  160.0228 H   0  0  0  0  0  0  0  0  0  0  0  0  # atno 6908 bound_to 6896
  151.7327  133.3282  159.3381 H   0  0  0  0  0  0  0  0  0  0  0  0  # atno 6909 bound_to 6896
  145.1068  140.8586  143.3894 H   0  0  0  0  0  0  0  0  0  0  0  0  # atno 7974 bound_to 7965
  156.2972  140.2328  156.4483 H   0  0  0  0  0  0  0  0  0  0  0  0  # atno 8008 bound_to 7997
  154.8124  140.0442  157.1373 H   0  0  0  0  0  0  0  0  0  0  0  0  # atno 8009 bound_to 7997
  154.9408  140.3029  155.5125 H   0  0  0  0  0  0  0  0  0  0  0  0  # atno 8010 bound_to 7997
  140.7003  143.3096  151.3064 H   0  0  0  0  0  0  0  0  0  0  0  0  # atno 10167 bound_to 10162
  157.6859  131.0052  150.2391 H   0  0  0  0  0  0  0  0  0  0  0  0  # atno 10718 bound_to 10713
  153.2467  135.4274  155.0754 H   0  0  0  0  0  0  0  0  0  0  0  0  # atno 10763 bound_to 10752
  154.8364  135.3416  154.6572 H   0  0  0  0  0  0  0  0  0  0  0  0  # atno 10764 bound_to 10752
  153.6994  135.7029  153.5124 H   0  0  0  0  0  0  0  0  0  0  0  0  # atno 10765 bound_to 10752
  139.9577  134.9609  156.9045 H   0  0  0  0  0  0  0  0  0  0  0  0  # atno 11005 bound_to 11000
  145.0893  139.2902  143.5743 LP  0  0  0  0  0  0  0  0  0  0  0  0  # atno 17320 bound_to 7965
  146.3528  140.0425  142.8642 LP  0  0  0  0  0  0  0  0  0  0  0  0  # atno 17321 bound_to 7965
  139.6513  144.0356  152.2628 LP  0  0  0  0  0  0  0  0  0  0  0  0  # atno 17342 bound_to 10162
  139.9894  144.6372  150.7828 LP  0  0  0  0  0  0  0  0  0  0  0  0  # atno 17343 bound_to 10162
  156.3009  130.3758  149.7751 LP  0  0  0  0  0  0  0  0  0  0  0  0  # atno 17370 bound_to 10713
  156.5382  130.8288  151.3260 LP  0  0  0  0  0  0  0  0  0  0  0  0  # atno 17371 bound_to 10713
  140.5572  134.0570  155.7387 LP  0  0  0  0  0  0  0  0  0  0  0  0  # atno 17394 bound_to 11000
  141.1250  133.9398  157.2653 LP  0  0  0  0  0  0  0  0  0  0  0  0  # atno 17395 bound_to 11000

$$$$
