AV-unprocessed.smi:281|AV-procd|sdf|2114|dock7
  -GOLD-   2262021413D 1   1.00000     0.00000
 Structure written by MMmdl.
 55 59  0  0  0  0  0  0  0  0  1 V2000
  148.6708  137.4329  158.7916 C   0  0  0  0  0  0  0  0  0  0  0  0
  149.7722  136.8826  157.8804 C   0  0  1  0  0  0  0  0  0  0  0  0
  149.5763  135.3891  157.5766 C   0  0  0  0  0  0  0  0  0  0  0  0
  150.5938  134.9468  156.6360 N   0  0  0  0  0  0  0  0  0  0  0  0
  150.6178  133.6116  156.4468 C   0  0  0  0  0  0  0  0  0  0  0  0
  151.2334  132.8660  157.3961 N   0  0  0  0  0  0  0  0  0  0  0  0
  151.2914  131.5371  157.2663 C   0  0  0  0  0  0  0  0  0  0  0  0
  150.8101  130.7718  156.2840 N   0  0  0  0  0  0  0  0  0  0  0  0
  150.1926  131.5215  155.3260 C   0  0  0  0  0  0  0  0  0  0  0  0
  150.0472  132.9371  155.3304 C   0  0  0  0  0  0  0  0  0  0  0  0
  149.3527  133.3460  154.1984 N   0  0  0  0  0  0  0  0  0  0  0  0
  149.1035  132.2354  153.5604 C   0  0  0  0  0  0  0  0  0  0  0  0
  149.5829  131.0918  154.1597 N   0  0  0  0  0  0  0  0  0  0  0  0
  149.4540  129.7273  153.6698 C   0  0  0  0  0  0  0  0  0  0  0  0
  148.0255  129.1462  153.8113 C   0  0  1  0  0  0  0  0  0  0  0  0
  147.5081  129.4999  155.0810 O   0  0  0  0  0  0  0  0  0  0  0  0
  147.0760  129.6600  152.7265 C   0  0  0  0  0  0  0  0  0  0  0  0
  146.8622  128.4457  151.8311 C   0  0  0  0  0  0  0  0  0  0  0  0
  146.8827  127.3735  152.7560 O   0  0  0  0  0  0  0  0  0  0  0  0
  147.9618  127.6140  153.6473 C   0  0  0  0  0  0  0  0  0  0  0  0
  150.5887  135.7173  155.3999 C   0  0  0  0  0  0  0  0  0  0  0  0
  150.7267  137.2307  155.6871 C   0  0  1  0  0  0  0  0  0  0  0  0
  152.1330  137.6421  156.1447 C   0  0  0  0  0  0  0  0  0  0  0  0
  152.7231  138.3689  154.9441 C   0  0  0  0  0  0  0  0  0  0  0  0
  151.5895  139.0066  154.3866 O   0  0  0  0  0  0  0  0  0  0  0  0
  150.5406  138.0498  154.3864 C   0  0  2  0  0  0  0  0  0  0  0  0
  149.1813  138.7434  154.2158 C   0  0  0  0  0  0  0  0  0  0  0  0
  149.7453  137.6208  156.6576 O   0  0  0  0  0  0  0  0  0  0  0  0
  148.6517  136.9068  159.7465 H   0  0  0  0  0  0  0  0  0  0  0  0
  147.6885  137.3278  158.3305 H   0  0  0  0  0  0  0  0  0  0  0  0
  148.8303  138.4915  158.9983 H   0  0  0  0  0  0  0  0  0  0  0  0
  150.7317  137.0272  158.3782 H   0  0  0  0  0  0  0  0  0  0  0  0
  149.6424  134.8063  158.4964 H   0  0  0  0  0  0  0  0  0  0  0  0
  148.5842  135.2202  157.1559 H   0  0  0  0  0  0  0  0  0  0  0  0
  151.7963  131.0113  158.0633 H   0  0  0  0  0  0  0  0  0  0  0  0
  148.5610  132.2226  152.6263 H   0  0  0  0  0  0  0  0  0  0  0  0
  149.7666  129.7090  152.6246 H   0  0  0  0  0  0  0  0  0  0  0  0
  150.1671  129.1040  154.2108 H   0  0  0  0  0  0  0  0  0  0  0  0
  146.9680  130.2689  154.9808 H   0  0  0  0  0  0  0  0  0  0  0  0
  146.1163  129.9562  153.1537 H   0  0  0  0  0  0  0  0  0  0  0  0
  147.4653  130.5173  152.1761 H   0  0  0  0  0  0  0  0  0  0  0  0
  145.9226  128.4872  151.2795 H   0  0  0  0  0  0  0  0  0  0  0  0
  147.6800  128.3346  151.1172 H   0  0  0  0  0  0  0  0  0  0  0  0
  148.8654  127.2311  153.1725 H   0  0  0  0  0  0  0  0  0  0  0  0
  147.8311  127.0772  154.5878 H   0  0  0  0  0  0  0  0  0  0  0  0
  151.3966  135.3792  154.7491 H   0  0  0  0  0  0  0  0  0  0  0  0
  149.6543  135.5352  154.8673 H   0  0  0  0  0  0  0  0  0  0  0  0
  152.0686  138.3472  156.9744 H   0  0  0  0  0  0  0  0  0  0  0  0
  152.7504  136.8048  156.4713 H   0  0  0  0  0  0  0  0  0  0  0  0
  153.4957  139.0863  155.2221 H   0  0  0  0  0  0  0  0  0  0  0  0
  153.1453  137.6645  154.2256 H   0  0  0  0  0  0  0  0  0  0  0  0
  150.7105  137.4041  153.5226 H   0  0  0  0  0  0  0  0  0  0  0  0
  148.3672  138.0187  154.2397 H   0  0  0  0  0  0  0  0  0  0  0  0
  149.1319  139.2676  153.2614 H   0  0  0  0  0  0  0  0  0  0  0  0
  149.0045  139.4765  155.0033 H   0  0  0  0  0  0  0  0  0  0  0  0
  1  2  1  0  0  0  0
  1 29  1  0  0  0  0
  1 30  1  0  0  0  0
  1 31  1  0  0  0  0
  2 28  1  0  0  0  0
  2  3  1  0  0  0  0
  2 32  1  0  0  0  0
  3  4  1  0  0  0  0
  3 33  1  0  0  0  0
  3 34  1  0  0  0  0
  4  5  1  0  0  0  0
  4 21  1  0  0  0  0
  5 10  1  0  0  0  0
  5  6  2  0  0  0  0
  6  7  1  0  0  0  0
  7  8  2  0  0  0  0
  7 35  1  0  0  0  0
  8  9  1  0  0  0  0
  9 13  1  0  0  0  0
  9 10  2  0  0  0  0
 10 11  1  0  0  0  0
 11 12  2  0  0  0  0
 12 13  1  0  0  0  0
 12 36  1  0  0  0  0
 13 14  1  0  0  0  0
 14 15  1  0  0  0  0
 14 37  1  0  0  0  0
 14 38  1  0  0  0  0
 15 20  1  0  0  0  0
 15 16  1  0  0  0  0
 15 17  1  0  0  0  0
 16 39  1  0  0  0  0
 17 18  1  0  0  0  0
 17 40  1  0  0  0  0
 17 41  1  0  0  0  0
 18 19  1  0  0  0  0
 18 42  1  0  0  0  0
 18 43  1  0  0  0  0
 19 20  1  0  0  0  0
 20 44  1  0  0  0  0
 20 45  1  0  0  0  0
 21 22  1  0  0  0  0
 21 46  1  0  0  0  0
 21 47  1  0  0  0  0
 22 26  1  0  0  0  0
 22 23  1  0  0  0  0
 22 28  1  0  0  0  0
 23 24  1  0  0  0  0
 23 48  1  0  0  0  0
 23 49  1  0  0  0  0
 24 25  1  0  0  0  0
 24 50  1  0  0  0  0
 24 51  1  0  0  0  0
 25 26  1  0  0  0  0
 26 27  1  0  0  0  0
 26 52  1  0  0  0  0
 27 53  1  0  0  0  0
 27 54  1  0  0  0  0
 27 55  1  0  0  0  0
M  END
> <s_m_source_file>
AV-unprocessed.smi

> <i_m_source_file_index>
281

> <i_lp_mmshare_version>
43012

> <i_f3d_flags>
0

> <s_epik_input>
W0NIM11bQ0BASF0xT1tDSDJdW0NIMl1bQ0BAXTEyW0NIMl1OKFtDSDJdW0NASF0oTzIpW0NIM10pYyhuW2NIXW4zKWMoYzM0KW5bY0hdbjRbQ0gyXVtDQEBdNShbT0hdKVtDSDJdW0NIMl1PW0NIMl01

> <s_epik_cmdline>
J2VwaWtfcHl0aG9uJywgJy1waCcsICc3LjAnLCAnLXRuJywgJzgnLCAnLW1hJywgJzIwMCcsICctbWV0YWxfYmluZGluZycsICctaW1hZScsICc8aW5maWxlLm1hZT4nLCAnLW9tYWUnLCAnPG91dGZpbGUubWFlPic=

> <r_lp_tautomer_probability>
1

> <r_epik_Ionization_Penalty>
0.00571331

> <r_epik_Ionization_Penalty_Charging>
0

> <r_epik_Ionization_Penalty_Neutral>
0.00571331

> <r_epik_State_Penalty>
0.00399586

> <r_epik_Charging_Adjusted_Penalty>
0.00399586

> <i_epik_Tot_Q>
0

> <i_epik_Tot_abs_Q>
0

> <r_epik_Metal_State_Penalty>
-0

> <b_epik_Metal_Only>
0

> <s_lp_Force_Field>
OPLS_2005

> <r_lp_Energy>
55.7735

> <b_lp_Chiralities_Consistent>
1

> <s_lp_Variant>
AV-unprocessed.smi:281-14

> <Gold.Version>
5.8.1

> <Gold.Id.Protein>
6NUR|6NUR_protein|mol2

> <Gold.PLP.Fitness>
43.2555

> <Gold.PLP.PLP>
-37.4556

> <Gold.PLP.part.hbond>
-2.1855

> <Gold.PLP.part.metal>
0.0000

> <Gold.PLP.part.buried>
-5.2049

> <Gold.PLP.part.nonpolar>
-30.0949

> <Gold.PLP.part.repulsive>
0.2961

> <Gold.PLP.ligand.clash>
0.0000

> <Gold.PLP.ligand.torsion>
1.0070

> <Gold.PLP.Chemscore.Hbond>
1.9920

> <Gold.PLP.Chemscore.CHOScore>
0.5705

> <Gold.PLP.Chemscore.Metal>
0.0000

> <Gold.Chemscore.Hbonds>
donor molecule, donor type, donor heavy atom, donor atom, acceptor molecule, acceptor atom, score
      P1  H  6896  6909       L1     6  0.99
      P1  H  7989  7998       L1    25  0.96
      L1  C    12    36       P1 10747  0.49

> <Gold.PLP.Chemscore.Internal.Correction>
0.1264

> <Gold.Rescore>
     Score         DG    S(hbond)    S(metal)    S(lipo)     H(rot)  DE(clash)    DE(int)     intcor
     13.49     -15.62       1.74        0.00      82.75       2.09       0.01       2.12       ----

> <Gold.Chemscore.Fitness>
13.4918

> <Gold.Chemscore.DG>
-15.6213

> <Gold.Chemscore.ZeroCoef>
-5.4800

> <Gold.Chemscore.Hbond>
1.7415

> <Gold.Chemscore.Metal>
0.0000

> <Gold.Chemscore.Lipo>
82.7525

> <Gold.Chemscore.Internal_Hbond>
0.0000

> <Gold.Chemscore.DEClash>
0.0092

> <Gold.Chemscore.DEInternal>
2.1203

> <Gold.Chemscore.Rot>
2.0927

> <Gold.Chemscore.Internal.Correction>
   9.000000E+99

> <Gold.Chemscore.Hbonds>
donor molecule, donor type, donor heavy atom, donor atom, acceptor molecule, acceptor atom, score
      P1  H  6896  6909       L1     6  0.73
      P1  H  7989  7998       L1    25  0.86

> <Gold.Chemscore.Hbond.Weighted>
-5.8166

> <Gold.Chemscore.Metal.Weighted>
-0.0000

> <Gold.Chemscore.Lipo.Weighted>
-9.6820

> <Gold.Chemscore.Internal_Hbond.Weighted>
0.0000

> <Gold.Chemscore.DEClash.Weighted>
0.0092

> <Gold.Chemscore.DEInternal.Weighted>
2.1203

> <Gold.Chemscore.Rot.Weighted>
5.3573

> <Gold.Chemscore.Internal.Correction.Weighted>
   9.000000E+99

> <Gold.Protein.RotatedTorsions>
[ 6907 6896 6895 6894 ] final  -39.22 input  -60.11 | X-H torsion
[ 7974 7965 7964 7962 ] final  134.86 input  175.53 | X-H torsion
[ 8008 7997 7996 7995 ] final -145.81 input   59.86 | X-H torsion
[ 10167 10162 10161 10158 ] final   32.73 input  -65.29 | X-H torsion
[ 10718 10713 10712 10709 ] final   63.80 input   66.30 | X-H torsion
[ 10763 10752 10751 10750 ] final   29.41 input  -60.55 | X-H torsion
[ 11005 11000 10999 10996 ] final  114.28 input  -57.11 | X-H torsion

> <Gold.Protein.ActiveResidues>
 VAL166  LYS551  ARG553  GLY616  TRP617  ASP618  TYR619  PRO620  LYS621  CYS622 
 ASP623  PHE694  ASN695  SER759  ASP760  ASP761  ALA762  ILE779  LEU786  VAL792 
 PHE793  MET794  SER795  GLU796  ALA797  LYS798  CYS799  TRP800  GLU811  SER814 

> <Gold.Protein.RotatedAtoms>
  150.9930  134.9260  159.7910 H   0  0  0  0  0  0  0  0  0  0  0  0  # atno 6907 bound_to 6896
  152.5256  134.3256  159.9174 H   0  0  0  0  0  0  0  0  0  0  0  0  # atno 6908 bound_to 6896
  151.3262  133.3978  159.2693 H   0  0  0  0  0  0  0  0  0  0  0  0  # atno 6909 bound_to 6896
  144.9721  139.4594  143.5428 H   0  0  0  0  0  0  0  0  0  0  0  0  # atno 7974 bound_to 7965
  155.5492  140.0615  157.2853 H   0  0  0  0  0  0  0  0  0  0  0  0  # atno 8008 bound_to 7997
  154.4426  140.1905  156.0714 H   0  0  0  0  0  0  0  0  0  0  0  0  # atno 8009 bound_to 7997
  156.0528  140.3282  155.7375 H   0  0  0  0  0  0  0  0  0  0  0  0  # atno 8010 bound_to 7997
  140.4472  144.1102  150.6184 H   0  0  0  0  0  0  0  0  0  0  0  0  # atno 10167 bound_to 10162
  157.5996  130.9125  149.9763 H   0  0  0  0  0  0  0  0  0  0  0  0  # atno 10718 bound_to 10713
  153.0432  135.6489  154.0887 H   0  0  0  0  0  0  0  0  0  0  0  0  # atno 10763 bound_to 10752
  154.0589  135.2889  155.3329 H   0  0  0  0  0  0  0  0  0  0  0  0  # atno 10764 bound_to 10752
  154.6670  135.5370  153.8155 H   0  0  0  0  0  0  0  0  0  0  0  0  # atno 10765 bound_to 10752
  139.8976  134.9565  156.6868 H   0  0  0  0  0  0  0  0  0  0  0  0  # atno 11005 bound_to 11000
  146.3385  139.8940  142.8804 LP  0  0  0  0  0  0  0  0  0  0  0  0  # atno 17320 bound_to 7965
  145.2543  141.0055  143.3863 LP  0  0  0  0  0  0  0  0  0  0  0  0  # atno 17321 bound_to 7965
  140.4250  143.2594  151.9668 LP  0  0  0  0  0  0  0  0  0  0  0  0  # atno 17342 bound_to 10162
  139.4793  144.5796  151.7954 LP  0  0  0  0  0  0  0  0  0  0  0  0  # atno 17343 bound_to 10162
  156.1066  130.3652  150.0122 LP  0  0  0  0  0  0  0  0  0  0  0  0  # atno 17370 bound_to 10713
  156.8228  130.9365  151.3640 LP  0  0  0  0  0  0  0  0  0  0  0  0  # atno 17371 bound_to 10713
  140.7256  133.9103  155.8176 LP  0  0  0  0  0  0  0  0  0  0  0  0  # atno 17394 bound_to 11000
  141.0193  134.0911  157.4137 LP  0  0  0  0  0  0  0  0  0  0  0  0  # atno 17395 bound_to 11000

$$$$
