AV-unprocessed.smi:890|AV-procd|sdf|4058|dock4
  -GOLD-   22720 1543D 1   1.00000     0.00000
 Structure written by MMmdl.
 52 55  0  0  0  0  0  0  0  0  2 V2000
  145.6479  139.0899  153.0965 O   0  0  0  0  0  0  0  0  0  0  0  0
  146.5889  138.3169  152.9169 C   0  0  0  0  0  0  0  0  0  0  0  0
  147.8676  138.5561  153.2529 N   0  0  0  0  0  0  0  0  0  0  0  0
  148.4227  139.7222  153.8550 C   0  0  0  0  0  0  0  0  0  0  0  0
  147.6968  140.9316  153.9868 C   0  0  0  0  0  0  0  0  0  0  0  0
  148.3014  142.0312  154.6208 C   0  0  0  0  0  0  0  0  0  0  0  0
  149.6098  141.8815  155.1115 C   0  0  0  0  0  0  0  0  0  0  0  0
  150.3085  140.7331  155.0091 N   0  0  0  0  0  0  0  0  0  0  0  0
  149.7333  139.6655  154.4032 C   0  0  0  0  0  0  0  0  0  0  0  0
  150.5000  138.4865  154.2891 N   0  0  0  0  0  0  0  0  0  0  0  0
  151.9052  138.6657  154.6455 C   0  0  0  0  0  0  0  0  0  0  0  0
  152.3422  137.3775  155.3452 C   0  0  0  0  0  0  0  0  0  0  0  0
  151.0443  136.8588  155.9512 C   0  0  0  0  0  0  0  0  0  0  0  0
  150.0103  137.2495  154.8966 C   0  0  0  0  0  0  0  0  0  0  0  0
  146.4558  137.1174  152.3325 N   0  0  0  0  0  0  0  0  0  0  0  0
  145.1947  136.5534  151.8593 C   0  0  2  0  0  0  0  0  0  0  0  0
  144.5509  135.6995  152.9638 C   0  0  0  0  0  0  0  0  0  0  0  0
  143.2491  135.0413  152.4676 C   0  0  0  0  0  0  0  0  0  0  0  0
  143.4590  134.2423  151.2323 N   0  3  2  0  0  0  0  0  0  0  0  0
  144.1378  132.9485  151.4789 C   0  0  0  0  0  0  0  0  0  0  0  0
  144.8568  132.4014  150.2674 C   0  0  0  0  0  0  0  0  0  0  0  0
  143.5422  131.7956  150.7053 C   0  0  0  0  0  0  0  0  0  0  0  0
  144.0884  135.0392  150.1477 C   0  0  0  0  0  0  0  0  0  0  0  0
  145.4072  135.6941  150.5988 C   0  0  0  0  0  0  0  0  0  0  0  0
  148.5413  137.8612  152.9652 H   0  0  0  0  0  0  0  0  0  0  0  0
  146.6836  141.0326  153.6297 H   0  0  0  0  0  0  0  0  0  0  0  0
  147.7717  142.9655  154.7328 H   0  0  0  0  0  0  0  0  0  0  0  0
  150.1070  142.7035  155.6048 H   0  0  0  0  0  0  0  0  0  0  0  0
  152.5135  138.8632  153.7626 H   0  0  0  0  0  0  0  0  0  0  0  0
  152.0165  139.5137  155.3234 H   0  0  0  0  0  0  0  0  0  0  0  0
  152.7153  136.6637  154.6093 H   0  0  0  0  0  0  0  0  0  0  0  0
  153.1257  137.5415  156.0851 H   0  0  0  0  0  0  0  0  0  0  0  0
  151.0620  135.7876  156.1529 H   0  0  0  0  0  0  0  0  0  0  0  0
  150.8363  137.3794  156.8871 H   0  0  0  0  0  0  0  0  0  0  0  0
  149.0073  137.3166  155.3183 H   0  0  0  0  0  0  0  0  0  0  0  0
  149.9732  136.4900  154.1151 H   0  0  0  0  0  0  0  0  0  0  0  0
  147.2828  136.5491  152.2201 H   0  0  0  0  0  0  0  0  0  0  0  0
  144.5121  137.3718  151.6210 H   0  0  0  0  0  0  0  0  0  0  0  0
  145.2501  134.9319  153.2990 H   0  0  0  0  0  0  0  0  0  0  0  0
  144.3370  136.3184  153.8361 H   0  0  0  0  0  0  0  0  0  0  0  0
  142.8178  134.4136  153.2484 H   0  0  0  0  0  0  0  0  0  0  0  0
  142.5104  135.8150  152.2539 H   0  0  0  0  0  0  0  0  0  0  0  0
  144.5440  132.7882  152.4756 H   0  0  0  0  0  0  0  0  0  0  0  0
  144.8567  132.9946  149.3545 H   0  0  0  0  0  0  0  0  0  0  0  0
  145.7575  131.8160  150.4403 H   0  0  0  0  0  0  0  0  0  0  0  0
  143.5769  130.8104  151.1658 H   0  0  0  0  0  0  0  0  0  0  0  0
  142.6699  131.9871  150.0827 H   0  0  0  0  0  0  0  0  0  0  0  0
  144.2555  134.4115  149.2716 H   0  0  0  0  0  0  0  0  0  0  0  0
  143.3856  135.8143  149.8392 H   0  0  0  0  0  0  0  0  0  0  0  0
  145.8012  136.3059  149.7867 H   0  0  0  0  0  0  0  0  0  0  0  0
  146.1571  134.9257  150.7917 H   0  0  0  0  0  0  0  0  0  0  0  0
  142.5375  133.9972  150.8988 H   0  0  0  0  0  0  0  0  0  0  0  0
  1  2  2  0  0  0  0
  2  3  1  0  0  0  0
  2 15  1  0  0  0  0
  3  4  1  0  0  0  0
  3 25  1  0  0  0  0
  4  9  1  0  0  0  0
  4  5  2  0  0  0  0
  5  6  1  0  0  0  0
  5 26  1  0  0  0  0
  6  7  2  0  0  0  0
  6 27  1  0  0  0  0
  7  8  1  0  0  0  0
  7 28  1  0  0  0  0
  8  9  2  0  0  0  0
  9 10  1  0  0  0  0
 10 14  1  0  0  0  0
 10 11  1  0  0  0  0
 11 12  1  0  0  0  0
 11 29  1  0  0  0  0
 11 30  1  0  0  0  0
 12 13  1  0  0  0  0
 12 31  1  0  0  0  0
 12 32  1  0  0  0  0
 13 14  1  0  0  0  0
 13 33  1  0  0  0  0
 13 34  1  0  0  0  0
 14 35  1  0  0  0  0
 14 36  1  0  0  0  0
 15 16  1  0  0  0  0
 15 37  1  0  0  0  0
 16 24  1  0  0  0  0
 16 17  1  0  0  0  0
 16 38  1  0  0  0  0
 17 18  1  0  0  0  0
 17 39  1  0  0  0  0
 17 40  1  0  0  0  0
 18 19  1  0  0  0  0
 18 41  1  0  0  0  0
 18 42  1  0  0  0  0
 19 20  1  0  0  0  0
 19 23  1  0  0  0  0
 19 52  1  0  0  0  0
 20 22  1  0  0  0  0
 20 21  1  0  0  0  0
 20 43  1  0  0  0  0
 21 22  1  0  0  0  0
 21 44  1  0  0  0  0
 21 45  1  0  0  0  0
 22 46  1  0  0  0  0
 22 47  1  0  0  0  0
 23 24  1  0  0  0  0
 23 48  1  0  0  0  0
 23 49  1  0  0  0  0
 24 50  1  0  0  0  0
 24 51  1  0  0  0  0
M  CHG  1  19   1
M  END
> <s_m_source_file>
AV-unprocessed.smi

> <i_m_source_file_index>
890

> <i_lp_mmshare_version>
43012

> <i_f3d_flags>
0

> <s_epik_input>
W0NIMl0xW0NIMl1bQ0hdMU4oW0NIMl1bQ0gyXTIpW0NIMl1bQ0gyXVtDSF0yW05IXUMoPU8pW05IXWMzW2NIXVtjSF1bY0hdbmMzTjRbQ0gyXVtDSDJdW0NIMl1bQ0gyXTQ=

> <s_epik_cmdline>
J2VwaWtfcHl0aG9uJywgJy1waCcsICc3LjAnLCAnLXRuJywgJzgnLCAnLW1hJywgJzIwMCcsICctbWV0YWxfYmluZGluZycsICctaW1hZScsICc8aW5maWxlLm1hZT4nLCAnLW9tYWUnLCAnPG91dGZpbGUubWFlPic=

> <r_lp_tautomer_probability>
1

> <r_epik_Ionization_Penalty>
0.193768

> <r_epik_Ionization_Penalty_Charging>
0.115549

> <r_epik_Ionization_Penalty_Neutral>
0.078219

> <r_epik_State_Penalty>
0.174811

> <r_epik_Charging_Adjusted_Penalty>
0.29036

> <i_epik_Tot_Q>
1

> <i_epik_Tot_abs_Q>
1

> <r_epik_Metal_State_Penalty>
0.169761

> <b_epik_Metal_Only>
0

> <s_lp_Force_Field>
OPLS_2005

> <r_lp_Energy>
56.2334

> <b_lp_Chiralities_Consistent>
1

> <s_lp_Variant>
AV-unprocessed.smi:890-2

> <Gold.Version>
5.8.1

> <Gold.Id.Protein>
6NUR|6NUR_protein|mol2

> <Gold.PLP.Fitness>
48.0981

> <Gold.PLP.PLP>
-34.2451

> <Gold.PLP.part.hbond>
-4.8839

> <Gold.PLP.part.metal>
0.0000

> <Gold.PLP.part.buried>
4.5736

> <Gold.PLP.part.nonpolar>
-39.5236

> <Gold.PLP.part.repulsive>
4.5044

> <Gold.PLP.ligand.clash>
0.0000

> <Gold.PLP.ligand.torsion>
1.3798

> <Gold.PLP.Chemscore.Hbond>
4.3840

> <Gold.PLP.Chemscore.CHOScore>
0.6906

> <Gold.PLP.Chemscore.Metal>
0.0000

> <Gold.Chemscore.Hbonds>
donor molecule, donor type, donor heavy atom, donor atom, acceptor molecule, acceptor atom, score
      L1  H     3    25       P1  7948  0.98
      L1  H    15    37       P1  7948  1.00
      L1  H    19    52       P1 10186  1.66
      P1  H  7989  7998       L1     8  0.43
      L1  C     7    28       P1  8028  0.70

> <Gold.PLP.Chemscore.Internal.Correction>
1.3889

> <Gold.Rescore>
     Score         DG    S(hbond)    S(metal)    S(lipo)     H(rot)  DE(clash)    DE(int)     intcor
     17.04     -23.27       2.67        0.00     104.87       1.33       3.37       2.87       ----

> <Gold.Chemscore.Fitness>
17.0378

> <Gold.Chemscore.DG>
-23.2750

> <Gold.Chemscore.ZeroCoef>
-5.4800

> <Gold.Chemscore.Hbond>
2.6731

> <Gold.Chemscore.Metal>
0.0000

> <Gold.Chemscore.Lipo>
104.8721

> <Gold.Chemscore.Internal_Hbond>
0.0000

> <Gold.Chemscore.DEClash>
3.3711

> <Gold.Chemscore.DEInternal>
2.8661

> <Gold.Chemscore.Rot>
1.3294

> <Gold.Chemscore.Internal.Correction>
   9.000000E+99

> <Gold.Chemscore.Hbonds>
donor molecule, donor type, donor heavy atom, donor atom, acceptor molecule, acceptor atom, score
      L1  H     3    25       P1  7948  0.90
      L1  H    15    37       P1  7948  0.99
      L1  H    19    52       P1 10186  0.43
      P1  H  7989  7998       L1     8  0.01

> <Gold.Chemscore.Hbond.Weighted>
-8.9281

> <Gold.Chemscore.Metal.Weighted>
-0.0000

> <Gold.Chemscore.Lipo.Weighted>
-12.2700

> <Gold.Chemscore.Internal_Hbond.Weighted>
0.0000

> <Gold.Chemscore.DEClash.Weighted>
3.3711

> <Gold.Chemscore.DEInternal.Weighted>
2.8661

> <Gold.Chemscore.Rot.Weighted>
3.4032

> <Gold.Chemscore.Internal.Correction.Weighted>
   9.000000E+99

> <Gold.Protein.RotatedTorsions>
[ 6907 6896 6895 6894 ] final -133.13 input  -60.11 | X-H torsion
[ 7974 7965 7964 7962 ] final  -62.04 input  175.53 | X-H torsion
[ 8008 7997 7996 7995 ] final  142.26 input   59.86 | X-H torsion
[ 10167 10162 10161 10158 ] final -123.47 input  -65.29 | X-H torsion
[ 10718 10713 10712 10709 ] final   38.60 input   66.30 | X-H torsion
[ 10763 10752 10751 10750 ] final   32.46 input  -60.55 | X-H torsion
[ 11005 11000 10999 10996 ] final  108.42 input  -57.11 | X-H torsion

> <Gold.Protein.ActiveResidues>
 VAL166  LYS551  ARG553  GLY616  TRP617  ASP618  TYR619  PRO620  LYS621  CYS622 
 ASP623  PHE694  ASN695  SER759  ASP760  ASP761  ALA762  ILE779  LEU786  VAL792 
 PHE793  MET794  SER795  GLU796  ALA797  LYS798  CYS799  TRP800  GLU811  SER814 

> <Gold.Protein.RotatedAtoms>
  150.9704  133.6350  159.2738 H   0  0  0  0  0  0  0  0  0  0  0  0  # atno 6907 bound_to 6896
  151.3640  135.0908  159.9453 H   0  0  0  0  0  0  0  0  0  0  0  0  # atno 6908 bound_to 6896
  152.5181  133.9272  159.7617 H   0  0  0  0  0  0  0  0  0  0  0  0  # atno 6909 bound_to 6896
  145.7961  140.8682  143.0255 H   0  0  0  0  0  0  0  0  0  0  0  0  # atno 7974 bound_to 7965
  156.2952  140.2293  156.4699 H   0  0  0  0  0  0  0  0  0  0  0  0  # atno 8008 bound_to 7997
  154.7944  140.0452  157.1246 H   0  0  0  0  0  0  0  0  0  0  0  0  # atno 8009 bound_to 7997
  154.9607  140.3054  155.5036 H   0  0  0  0  0  0  0  0  0  0  0  0  # atno 8010 bound_to 7997
  140.0031  143.5520  152.2295 H   0  0  0  0  0  0  0  0  0  0  0  0  # atno 10167 bound_to 10162
  157.3608  130.7648  149.7046 H   0  0  0  0  0  0  0  0  0  0  0  0  # atno 10718 bound_to 10713
  153.0261  135.6412  154.1358 H   0  0  0  0  0  0  0  0  0  0  0  0  # atno 10763 bound_to 10752
  154.1087  135.2854  155.3237 H   0  0  0  0  0  0  0  0  0  0  0  0  # atno 10764 bound_to 10752
  154.6347  135.5480  153.7783 H   0  0  0  0  0  0  0  0  0  0  0  0  # atno 10765 bound_to 10752
  139.8844  134.9430  156.5970 H   0  0  0  0  0  0  0  0  0  0  0  0  # atno 11005 bound_to 11000
  144.6775  140.0192  143.7484 LP  0  0  0  0  0  0  0  0  0  0  0  0  # atno 17320 bound_to 7965
  145.9926  139.3027  143.0975 LP  0  0  0  0  0  0  0  0  0  0  0  0  # atno 17321 bound_to 7965
  139.6257  144.7637  151.2643 LP  0  0  0  0  0  0  0  0  0  0  0  0  # atno 17342 bound_to 10162
  140.7411  143.6567  150.8200 LP  0  0  0  0  0  0  0  0  0  0  0  0  # atno 17343 bound_to 10162
  155.9737  130.4114  150.3981 LP  0  0  0  0  0  0  0  0  0  0  0  0  # atno 17370 bound_to 10713
  157.2058  131.0449  151.2626 LP  0  0  0  0  0  0  0  0  0  0  0  0  # atno 17371 bound_to 10713
  140.7912  133.8580  155.8648 LP  0  0  0  0  0  0  0  0  0  0  0  0  # atno 17394 bound_to 11000
  140.9675  134.1574  157.4604 LP  0  0  0  0  0  0  0  0  0  0  0  0  # atno 17395 bound_to 11000

$$$$
