AV-unprocessed.smi:499|AV-procd|sdf|2733|dock3
  -GOLD-   2262023183D 1   1.00000     0.00000
 Structure written by MMmdl.
 36 37  0  0  0  0  0  0  0  0  1 V2000
  147.0553  140.8096  153.1860 C   0  0  0  0  0  0  0  0  0  0  0  0
  146.9599  141.7915  154.3710 C   0  0  2  0  0  0  0  0  0  0  0  0
  146.2245  142.9807  153.9022 C   0  0  0  0  0  0  0  0  0  0  0  0
  145.6465  143.9125  153.5315 N   0  0  0  0  0  0  0  0  0  0  0  0
  148.3027  142.2356  154.7540 N   0  0  0  0  0  0  0  0  0  0  0  0
  149.3438  141.4830  155.1484 C   0  0  0  0  0  0  0  0  0  0  0  0
  149.3111  140.2543  155.2150 O   0  0  0  0  0  0  0  0  0  0  0  0
  150.6263  142.2502  155.5003 C   0  0  0  0  0  0  0  0  0  0  0  0
  150.9987  142.1364  156.9203 N   0  0  0  0  0  0  0  0  0  0  0  0
  150.9739  143.3174  157.6876 C   0  0  0  0  0  0  0  0  0  0  0  0
  151.2819  143.3467  158.9985 C   0  0  0  0  0  0  0  0  0  0  0  0
  151.3045  144.6487  159.7840 C   0  0  0  0  0  0  0  0  0  0  0  0
  152.0958  145.5308  159.1754 F   0  0  0  0  0  0  0  0  0  0  0  0
  150.0840  145.1779  159.8742 F   0  0  0  0  0  0  0  0  0  0  0  0
  151.7704  144.4571  161.0188 F   0  0  0  0  0  0  0  0  0  0  0  0
  151.6797  142.0871  159.5958 C   0  0  0  0  0  0  0  0  0  0  0  0
  151.7229  140.9509  158.8727 C   0  0  0  0  0  0  0  0  0  0  0  0
  151.3691  140.9328  157.4516 C   0  0  0  0  0  0  0  0  0  0  0  0
  151.4044  139.9012  156.7802 O   0  0  0  0  0  0  0  0  0  0  0  0
  146.1881  141.1369  155.5224 C   0  0  0  0  0  0  0  0  0  0  0  0
  144.6768  141.1303  155.5888 C   0  0  0  0  0  0  0  0  0  0  0  0
  145.4755  141.9412  156.5861 C   0  0  0  0  0  0  0  0  0  0  0  0
  146.0626  140.5429  152.8219 H   0  0  0  0  0  0  0  0  0  0  0  0
  147.5567  139.8812  153.4595 H   0  0  0  0  0  0  0  0  0  0  0  0
  147.6019  141.2483  152.3503 H   0  0  0  0  0  0  0  0  0  0  0  0
  148.4501  143.2344  154.7302 H   0  0  0  0  0  0  0  0  0  0  0  0
  151.4294  141.8784  154.8628 H   0  0  0  0  0  0  0  0  0  0  0  0
  150.5098  143.3010  155.2275 H   0  0  0  0  0  0  0  0  0  0  0  0
  150.6975  144.2052  157.1373 H   0  0  0  0  0  0  0  0  0  0  0  0
  151.9455  142.0522  160.6421 H   0  0  0  0  0  0  0  0  0  0  0  0
  152.0231  140.0302  159.3513 H   0  0  0  0  0  0  0  0  0  0  0  0
  146.6475  140.2154  155.8741 H   0  0  0  0  0  0  0  0  0  0  0  0
  144.1208  141.6752  154.8288 H   0  0  0  0  0  0  0  0  0  0  0  0
  144.1974  140.2227  155.9498 H   0  0  0  0  0  0  0  0  0  0  0  0
  145.5274  141.5721  157.6084 H   0  0  0  0  0  0  0  0  0  0  0  0
  145.4536  143.0242  156.4866 H   0  0  0  0  0  0  0  0  0  0  0  0
  1  2  1  0  0  0  0
  1 23  1  0  0  0  0
  1 24  1  0  0  0  0
  1 25  1  0  0  0  0
  2  3  1  0  0  0  0
  2  5  1  0  0  0  0
  2 20  1  0  0  0  0
  3  4  3  0  0  0  0
  5  6  1  0  0  0  0
  5 26  1  0  0  0  0
  6  7  2  0  0  0  0
  6  8  1  0  0  0  0
  8  9  1  0  0  0  0
  8 27  1  0  0  0  0
  8 28  1  0  0  0  0
  9 18  1  0  0  0  0
  9 10  1  0  0  0  0
 10 11  2  0  0  0  0
 10 29  1  0  0  0  0
 11 12  1  0  0  0  0
 11 16  1  0  0  0  0
 12 13  1  0  0  0  0
 12 14  1  0  0  0  0
 12 15  1  0  0  0  0
 16 17  2  0  0  0  0
 16 30  1  0  0  0  0
 17 18  1  0  0  0  0
 17 31  1  0  0  0  0
 18 19  2  0  0  0  0
 20 22  1  0  0  0  0
 20 21  1  0  0  0  0
 20 32  1  0  0  0  0
 21 22  1  0  0  0  0
 21 33  1  0  0  0  0
 21 34  1  0  0  0  0
 22 35  1  0  0  0  0
 22 36  1  0  0  0  0
M  END
> <s_m_source_file>
AV-unprocessed.smi

> <i_m_source_file_index>
499

> <i_lp_mmshare_version>
43012

> <i_f3d_flags>
0

> <s_epik_input>
W0NIMl0xW0NIMl1bQ0hdMVtDQF0oW0NIM10pKEMjTilbTkhdQyg9TylbQ0gyXW4yW2NIXWMoQyhGKShGKUYpW2NIXVtjSF1jMj1P

> <s_epik_cmdline>
J2VwaWtfcHl0aG9uJywgJy1waCcsICc3LjAnLCAnLXRuJywgJzgnLCAnLW1hJywgJzIwMCcsICctbWV0YWxfYmluZGluZycsICctaW1hZScsICc8aW5maWxlLm1hZT4nLCAnLW9tYWUnLCAnPG91dGZpbGUubWFlPic=

> <r_lp_tautomer_probability>
1

> <r_epik_Ionization_Penalty>
4.79953e-07

> <r_epik_Ionization_Penalty_Charging>
1.46911e-08

> <r_epik_Ionization_Penalty_Neutral>
4.65262e-07

> <r_epik_State_Penalty>
-0

> <r_epik_Charging_Adjusted_Penalty>
1.46911e-08

> <i_epik_Tot_Q>
0

> <i_epik_Tot_abs_Q>
0

> <r_epik_Metal_State_Penalty>
-0

> <b_epik_Metal_Only>
0

> <s_lp_Force_Field>
OPLS_2005

> <r_lp_Energy>
23.9412

> <b_lp_Chiralities_Consistent>
1

> <s_lp_Variant>
AV-unprocessed.smi:499-2

> <Gold.Version>
5.8.1

> <Gold.Id.Protein>
6NUR|6NUR_protein|mol2

> <Gold.PLP.Fitness>
47.7947

> <Gold.PLP.PLP>
-41.9833

> <Gold.PLP.part.hbond>
-1.0000

> <Gold.PLP.part.metal>
0.0000

> <Gold.PLP.part.buried>
-6.1153

> <Gold.PLP.part.nonpolar>
-35.0434

> <Gold.PLP.part.repulsive>
0.4703

> <Gold.PLP.ligand.clash>
0.0000

> <Gold.PLP.ligand.torsion>
0.8994

> <Gold.PLP.Chemscore.Hbond>
1.0000

> <Gold.PLP.Chemscore.CHOScore>
1.0000

> <Gold.PLP.Chemscore.Metal>
0.0000

> <Gold.Chemscore.Hbonds>
donor molecule, donor type, donor heavy atom, donor atom, acceptor molecule, acceptor atom, score
      L1  H     5    26       P1  8028  0.96
      L1  C    10    29       P1  8028  1.00

> <Gold.PLP.Chemscore.Internal.Correction>
1.6102

> <Gold.Rescore>
     Score         DG    S(hbond)    S(metal)    S(lipo)     H(rot)  DE(clash)    DE(int)     intcor
      9.05     -12.23       1.00        0.00      70.88       1.90       0.48       2.70       ----

> <Gold.Chemscore.Fitness>
9.0462

> <Gold.Chemscore.DG>
-12.2259

> <Gold.Chemscore.ZeroCoef>
-5.4800

> <Gold.Chemscore.Hbond>
0.9953

> <Gold.Chemscore.Metal>
0.0000

> <Gold.Chemscore.Lipo>
70.8835

> <Gold.Chemscore.Internal_Hbond>
0.0000

> <Gold.Chemscore.DEClash>
0.4763

> <Gold.Chemscore.DEInternal>
2.7034

> <Gold.Chemscore.Rot>
1.9030

> <Gold.Chemscore.Internal.Correction>
   9.000000E+99

> <Gold.Chemscore.Hbonds>
donor molecule, donor type, donor heavy atom, donor atom, acceptor molecule, acceptor atom, score
      L1  H     5    26       P1  8028  0.92

> <Gold.Chemscore.Hbond.Weighted>
-3.3243

> <Gold.Chemscore.Metal.Weighted>
-0.0000

> <Gold.Chemscore.Lipo.Weighted>
-8.2934

> <Gold.Chemscore.Internal_Hbond.Weighted>
0.0000

> <Gold.Chemscore.DEClash.Weighted>
0.4763

> <Gold.Chemscore.DEInternal.Weighted>
2.7034

> <Gold.Chemscore.Rot.Weighted>
4.8718

> <Gold.Chemscore.Internal.Correction.Weighted>
   9.000000E+99

> <Gold.Protein.RotatedTorsions>
[ 6907 6896 6895 6894 ] final   -6.02 input  -60.11 | X-H torsion
[ 7974 7965 7964 7962 ] final -112.96 input  175.53 | X-H torsion
[ 8008 7997 7996 7995 ] final   23.84 input   59.86 | X-H torsion
[ 10167 10162 10161 10158 ] final -175.99 input  -65.29 | X-H torsion
[ 10718 10713 10712 10709 ] final  173.40 input   66.30 | X-H torsion
[ 10763 10752 10751 10750 ] final  -74.12 input  -60.55 | X-H torsion
[ 11005 11000 10999 10996 ] final  104.76 input  -57.11 | X-H torsion

> <Gold.Protein.ActiveResidues>
 VAL166  LYS551  ARG553  GLY616  TRP617  ASP618  TYR619  PRO620  LYS621  CYS622 
 ASP623  PHE694  ASN695  SER759  ASP760  ASP761  ALA762  ILE779  LEU786  VAL792 
 PHE793  MET794  SER795  GLU796  ALA797  LYS798  CYS799  TRP800  GLU811  SER814 

> <Gold.Protein.RotatedAtoms>
  151.4722  135.1046  159.9754 H   0  0  0  0  0  0  0  0  0  0  0  0  # atno 6907 bound_to 6896
  152.4812  133.8255  159.7086 H   0  0  0  0  0  0  0  0  0  0  0  0  # atno 6908 bound_to 6896
  150.8885  133.7214  159.2938 H   0  0  0  0  0  0  0  0  0  0  0  0  # atno 6909 bound_to 6896
  145.1377  140.8760  143.3720 H   0  0  0  0  0  0  0  0  0  0  0  0  # atno 7974 bound_to 7965
  154.9871  140.3109  155.4921 H   0  0  0  0  0  0  0  0  0  0  0  0  # atno 8008 bound_to 7997
  156.2945  140.2256  156.4914 H   0  0  0  0  0  0  0  0  0  0  0  0  # atno 8009 bound_to 7997
  154.7736  140.0450  157.1059 H   0  0  0  0  0  0  0  0  0  0  0  0  # atno 8010 bound_to 7997
  139.5552  144.2006  152.1147 H   0  0  0  0  0  0  0  0  0  0  0  0  # atno 10167 bound_to 10162
  156.9648  131.0072  151.2919 H   0  0  0  0  0  0  0  0  0  0  0  0  # atno 10718 bound_to 10713
  154.4688  135.5875  153.6307 H   0  0  0  0  0  0  0  0  0  0  0  0  # atno 10763 bound_to 10752
  152.9832  135.6062  154.3393 H   0  0  0  0  0  0  0  0  0  0  0  0  # atno 10764 bound_to 10752
  154.3272  135.2843  155.2469 H   0  0  0  0  0  0  0  0  0  0  0  0  # atno 10765 bound_to 10752
  139.8795  134.9312  156.5411 H   0  0  0  0  0  0  0  0  0  0  0  0  # atno 11005 bound_to 11000
  145.0566  139.3139  143.5901 LP  0  0  0  0  0  0  0  0  0  0  0  0  # atno 17320 bound_to 7965
  146.3508  139.9993  142.8678 LP  0  0  0  0  0  0  0  0  0  0  0  0  # atno 17321 bound_to 7965
  140.1509  144.5115  150.6688 LP  0  0  0  0  0  0  0  0  0  0  0  0  # atno 17342 bound_to 10162
  140.6824  143.2333  151.5350 LP  0  0  0  0  0  0  0  0  0  0  0  0  # atno 17343 bound_to 10162
  157.5633  130.8261  149.8295 LP  0  0  0  0  0  0  0  0  0  0  0  0  # atno 17370 bound_to 10713
  156.0307  130.3765  150.1695 LP  0  0  0  0  0  0  0  0  0  0  0  0  # atno 17371 bound_to 10713
  140.8310  133.8279  155.8984 LP  0  0  0  0  0  0  0  0  0  0  0  0  # atno 17394 bound_to 11000
  140.9329  134.1999  157.4851 LP  0  0  0  0  0  0  0  0  0  0  0  0  # atno 17395 bound_to 11000

$$$$
