#       Name:                AV-unprocessed.smi:1701
#       Creating user name   scv26
#       Creation time:       Fri Mar 27 08:02:00 2020


#       File generated by GOLD software.
#

@<TRIPOS>MOLECULE
AV-unprocessed.smi:1701
    57    59     1
SMALL
NO_CHARGES


@<TRIPOS>ATOM
      1 ****        -6.4247  -2.1520   0.9270 C.3            1 S1                 0.0000
      2 ****        -6.3053  -0.6296   1.0772 C.3            1 S1                 0.0000
      3 ****        -5.5595  -0.0221  -0.0239 N.pl3          1 S1                 0.0000
      4 ****        -6.2770   0.3690  -1.2344 C.3            1 S1                 0.0000
      5 ****        -6.7940   1.8114  -1.1587 C.3            1 S1                 0.0000
      6 ****        -4.1573   0.1405   0.0647 C.ar           1 S1                 0.0000
      7 ****        -3.3983   0.8864  -0.8713 C.ar           1 S1                 0.0000
      8 ****        -2.0014   0.9964  -0.7161 C.ar           1 S1                 0.0000
      9 ****        -1.3663   0.3736   0.3771 C.ar           1 S1                 0.0000
     10 ****         0.0464   0.4861   0.4779 N.am           1 S1                 0.0000
     11 ****         0.8400   0.3816   1.5726 C.2            1 S1                 0.0000
     12 ****         0.3161   0.2593   2.6783 O.2            1 S1                 0.0000
     13 ****         2.1992   0.4445   1.4363 N.pl3          1 S1                -1.0000
     14 ****         3.0047   0.5584   0.2122 C.3            1 S1                 0.0000
     15 ****         3.4564   2.0091  -0.0392 C.3            1 S1                 0.0000
     16 ****         4.8747   1.9024  -0.6331 C.3            1 S1                 0.0000
     17 ****         5.1782   0.4587  -0.6759 N.4            1 S1                 1.0000
     18 ****         6.6007   0.0610  -0.5896 C.3            1 S1                 0.0000
     19 ****         6.7121  -1.4669  -0.7673 C.3            1 S1                 0.0000
     20 ****         5.7978  -2.2279   0.2154 C.3            1 S1                 0.0000
     21 ****         4.3469  -1.7119   0.1419 C.3            1 S1                 0.0000
     22 ****         4.3396  -0.1830   0.3492 C.3            1 S1                 0.0000
     23 ****        -2.1626  -0.3689   1.2794 C.ar           1 S1                 0.0000
     24 ****        -3.4973  -0.4492   1.0917 N.pl3          1 S1                 1.0000
     25 ****        -6.9996  -2.5758   1.7503 H              1 S1                 0.0000
     26 ****        -5.4448  -2.6302   0.9274 H              1 S1                 0.0000
     27 ****        -6.9284  -2.4213  -0.0017 H              1 S1                 0.0000
     28 ****        -7.3047  -0.1941   1.0999 H              1 S1                 0.0000
     29 ****        -5.8543  -0.3758   2.0369 H              1 S1                 0.0000
     30 ****        -5.6560   0.2262  -2.1184 H              1 S1                 0.0000
     31 ****        -7.1252  -0.3038  -1.3661 H              1 S1                 0.0000
     32 ****        -7.3373   2.0754  -2.0662 H              1 S1                 0.0000
     33 ****        -5.9763   2.5232  -1.0437 H              1 S1                 0.0000
     34 ****        -7.4734   1.9441  -0.3163 H              1 S1                 0.0000
     35 ****        -3.8628   1.3850  -1.7082 H              1 S1                 0.0000
     36 ****        -1.4237   1.5627  -1.4321 H              1 S1                 0.0000
     37 ****         0.5261   0.7025  -0.3835 H              1 S1                 0.0000
     38 ****         2.4925   0.1879  -0.6776 H              1 S1                 0.0000
     39 ****         2.7698   2.5276  -0.7090 H              1 S1                 0.0000
     40 ****         3.4981   2.5808   0.8896 H              1 S1                 0.0000
     41 ****         4.9398   2.3331  -1.6330 H              1 S1                 0.0000
     42 ****         5.5902   2.4246   0.0050 H              1 S1                 0.0000
     43 ****         7.1721   0.5731  -1.3643 H              1 S1                 0.0000
     44 ****         7.0139   0.3662   0.3729 H              1 S1                 0.0000
     45 ****         6.4365  -1.7303  -1.7892 H              1 S1                 0.0000
     46 ****         7.7472  -1.7838  -0.6369 H              1 S1                 0.0000
     47 ****         5.8268  -3.2973   0.0049 H              1 S1                 0.0000
     48 ****         6.1748  -2.1026   1.2312 H              1 S1                 0.0000
     49 ****         3.9165  -1.9784  -0.8258 H              1 S1                 0.0000
     50 ****         3.7422  -2.2096   0.9022 H              1 S1                 0.0000
     51 ****         4.7702   0.0442   1.3278 H              1 S1                 0.0000
     52 ****        -1.7884  -0.9138   2.1334 H              1 S1                 0.0000
     53 ****         4.8270   0.1259  -1.5622 H              1 S1                 0.0000
     54 ****        -4.0400  -0.9934   1.7622 H              1 S1                 0.0000
     55 ****        -0.6803   0.2382   2.7599 LP             1 S1                 0.0000
     56 ****         0.8865   0.1810   3.4959 LP             1 S1                 0.0000
     57 ****         2.7185   0.4078   2.2901 LP             1 S1                 0.0000
@<TRIPOS>BOND
    1    1    2 1     
    2    1   25 1     
    3    1   26 1     
    4    1   27 1     
    5    2    3 1     
    6    2   28 1     
    7    2   29 1     
    8    3    4 1     
    9    3    6 1     
   10    4    5 1     
   11    4   30 1     
   12    4   31 1     
   13    5   32 1     
   14    5   33 1     
   15    5   34 1     
   16    6   24 ar    
   17    6    7 ar    
   18    7    8 ar    
   19    7   35 1     
   20    8    9 ar    
   21    8   36 1     
   22    9   10 1     
   23    9   23 ar    
   24   10   11 am    
   25   10   37 1     
   26   11   12 2     
   27   11   13 1     
   28   13   14 1     
   29   14   22 1     
   30   14   15 1     
   31   14   38 1     
   32   15   16 1     
   33   15   39 1     
   34   15   40 1     
   35   16   17 1     
   36   16   41 1     
   37   16   42 1     
   38   17   22 1     
   39   17   18 1     
   40   17   53 1     
   41   18   19 1     
   42   18   43 1     
   43   18   44 1     
   44   19   20 1     
   45   19   45 1     
   46   19   46 1     
   47   20   21 1     
   48   20   47 1     
   49   20   48 1     
   50   21   22 1     
   51   21   49 1     
   52   21   50 1     
   53   22   51 1     
   54   23   24 ar    
   55   23   52 1     
   56   24   54 1     
   57   12   55 1     
   58   12   56 1     
   59   13   57 1     
@<TRIPOS>SUBSTRUCTURE
      1 S1             1
@<TRIPOS>SET
LONE_PAIRS      STATIC     ATOMS    <user>   **** ""
3 55 56 57
DONOR_HYDROGENS      STATIC     ATOMS    <user>   **** ""
3 37 53 54
ATOM$BLUE        STATIC     ATOMS    COLORGROUP SYSTEM
3 55 56 57
ATOM$RED        STATIC     ATOMS    COLORGROUP SYSTEM
3 37 53 54
