AV-unprocessed.smi:322|AV-procd|sdf|2338|dock6
  -GOLD-   2262022253D 1   1.00000     0.00000
 Structure written by MMmdl.
 44 46  0  0  0  0  0  0  0  0  2 V2000
  149.5339  142.1002  154.3235 O   0  0  0  0  0  0  0  0  0  0  0  0
  149.5386  141.2243  155.4313 C   0  0  0  0  0  0  0  0  0  0  0  0
  150.2940  141.7615  156.6051 C   0  0  0  0  0  0  0  0  0  0  0  0
  150.2621  143.0433  157.0703 N   0  3  0  0  0  0  0  0  0  0  0  0
  151.0896  143.1637  158.1868 C   0  0  0  0  0  0  0  0  0  0  0  0
  151.3781  144.2607  158.9927 C   0  0  0  0  0  0  0  0  0  0  0  0
  152.2735  144.0434  160.0603 C   0  0  0  0  0  0  0  0  0  0  0  0
  152.8444  142.7752  160.2931 C   0  0  0  0  0  0  0  0  0  0  0  0
  152.5433  141.6703  159.4695 C   0  0  0  0  0  0  0  0  0  0  0  0
  151.6558  141.8930  158.4164 C   0  0  0  0  0  0  0  0  0  0  0  0
  151.1366  141.0606  157.4170 N   0  0  0  0  0  0  0  0  0  0  0  0
  151.5283  139.6427  157.3749 C   0  0  0  0  0  0  0  0  0  0  0  0
  150.7974  138.7861  158.4295 C   0  0  1  0  0  0  0  0  0  0  0  0
  149.4668  139.2170  158.6317 O   0  0  0  0  0  0  0  0  0  0  0  0
  150.7998  137.2844  158.1032 C   0  0  0  0  0  0  0  0  0  0  0  0
  149.8999  136.5989  158.9641 O   0  0  0  0  0  0  0  0  0  0  0  0
  148.6306  136.3413  158.3811 C   0  0  0  0  0  0  0  0  0  0  0  0
  147.6416  135.7290  159.3579 C   0  0  0  0  0  0  0  0  0  0  0  0
  147.3254  136.4000  160.5583 C   0  0  0  0  0  0  0  0  0  0  0  0
  146.4128  135.8316  161.4679 C   0  0  0  0  0  0  0  0  0  0  0  0
  145.8180  134.5867  161.1839 C   0  0  0  0  0  0  0  0  0  0  0  0
  144.6983  133.8905  162.2964 Cl  0  0  0  0  0  0  0  0  0  0  0  0
  146.1392  133.9096  159.9912 C   0  0  0  0  0  0  0  0  0  0  0  0
  147.0514  134.4782  159.0810 C   0  0  0  0  0  0  0  0  0  0  0  0
  149.1637  142.9267  154.5949 H   0  0  0  0  0  0  0  0  0  0  0  0
  148.5097  141.0261  155.7315 H   0  0  0  0  0  0  0  0  0  0  0  0
  149.9761  140.2741  155.1247 H   0  0  0  0  0  0  0  0  0  0  0  0
  150.9425  145.2333  158.8154 H   0  0  0  0  0  0  0  0  0  0  0  0
  152.5284  144.8658  160.7131 H   0  0  0  0  0  0  0  0  0  0  0  0
  153.5279  142.6465  161.1199 H   0  0  0  0  0  0  0  0  0  0  0  0
  152.9908  140.7048  159.6551 H   0  0  0  0  0  0  0  0  0  0  0  0
  151.3678  139.2606  156.3666 H   0  0  0  0  0  0  0  0  0  0  0  0
  152.6048  139.5970  157.5442 H   0  0  0  0  0  0  0  0  0  0  0  0
  151.3006  138.9155  159.3883 H   0  0  0  0  0  0  0  0  0  0  0  0
  149.0402  139.2754  157.7908 H   0  0  0  0  0  0  0  0  0  0  0  0
  150.4862  137.1534  157.0668 H   0  0  0  0  0  0  0  0  0  0  0  0
  151.8054  136.8691  158.1865 H   0  0  0  0  0  0  0  0  0  0  0  0
  148.2258  137.2511  157.9347 H   0  0  0  0  0  0  0  0  0  0  0  0
  148.7740  135.6330  157.5650 H   0  0  0  0  0  0  0  0  0  0  0  0
  147.7795  137.3544  160.7821 H   0  0  0  0  0  0  0  0  0  0  0  0
  146.1704  136.3517  162.3831 H   0  0  0  0  0  0  0  0  0  0  0  0
  145.6868  132.9536  159.7730 H   0  0  0  0  0  0  0  0  0  0  0  0
  147.2928  133.9518  158.1692 H   0  0  0  0  0  0  0  0  0  0  0  0
  149.7107  143.7788  156.6473 H   0  0  0  0  0  0  0  0  0  0  0  0
  1  2  1  0  0  0  0
  1 25  1  0  0  0  0
  2  3  1  0  0  0  0
  2 26  1  0  0  0  0
  2 27  1  0  0  0  0
  3 11  1  0  0  0  0
  3  4  2  0  0  0  0
  4  5  1  0  0  0  0
  4 44  1  0  0  0  0
  5 10  2  0  0  0  0
  5  6  1  0  0  0  0
  6  7  2  0  0  0  0
  6 28  1  0  0  0  0
  7  8  1  0  0  0  0
  7 29  1  0  0  0  0
  8  9  2  0  0  0  0
  8 30  1  0  0  0  0
  9 10  1  0  0  0  0
  9 31  1  0  0  0  0
 10 11  1  0  0  0  0
 11 12  1  0  0  0  0
 12 13  1  0  0  0  0
 12 32  1  0  0  0  0
 12 33  1  0  0  0  0
 13 14  1  0  0  0  0
 13 15  1  0  0  0  0
 13 34  1  0  0  0  0
 14 35  1  0  0  0  0
 15 16  1  0  0  0  0
 15 36  1  0  0  0  0
 15 37  1  0  0  0  0
 16 17  1  0  0  0  0
 17 18  1  0  0  0  0
 17 38  1  0  0  0  0
 17 39  1  0  0  0  0
 18 24  1  0  0  0  0
 18 19  2  0  0  0  0
 19 20  1  0  0  0  0
 19 40  1  0  0  0  0
 20 21  2  0  0  0  0
 20 41  1  0  0  0  0
 21 22  1  0  0  0  0
 21 23  1  0  0  0  0
 23 24  2  0  0  0  0
 23 42  1  0  0  0  0
 24 43  1  0  0  0  0
M  CHG  1   4   1
M  END
> <s_m_source_file>
AV-unprocessed.smi

> <i_m_source_file_index>
322

> <i_lp_mmshare_version>
43012

> <i_f3d_flags>
0

> <s_epik_input>
W2NIXTFbY0hdW2NIXVtjSF1jKGMxMiluKGMobjIpW0NIMl1bT0hdKVtDSDJdW0NASF0oW09IXSlbQ0gyXU9bQ0gyXWMzW2NIXVtjSF1jKENsKVtjSF1bY0hdMw==

> <s_epik_cmdline>
J2VwaWtfcHl0aG9uJywgJy1waCcsICc3LjAnLCAnLXRuJywgJzgnLCAnLW1hJywgJzIwMCcsICctbWV0YWxfYmluZGluZycsICctaW1hZScsICc8aW5maWxlLm1hZT4nLCAnLW9tYWUnLCAnPG91dGZpbGUubWFlPic=

> <r_epik_Ionization_Penalty>
1.34314

> <r_epik_Ionization_Penalty_Charging>
1.34228

> <r_epik_Ionization_Penalty_Neutral>
0.000856898

> <r_epik_State_Penalty>
1.41963

> <r_epik_Charging_Adjusted_Penalty>
2.76191

> <i_epik_Tot_Q>
1

> <i_epik_Tot_abs_Q>
1

> <r_epik_Metal_State_Penalty>
5.45585

> <b_epik_Metal_Only>
0

> <s_lp_Force_Field>
OPLS_2005

> <r_lp_Energy>
18.1593

> <b_lp_Chiralities_Consistent>
1

> <s_lp_Variant>
AV-unprocessed.smi:322-4

> <Gold.Version>
5.8.1

> <Gold.Id.Protein>
6NUR|6NUR_protein|mol2

> <Gold.PLP.Fitness>
58.8934

> <Gold.PLP.PLP>
-48.2978

> <Gold.PLP.part.hbond>
-5.7486

> <Gold.PLP.part.metal>
0.0000

> <Gold.PLP.part.buried>
-1.4496

> <Gold.PLP.part.nonpolar>
-41.0739

> <Gold.PLP.part.repulsive>
0.0049

> <Gold.PLP.ligand.clash>
0.0000

> <Gold.PLP.ligand.torsion>
1.0961

> <Gold.PLP.Chemscore.Hbond>
4.2037

> <Gold.PLP.Chemscore.CHOScore>
0.0000

> <Gold.PLP.Chemscore.Metal>
0.0000

> <Gold.Chemscore.Hbonds>
donor molecule, donor type, donor heavy atom, donor atom, acceptor molecule, acceptor atom, score
      L1  H     1    25       P1  8028  0.86
      L1  H     4    44       P1  8028  2.00
      P1  H  6896  6909       L1    16  0.83
      P1  H  8011  8017       L1     1  0.29

> <Gold.PLP.Chemscore.Internal.Correction>
0.1767

> <Gold.Rescore>
     Score         DG    S(hbond)    S(metal)    S(lipo)     H(rot)  DE(clash)    DE(int)     intcor
     20.11     -21.63       2.72        0.00     131.19       3.24       0.23       1.28       ----

> <Gold.Chemscore.Fitness>
20.1080

> <Gold.Chemscore.DG>
-21.6259

> <Gold.Chemscore.ZeroCoef>
-5.4800

> <Gold.Chemscore.Hbond>
2.7205

> <Gold.Chemscore.Metal>
0.0000

> <Gold.Chemscore.Lipo>
131.1916

> <Gold.Chemscore.Internal_Hbond>
0.0000

> <Gold.Chemscore.DEClash>
0.2339

> <Gold.Chemscore.DEInternal>
1.2841

> <Gold.Chemscore.Rot>
3.2383

> <Gold.Chemscore.Internal.Correction>
   9.000000E+99

> <Gold.Chemscore.Hbonds>
donor molecule, donor type, donor heavy atom, donor atom, acceptor molecule, acceptor atom, score
      L1  H     1    25       P1  8028  0.84
      L1  H     4    44       P1  8028  0.98
      P1  H  6896  6909       L1    16  0.44
      P1  H  8011  8017       L1     1  0.09

> <Gold.Chemscore.Hbond.Weighted>
-9.0866

> <Gold.Chemscore.Metal.Weighted>
-0.0000

> <Gold.Chemscore.Lipo.Weighted>
-15.3494

> <Gold.Chemscore.Internal_Hbond.Weighted>
0.0000

> <Gold.Chemscore.DEClash.Weighted>
0.2339

> <Gold.Chemscore.DEInternal.Weighted>
1.2841

> <Gold.Chemscore.Rot.Weighted>
8.2901

> <Gold.Chemscore.Internal.Correction.Weighted>
   9.000000E+99

> <Gold.Protein.RotatedTorsions>
[ 6907 6896 6895 6894 ] final   82.18 input  -60.11 | X-H torsion
[ 7974 7965 7964 7962 ] final  -89.32 input  175.53 | X-H torsion
[ 8008 7997 7996 7995 ] final   -2.50 input   59.86 | X-H torsion
[ 10167 10162 10161 10158 ] final  146.66 input  -65.29 | X-H torsion
[ 10718 10713 10712 10709 ] final   92.83 input   66.30 | X-H torsion
[ 10763 10752 10751 10750 ] final   56.99 input  -60.55 | X-H torsion
[ 11005 11000 10999 10996 ] final   -7.66 input  -57.11 | X-H torsion

> <Gold.Protein.ActiveResidues>
 VAL166  LYS551  ARG553  GLY616  TRP617  ASP618  TYR619  PRO620  LYS621  CYS622 
 ASP623  PHE694  ASN695  SER759  ASP760  ASP761  ALA762  ILE779  LEU786  VAL792 
 PHE793  MET794  SER795  GLU796  ALA797  LYS798  CYS799  TRP800  GLU811  SER814 

> <Gold.Protein.RotatedAtoms>
  152.5291  134.3090  159.9106 H   0  0  0  0  0  0  0  0  0  0  0  0  # atno 6907 bound_to 6896
  151.3040  133.4103  159.2649 H   0  0  0  0  0  0  0  0  0  0  0  0  # atno 6908 bound_to 6896
  151.0095  134.9402  159.8056 H   0  0  0  0  0  0  0  0  0  0  0  0  # atno 6909 bound_to 6896
  145.4414  140.9559  143.2073 H   0  0  0  0  0  0  0  0  0  0  0  0  # atno 7974 bound_to 7965
  154.6351  140.2533  155.7388 H   0  0  0  0  0  0  0  0  0  0  0  0  # atno 8008 bound_to 7997
  156.2500  140.2899  156.0640 H   0  0  0  0  0  0  0  0  0  0  0  0  # atno 8009 bound_to 7997
  155.1684  140.0386  157.2848 H   0  0  0  0  0  0  0  0  0  0  0  0  # atno 8010 bound_to 7997
  139.4903  144.5813  151.6866 H   0  0  0  0  0  0  0  0  0  0  0  0  # atno 10167 bound_to 10162
  157.6957  131.0457  150.3941 H   0  0  0  0  0  0  0  0  0  0  0  0  # atno 10718 bound_to 10713
  152.9842  135.5657  154.5319 H   0  0  0  0  0  0  0  0  0  0  0  0  # atno 10763 bound_to 10752
  154.4789  135.2788  155.1588 H   0  0  0  0  0  0  0  0  0  0  0  0  # atno 10764 bound_to 10752
  154.3105  135.6289  153.5517 H   0  0  0  0  0  0  0  0  0  0  0  0  # atno 10765 bound_to 10752
  140.7151  133.8875  155.8779 H   0  0  0  0  0  0  0  0  0  0  0  0  # atno 11005 bound_to 11000
  144.8119  139.5946  143.7025 LP  0  0  0  0  0  0  0  0  0  0  0  0  # atno 17320 bound_to 7965
  146.2554  139.6291  142.9398 LP  0  0  0  0  0  0  0  0  0  0  0  0  # atno 17321 bound_to 7965
  140.5420  144.0564  150.6092 LP  0  0  0  0  0  0  0  0  0  0  0  0  # atno 17342 bound_to 10162
  140.3590  143.2919  152.0405 LP  0  0  0  0  0  0  0  0  0  0  0  0  # atno 17343 bound_to 10162
  156.4341  130.3978  149.6740 LP  0  0  0  0  0  0  0  0  0  0  0  0  # atno 17370 bound_to 10713
  156.3947  130.7645  151.2648 LP  0  0  0  0  0  0  0  0  0  0  0  0  # atno 17371 bound_to 10713
  141.0051  134.1097  157.4278 LP  0  0  0  0  0  0  0  0  0  0  0  0  # atno 17394 bound_to 11000
  139.8862  135.0079  156.6482 LP  0  0  0  0  0  0  0  0  0  0  0  0  # atno 17395 bound_to 11000

$$$$
