AV-unprocessed.smi:2777|AV-procd|sdf|10709|dock2
  -GOLD-   2272015143D 1   1.00000     0.00000
 Structure written by MMmdl.
 31 32  0  0  0  0  0  0  0  0  1 V2000
  154.4686  139.9693  160.5882 C   0  0  0  0  0  0  0  0  0  0  0  0
  153.4509  140.8539  159.9898 N   0  0  0  0  0  0  0  0  0  0  0  0
  152.8560  140.4591  158.8201 C   0  0  0  0  0  0  0  0  0  0  0  0
  153.1106  139.4155  158.2185 O   0  0  0  0  0  0  0  0  0  0  0  0
  151.8575  141.4062  158.3126 C   0  0  0  0  0  0  0  0  0  0  0  0
  151.5593  142.5684  158.9423 C   0  0  0  0  0  0  0  0  0  0  0  0
  150.5868  143.2842  158.2533 N   0  0  0  0  0  0  0  0  0  0  0  0
  150.3420  142.4880  157.2120 C   0  0  0  0  0  0  0  0  0  0  0  0
  151.0585  141.3461  157.1706 N   0  0  0  0  0  0  0  0  0  0  0  0
  150.9723  140.3206  156.1416 C   0  0  0  0  0  0  0  0  0  0  0  0
  149.9161  140.6452  155.0651 C   0  0  1  0  0  0  0  0  0  0  0  0
  150.3171  140.1204  153.8134 O   0  0  0  0  0  0  0  0  0  0  0  0
  148.5199  140.0988  155.4184 C   0  0  0  0  0  0  0  0  0  0  0  0
  148.5485  138.7671  155.4761 F   0  0  0  0  0  0  0  0  0  0  0  0
  148.0958  140.5880  156.5844 F   0  0  0  0  0  0  0  0  0  0  0  0
  147.6533  140.4504  154.4685 F   0  0  0  0  0  0  0  0  0  0  0  0
  152.2365  142.8840  160.1459 N   0  0  0  0  0  0  0  0  0  0  0  0
  151.8884  144.1508  160.7960 C   0  0  0  0  0  0  0  0  0  0  0  0
  153.1768  142.0293  160.6689 C   0  0  0  0  0  0  0  0  0  0  0  0
  153.7631  142.3044  161.7193 O   0  0  0  0  0  0  0  0  0  0  0  0
  154.6631  139.0504  160.0342 H   0  0  0  0  0  0  0  0  0  0  0  0
  154.1659  139.6663  161.5918 H   0  0  0  0  0  0  0  0  0  0  0  0
  155.4245  140.4895  160.6694 H   0  0  0  0  0  0  0  0  0  0  0  0
  149.6177  142.7439  156.4527 H   0  0  0  0  0  0  0  0  0  0  0  0
  151.9543  140.1689  155.6960 H   0  0  0  0  0  0  0  0  0  0  0  0
  150.7207  139.3782  156.6294 H   0  0  0  0  0  0  0  0  0  0  0  0
  149.8486  141.7282  154.9539 H   0  0  0  0  0  0  0  0  0  0  0  0
  149.7261  140.4407  153.1495 H   0  0  0  0  0  0  0  0  0  0  0  0
  152.4293  144.3465  161.7222 H   0  0  0  0  0  0  0  0  0  0  0  0
  150.8242  144.1660  161.0337 H   0  0  0  0  0  0  0  0  0  0  0  0
  152.0916  144.9824  160.1204 H   0  0  0  0  0  0  0  0  0  0  0  0
  1  2  1  0  0  0  0
  1 21  1  0  0  0  0
  1 22  1  0  0  0  0
  1 23  1  0  0  0  0
  2 19  1  0  0  0  0
  2  3  1  0  0  0  0
  3  4  2  0  0  0  0
  3  5  1  0  0  0  0
  5  9  1  0  0  0  0
  5  6  2  0  0  0  0
  6  7  1  0  0  0  0
  6 17  1  0  0  0  0
  7  8  2  0  0  0  0
  8  9  1  0  0  0  0
  8 24  1  0  0  0  0
  9 10  1  0  0  0  0
 10 11  1  0  0  0  0
 10 25  1  0  0  0  0
 10 26  1  0  0  0  0
 11 12  1  0  0  0  0
 11 13  1  0  0  0  0
 11 27  1  0  0  0  0
 12 28  1  0  0  0  0
 13 14  1  0  0  0  0
 13 15  1  0  0  0  0
 13 16  1  0  0  0  0
 17 18  1  0  0  0  0
 17 19  1  0  0  0  0
 18 29  1  0  0  0  0
 18 30  1  0  0  0  0
 18 31  1  0  0  0  0
 19 20  2  0  0  0  0
M  END
> <s_m_source_file>
AV-unprocessed.smi

> <i_m_source_file_index>
2777

> <i_lp_mmshare_version>
43012

> <i_f3d_flags>
0

> <s_epik_input>
Tz1jMW4oW0NIM10pYyg9TyluKFtDSDNdKWMoYzEyKW5bY0hdbjJbQ0gyXVtDQEhdKFtPSF0pQyhGKShGKUY=

> <s_epik_cmdline>
J2VwaWtfcHl0aG9uJywgJy1waCcsICc3LjAnLCAnLXRuJywgJzgnLCAnLW1hJywgJzIwMCcsICctbWV0YWxfYmluZGluZycsICctaW1hZScsICc8aW5maWxlLm1hZT4nLCAnLW9tYWUnLCAnPG91dGZpbGUubWFlPic=

> <r_epik_Ionization_Penalty>
0.000551612

> <r_epik_Ionization_Penalty_Charging>
2.619e-09

> <r_epik_Ionization_Penalty_Neutral>
0.00055161

> <r_epik_State_Penalty>
0.000345115

> <r_epik_Charging_Adjusted_Penalty>
0.000345118

> <i_epik_Tot_Q>
0

> <i_epik_Tot_abs_Q>
0

> <r_epik_Metal_State_Penalty>
-0

> <b_epik_Metal_Only>
0

> <s_lp_Force_Field>
OPLS_2005

> <r_lp_Energy>
33.5503

> <b_lp_Chiralities_Consistent>
1

> <s_lp_Variant>
AV-unprocessed.smi:2777-2

> <Gold.Version>
5.8.1

> <Gold.Id.Protein>
6NUR|6NUR_protein|mol2

> <Gold.PLP.Fitness>
45.0490

> <Gold.PLP.PLP>
-35.3611

> <Gold.PLP.part.hbond>
-3.2481

> <Gold.PLP.part.metal>
0.0000

> <Gold.PLP.part.buried>
-0.8168

> <Gold.PLP.part.nonpolar>
-30.4270

> <Gold.PLP.part.repulsive>
0.1578

> <Gold.PLP.ligand.clash>
0.0000

> <Gold.PLP.ligand.torsion>
0.3946

> <Gold.PLP.Chemscore.Hbond>
2.4880

> <Gold.PLP.Chemscore.CHOScore>
1.0000

> <Gold.PLP.Chemscore.Metal>
0.0000

> <Gold.Chemscore.Hbonds>
donor molecule, donor type, donor heavy atom, donor atom, acceptor molecule, acceptor atom, score
      L1  H    12    28       P1  7957  0.62
      P1  H  7989  7998       L1    12  0.88
      P1  H  7997  8010       L1     4  1.00
      L1  C     8    24       P1  8028  1.00

> <Gold.PLP.Chemscore.Internal.Correction>
0.0131

> <Gold.Rescore>
     Score         DG    S(hbond)    S(metal)    S(lipo)     H(rot)  DE(clash)    DE(int)     intcor
     10.36     -11.59       1.97        0.00      44.02       2.20       0.75       0.48       ----

> <Gold.Chemscore.Fitness>
10.3595

> <Gold.Chemscore.DG>
-11.5884

> <Gold.Chemscore.ZeroCoef>
-5.4800

> <Gold.Chemscore.Hbond>
1.9707

> <Gold.Chemscore.Metal>
0.0000

> <Gold.Chemscore.Lipo>
44.0175

> <Gold.Chemscore.Internal_Hbond>
0.0000

> <Gold.Chemscore.DEClash>
0.7495

> <Gold.Chemscore.DEInternal>
0.4794

> <Gold.Chemscore.Rot>
2.1969

> <Gold.Chemscore.Internal.Correction>
   9.000000E+99

> <Gold.Chemscore.Hbonds>
donor molecule, donor type, donor heavy atom, donor atom, acceptor molecule, acceptor atom, score
      L1  H    12    28       P1  7957  0.58
      P1  H  7989  7998       L1    12  0.14
      P1  H  7997  8010       L1     4  0.24

> <Gold.Chemscore.Hbond.Weighted>
-6.5823

> <Gold.Chemscore.Metal.Weighted>
-0.0000

> <Gold.Chemscore.Lipo.Weighted>
-5.1501

> <Gold.Chemscore.Internal_Hbond.Weighted>
0.0000

> <Gold.Chemscore.DEClash.Weighted>
0.7495

> <Gold.Chemscore.DEInternal.Weighted>
0.4794

> <Gold.Chemscore.Rot.Weighted>
5.6239

> <Gold.Chemscore.Internal.Correction.Weighted>
   9.000000E+99

> <Gold.Protein.RotatedTorsions>
[ 6907 6896 6895 6894 ] final   18.03 input  -60.11 | X-H torsion
[ 7974 7965 7964 7962 ] final  -62.14 input  175.53 | X-H torsion
[ 8008 7997 7996 7995 ] final   24.20 input   59.86 | X-H torsion
[ 10167 10162 10161 10158 ] final   46.48 input  -65.29 | X-H torsion
[ 10718 10713 10712 10709 ] final  167.95 input   66.30 | X-H torsion
[ 10763 10752 10751 10750 ] final  118.40 input  -60.55 | X-H torsion
[ 11005 11000 10999 10996 ] final  -41.31 input  -57.11 | X-H torsion

> <Gold.Protein.ActiveResidues>
 VAL166  LYS551  ARG553  GLY616  TRP617  ASP618  TYR619  PRO620  LYS621  CYS622 
 ASP623  PHE694  ASN695  SER759  ASP760  ASP761  ALA762  ILE779  LEU786  VAL792 
 PHE793  MET794  SER795  GLU796  ALA797  LYS798  CYS799  TRP800  GLU811  SER814 

> <Gold.Protein.RotatedAtoms>
  151.8588  135.0531  160.0466 H   0  0  0  0  0  0  0  0  0  0  0  0  # atno 6907 bound_to 6896
  152.2679  133.5351  159.5429 H   0  0  0  0  0  0  0  0  0  0  0  0  # atno 6908 bound_to 6896
  150.7140  134.0655  159.3888 H   0  0  0  0  0  0  0  0  0  0  0  0  # atno 6909 bound_to 6896
  145.7949  140.8688  143.0261 H   0  0  0  0  0  0  0  0  0  0  0  0  # atno 7974 bound_to 7965
  154.9926  140.3115  155.4900 H   0  0  0  0  0  0  0  0  0  0  0  0  # atno 8008 bound_to 7997
  156.2937  140.2246  156.4972 H   0  0  0  0  0  0  0  0  0  0  0  0  # atno 8009 bound_to 7997
  154.7690  140.0453  157.1024 H   0  0  0  0  0  0  0  0  0  0  0  0  # atno 8010 bound_to 7997
  140.3135  144.2792  150.6195 H   0  0  0  0  0  0  0  0  0  0  0  0  # atno 10167 bound_to 10162
  157.0441  131.0295  151.2703 H   0  0  0  0  0  0  0  0  0  0  0  0  # atno 10718 bound_to 10713
  153.5671  135.3509  155.2823 H   0  0  0  0  0  0  0  0  0  0  0  0  # atno 10763 bound_to 10752
  154.8687  135.4150  154.2766 H   0  0  0  0  0  0  0  0  0  0  0  0  # atno 10764 bound_to 10752
  153.3524  135.7056  153.6847 H   0  0  0  0  0  0  0  0  0  0  0  0  # atno 10765 bound_to 10752
  141.0237  133.6851  156.2440 H   0  0  0  0  0  0  0  0  0  0  0  0  # atno 11005 bound_to 11000
  144.6776  140.0176  143.7484 LP  0  0  0  0  0  0  0  0  0  0  0  0  # atno 17320 bound_to 7965
  145.9938  139.3036  143.0969 LP  0  0  0  0  0  0  0  0  0  0  0  0  # atno 17321 bound_to 7965
  140.5547  143.2201  151.7867 LP  0  0  0  0  0  0  0  0  0  0  0  0  # atno 17342 bound_to 10162
  139.4889  144.4429  151.9743 LP  0  0  0  0  0  0  0  0  0  0  0  0  # atno 17343 bound_to 10162
  157.5081  130.7921  149.7676 LP  0  0  0  0  0  0  0  0  0  0  0  0  # atno 17370 bound_to 10713
  156.0028  130.3871  150.2540 LP  0  0  0  0  0  0  0  0  0  0  0  0  # atno 17371 bound_to 10713
  140.6529  134.5048  157.5578 LP  0  0  0  0  0  0  0  0  0  0  0  0  # atno 17394 bound_to 11000
  139.9162  134.8241  156.1359 LP  0  0  0  0  0  0  0  0  0  0  0  0  # atno 17395 bound_to 11000

$$$$
