AV-unprocessed.smi:3164|AV-procd|sdf|12084|dock9
  -GOLD-   2272017513D 1   1.00000     0.00000
 Structure written by MMmdl.
 39 40  0  0  0  0  0  0  0  0  2 V2000
  153.2953  138.4668  158.2637 C   0  0  0  0  0  0  0  0  0  0  0  0
  152.3152  138.7455  157.2248 N   0  0  0  0  0  0  0  0  0  0  0  0
  152.7411  138.2252  155.9321 C   0  0  0  0  0  0  0  0  0  0  0  0
  151.7127  138.5314  154.8305 C   0  0  0  0  0  0  0  0  0  0  0  0
  151.4731  139.9350  154.7790 O   0  0  0  0  0  0  0  0  0  0  0  0
  150.9985  140.4698  156.0124 C   0  0  2  0  0  0  0  0  0  0  0  0
  150.7582  141.9736  155.8119 C   0  0  0  0  0  0  0  0  0  0  0  0
  150.5003  142.6559  157.0956 N   0  3  0  0  0  0  0  0  0  0  0  0
  151.6998  143.2634  157.7067 C   0  0  0  0  0  0  0  0  0  0  0  0
  151.4137  143.7786  159.1263 C   0  0  0  0  0  0  0  0  0  0  0  0
  152.2762  143.1127  160.1842 C   0  0  0  0  0  0  0  0  0  0  0  0
  153.1137  142.0254  159.8538 C   0  0  0  0  0  0  0  0  0  0  0  0
  153.8886  141.4412  160.8747 C   0  0  0  0  0  0  0  0  0  0  0  0
  153.7945  141.9622  162.1796 C   0  0  0  0  0  0  0  0  0  0  0  0
  152.9276  143.0496  162.4068 C   0  0  0  0  0  0  0  0  0  0  0  0
  152.1800  143.6164  161.4349 N   0  0  0  0  0  0  0  0  0  0  0  0
  152.0404  140.1716  157.1119 C   0  0  0  0  0  0  0  0  0  0  0  0
  153.4627  137.3933  158.3583 H   0  0  0  0  0  0  0  0  0  0  0  0
  152.9500  138.8348  159.2302 H   0  0  0  0  0  0  0  0  0  0  0  0
  154.2522  138.9414  158.0415 H   0  0  0  0  0  0  0  0  0  0  0  0
  153.7028  138.6609  155.6565 H   0  0  0  0  0  0  0  0  0  0  0  0
  152.8939  137.1473  155.9977 H   0  0  0  0  0  0  0  0  0  0  0  0
  152.0834  138.1965  153.8616 H   0  0  0  0  0  0  0  0  0  0  0  0
  150.7770  138.0019  155.0167 H   0  0  0  0  0  0  0  0  0  0  0  0
  150.0507  139.9855  156.2566 H   0  0  0  0  0  0  0  0  0  0  0  0
  151.6115  142.4323  155.3103 H   0  0  0  0  0  0  0  0  0  0  0  0
  149.8918  142.1193  155.1654 H   0  0  0  0  0  0  0  0  0  0  0  0
  149.8196  143.3859  156.9383 H   0  0  0  0  0  0  0  0  0  0  0  0
  152.4960  142.5192  157.7413 H   0  0  0  0  0  0  0  0  0  0  0  0
  152.0538  144.0806  157.0764 H   0  0  0  0  0  0  0  0  0  0  0  0
  151.5587  144.8591  159.1662 H   0  0  0  0  0  0  0  0  0  0  0  0
  150.3652  143.6060  159.3728 H   0  0  0  0  0  0  0  0  0  0  0  0
  153.1657  141.6468  158.8434 H   0  0  0  0  0  0  0  0  0  0  0  0
  154.5428  140.6088  160.6610 H   0  0  0  0  0  0  0  0  0  0  0  0
  154.3743  141.5399  162.9871 H   0  0  0  0  0  0  0  0  0  0  0  0
  152.8309  143.4746  163.3950 H   0  0  0  0  0  0  0  0  0  0  0  0
  151.6818  140.5499  158.0699 H   0  0  0  0  0  0  0  0  0  0  0  0
  152.9651  140.7078  156.8916 H   0  0  0  0  0  0  0  0  0  0  0  0
  150.1125  141.9865  157.7449 H   0  0  0  0  0  0  0  0  0  0  0  0
  1  2  1  0  0  0  0
  1 18  1  0  0  0  0
  1 19  1  0  0  0  0
  1 20  1  0  0  0  0
  2 17  1  0  0  0  0
  2  3  1  0  0  0  0
  3  4  1  0  0  0  0
  3 21  1  0  0  0  0
  3 22  1  0  0  0  0
  4  5  1  0  0  0  0
  4 23  1  0  0  0  0
  4 24  1  0  0  0  0
  5  6  1  0  0  0  0
  6  7  1  0  0  0  0
  6 17  1  0  0  0  0
  6 25  1  0  0  0  0
  7  8  1  0  0  0  0
  7 26  1  0  0  0  0
  7 27  1  0  0  0  0
  8  9  1  0  0  0  0
  8 28  1  0  0  0  0
  8 39  1  0  0  0  0
  9 10  1  0  0  0  0
  9 29  1  0  0  0  0
  9 30  1  0  0  0  0
 10 11  1  0  0  0  0
 10 31  1  0  0  0  0
 10 32  1  0  0  0  0
 11 16  1  0  0  0  0
 11 12  2  0  0  0  0
 12 13  1  0  0  0  0
 12 33  1  0  0  0  0
 13 14  2  0  0  0  0
 13 34  1  0  0  0  0
 14 15  1  0  0  0  0
 14 35  1  0  0  0  0
 15 16  2  0  0  0  0
 15 36  1  0  0  0  0
 17 37  1  0  0  0  0
 17 38  1  0  0  0  0
M  CHG  1   8   1
M  END
> <s_m_source_file>
AV-unprocessed.smi

> <i_m_source_file_index>
3164

> <i_lp_mmshare_version>
43012

> <i_f3d_flags>
0

> <s_epik_input>
W0NIM11OMVtDSDJdW0NIMl1PW0NASF0oW0NIMl0xKVtDSDJdW05IXVtDSDJdW0NIMl1jMltjSF1bY0hdW2NIXVtjSF1uMg==

> <s_epik_cmdline>
J2VwaWtfcHl0aG9uJywgJy1waCcsICc3LjAnLCAnLXRuJywgJzgnLCAnLW1hJywgJzIwMCcsICctbWV0YWxfYmluZGluZycsICctaW1hZScsICc8aW5maWxlLm1hZT4nLCAnLW9tYWUnLCAnPG91dGZpbGUubWFlPic=

> <r_epik_Ionization_Penalty>
0.584284

> <r_epik_Ionization_Penalty_Charging>
0.00270218

> <r_epik_Ionization_Penalty_Neutral>
0.581582

> <r_epik_State_Penalty>
0.593163

> <r_epik_Charging_Adjusted_Penalty>
0.595865

> <i_epik_Tot_Q>
1

> <i_epik_Tot_abs_Q>
1

> <r_epik_Metal_State_Penalty>
0.593163

> <b_epik_Metal_Only>
0

> <s_lp_Force_Field>
OPLS_2005

> <r_lp_Energy>
23.4824

> <b_lp_Chiralities_Consistent>
1

> <s_lp_Variant>
AV-unprocessed.smi:3164-6

> <Gold.Version>
5.8.1

> <Gold.Id.Protein>
6NUR|6NUR_protein|mol2

> <Gold.PLP.Fitness>
48.5274

> <Gold.PLP.PLP>
-41.0017

> <Gold.PLP.part.hbond>
-2.0000

> <Gold.PLP.part.metal>
0.0000

> <Gold.PLP.part.buried>
-5.6754

> <Gold.PLP.part.nonpolar>
-33.4347

> <Gold.PLP.part.repulsive>
0.2274

> <Gold.PLP.ligand.clash>
0.0000

> <Gold.PLP.ligand.torsion>
0.7281

> <Gold.PLP.Chemscore.Hbond>
2.9840

> <Gold.PLP.Chemscore.CHOScore>
0.0000

> <Gold.PLP.Chemscore.Metal>
0.0000

> <Gold.Chemscore.Hbonds>
donor molecule, donor type, donor heavy atom, donor atom, acceptor molecule, acceptor atom, score
      L1  H     8    28       P1  8028  1.85
      P1  H  7989  7998       L1     5  1.00

> <Gold.PLP.Chemscore.Internal.Correction>
0.0299

> <Gold.Rescore>
     Score         DG    S(hbond)    S(metal)    S(lipo)     H(rot)  DE(clash)    DE(int)     intcor
     20.77     -21.62       1.94        0.00     116.93       1.57       0.17       0.68       ----

> <Gold.Chemscore.Fitness>
20.7666

> <Gold.Chemscore.DG>
-21.6187

> <Gold.Chemscore.ZeroCoef>
-5.4800

> <Gold.Chemscore.Hbond>
1.9413

> <Gold.Chemscore.Metal>
0.0000

> <Gold.Chemscore.Lipo>
116.9274

> <Gold.Chemscore.Internal_Hbond>
0.0000

> <Gold.Chemscore.DEClash>
0.1729

> <Gold.Chemscore.DEInternal>
0.6792

> <Gold.Chemscore.Rot>
1.5726

> <Gold.Chemscore.Internal.Correction>
   9.000000E+99

> <Gold.Chemscore.Hbonds>
donor molecule, donor type, donor heavy atom, donor atom, acceptor molecule, acceptor atom, score
      L1  H     8    28       P1  8028  0.84
      P1  H  7989  7998       L1     5  0.96

> <Gold.Chemscore.Hbond.Weighted>
-6.4841

> <Gold.Chemscore.Metal.Weighted>
-0.0000

> <Gold.Chemscore.Lipo.Weighted>
-13.6805

> <Gold.Chemscore.Internal_Hbond.Weighted>
0.0000

> <Gold.Chemscore.DEClash.Weighted>
0.1729

> <Gold.Chemscore.DEInternal.Weighted>
0.6792

> <Gold.Chemscore.Rot.Weighted>
4.0259

> <Gold.Chemscore.Internal.Correction.Weighted>
   9.000000E+99

> <Gold.Protein.RotatedTorsions>
[ 6907 6896 6895 6894 ] final   16.39 input  -60.11 | X-H torsion
[ 7974 7965 7964 7962 ] final   -3.31 input  175.53 | X-H torsion
[ 8008 7997 7996 7995 ] final -171.50 input   59.86 | X-H torsion
[ 10167 10162 10161 10158 ] final  -90.03 input  -65.29 | X-H torsion
[ 10718 10713 10712 10709 ] final   23.21 input   66.30 | X-H torsion
[ 10763 10752 10751 10750 ] final  148.11 input  -60.55 | X-H torsion
[ 11005 11000 10999 10996 ] final  102.29 input  -57.11 | X-H torsion

> <Gold.Protein.ActiveResidues>
 VAL166  LYS551  ARG553  GLY616  TRP617  ASP618  TYR619  PRO620  LYS621  CYS622 
 ASP623  PHE694  ASN695  SER759  ASP760  ASP761  ALA762  ILE779  LEU786  VAL792 
 PHE793  MET794  SER795  GLU796  ALA797  LYS798  CYS799  TRP800  GLU811  SER814 

> <Gold.Protein.RotatedAtoms>
  151.8331  135.0615  160.0438 H   0  0  0  0  0  0  0  0  0  0  0  0  # atno 6907 bound_to 6896
  152.2865  133.5516  159.5539 H   0  0  0  0  0  0  0  0  0  0  0  0  # atno 6908 bound_to 6896
  150.7212  134.0405  159.3806 H   0  0  0  0  0  0  0  0  0  0  0  0  # atno 6909 bound_to 6896
  146.2391  140.1702  142.8332 H   0  0  0  0  0  0  0  0  0  0  0  0  # atno 7974 bound_to 7965
  155.9323  140.1093  157.1122 H   0  0  0  0  0  0  0  0  0  0  0  0  # atno 8008 bound_to 7997
  154.4073  140.1235  156.4884 H   0  0  0  0  0  0  0  0  0  0  0  0  # atno 8009 bound_to 7997
  155.7064  140.3471  155.4957 H   0  0  0  0  0  0  0  0  0  0  0  0  # atno 8010 bound_to 7997
  140.3590  143.2852  151.9637 H   0  0  0  0  0  0  0  0  0  0  0  0  # atno 10167 bound_to 10162
  157.1630  130.6725  149.6050 H   0  0  0  0  0  0  0  0  0  0  0  0  # atno 10718 bound_to 10713
  154.0494  135.2883  155.3343 H   0  0  0  0  0  0  0  0  0  0  0  0  # atno 10763 bound_to 10752
  154.6878  135.5238  153.8354 H   0  0  0  0  0  0  0  0  0  0  0  0  # atno 10764 bound_to 10752
  153.0567  135.6598  154.0692 H   0  0  0  0  0  0  0  0  0  0  0  0  # atno 10765 bound_to 10752
  139.8777  134.9218  156.5035 H   0  0  0  0  0  0  0  0  0  0  0  0  # atno 11005 bound_to 11000
  145.0018  140.8638  143.5277 LP  0  0  0  0  0  0  0  0  0  0  0  0  # atno 17320 bound_to 7965
  145.1722  139.2398  143.5336 LP  0  0  0  0  0  0  0  0  0  0  0  0  # atno 17321 bound_to 7965
  139.4816  144.6010  151.7606 LP  0  0  0  0  0  0  0  0  0  0  0  0  # atno 17342 bound_to 10162
  140.5146  144.0973  150.6004 LP  0  0  0  0  0  0  0  0  0  0  0  0  # atno 17343 bound_to 10162
  155.9750  130.4705  150.6432 LP  0  0  0  0  0  0  0  0  0  0  0  0  # atno 17370 bound_to 10713
  157.4115  131.0824  151.1216 LP  0  0  0  0  0  0  0  0  0  0  0  0  # atno 17371 bound_to 10713
  140.8572  133.8087  155.9228 LP  0  0  0  0  0  0  0  0  0  0  0  0  # atno 17394 bound_to 11000
  140.9085  134.2290  157.5000 LP  0  0  0  0  0  0  0  0  0  0  0  0  # atno 17395 bound_to 11000

$$$$
