AV-unprocessed.smi:177|AV-procd|sdf|1439|dock8
  -GOLD-   2262019223D 1   1.00000     0.00000
 Structure written by MMmdl.
 61 65  0  0  0  0  0  0  0  0  1 V2000
  152.5064  145.4946  159.0462 C   0  0  0  0  0  0  0  0  0  0  0  0
  152.5820  144.4354  158.1043 O   0  0  0  0  0  0  0  0  0  0  0  0
  151.9097  143.2477  158.5037 C   0  0  2  0  0  0  0  0  0  0  0  0
  152.9056  142.4039  159.3146 C   0  0  0  0  0  0  0  0  0  0  0  0
  152.2742  141.0782  159.7663 C   0  0  0  0  0  0  0  0  0  0  0  0
  151.7187  140.2679  158.5824 C   0  0  2  0  0  0  0  0  0  0  0  0
  152.7997  139.7775  157.7931 O   0  0  0  0  0  0  0  0  0  0  0  0
  152.3519  138.9143  156.7533 C   0  0  0  0  0  0  0  0  0  0  0  0
  151.4242  139.6840  155.8002 C   0  0  0  0  0  0  0  0  0  0  0  0
  150.3354  140.3126  156.5488 N   0  0  0  0  0  0  0  0  0  0  0  0
  149.2713  140.7880  155.8480 C   0  0  0  0  0  0  0  0  0  0  0  0
  149.1628  140.5108  154.5204 N   0  0  0  0  0  0  0  0  0  0  0  0
  148.1340  140.9816  153.8108 C   0  0  0  0  0  0  0  0  0  0  0  0
  147.1164  141.7392  154.2211 N   0  0  0  0  0  0  0  0  0  0  0  0
  147.2135  142.0206  155.5516 C   0  0  0  0  0  0  0  0  0  0  0  0
  148.2427  141.5817  156.4332 C   0  0  0  0  0  0  0  0  0  0  0  0
  147.9828  142.0375  157.7204 N   0  0  0  0  0  0  0  0  0  0  0  0
  146.8756  142.7171  157.6029 C   0  0  0  0  0  0  0  0  0  0  0  0
  146.3545  142.7774  156.3303 N   0  0  0  0  0  0  0  0  0  0  0  0
  145.1345  143.4587  155.9216 C   0  0  0  0  0  0  0  0  0  0  0  0
  144.3206  144.1388  157.0649 C   0  0  0  0  0  0  0  0  0  0  0  0
  145.1845  145.2035  157.8057 C   0  0  0  0  0  0  0  0  0  0  0  0
  145.4506  146.3589  157.0363 O   0  0  0  0  0  0  0  0  0  0  0  0
  142.9975  144.7433  156.5279 C   0  0  0  0  0  0  0  0  0  0  0  0
  142.0237  145.1319  157.6530 C   0  0  0  0  0  0  0  0  0  0  0  0
  141.7297  143.9910  158.4485 O   0  0  0  0  0  0  0  0  0  0  0  0
  142.8769  143.4629  159.1010 C   0  0  0  0  0  0  0  0  0  0  0  0
  143.9251  143.0191  158.0615 C   0  0  0  0  0  0  0  0  0  0  0  0
  150.7674  141.1113  157.6999 C   0  0  2  0  0  0  0  0  0  0  0  0
  151.4157  142.4519  157.2801 C   0  0  0  0  0  0  0  0  0  0  0  0
  153.0813  146.3449  158.6800 H   0  0  0  0  0  0  0  0  0  0  0  0
  152.9269  145.1989  160.0079 H   0  0  0  0  0  0  0  0  0  0  0  0
  151.4816  145.8309  159.2009 H   0  0  0  0  0  0  0  0  0  0  0  0
  151.0658  143.4995  159.1490 H   0  0  0  0  0  0  0  0  0  0  0  0
  153.7934  142.2011  158.7137 H   0  0  0  0  0  0  0  0  0  0  0  0
  153.2446  142.9651  160.1858 H   0  0  0  0  0  0  0  0  0  0  0  0
  153.0046  140.4830  160.3150 H   0  0  0  0  0  0  0  0  0  0  0  0
  151.4647  141.2901  160.4657 H   0  0  0  0  0  0  0  0  0  0  0  0
  151.1740  139.4128  158.9874 H   0  0  0  0  0  0  0  0  0  0  0  0
  153.2163  138.5341  156.2091 H   0  0  0  0  0  0  0  0  0  0  0  0
  151.8396  138.0502  157.1792 H   0  0  0  0  0  0  0  0  0  0  0  0
  151.9892  140.4433  155.2587 H   0  0  0  0  0  0  0  0  0  0  0  0
  151.0204  138.9942  155.0578 H   0  0  0  0  0  0  0  0  0  0  0  0
  148.1262  140.7150  152.7642 H   0  0  0  0  0  0  0  0  0  0  0  0
  146.4101  143.2068  158.4459 H   0  0  0  0  0  0  0  0  0  0  0  0
  145.4152  144.1989  155.1710 H   0  0  0  0  0  0  0  0  0  0  0  0
  144.5066  142.7358  155.3988 H   0  0  0  0  0  0  0  0  0  0  0  0
  144.6986  145.5492  158.7160 H   0  0  0  0  0  0  0  0  0  0  0  0
  146.1345  144.7686  158.1186 H   0  0  0  0  0  0  0  0  0  0  0  0
  146.3376  146.3083  156.7137 H   0  0  0  0  0  0  0  0  0  0  0  0
  143.1866  145.6082  155.8919 H   0  0  0  0  0  0  0  0  0  0  0  0
  142.4991  144.0098  155.8929 H   0  0  0  0  0  0  0  0  0  0  0  0
  142.4262  145.9345  158.2721 H   0  0  0  0  0  0  0  0  0  0  0  0
  141.0930  145.5034  157.2240 H   0  0  0  0  0  0  0  0  0  0  0  0
  143.2809  144.1949  159.8006 H   0  0  0  0  0  0  0  0  0  0  0  0
  142.5683  142.6061  159.7001 H   0  0  0  0  0  0  0  0  0  0  0  0
  143.5058  142.1747  157.5124 H   0  0  0  0  0  0  0  0  0  0  0  0
  144.8099  142.6345  158.5703 H   0  0  0  0  0  0  0  0  0  0  0  0
  149.9035  141.3494  158.3176 H   0  0  0  0  0  0  0  0  0  0  0  0
  150.6931  143.0409  156.7159 H   0  0  0  0  0  0  0  0  0  0  0  0
  152.2574  142.2743  156.6103 H   0  0  0  0  0  0  0  0  0  0  0  0
  1  2  1  0  0  0  0
  1 31  1  0  0  0  0
  1 32  1  0  0  0  0
  1 33  1  0  0  0  0
  2  3  1  0  0  0  0
  3 30  1  0  0  0  0
  3  4  1  0  0  0  0
  3 34  1  0  0  0  0
  4  5  1  0  0  0  0
  4 35  1  0  0  0  0
  4 36  1  0  0  0  0
  5  6  1  0  0  0  0
  5 37  1  0  0  0  0
  5 38  1  0  0  0  0
  6 29  1  0  0  0  0
  6  7  1  0  0  0  0
  6 39  1  0  0  0  0
  7  8  1  0  0  0  0
  8  9  1  0  0  0  0
  8 40  1  0  0  0  0
  8 41  1  0  0  0  0
  9 10  1  0  0  0  0
  9 42  1  0  0  0  0
  9 43  1  0  0  0  0
 10 11  1  0  0  0  0
 10 29  1  0  0  0  0
 11 16  1  0  0  0  0
 11 12  2  0  0  0  0
 12 13  1  0  0  0  0
 13 14  2  0  0  0  0
 13 44  1  0  0  0  0
 14 15  1  0  0  0  0
 15 19  1  0  0  0  0
 15 16  2  0  0  0  0
 16 17  1  0  0  0  0
 17 18  2  0  0  0  0
 18 19  1  0  0  0  0
 18 45  1  0  0  0  0
 19 20  1  0  0  0  0
 20 21  1  0  0  0  0
 20 46  1  0  0  0  0
 20 47  1  0  0  0  0
 21 28  1  0  0  0  0
 21 22  1  0  0  0  0
 21 24  1  0  0  0  0
 22 23  1  0  0  0  0
 22 48  1  0  0  0  0
 22 49  1  0  0  0  0
 23 50  1  0  0  0  0
 24 25  1  0  0  0  0
 24 51  1  0  0  0  0
 24 52  1  0  0  0  0
 25 26  1  0  0  0  0
 25 53  1  0  0  0  0
 25 54  1  0  0  0  0
 26 27  1  0  0  0  0
 27 28  1  0  0  0  0
 27 55  1  0  0  0  0
 27 56  1  0  0  0  0
 28 57  1  0  0  0  0
 28 58  1  0  0  0  0
 29 30  1  0  0  0  0
 29 59  1  0  0  0  0
 30 60  1  0  0  0  0
 30 61  1  0  0  0  0
M  END
> <s_m_source_file>
AV-unprocessed.smi

> <i_m_source_file_index>
177

> <i_lp_mmshare_version>
43012

> <i_f3d_flags>
0

> <s_epik_input>
W0NIM11PW0NASF0oW0NIMl1bQ0gyXTEpW0NIMl1bQ0BIXShbQ0BASF0xMilOKFtDSDJdW0NIMl1PMiljKG5bY0hdbjMpYyhjMzQpbltjSF1uNFtDSDJdQzUoW0NIMl1bT0hdKVtDSDJdW0NIMl1PW0NIMl1bQ0gyXTU=

> <s_epik_cmdline>
J2VwaWtfcHl0aG9uJywgJy1waCcsICc3LjAnLCAnLXRuJywgJzgnLCAnLW1hJywgJzIwMCcsICctbWV0YWxfYmluZGluZycsICctaW1hZScsICc8aW5maWxlLm1hZT4nLCAnLW9tYWUnLCAnPG91dGZpbGUubWFlPic=

> <r_lp_tautomer_probability>
1

> <r_epik_Ionization_Penalty>
0.0065899

> <r_epik_Ionization_Penalty_Charging>
0

> <r_epik_Ionization_Penalty_Neutral>
0.0065899

> <r_epik_State_Penalty>
0.00470042

> <r_epik_Charging_Adjusted_Penalty>
0.00470042

> <i_epik_Tot_Q>
0

> <i_epik_Tot_abs_Q>
0

> <r_epik_Metal_State_Penalty>
-0

> <b_epik_Metal_Only>
0

> <s_lp_Force_Field>
OPLS_2005

> <r_lp_Energy>
44.7828

> <b_lp_Chiralities_Consistent>
1

> <s_lp_Variant>
AV-unprocessed.smi:177-3

> <Gold.Version>
5.8.1

> <Gold.Id.Protein>
6NUR|6NUR_protein|mol2

> <Gold.PLP.Fitness>
47.9071

> <Gold.PLP.PLP>
-40.1936

> <Gold.PLP.part.hbond>
-2.0000

> <Gold.PLP.part.metal>
0.0000

> <Gold.PLP.part.buried>
-7.7567

> <Gold.PLP.part.nonpolar>
-31.5332

> <Gold.PLP.part.repulsive>
0.4666

> <Gold.PLP.ligand.clash>
0.0000

> <Gold.PLP.ligand.torsion>
0.8613

> <Gold.PLP.Chemscore.Hbond>
2.0000

> <Gold.PLP.Chemscore.CHOScore>
0.9793

> <Gold.PLP.Chemscore.Metal>
0.0000

> <Gold.Chemscore.Hbonds>
donor molecule, donor type, donor heavy atom, donor atom, acceptor molecule, acceptor atom, score
      L1  H    23    50       P1  8029  0.16
      P1  H  7997  8008       L1     7  0.65
      L1  C    13    44       P1  7957  1.00

> <Gold.PLP.Chemscore.Internal.Correction>
0.4981

> <Gold.Rescore>
     Score         DG    S(hbond)    S(metal)    S(lipo)     H(rot)  DE(clash)    DE(int)     intcor
     11.74     -15.16       1.73        0.00      89.97       2.58       0.06       3.36       ----

> <Gold.Chemscore.Fitness>
11.7436

> <Gold.Chemscore.DG>
-15.1647

> <Gold.Chemscore.ZeroCoef>
-5.4800

> <Gold.Chemscore.Hbond>
1.7258

> <Gold.Chemscore.Metal>
0.0000

> <Gold.Chemscore.Lipo>
89.9731

> <Gold.Chemscore.Internal_Hbond>
0.0000

> <Gold.Chemscore.DEClash>
0.0583

> <Gold.Chemscore.DEInternal>
3.3628

> <Gold.Chemscore.Rot>
2.5806

> <Gold.Chemscore.Internal.Correction>
   9.000000E+99

> <Gold.Chemscore.Hbonds>
donor molecule, donor type, donor heavy atom, donor atom, acceptor molecule, acceptor atom, score
      P1  H  7997  8008       L1     7  0.06

> <Gold.Chemscore.Hbond.Weighted>
-5.7640

> <Gold.Chemscore.Metal.Weighted>
-0.0000

> <Gold.Chemscore.Lipo.Weighted>
-10.5269

> <Gold.Chemscore.Internal_Hbond.Weighted>
0.0000

> <Gold.Chemscore.DEClash.Weighted>
0.0583

> <Gold.Chemscore.DEInternal.Weighted>
3.3628

> <Gold.Chemscore.Rot.Weighted>
6.6062

> <Gold.Chemscore.Internal.Correction.Weighted>
   9.000000E+99

> <Gold.Protein.RotatedTorsions>
[ 6907 6896 6895 6894 ] final  -15.83 input  -60.11 | X-H torsion
[ 7974 7965 7964 7962 ] final -120.47 input  175.53 | X-H torsion
[ 8008 7997 7996 7995 ] final  -81.40 input   59.86 | X-H torsion
[ 10167 10162 10161 10158 ] final  164.12 input  -65.29 | X-H torsion
[ 10718 10713 10712 10709 ] final  -13.76 input   66.30 | X-H torsion
[ 10763 10752 10751 10750 ] final -149.37 input  -60.55 | X-H torsion
[ 11005 11000 10999 10996 ] final -138.34 input  -57.11 | X-H torsion

> <Gold.Protein.ActiveResidues>
 VAL166  LYS551  ARG553  GLY616  TRP617  ASP618  TYR619  PRO620  LYS621  CYS622 
 ASP623  PHE694  ASN695  SER759  ASP760  ASP761  ALA762  ILE779  LEU786  VAL792 
 PHE793  MET794  SER795  GLU796  ALA797  LYS798  CYS799  TRP800  GLU811  SER814 

> <Gold.Protein.RotatedAtoms>
  151.3179  135.0811  159.9294 H   0  0  0  0  0  0  0  0  0  0  0  0  # atno 6907 bound_to 6896
  152.5263  133.9669  159.7754 H   0  0  0  0  0  0  0  0  0  0  0  0  # atno 6908 bound_to 6896
  150.9985  133.6027  159.2728 H   0  0  0  0  0  0  0  0  0  0  0  0  # atno 6909 bound_to 6896
  145.0510  140.8218  143.4209 H   0  0  0  0  0  0  0  0  0  0  0  0  # atno 7974 bound_to 7965
  154.5980  140.0648  156.9330 H   0  0  0  0  0  0  0  0  0  0  0  0  # atno 8008 bound_to 7997
  155.2181  140.3328  155.4301 H   0  0  0  0  0  0  0  0  0  0  0  0  # atno 8009 bound_to 7997
  156.2300  140.1836  156.7251 H   0  0  0  0  0  0  0  0  0  0  0  0  # atno 8010 bound_to 7997
  139.4884  144.4268  151.9120 H   0  0  0  0  0  0  0  0  0  0  0  0  # atno 10167 bound_to 10162
  156.6257  130.4887  149.6148 H   0  0  0  0  0  0  0  0  0  0  0  0  # atno 10718 bound_to 10713
  154.8181  135.3311  154.7118 H   0  0  0  0  0  0  0  0  0  0  0  0  # atno 10763 bound_to 10752
  153.7755  135.6922  153.4902 H   0  0  0  0  0  0  0  0  0  0  0  0  # atno 10764 bound_to 10752
  153.2015  135.4514  155.0220 H   0  0  0  0  0  0  0  0  0  0  0  0  # atno 10765 bound_to 10752
  140.8626  134.2150  157.4699 H   0  0  0  0  0  0  0  0  0  0  0  0  # atno 11005 bound_to 11000
  145.1527  139.2505  143.5432 LP  0  0  0  0  0  0  0  0  0  0  0  0  # atno 17320 bound_to 7965
  146.3518  140.1234  142.8599 LP  0  0  0  0  0  0  0  0  0  0  0  0  # atno 17321 bound_to 7965
  140.3714  144.2851  150.5919 LP  0  0  0  0  0  0  0  0  0  0  0  0  # atno 17342 bound_to 10162
  140.5316  143.2242  151.8230 LP  0  0  0  0  0  0  0  0  0  0  0  0  # atno 17343 bound_to 10162
  156.2275  130.6774  151.1430 LP  0  0  0  0  0  0  0  0  0  0  0  0  # atno 17370 bound_to 10713
  157.7215  131.0678  150.6117 LP  0  0  0  0  0  0  0  0  0  0  0  0  # atno 17371 bound_to 10713
  139.8707  134.9736  156.4817 LP  0  0  0  0  0  0  0  0  0  0  0  0  # atno 17394 bound_to 11000
  140.8666  133.8020  155.9320 LP  0  0  0  0  0  0  0  0  0  0  0  0  # atno 17395 bound_to 11000

$$$$
