AV-unprocessed.smi:651|AV-procd|sdf|3190|dock5
  -GOLD-   22720 0113D 1   1.00000     0.00000
 Structure written by MMmdl.
 39 40  0  0  0  0  0  0  0  0  2 V2000
  143.4038  132.3719  148.2518 C   0  0  0  0  0  0  0  0  0  0  0  0
  144.2223  132.8574  149.4294 C   0  0  0  0  0  0  0  0  0  0  0  0
  145.4223  132.2266  149.8211 C   0  0  0  0  0  0  0  0  0  0  0  0
  146.1389  132.7346  150.9248 C   0  0  0  0  0  0  0  0  0  0  0  0
  145.6423  133.8630  151.6141 C   0  0  0  0  0  0  0  0  0  0  0  0
  146.3962  134.4381  152.8027 C   0  0  0  0  0  0  0  0  0  0  0  0
  145.8890  135.8309  153.1963 C   0  0  0  0  0  0  0  0  0  0  0  0
  144.7388  136.0002  153.6040 O   0  0  0  0  0  0  0  0  0  0  0  0
  146.7774  136.8287  153.0761 N   0  0  0  0  0  0  0  0  0  0  0  0
  146.5188  138.2320  153.4053 C   0  0  2  0  0  0  0  0  0  0  0  0
  146.6470  139.1264  152.1565 C   0  0  0  0  0  0  0  0  0  0  0  0
  147.4548  140.3615  152.5718 C   0  0  0  0  0  0  0  0  0  0  0  0
  147.5091  140.3257  154.1005 C   0  0  0  0  0  0  0  0  0  0  0  0
  147.4595  138.8389  154.4833 C   0  0  2  0  0  0  0  0  0  0  0  0
  148.8810  138.2377  154.5335 C   0  0  0  0  0  0  0  0  0  0  0  0
  149.6400  138.3903  153.4455 N   0  0  0  0  0  0  0  0  0  0  0  0
  149.2920  137.6544  155.5354 O   0  0  0  0  0  0  0  0  0  0  0  0
  144.4360  134.4518  151.1768 C   0  0  0  0  0  0  0  0  0  0  0  0
  143.7798  133.9357  150.1147 N   0  3  0  0  0  0  0  0  0  0  0  0
  143.5504  131.3032  148.0928 H   0  0  0  0  0  0  0  0  0  0  0  0
  143.7009  132.8979  147.3442 H   0  0  0  0  0  0  0  0  0  0  0  0
  142.3402  132.5463  148.4181 H   0  0  0  0  0  0  0  0  0  0  0  0
  145.7923  131.3660  149.2829 H   0  0  0  0  0  0  0  0  0  0  0  0
  147.0612  132.2650  151.2346 H   0  0  0  0  0  0  0  0  0  0  0  0
  146.2959  133.7662  153.6564 H   0  0  0  0  0  0  0  0  0  0  0  0
  147.4599  134.4948  152.5673 H   0  0  0  0  0  0  0  0  0  0  0  0
  147.7037  136.6049  152.7415 H   0  0  0  0  0  0  0  0  0  0  0  0
  145.4922  138.3185  153.7671 H   0  0  0  0  0  0  0  0  0  0  0  0
  147.1489  138.6152  151.3334 H   0  0  0  0  0  0  0  0  0  0  0  0
  145.6580  139.4136  151.7978 H   0  0  0  0  0  0  0  0  0  0  0  0
  148.4640  140.2944  152.1639 H   0  0  0  0  0  0  0  0  0  0  0  0
  147.0159  141.2874  152.1990 H   0  0  0  0  0  0  0  0  0  0  0  0
  148.3868  140.8443  154.4898 H   0  0  0  0  0  0  0  0  0  0  0  0
  146.6331  140.8315  154.5086 H   0  0  0  0  0  0  0  0  0  0  0  0
  147.0070  138.7260  155.4701 H   0  0  0  0  0  0  0  0  0  0  0  0
  150.5812  138.0246  153.4314 H   0  0  0  0  0  0  0  0  0  0  0  0
  149.2723  138.8811  152.6432 H   0  0  0  0  0  0  0  0  0  0  0  0
  143.9822  135.3176  151.6370 H   0  0  0  0  0  0  0  0  0  0  0  0
  142.9119  134.3806  149.8155 H   0  0  0  0  0  0  0  0  0  0  0  0
  1  2  1  0  0  0  0
  1 20  1  0  0  0  0
  1 21  1  0  0  0  0
  1 22  1  0  0  0  0
  2 19  1  0  0  0  0
  2  3  2  0  0  0  0
  3  4  1  0  0  0  0
  3 23  1  0  0  0  0
  4  5  2  0  0  0  0
  4 24  1  0  0  0  0
  5  6  1  0  0  0  0
  5 18  1  0  0  0  0
  6  7  1  0  0  0  0
  6 25  1  0  0  0  0
  6 26  1  0  0  0  0
  7  8  2  0  0  0  0
  7  9  1  0  0  0  0
  9 10  1  0  0  0  0
  9 27  1  0  0  0  0
 10 14  1  0  0  0  0
 10 11  1  0  0  0  0
 10 28  1  0  0  0  0
 11 12  1  0  0  0  0
 11 29  1  0  0  0  0
 11 30  1  0  0  0  0
 12 13  1  0  0  0  0
 12 31  1  0  0  0  0
 12 32  1  0  0  0  0
 13 14  1  0  0  0  0
 13 33  1  0  0  0  0
 13 34  1  0  0  0  0
 14 15  1  0  0  0  0
 14 35  1  0  0  0  0
 15 16  1  0  0  0  0
 15 17  2  0  0  0  0
 16 36  1  0  0  0  0
 16 37  1  0  0  0  0
 18 19  2  0  0  0  0
 18 38  1  0  0  0  0
 19 39  1  0  0  0  0
M  CHG  1  19   1
M  END
> <s_m_source_file>
AV-unprocessed.smi

> <i_m_source_file_index>
651

> <i_lp_mmshare_version>
43012

> <i_f3d_flags>
0

> <s_epik_input>
W0NIM11jMVtjSF1bY0hdYyhbY0hdbjEpW0NIMl1DKD1PKVtOSF1bQ0BASF0yW0NIMl1bQ0gyXVtDSDJdW0NASF0yQyg9TylbTkgyXQ==

> <s_epik_cmdline>
J2VwaWtfcHl0aG9uJywgJy1waCcsICc3LjAnLCAnLXRuJywgJzgnLCAnLW1hJywgJzIwMCcsICctbWV0YWxfYmluZGluZycsICctaW1hZScsICc8aW5maWxlLm1hZT4nLCAnLW9tYWUnLCAnPG91dGZpbGUubWFlPic=

> <r_epik_Ionization_Penalty>
2.14971

> <r_epik_Ionization_Penalty_Charging>
2.14971

> <r_epik_Ionization_Penalty_Neutral>
1.65229e-07

> <r_epik_State_Penalty>
2.28946

> <r_epik_Charging_Adjusted_Penalty>
4.43917

> <i_epik_Tot_Q>
1

> <i_epik_Tot_abs_Q>
1

> <r_epik_Metal_State_Penalty>
2.30508

> <b_epik_Metal_Only>
0

> <s_lp_Force_Field>
OPLS_2005

> <r_lp_Energy>
19.6238

> <b_lp_Chiralities_Consistent>
1

> <s_lp_Variant>
AV-unprocessed.smi:651-7

> <Gold.Version>
5.8.1

> <Gold.Id.Protein>
6NUR|6NUR_protein|mol2

> <Gold.PLP.Fitness>
41.7648

> <Gold.PLP.PLP>
-30.1739

> <Gold.PLP.part.hbond>
-4.0000

> <Gold.PLP.part.metal>
0.0000

> <Gold.PLP.part.buried>
1.9988

> <Gold.PLP.part.nonpolar>
-28.1239

> <Gold.PLP.part.repulsive>
0.2401

> <Gold.PLP.ligand.clash>
0.0000

> <Gold.PLP.ligand.torsion>
0.2145

> <Gold.PLP.Chemscore.Hbond>
4.0000

> <Gold.PLP.Chemscore.CHOScore>
0.0000

> <Gold.PLP.Chemscore.Metal>
0.0000

> <Gold.Chemscore.Hbonds>
donor molecule, donor type, donor heavy atom, donor atom, acceptor molecule, acceptor atom, score
      L1  H     9    27       P1  7948  1.00
      L1  H    16    37       P1  7957  0.96
      L1  H    19    39       P1 10186  2.00

> <Gold.PLP.Chemscore.Internal.Correction>
0.0199

> <Gold.Rescore>
     Score         DG    S(hbond)    S(metal)    S(lipo)     H(rot)  DE(clash)    DE(int)     intcor
     16.80     -20.26       2.83        0.00      90.11       2.04       1.29       2.17       ----

> <Gold.Chemscore.Fitness>
16.8010

> <Gold.Chemscore.DG>
-20.2589

> <Gold.Chemscore.ZeroCoef>
-5.4800

> <Gold.Chemscore.Hbond>
2.8309

> <Gold.Chemscore.Metal>
0.0000

> <Gold.Chemscore.Lipo>
90.1073

> <Gold.Chemscore.Internal_Hbond>
0.0000

> <Gold.Chemscore.DEClash>
1.2923

> <Gold.Chemscore.DEInternal>
2.1656

> <Gold.Chemscore.Rot>
2.0386

> <Gold.Chemscore.Internal.Correction>
   9.000000E+99

> <Gold.Chemscore.Hbonds>
donor molecule, donor type, donor heavy atom, donor atom, acceptor molecule, acceptor atom, score
      L1  H     9    27       P1  7948  0.97
      L1  H    16    37       P1  7957  0.88
      L1  H    19    39       P1 10186  0.94

> <Gold.Chemscore.Hbond.Weighted>
-9.4552

> <Gold.Chemscore.Metal.Weighted>
-0.0000

> <Gold.Chemscore.Lipo.Weighted>
-10.5426

> <Gold.Chemscore.Internal_Hbond.Weighted>
0.0000

> <Gold.Chemscore.DEClash.Weighted>
1.2923

> <Gold.Chemscore.DEInternal.Weighted>
2.1656

> <Gold.Chemscore.Rot.Weighted>
5.2188

> <Gold.Chemscore.Internal.Correction.Weighted>
   9.000000E+99

> <Gold.Protein.RotatedTorsions>
[ 6907 6896 6895 6894 ] final  -70.19 input  -60.11 | X-H torsion
[ 7974 7965 7964 7962 ] final   71.99 input  175.53 | X-H torsion
[ 8008 7997 7996 7995 ] final    5.69 input   59.86 | X-H torsion
[ 10167 10162 10161 10158 ] final   93.53 input  -65.29 | X-H torsion
[ 10718 10713 10712 10709 ] final -131.61 input   66.30 | X-H torsion
[ 10763 10752 10751 10750 ] final   67.91 input  -60.55 | X-H torsion
[ 11005 11000 10999 10996 ] final   68.75 input  -57.11 | X-H torsion

> <Gold.Protein.ActiveResidues>
 VAL166  LYS551  ARG553  GLY616  TRP617  ASP618  TYR619  PRO620  LYS621  CYS622 
 ASP623  PHE694  ASN695  SER759  ASP760  ASP761  ALA762  ILE779  LEU786  VAL792 
 PHE793  MET794  SER795  GLU796  ALA797  LYS798  CYS799  TRP800  GLU811  SER814 

> <Gold.Protein.RotatedAtoms>
  150.7269  134.5488  159.5783 H   0  0  0  0  0  0  0  0  0  0  0  0  # atno 6907 bound_to 6896
  152.2980  134.7641  160.0373 H   0  0  0  0  0  0  0  0  0  0  0  0  # atno 6908 bound_to 6896
  151.8231  133.3362  159.3627 H   0  0  0  0  0  0  0  0  0  0  0  0  # atno 6909 bound_to 6896
  145.7589  139.2792  143.1388 H   0  0  0  0  0  0  0  0  0  0  0  0  # atno 7974 bound_to 7965
  154.7315  140.2731  155.6451 H   0  0  0  0  0  0  0  0  0  0  0  0  # atno 8008 bound_to 7997
  156.2851  140.2714  156.1942 H   0  0  0  0  0  0  0  0  0  0  0  0  # atno 8009 bound_to 7997
  155.0375  140.0371  157.2487 H   0  0  0  0  0  0  0  0  0  0  0  0  # atno 8010 bound_to 7997
  139.8171  144.6748  150.9566 H   0  0  0  0  0  0  0  0  0  0  0  0  # atno 10167 bound_to 10162
  156.2261  130.7009  151.0809 H   0  0  0  0  0  0  0  0  0  0  0  0  # atno 10718 bound_to 10713
  153.0209  135.5267  154.7052 H   0  0  0  0  0  0  0  0  0  0  0  0  # atno 10763 bound_to 10752
  154.6150  135.2882  155.0392 H   0  0  0  0  0  0  0  0  0  0  0  0  # atno 10764 bound_to 10752
  154.1400  135.6579  153.4992 H   0  0  0  0  0  0  0  0  0  0  0  0  # atno 10765 bound_to 10752
  139.9693  134.6927  156.0479 H   0  0  0  0  0  0  0  0  0  0  0  0  # atno 11005 bound_to 11000
  146.0283  140.8282  142.9888 LP  0  0  0  0  0  0  0  0  0  0  0  0  # atno 17320 bound_to 7965
  144.6834  140.2731  143.7303 LP  0  0  0  0  0  0  0  0  0  0  0  0  # atno 17321 bound_to 7965
  140.7815  143.4128  151.0966 LP  0  0  0  0  0  0  0  0  0  0  0  0  # atno 17342 bound_to 10162
  139.7790  143.8382  152.3134 LP  0  0  0  0  0  0  0  0  0  0  0  0  # atno 17343 bound_to 10162
  157.7111  131.0733  150.6496 LP  0  0  0  0  0  0  0  0  0  0  0  0  # atno 17370 bound_to 10713
  156.6562  130.4499  149.5703 LP  0  0  0  0  0  0  0  0  0  0  0  0  # atno 17371 bound_to 10713
  141.1373  133.6572  156.3629 LP  0  0  0  0  0  0  0  0  0  0  0  0  # atno 17394 bound_to 11000
  140.5328  134.6196  157.5355 LP  0  0  0  0  0  0  0  0  0  0  0  0  # atno 17395 bound_to 11000

$$$$
