#       Name:                AV-unprocessed.smi:2707
#       Creating user name   scv26
#       Creation time:       Fri Mar 27 14:49:38 2020


#       File generated by GOLD software.
#

@<TRIPOS>MOLECULE
AV-unprocessed.smi:2707
    48    49     1
SMALL
NO_CHARGES


@<TRIPOS>ATOM
      1 ****        -3.9883   0.6934  -2.5115 C.3            1 S1                 0.0000
      2 ****        -3.5675  -0.6988  -1.9954 C.3            1 S1                 0.0000
      3 ****        -2.1253  -0.7295  -1.7144 N.am           1 S1                 0.0000
      4 ****        -1.4359  -0.0092  -0.8139 C.2            1 S1                 0.0000
      5 ****        -1.9419   0.8362  -0.0763 O.2            1 S1                 0.0000
      6 ****        -0.1340  -0.3434  -0.8287 N.am           1 S1                 0.0000
      7 ****         0.9120   0.1770  -0.0227 C.ar           1 S1                 0.0000
      8 ****         2.1829  -0.3916  -0.2408 C.ar           1 S1                 0.0000
      9 ****         3.2658   0.0749   0.5230 C.ar           1 S1                 0.0000
     10 ****         3.0132   1.0935   1.4694 C.ar           1 S1                 0.0000
     11 ****         4.1060   1.6972   2.3700 C.3            1 S1                 0.0000
     12 ****         5.4937   1.0644   2.1195 C.3            1 S1                 0.0000
     13 ****         3.7491   1.4609   3.8524 C.3            1 S1                 0.0000
     14 ****         4.2297   3.2104   2.0957 C.3            1 S1                 0.0000
     15 ****         1.7671   1.6015   1.6332 N.ar           1 S1                 0.0000
     16 ****         0.7413   1.1530   0.9040 N.ar           1 S1                 0.0000
     17 ****        -4.3868  -1.1192  -0.7460 C.3            1 S1                 0.0000
     18 ****        -4.2263  -2.6261  -0.5111 C.3            1 S1                 0.0000
     19 ****        -4.0416  -3.3658  -2.1746 S.o2           1 S1                 0.0000
     20 ****        -2.7743  -4.1108  -2.2265 O.2            1 S1                 0.0000
     21 ****        -5.3074  -3.9941  -2.5817 O.2            1 S1                 0.0000
     22 ****        -3.8489  -1.7734  -3.0655 C.3            1 S1                 0.0000
     23 ****        -5.0391   0.7062  -2.8023 H              1 S1                 0.0000
     24 ****        -3.4036   0.9839  -3.3851 H              1 S1                 0.0000
     25 ****        -3.8594   1.4670  -1.7545 H              1 S1                 0.0000
     26 ****        -1.5945  -1.3921  -2.2608 H              1 S1                 0.0000
     27 ****         0.1390  -1.0589  -1.4858 H              1 S1                 0.0000
     28 ****         2.3290  -1.1696  -0.9760 H              1 S1                 0.0000
     29 ****         4.2451  -0.3504   0.3682 H              1 S1                 0.0000
     30 ****         6.2520   1.5068   2.7668 H              1 S1                 0.0000
     31 ****         5.8259   1.2146   1.0915 H              1 S1                 0.0000
     32 ****         5.4904  -0.0078   2.3204 H              1 S1                 0.0000
     33 ****         3.6508   0.3970   4.0714 H              1 S1                 0.0000
     34 ****         2.8079   1.9403   4.1242 H              1 S1                 0.0000
     35 ****         4.5163   1.8633   4.5149 H              1 S1                 0.0000
     36 ****         5.0112   3.6628   2.7071 H              1 S1                 0.0000
     37 ****         3.3025   3.7399   2.3178 H              1 S1                 0.0000
     38 ****         4.4761   3.4040   1.0510 H              1 S1                 0.0000
     39 ****        -4.1341  -0.5491   0.1476 H              1 S1                 0.0000
     40 ****        -5.4418  -0.9198  -0.9390 H              1 S1                 0.0000
     41 ****        -3.3195  -2.8357   0.0567 H              1 S1                 0.0000
     42 ****        -5.0754  -3.0695   0.0090 H              1 S1                 0.0000
     43 ****        -4.7922  -1.5761  -3.5758 H              1 S1                 0.0000
     44 ****        -3.0698  -1.8567  -3.8241 H              1 S1                 0.0000
     45 ****        -2.9234   1.0207  -0.1268 LP             1 S1                 0.0000
     46 ****        -1.3715   1.3386   0.5735 LP             1 S1                 0.0000
     47 ****         1.6135   2.3221   2.3093 LP             1 S1                 0.0000
     48 ****        -0.1685   1.5437   1.0438 LP             1 S1                 0.0000
@<TRIPOS>BOND
    1    1    2 1     
    2    1   23 1     
    3    1   24 1     
    4    1   25 1     
    5    2   22 1     
    6    2    3 1     
    7    2   17 1     
    8    3    4 am    
    9    3   26 1     
   10    4    5 2     
   11    4    6 am    
   12    6    7 1     
   13    6   27 1     
   14    7   16 ar    
   15    7    8 ar    
   16    8    9 ar    
   17    8   28 1     
   18    9   10 ar    
   19    9   29 1     
   20   10   11 1     
   21   10   15 ar    
   22   11   12 1     
   23   11   13 1     
   24   11   14 1     
   25   12   30 1     
   26   12   31 1     
   27   12   32 1     
   28   13   33 1     
   29   13   34 1     
   30   13   35 1     
   31   14   36 1     
   32   14   37 1     
   33   14   38 1     
   34   15   16 ar    
   35   17   18 1     
   36   17   39 1     
   37   17   40 1     
   38   18   19 1     
   39   18   41 1     
   40   18   42 1     
   41   19   20 2     
   42   19   21 2     
   43   19   22 1     
   44   22   43 1     
   45   22   44 1     
   46    5   45 1     
   47    5   46 1     
   48   15   47 1     
   49   16   48 1     
@<TRIPOS>SUBSTRUCTURE
      1 S1             1
@<TRIPOS>SET
LONE_PAIRS      STATIC     ATOMS    <user>   **** ""
6 45 46 47 48 20 21
DONOR_HYDROGENS      STATIC     ATOMS    <user>   **** ""
2 26 27
ATOM$BLUE        STATIC     ATOMS    COLORGROUP SYSTEM
6 45 46 47 48 20 21
ATOM$RED        STATIC     ATOMS    COLORGROUP SYSTEM
2 26 27
