AV-unprocessed.smi:1873|AV-procd|sdf|7607|dock1
  -GOLD-   22720 9323D 1   1.00000     0.00000
 Structure written by MMmdl.
 36 38  0  0  0  0  0  0  0  0  1 V2000
  151.6657  140.0355  155.2338 O   0  0  0  0  0  0  0  0  0  0  0  0
  151.1990  141.1645  155.9482 C   0  0  2  0  0  0  0  0  0  0  0  0
  151.6798  141.0922  157.4104 C   0  0  0  0  0  0  0  0  0  0  0  0
  151.5631  142.3663  158.0961 N   0  0  0  0  0  0  0  0  0  0  0  0
  151.0847  143.5212  157.5945 C   0  0  0  0  0  0  0  0  0  0  0  0
  151.0673  144.5762  158.4046 N   0  0  0  0  0  0  0  0  0  0  0  0
  151.5966  144.0440  159.5679 C   0  0  0  0  0  0  0  0  0  0  0  0
  151.8471  144.6460  160.8219 C   0  0  0  0  0  0  0  0  0  0  0  0
  152.4004  143.8927  161.8784 C   0  0  0  0  0  0  0  0  0  0  0  0
  152.7119  142.5292  161.6983 C   0  0  0  0  0  0  0  0  0  0  0  0
  152.4716  141.9074  160.4579 C   0  0  0  0  0  0  0  0  0  0  0  0
  151.9189  142.6627  159.4068 C   0  0  0  0  0  0  0  0  0  0  0  0
  149.6876  141.3142  155.8714 C   0  0  0  0  0  0  0  0  0  0  0  0
  148.9171  141.4747  157.0429 C   0  0  0  0  0  0  0  0  0  0  0  0
  147.5197  141.6247  156.9580 C   0  0  0  0  0  0  0  0  0  0  0  0
  146.8705  141.6125  155.7072 C   0  0  0  0  0  0  0  0  0  0  0  0
  145.5043  141.7806  155.6908 O   0  0  0  0  0  0  0  0  0  0  0  0
  144.9831  142.9795  155.3168 C   0  0  0  0  0  0  0  0  0  0  0  0
  145.2595  143.2110  154.0109 F   0  0  0  0  0  0  0  0  0  0  0  0
  143.6343  142.9733  155.4542 F   0  0  0  0  0  0  0  0  0  0  0  0
  147.6468  141.4654  154.5325 C   0  0  0  0  0  0  0  0  0  0  0  0
  149.0444  141.3152  154.6163 C   0  0  0  0  0  0  0  0  0  0  0  0
  152.2529  139.5495  155.7924 H   0  0  0  0  0  0  0  0  0  0  0  0
  151.6483  142.0379  155.4739 H   0  0  0  0  0  0  0  0  0  0  0  0
  151.0929  140.3577  157.9635 H   0  0  0  0  0  0  0  0  0  0  0  0
  152.7187  140.7618  157.4572 H   0  0  0  0  0  0  0  0  0  0  0  0
  150.7259  143.5905  156.5777 H   0  0  0  0  0  0  0  0  0  0  0  0
  151.6121  145.6895  160.9713 H   0  0  0  0  0  0  0  0  0  0  0  0
  152.5868  144.3640  162.8322 H   0  0  0  0  0  0  0  0  0  0  0  0
  153.1353  141.9608  162.5133 H   0  0  0  0  0  0  0  0  0  0  0  0
  152.7079  140.8634  160.3155 H   0  0  0  0  0  0  0  0  0  0  0  0
  149.3952  141.4881  158.0115 H   0  0  0  0  0  0  0  0  0  0  0  0
  146.9409  141.7496  157.8614 H   0  0  0  0  0  0  0  0  0  0  0  0
  145.4039  143.8013  155.8965 H   0  0  0  0  0  0  0  0  0  0  0  0
  147.1837  141.4743  153.5572 H   0  0  0  0  0  0  0  0  0  0  0  0
  149.6216  141.2064  153.7097 H   0  0  0  0  0  0  0  0  0  0  0  0
  1  2  1  0  0  0  0
  1 23  1  0  0  0  0
  2  3  1  0  0  0  0
  2 13  1  0  0  0  0
  2 24  1  0  0  0  0
  3  4  1  0  0  0  0
  3 25  1  0  0  0  0
  3 26  1  0  0  0  0
  4 12  1  0  0  0  0
  4  5  1  0  0  0  0
  5  6  2  0  0  0  0
  5 27  1  0  0  0  0
  6  7  1  0  0  0  0
  7 12  2  0  0  0  0
  7  8  1  0  0  0  0
  8  9  2  0  0  0  0
  8 28  1  0  0  0  0
  9 10  1  0  0  0  0
  9 29  1  0  0  0  0
 10 11  2  0  0  0  0
 10 30  1  0  0  0  0
 11 12  1  0  0  0  0
 11 31  1  0  0  0  0
 13 22  1  0  0  0  0
 13 14  2  0  0  0  0
 14 15  1  0  0  0  0
 14 32  1  0  0  0  0
 15 16  2  0  0  0  0
 15 33  1  0  0  0  0
 16 17  1  0  0  0  0
 16 21  1  0  0  0  0
 17 18  1  0  0  0  0
 18 19  1  0  0  0  0
 18 20  1  0  0  0  0
 18 34  1  0  0  0  0
 21 22  2  0  0  0  0
 21 35  1  0  0  0  0
 22 36  1  0  0  0  0
M  END
> <s_m_source_file>
AV-unprocessed.smi

> <i_m_source_file_index>
1873

> <i_lp_mmshare_version>
43012

> <i_f3d_flags>
0

> <s_epik_input>
RltDSF0oRilPYyhbY0hdW2NIXTEpW2NIXVtjSF1jMVtDQEhdKFtPSF0pW0NIMl1uKFtjSF1uMiljKGMyMylbY0hdW2NIXVtjSF1bY0hdMw==

> <s_epik_cmdline>
J2VwaWtfcHl0aG9uJywgJy1waCcsICc3LjAnLCAnLXRuJywgJzgnLCAnLW1hJywgJzIwMCcsICctbWV0YWxfYmluZGluZycsICctaW1hZScsICc8aW5maWxlLm1hZT4nLCAnLW9tYWUnLCAnPG91dGZpbGUubWFlPic=

> <r_lp_tautomer_probability>
1

> <r_epik_Ionization_Penalty>
0.0696507

> <r_epik_Ionization_Penalty_Charging>
0

> <r_epik_Ionization_Penalty_Neutral>
0.0696507

> <r_epik_State_Penalty>
0.0610247

> <r_epik_Charging_Adjusted_Penalty>
0.0610247

> <i_epik_Tot_Q>
0

> <i_epik_Tot_abs_Q>
0

> <r_epik_Metal_State_Penalty>
6.42746e-05

> <b_epik_Metal_Only>
0

> <s_lp_Force_Field>
OPLS_2005

> <r_lp_Energy>
11.1273

> <b_lp_Chiralities_Consistent>
1

> <s_lp_Variant>
AV-unprocessed.smi:1873-1

> <Gold.Version>
5.8.1

> <Gold.Id.Protein>
6NUR|6NUR_protein|mol2

> <Gold.PLP.Fitness>
56.0847

> <Gold.PLP.PLP>
-51.8428

> <Gold.PLP.part.hbond>
-1.0000

> <Gold.PLP.part.metal>
0.0000

> <Gold.PLP.part.buried>
-6.7057

> <Gold.PLP.part.nonpolar>
-43.3915

> <Gold.PLP.part.repulsive>
0.2796

> <Gold.PLP.ligand.clash>
0.0000

> <Gold.PLP.ligand.torsion>
0.3816

> <Gold.PLP.Chemscore.Hbond>
0.6944

> <Gold.PLP.Chemscore.CHOScore>
0.9467

> <Gold.PLP.Chemscore.Metal>
0.0000

> <Gold.Chemscore.Hbonds>
donor molecule, donor type, donor heavy atom, donor atom, acceptor molecule, acceptor atom, score
      P1  H  7989  7998       L1     1  0.78
      L1  C     5    27       P1  8028  1.00

> <Gold.PLP.Chemscore.Internal.Correction>
0.0818

> <Gold.Rescore>
     Score         DG    S(hbond)    S(metal)    S(lipo)     H(rot)  DE(clash)    DE(int)     intcor
     13.02     -13.53       0.08        0.00     119.05       2.40       0.10       0.40       ----

> <Gold.Chemscore.Fitness>
13.0180

> <Gold.Chemscore.DG>
-13.5258

> <Gold.Chemscore.ZeroCoef>
-5.4800

> <Gold.Chemscore.Hbond>
0.0772

> <Gold.Chemscore.Metal>
0.0000

> <Gold.Chemscore.Lipo>
119.0465

> <Gold.Chemscore.Internal_Hbond>
0.0000

> <Gold.Chemscore.DEClash>
0.1034

> <Gold.Chemscore.DEInternal>
0.4044

> <Gold.Chemscore.Rot>
2.3986

> <Gold.Chemscore.Internal.Correction>
   9.000000E+99

> <Gold.Chemscore.Hbonds>
donor molecule, donor type, donor heavy atom, donor atom, acceptor molecule, acceptor atom, score
      P1  H  7989  7998       L1     1  0.11

> <Gold.Chemscore.Hbond.Weighted>
-0.2579

> <Gold.Chemscore.Metal.Weighted>
-0.0000

> <Gold.Chemscore.Lipo.Weighted>
-13.9284

> <Gold.Chemscore.Internal_Hbond.Weighted>
0.0000

> <Gold.Chemscore.DEClash.Weighted>
0.1034

> <Gold.Chemscore.DEInternal.Weighted>
0.4044

> <Gold.Chemscore.Rot.Weighted>
6.1405

> <Gold.Chemscore.Internal.Correction.Weighted>
   9.000000E+99

> <Gold.Protein.RotatedTorsions>
[ 6907 6896 6895 6894 ] final -145.82 input  -60.11 | X-H torsion
[ 7974 7965 7964 7962 ] final   68.86 input  175.53 | X-H torsion
[ 8008 7997 7996 7995 ] final -160.58 input   59.86 | X-H torsion
[ 10167 10162 10161 10158 ] final -109.45 input  -65.29 | X-H torsion
[ 10718 10713 10712 10709 ] final   66.75 input   66.30 | X-H torsion
[ 10763 10752 10751 10750 ] final -177.14 input  -60.55 | X-H torsion
[ 11005 11000 10999 10996 ] final  117.24 input  -57.11 | X-H torsion

> <Gold.Protein.ActiveResidues>
 VAL166  LYS551  ARG553  GLY616  TRP617  ASP618  TYR619  PRO620  LYS621  CYS622 
 ASP623  PHE694  ASN695  SER759  ASP760  ASP761  ALA762  ILE779  LEU786  VAL792 
 PHE793  MET794  SER795  GLU796  ALA797  LYS798  CYS799  TRP800  GLU811  SER814 

> <Gold.Protein.RotatedAtoms>
  151.1331  133.5023  159.2598 H   0  0  0  0  0  0  0  0  0  0  0  0  # atno 6907 bound_to 6896
  151.1736  135.0329  159.8772 H   0  0  0  0  0  0  0  0  0  0  0  0  # atno 6908 bound_to 6896
  152.5460  134.1191  159.8444 H   0  0  0  0  0  0  0  0  0  0  0  0  # atno 6909 bound_to 6896
  145.7975  139.2965  143.1174 H   0  0  0  0  0  0  0  0  0  0  0  0  # atno 7974 bound_to 7965
  155.7795  140.0863  157.2066 H   0  0  0  0  0  0  0  0  0  0  0  0  # atno 8008 bound_to 7997
  154.3991  140.1510  156.3093 H   0  0  0  0  0  0  0  0  0  0  0  0  # atno 8009 bound_to 7997
  155.8667  140.3427  155.5796 H   0  0  0  0  0  0  0  0  0  0  0  0  # atno 8010 bound_to 7997
  140.1552  143.4166  152.1466 H   0  0  0  0  0  0  0  0  0  0  0  0  # atno 10167 bound_to 10162
  157.6188  130.9284  150.0150 H   0  0  0  0  0  0  0  0  0  0  0  0  # atno 10718 bound_to 10713
  154.5637  135.2822  155.0894 H   0  0  0  0  0  0  0  0  0  0  0  0  # atno 10763 bound_to 10752
  154.2293  135.6377  153.5174 H   0  0  0  0  0  0  0  0  0  0  0  0  # atno 10764 bound_to 10752
  153.0036  135.5533  154.6239 H   0  0  0  0  0  0  0  0  0  0  0  0  # atno 10765 bound_to 10752
  139.9068  134.9608  156.7321 H   0  0  0  0  0  0  0  0  0  0  0  0  # atno 11005 bound_to 11000
  145.9913  140.8600  143.0065 LP  0  0  0  0  0  0  0  0  0  0  0  0  # atno 17320 bound_to 7965
  144.6773  140.2219  143.7365 LP  0  0  0  0  0  0  0  0  0  0  0  0  # atno 17321 bound_to 7965
  139.5407  144.7253  151.4744 LP  0  0  0  0  0  0  0  0  0  0  0  0  # atno 17342 bound_to 10162
  140.6677  143.8361  150.6962 LP  0  0  0  0  0  0  0  0  0  0  0  0  # atno 17343 bound_to 10162
  156.1323  130.3643  149.9712 LP  0  0  0  0  0  0  0  0  0  0  0  0  # atno 17370 bound_to 10713
  156.7771  130.9207  151.3645 LP  0  0  0  0  0  0  0  0  0  0  0  0  # atno 17371 bound_to 10713
  140.6917  133.9384  155.7970 LP  0  0  0  0  0  0  0  0  0  0  0  0  # atno 17394 bound_to 11000
  141.0437  134.0585  157.3870 LP  0  0  0  0  0  0  0  0  0  0  0  0  # atno 17395 bound_to 11000

$$$$
