AV-unprocessed.smi:922|AV-procd|sdf|4176|dock8
  -GOLD-   22720 2 83D 1   1.00000     0.00000
 Structure written by MMmdl.
 33 34  0  0  0  0  0  0  0  0  1 V2000
  153.5144  141.5747  160.5140 C   0  0  0  0  0  0  0  0  0  0  0  0
  152.6691  142.1040  159.3513 C   0  0  1  0  0  0  0  0  0  0  0  0
  151.4641  141.1912  159.0568 C   0  0  0  0  0  0  0  0  0  0  0  0
  150.6189  141.7811  158.0269 N   0  0  0  0  0  0  0  0  0  0  0  0
  150.2126  141.1416  156.8546 C   0  0  0  0  0  0  0  0  0  0  0  0
  149.4536  141.8826  155.8522 C   0  0  0  0  0  0  0  0  0  0  0  0
  149.0430  141.3611  154.7478 N   0  0  0  0  0  0  0  0  0  0  0  0
  149.3326  140.0432  154.5037 N   0  0  0  0  0  0  0  0  0  0  0  0
  150.0254  139.2072  155.3111 C   0  0  0  0  0  0  0  0  0  0  0  0
  150.2333  138.0380  154.9918 O   0  0  0  0  0  0  0  0  0  0  0  0
  150.4832  139.8331  156.5607 C   0  0  0  0  0  0  0  0  0  0  0  0
  151.4319  138.8343  157.6106 Cl  0  0  0  0  0  0  0  0  0  0  0  0
  150.1556  143.1038  158.4317 C   0  0  0  0  0  0  0  0  0  0  0  0
  151.3467  144.0396  158.7413 C   0  0  0  0  0  0  0  0  0  0  0  0
  152.1289  144.4225  157.4667 C   0  0  0  0  0  0  0  0  0  0  0  0
  150.8380  145.3181  159.4248 C   0  0  0  0  0  0  0  0  0  0  0  0
  152.2015  143.4075  159.7016 O   0  0  0  0  0  0  0  0  0  0  0  0
  148.9789  139.6977  153.6230 H   0  0  0  0  0  0  0  0  0  0  0  0
  153.9093  140.5830  160.2915 H   0  0  0  0  0  0  0  0  0  0  0  0
  152.9268  141.5041  161.4297 H   0  0  0  0  0  0  0  0  0  0  0  0
  154.3610  142.2327  160.7109 H   0  0  0  0  0  0  0  0  0  0  0  0
  153.3124  142.1722  158.4750 H   0  0  0  0  0  0  0  0  0  0  0  0
  151.7942  140.1947  158.7640 H   0  0  0  0  0  0  0  0  0  0  0  0
  150.8669  141.0599  159.9600 H   0  0  0  0  0  0  0  0  0  0  0  0
  149.2431  142.9242  156.0956 H   0  0  0  0  0  0  0  0  0  0  0  0
  149.5324  143.5494  157.6557 H   0  0  0  0  0  0  0  0  0  0  0  0
  149.5233  142.9908  159.3134 H   0  0  0  0  0  0  0  0  0  0  0  0
  151.5040  145.0013  156.7863 H   0  0  0  0  0  0  0  0  0  0  0  0
  152.4760  143.5519  156.9112 H   0  0  0  0  0  0  0  0  0  0  0  0
  153.0019  145.0289  157.7092 H   0  0  0  0  0  0  0  0  0  0  0  0
  150.1573  145.8713  158.7767 H   0  0  0  0  0  0  0  0  0  0  0  0
  151.6631  145.9827  159.6835 H   0  0  0  0  0  0  0  0  0  0  0  0
  150.3029  145.0871  160.3465 H   0  0  0  0  0  0  0  0  0  0  0  0
  1  2  1  0  0  0  0
  1 19  1  0  0  0  0
  1 20  1  0  0  0  0
  1 21  1  0  0  0  0
  2 17  1  0  0  0  0
  2  3  1  0  0  0  0
  2 22  1  0  0  0  0
  3  4  1  0  0  0  0
  3 23  1  0  0  0  0
  3 24  1  0  0  0  0
  4  5  1  0  0  0  0
  4 13  1  0  0  0  0
  5 11  2  0  0  0  0
  5  6  1  0  0  0  0
  6  7  2  0  0  0  0
  6 25  1  0  0  0  0
  7  8  1  0  0  0  0
  8 18  1  0  0  0  0
  8  9  1  0  0  0  0
  9 10  2  0  0  0  0
  9 11  1  0  0  0  0
 11 12  1  0  0  0  0
 13 14  1  0  0  0  0
 13 26  1  0  0  0  0
 13 27  1  0  0  0  0
 14 15  1  0  0  0  0
 14 16  1  0  0  0  0
 14 17  1  0  0  0  0
 15 28  1  0  0  0  0
 15 29  1  0  0  0  0
 15 30  1  0  0  0  0
 16 31  1  0  0  0  0
 16 32  1  0  0  0  0
 16 33  1  0  0  0  0
M  END
> <s_m_source_file>
AV-unprocessed.smi

> <i_m_source_file_index>
922

> <i_lp_mmshare_version>
43012

> <i_f3d_flags>
0

> <s_epik_input>
W0NIM11bQ0BASF0oTzEpW0NIMl1OKFtDSDJdQzEoW0NIM10pW0NIM10pYzJbY0hdbltuSF1jKD1PKWMyQ2w=

> <s_epik_cmdline>
J2VwaWtfcHl0aG9uJywgJy1waCcsICc3LjAnLCAnLXRuJywgJzgnLCAnLW1hJywgJzIwMCcsICctbWV0YWxfYmluZGluZycsICctaW1hZScsICc8aW5maWxlLm1hZT4nLCAnLW9tYWUnLCAnPG91dGZpbGUubWFlPic=

> <r_lp_tautomer_probability>
0.986175

> <r_epik_Ionization_Penalty>
0.00909695

> <r_epik_Ionization_Penalty_Charging>
0.00909694

> <r_epik_Ionization_Penalty_Neutral>
4.87729e-09

> <r_epik_State_Penalty>
1.54226

> <r_epik_Charging_Adjusted_Penalty>
1.55136

> <i_epik_Tot_Q>
0

> <i_epik_Tot_abs_Q>
0

> <r_epik_Metal_State_Penalty>
3.93934

> <b_epik_Metal_Only>
0

> <s_lp_Force_Field>
OPLS_2005

> <r_lp_Energy>
35.5656

> <b_lp_Chiralities_Consistent>
1

> <s_lp_Variant>
AV-unprocessed.smi:922-4

> <Gold.Version>
5.8.1

> <Gold.Id.Protein>
6NUR|6NUR_protein|mol2

> <Gold.PLP.Fitness>
36.1235

> <Gold.PLP.PLP>
-35.4943

> <Gold.PLP.part.hbond>
-3.0000

> <Gold.PLP.part.metal>
0.0000

> <Gold.PLP.part.buried>
-5.2205

> <Gold.PLP.part.nonpolar>
-29.2217

> <Gold.PLP.part.repulsive>
3.0324

> <Gold.PLP.ligand.clash>
7.5126

> <Gold.PLP.ligand.torsion>
0.0281

> <Gold.PLP.Chemscore.Hbond>
1.4212

> <Gold.PLP.Chemscore.CHOScore>
1.0000

> <Gold.PLP.Chemscore.Metal>
0.0000

> <Gold.Chemscore.Hbonds>
donor molecule, donor type, donor heavy atom, donor atom, acceptor molecule, acceptor atom, score
      L1  C     6    25       P1  8028  0.63

> <Gold.PLP.Chemscore.Internal.Correction>
0.9344

> <Gold.Rescore>
     Score         DG    S(hbond)    S(metal)    S(lipo)     H(rot)  DE(clash)    DE(int)     intcor
     17.61     -20.56       1.24        0.00      93.48       0.00       1.49       1.47       ----

> <Gold.Chemscore.Fitness>
17.6057

> <Gold.Chemscore.DG>
-20.5631

> <Gold.Chemscore.ZeroCoef>
-5.4800

> <Gold.Chemscore.Hbond>
1.2413

> <Gold.Chemscore.Metal>
0.0000

> <Gold.Chemscore.Lipo>
93.4783

> <Gold.Chemscore.Internal_Hbond>
0.0000

> <Gold.Chemscore.DEClash>
1.4861

> <Gold.Chemscore.DEInternal>
1.4713

> <Gold.Chemscore.Rot>
0.0000

> <Gold.Chemscore.Internal.Correction>
   9.000000E+99

> <Gold.Chemscore.Hbond.Weighted>
-4.1461

> <Gold.Chemscore.Metal.Weighted>
-0.0000

> <Gold.Chemscore.Lipo.Weighted>
-10.9370

> <Gold.Chemscore.Internal_Hbond.Weighted>
0.0000

> <Gold.Chemscore.DEClash.Weighted>
1.4861

> <Gold.Chemscore.DEInternal.Weighted>
1.4713

> <Gold.Chemscore.Rot.Weighted>
0.0000

> <Gold.Chemscore.Internal.Correction.Weighted>
   9.000000E+99

> <Gold.Protein.RotatedTorsions>
[ 6907 6896 6895 6894 ] final    6.19 input  -60.11 | X-H torsion
[ 7974 7965 7964 7962 ] final  131.11 input  175.53 | X-H torsion
[ 8008 7997 7996 7995 ] final   89.15 input   59.86 | X-H torsion
[ 10167 10162 10161 10158 ] final   54.91 input  -65.29 | X-H torsion
[ 10718 10713 10712 10709 ] final   70.65 input   66.30 | X-H torsion
[ 10763 10752 10751 10750 ] final  127.75 input  -60.55 | X-H torsion
[ 11005 11000 10999 10996 ] final  -16.20 input  -57.11 | X-H torsion

> <Gold.Protein.ActiveResidues>
 VAL166  LYS551  ARG553  GLY616  TRP617  ASP618  TYR619  PRO620  LYS621  CYS622 
 ASP623  PHE694  ASN695  SER759  ASP760  ASP761  ALA762  ILE779  LEU786  VAL792 
 PHE793  MET794  SER795  GLU796  ALA797  LYS798  CYS799  TRP800  GLU811  SER814 

> <Gold.Protein.RotatedAtoms>
  151.6697  135.0978  160.0195 H   0  0  0  0  0  0  0  0  0  0  0  0  # atno 6907 bound_to 6896
  152.3898  133.6659  159.6237 H   0  0  0  0  0  0  0  0  0  0  0  0  # atno 6908 bound_to 6896
  150.7816  133.8890  159.3349 H   0  0  0  0  0  0  0  0  0  0  0  0  # atno 6909 bound_to 6896
  145.0107  139.4223  143.5246 H   0  0  0  0  0  0  0  0  0  0  0  0  # atno 7974 bound_to 7965
  155.9964  140.3364  155.6803 H   0  0  0  0  0  0  0  0  0  0  0  0  # atno 8008 bound_to 7997
  155.6350  140.0689  157.2655 H   0  0  0  0  0  0  0  0  0  0  0  0  # atno 8009 bound_to 7997
  154.4235  140.1753  156.1500 H   0  0  0  0  0  0  0  0  0  0  0  0  # atno 8010 bound_to 7997
  140.2251  144.3747  150.6436 H   0  0  0  0  0  0  0  0  0  0  0  0  # atno 10167 bound_to 10162
  157.6411  130.9488  150.0680 H   0  0  0  0  0  0  0  0  0  0  0  0  # atno 10718 bound_to 10713
  153.7145  135.3263  155.3253 H   0  0  0  0  0  0  0  0  0  0  0  0  # atno 10763 bound_to 10752
  154.8375  135.4485  154.1280 H   0  0  0  0  0  0  0  0  0  0  0  0  # atno 10764 bound_to 10752
  153.2383  135.6968  153.7891 H   0  0  0  0  0  0  0  0  0  0  0  0  # atno 10765 bound_to 10752
  140.8044  133.8189  155.9501 H   0  0  0  0  0  0  0  0  0  0  0  0  # atno 11005 bound_to 11000
  146.3469  139.9549  142.8724 LP  0  0  0  0  0  0  0  0  0  0  0  0  # atno 17320 bound_to 7965
  145.2027  140.9861  143.4146 LP  0  0  0  0  0  0  0  0  0  0  0  0  # atno 17321 bound_to 7965
  140.6227  143.2178  151.6661 LP  0  0  0  0  0  0  0  0  0  0  0  0  # atno 17342 bound_to 10162
  139.5130  144.3457  152.0699 LP  0  0  0  0  0  0  0  0  0  0  0  0  # atno 17343 bound_to 10162
  156.1692  130.3646  149.9189 LP  0  0  0  0  0  0  0  0  0  0  0  0  # atno 17370 bound_to 10713
  156.7168  130.8991  151.3614 LP  0  0  0  0  0  0  0  0  0  0  0  0  # atno 17371 bound_to 10713
  140.9262  134.2079  157.4894 LP  0  0  0  0  0  0  0  0  0  0  0  0  # atno 17394 bound_to 11000
  139.8719  134.9813  156.5112 LP  0  0  0  0  0  0  0  0  0  0  0  0  # atno 17395 bound_to 11000

$$$$
