AV-unprocessed.smi:1999|AV-procd|sdf|8094|dock7
  -GOLD-   2272010313D 1   1.00000     0.00000
 Structure written by MMmdl.
 39 40  0  0  0  0  0  0  0  0  2 V2000
  137.2663  136.9497  154.1216 C   0  0  0  0  0  0  0  0  0  0  0  0
  138.7475  136.9593  153.9557 C   0  0  0  0  0  0  0  0  0  0  0  0
  139.5473  136.0804  154.5717 N   0  0  0  0  0  0  0  0  0  0  0  0
  140.8858  136.2819  154.2652 N   0  0  0  0  0  0  0  0  0  0  0  0
  141.0563  137.3116  153.4247 C   0  0  0  0  0  0  0  0  0  0  0  0
  142.3232  137.7328  152.9407 N   0  0  0  0  0  0  0  0  0  0  0  0
  143.4288  136.9920  152.7506 C   0  0  0  0  0  0  0  0  0  0  0  0
  143.5353  135.7926  153.0077 O   0  0  0  0  0  0  0  0  0  0  0  0
  144.4220  137.7257  152.2261 N   0  0  0  0  0  0  0  0  0  0  0  0
  145.7723  137.2519  151.9171 C   0  0  2  0  0  0  0  0  0  0  0  0
  146.6600  138.4602  151.5892 C   0  0  0  0  0  0  0  0  0  0  0  0
  145.7648  136.2327  150.7535 C   0  0  0  0  0  0  0  0  0  0  0  0
  145.4909  134.8416  151.1958 N   0  3  0  0  0  0  0  0  0  0  0  0
  144.7841  134.0353  150.1737 C   0  0  0  0  0  0  0  0  0  0  0  0
  144.4639  132.6366  150.7285 C   0  0  0  0  0  0  0  0  0  0  0  0
  145.6646  132.0023  151.1521 O   0  0  0  0  0  0  0  0  0  0  0  0
  146.3133  132.7273  152.1903 C   0  0  0  0  0  0  0  0  0  0  0  0
  146.6969  134.1248  151.6771 C   0  0  0  0  0  0  0  0  0  0  0  0
  139.5802  138.1232  152.9314 S   0  0  0  0  0  0  0  0  0  0  0  0
  137.0064  136.9212  155.1799 H   0  0  0  0  0  0  0  0  0  0  0  0
  136.8417  136.0736  153.6313 H   0  0  0  0  0  0  0  0  0  0  0  0
  136.8285  137.8448  153.6795 H   0  0  0  0  0  0  0  0  0  0  0  0
  142.3913  138.7116  152.7041 H   0  0  0  0  0  0  0  0  0  0  0  0
  144.2389  138.7028  152.0481 H   0  0  0  0  0  0  0  0  0  0  0  0
  146.1967  136.7832  152.8057 H   0  0  0  0  0  0  0  0  0  0  0  0
  147.6859  138.1497  151.3887 H   0  0  0  0  0  0  0  0  0  0  0  0
  146.6882  139.1652  152.4208 H   0  0  0  0  0  0  0  0  0  0  0  0
  146.2972  138.9952  150.7110 H   0  0  0  0  0  0  0  0  0  0  0  0
  144.9973  136.5391  150.0410 H   0  0  0  0  0  0  0  0  0  0  0  0
  146.7100  136.2603  150.2089 H   0  0  0  0  0  0  0  0  0  0  0  0
  143.8582  134.5328  149.8826 H   0  0  0  0  0  0  0  0  0  0  0  0
  145.4024  133.9539  149.2784 H   0  0  0  0  0  0  0  0  0  0  0  0
  143.7598  132.6996  151.5599 H   0  0  0  0  0  0  0  0  0  0  0  0
  143.9934  132.0252  149.9583 H   0  0  0  0  0  0  0  0  0  0  0  0
  145.6644  132.7975  153.0650 H   0  0  0  0  0  0  0  0  0  0  0  0
  147.2054  132.1819  152.4986 H   0  0  0  0  0  0  0  0  0  0  0  0
  147.4222  134.0381  150.8666 H   0  0  0  0  0  0  0  0  0  0  0  0
  147.1788  134.6845  152.4782 H   0  0  0  0  0  0  0  0  0  0  0  0
  144.8610  134.9129  151.9826 H   0  0  0  0  0  0  0  0  0  0  0  0
  1  2  1  0  0  0  0
  1 20  1  0  0  0  0
  1 21  1  0  0  0  0
  1 22  1  0  0  0  0
  2 19  1  0  0  0  0
  2  3  2  0  0  0  0
  3  4  1  0  0  0  0
  4  5  2  0  0  0  0
  5  6  1  0  0  0  0
  5 19  1  0  0  0  0
  6  7  1  0  0  0  0
  6 23  1  0  0  0  0
  7  8  2  0  0  0  0
  7  9  1  0  0  0  0
  9 10  1  0  0  0  0
  9 24  1  0  0  0  0
 10 11  1  0  0  0  0
 10 12  1  0  0  0  0
 10 25  1  0  0  0  0
 11 26  1  0  0  0  0
 11 27  1  0  0  0  0
 11 28  1  0  0  0  0
 12 13  1  0  0  0  0
 12 29  1  0  0  0  0
 12 30  1  0  0  0  0
 13 18  1  0  0  0  0
 13 14  1  0  0  0  0
 13 39  1  0  0  0  0
 14 15  1  0  0  0  0
 14 31  1  0  0  0  0
 14 32  1  0  0  0  0
 15 16  1  0  0  0  0
 15 33  1  0  0  0  0
 15 34  1  0  0  0  0
 16 17  1  0  0  0  0
 17 18  1  0  0  0  0
 17 35  1  0  0  0  0
 17 36  1  0  0  0  0
 18 37  1  0  0  0  0
 18 38  1  0  0  0  0
M  CHG  1  13   1
M  END
> <s_m_source_file>
AV-unprocessed.smi

> <i_m_source_file_index>
1999

> <i_lp_mmshare_version>
43012

> <i_f3d_flags>
0

> <s_epik_input>
W0NIM11jMW5uYyhzMSlbTkhdQyg9TylbTkhdW0NASF0oW0NIM10pW0NIMl1OMltDSDJdW0NIMl1PW0NIMl1bQ0gyXTI=

> <s_epik_cmdline>
J2VwaWtfcHl0aG9uJywgJy1waCcsICc3LjAnLCAnLXRuJywgJzgnLCAnLW1hJywgJzIwMCcsICctbWV0YWxfYmluZGluZycsICctaW1hZScsICc8aW5maWxlLm1hZT4nLCAnLW9tYWUnLCAnPG91dGZpbGUubWFlPic=

> <r_lp_tautomer_probability>
1

> <r_epik_Ionization_Penalty>
0.701298

> <r_epik_Ionization_Penalty_Charging>
0.695697

> <r_epik_Ionization_Penalty_Neutral>
0.00560124

> <r_epik_State_Penalty>
0.717972

> <r_epik_Charging_Adjusted_Penalty>
1.41367

> <i_epik_Tot_Q>
1

> <i_epik_Tot_abs_Q>
1

> <r_epik_Metal_State_Penalty>
1.07748

> <b_epik_Metal_Only>
0

> <s_lp_Force_Field>
OPLS_2005

> <r_lp_Energy>
20.3025

> <b_lp_Chiralities_Consistent>
1

> <s_lp_Variant>
AV-unprocessed.smi:1999-3

> <Gold.Version>
5.8.1

> <Gold.Id.Protein>
6NUR|6NUR_protein|mol2

> <Gold.PLP.Fitness>
42.6039

> <Gold.PLP.PLP>
-35.7765

> <Gold.PLP.part.hbond>
-4.4241

> <Gold.PLP.part.metal>
0.0000

> <Gold.PLP.part.buried>
-2.5564

> <Gold.PLP.part.nonpolar>
-29.5786

> <Gold.PLP.part.repulsive>
0.4127

> <Gold.PLP.ligand.clash>
0.0000

> <Gold.PLP.ligand.torsion>
0.8810

> <Gold.PLP.Chemscore.Hbond>
2.8500

> <Gold.PLP.Chemscore.CHOScore>
0.0000

> <Gold.PLP.Chemscore.Metal>
0.0000

> <Gold.Chemscore.Hbonds>
donor molecule, donor type, donor heavy atom, donor atom, acceptor molecule, acceptor atom, score
      L1  H     6    23       P1 10175  0.76
      L1  H     9    24       P1 10175  1.00
      P1  H 11000 11005       L1     3  0.61

> <Gold.PLP.Chemscore.Internal.Correction>
0.0394

> <Gold.Rescore>
     Score         DG    S(hbond)    S(metal)    S(lipo)     H(rot)  DE(clash)    DE(int)     intcor
     14.50     -16.75       2.12        0.00      71.52       1.63       0.17       2.09       ----

> <Gold.Chemscore.Fitness>
14.4997

> <Gold.Chemscore.DG>
-16.7550

> <Gold.Chemscore.ZeroCoef>
-5.4800

> <Gold.Chemscore.Hbond>
2.1212

> <Gold.Chemscore.Metal>
0.0000

> <Gold.Chemscore.Lipo>
71.5152

> <Gold.Chemscore.Internal_Hbond>
0.0000

> <Gold.Chemscore.DEClash>
0.1658

> <Gold.Chemscore.DEInternal>
2.0895

> <Gold.Chemscore.Rot>
1.6317

> <Gold.Chemscore.Internal.Correction>
   9.000000E+99

> <Gold.Chemscore.Hbonds>
donor molecule, donor type, donor heavy atom, donor atom, acceptor molecule, acceptor atom, score
      L1  H     6    23       P1 10175  0.71
      L1  H     9    24       P1 10175  0.99
      P1  H 11000 11005       L1     3  0.10

> <Gold.Chemscore.Hbond.Weighted>
-7.0850

> <Gold.Chemscore.Metal.Weighted>
-0.0000

> <Gold.Chemscore.Lipo.Weighted>
-8.3673

> <Gold.Chemscore.Internal_Hbond.Weighted>
0.0000

> <Gold.Chemscore.DEClash.Weighted>
0.1658

> <Gold.Chemscore.DEInternal.Weighted>
2.0895

> <Gold.Chemscore.Rot.Weighted>
4.1773

> <Gold.Chemscore.Internal.Correction.Weighted>
   9.000000E+99

> <Gold.Protein.RotatedTorsions>
[ 6907 6896 6895 6894 ] final  -57.53 input  -60.11 | X-H torsion
[ 7974 7965 7964 7962 ] final -133.65 input  175.53 | X-H torsion
[ 8008 7997 7996 7995 ] final  -63.20 input   59.86 | X-H torsion
[ 10167 10162 10161 10158 ] final -136.44 input  -65.29 | X-H torsion
[ 10718 10713 10712 10709 ] final -133.18 input   66.30 | X-H torsion
[ 10763 10752 10751 10750 ] final  165.93 input  -60.55 | X-H torsion
[ 11005 11000 10999 10996 ] final   92.77 input  -57.11 | X-H torsion

> <Gold.Protein.ActiveResidues>
 VAL166  LYS551  ARG553  GLY616  TRP617  ASP618  TYR619  PRO620  LYS621  CYS622 
 ASP623  PHE694  ASN695  SER759  ASP760  ASP761  ALA762  ILE779  LEU786  VAL792 
 PHE793  MET794  SER795  GLU796  ALA797  LYS798  CYS799  TRP800  GLU811  SER814 

> <Gold.Protein.RotatedAtoms>
  150.8079  134.7215  159.6660 H   0  0  0  0  0  0  0  0  0  0  0  0  # atno 6907 bound_to 6896
  152.4198  134.5972  160.0000 H   0  0  0  0  0  0  0  0  0  0  0  0  # atno 6908 bound_to 6896
  151.6190  133.3303  159.3120 H   0  0  0  0  0  0  0  0  0  0  0  0  # atno 6909 bound_to 6896
  144.9174  140.6971  143.4987 H   0  0  0  0  0  0  0  0  0  0  0  0  # atno 7974 bound_to 7965
  154.4541  140.0980  156.6706 H   0  0  0  0  0  0  0  0  0  0  0  0  # atno 8008 bound_to 7997
  155.5192  140.3478  155.4385 H   0  0  0  0  0  0  0  0  0  0  0  0  # atno 8009 bound_to 7997
  156.0742  140.1357  156.9781 H   0  0  0  0  0  0  0  0  0  0  0  0  # atno 8010 bound_to 7997
  139.8678  143.6996  152.2643 H   0  0  0  0  0  0  0  0  0  0  0  0  # atno 10167 bound_to 10162
  156.2422  130.7103  151.0968 H   0  0  0  0  0  0  0  0  0  0  0  0  # atno 10718 bound_to 10713
  154.3315  135.2754  155.2469 H   0  0  0  0  0  0  0  0  0  0  0  0  # atno 10763 bound_to 10752
  154.4779  135.5866  153.6372 H   0  0  0  0  0  0  0  0  0  0  0  0  # atno 10764 bound_to 10752
  152.9866  135.6104  154.3508 H   0  0  0  0  0  0  0  0  0  0  0  0  # atno 10765 bound_to 10752
  139.8819  134.8752  156.3620 H   0  0  0  0  0  0  0  0  0  0  0  0  # atno 11005 bound_to 11000
  145.3353  139.1747  143.4515 LP  0  0  0  0  0  0  0  0  0  0  0  0  # atno 17320 bound_to 7965
  146.3188  140.3388  142.8646 LP  0  0  0  0  0  0  0  0  0  0  0  0  # atno 17321 bound_to 7965
  139.7312  144.7582  151.0798 LP  0  0  0  0  0  0  0  0  0  0  0  0  # atno 17342 bound_to 10162
  140.7765  143.5085  150.9682 LP  0  0  0  0  0  0  0  0  0  0  0  0  # atno 17343 bound_to 10162
  157.7180  131.0698  150.6250 LP  0  0  0  0  0  0  0  0  0  0  0  0  # atno 17370 bound_to 10713
  156.6324  130.4436  149.5782 LP  0  0  0  0  0  0  0  0  0  0  0  0  # atno 17371 bound_to 10713
  140.9523  133.7443  156.0288 LP  0  0  0  0  0  0  0  0  0  0  0  0  # atno 17394 bound_to 11000
  140.8091  134.3420  157.5417 LP  0  0  0  0  0  0  0  0  0  0  0  0  # atno 17395 bound_to 11000

$$$$
