#       Name:                AV-unprocessed.smi:1801
#       Creating user name   scv26
#       Creation time:       Fri Mar 27 08:52:32 2020


#       File generated by GOLD software.
#

@<TRIPOS>MOLECULE
AV-unprocessed.smi:1801
    42    43     1
SMALL
NO_CHARGES


@<TRIPOS>ATOM
      1 ****        -0.0680  -1.4552   2.9194 C.3            1 S1                 0.0000
      2 ****         0.4251  -0.7795   1.6292 C.3            1 S1                 0.0000
      3 ****         1.9700  -0.7565   1.5960 C.3            1 S1                 0.0000
      4 ****         2.5003  -0.1723   0.3668 N.am           1 S1                 0.0000
      5 ****         2.4751  -0.7349  -0.8498 C.2            1 S1                 0.0000
      6 ****         2.0092  -1.8671  -0.9955 O.2            1 S1                 0.0000
      7 ****         2.9779   0.0565  -1.8233 N.pl3          1 S1                -1.0000
      8 ****         3.0075  -0.3790  -3.0938 C.2            1 S1                 0.0000
      9 ****         4.1180  -0.8852  -3.6535 N.2            1 S1                 0.0000
     10 ****         3.9359  -1.2719  -4.9744 N.2            1 S1                 0.0000
     11 ****         2.6885  -1.0381  -5.3815 C.2            1 S1                 0.0000
     12 ****         1.6238  -0.3224  -4.1896 S.3            1 S1                 0.0000
     13 ****        -0.1838   0.6335   1.4672 C.3            1 S1                 0.0000
     14 ****        -1.6390   0.5922   1.1909 N.4            1 S1                 1.0000
     15 ****        -2.3224   1.8900   1.3642 C.3            1 S1                 0.0000
     16 ****        -3.5712   1.7998   0.4936 C.3            1 S1                 0.0000
     17 ****        -3.0822   1.0071  -0.7137 C.3            1 S1                 0.0000
     18 ****        -2.0099   0.0675  -0.1472 C.3            1 S1                 0.0000
     19 ****         0.2315  -0.8905   3.8027 H              1 S1                 0.0000
     20 ****         0.3417  -2.4612   3.0149 H              1 S1                 0.0000
     21 ****        -1.1543  -1.5452   2.9335 H              1 S1                 0.0000
     22 ****         0.0929  -1.3997   0.7967 H              1 S1                 0.0000
     23 ****         2.3521  -0.1748   2.4353 H              1 S1                 0.0000
     24 ****         2.3695  -1.7651   1.7142 H              1 S1                 0.0000
     25 ****         2.9068   0.7492   0.4388 H              1 S1                 0.0000
     26 ****         2.3943  -1.2856  -6.3905 H              1 S1                 0.0000
     27 ****        -0.0047   1.2071   2.3778 H              1 S1                 0.0000
     28 ****         0.2968   1.1874   0.6599 H              1 S1                 0.0000
     29 ****        -2.5530   2.0861   2.4117 H              1 S1                 0.0000
     30 ****        -1.6822   2.6963   1.0016 H              1 S1                 0.0000
     31 ****        -4.3503   1.2421   1.0154 H              1 S1                 0.0000
     32 ****        -3.9749   2.7768   0.2261 H              1 S1                 0.0000
     33 ****        -3.8862   0.4727  -1.2206 H              1 S1                 0.0000
     34 ****        -2.6275   1.6865  -1.4363 H              1 S1                 0.0000
     35 ****        -1.1549   0.0123  -0.8235 H              1 S1                 0.0000
     36 ****        -2.3998  -0.9438  -0.0279 H              1 S1                 0.0000
     37 ****        -2.0542  -0.0333   1.8664 H              1 S1                 0.0000
     38 ****         1.6503  -2.3655  -0.2063 LP             1 S1                 0.0000
     39 ****         1.9903  -2.2871  -1.9029 LP             1 S1                 0.0000
     40 ****         3.3278   0.9658  -1.5980 LP             1 S1                 0.0000
     41 ****         4.9879  -0.9746  -3.1683 LP             1 S1                 0.0000
     42 ****         4.6498  -1.6746  -5.5474 LP             1 S1                 0.0000
@<TRIPOS>BOND
    1    1    2 1     
    2    1   19 1     
    3    1   20 1     
    4    1   21 1     
    5    2    3 1     
    6    2   13 1     
    7    2   22 1     
    8    3    4 1     
    9    3   23 1     
   10    3   24 1     
   11    4    5 am    
   12    4   25 1     
   13    5    6 2     
   14    5    7 1     
   15    7    8 1     
   16    8   12 1     
   17    8    9 2     
   18    9   10 1     
   19   10   11 2     
   20   11   12 1     
   21   11   26 1     
   22   13   14 1     
   23   13   27 1     
   24   13   28 1     
   25   14   18 1     
   26   14   15 1     
   27   14   37 1     
   28   15   16 1     
   29   15   29 1     
   30   15   30 1     
   31   16   17 1     
   32   16   31 1     
   33   16   32 1     
   34   17   18 1     
   35   17   33 1     
   36   17   34 1     
   37   18   35 1     
   38   18   36 1     
   39    6   38 1     
   40    6   39 1     
   41    7   40 1     
   42    9   41 1     
   43   10   42 1     
@<TRIPOS>SUBSTRUCTURE
      1 S1             1
@<TRIPOS>SET
LONE_PAIRS      STATIC     ATOMS    <user>   **** ""
5 38 39 40 41 42
DONOR_HYDROGENS      STATIC     ATOMS    <user>   **** ""
2 25 37
ATOM$BLUE        STATIC     ATOMS    COLORGROUP SYSTEM
5 38 39 40 41 42
ATOM$RED        STATIC     ATOMS    COLORGROUP SYSTEM
2 25 37
