AV-unprocessed.smi:2004|AV-procd|sdf|8121|dock8
  -GOLD-   2272010353D 1   1.00000     0.00000
 Structure written by MMmdl.
 39 41  0  0  0  0  0  0  0  0  1 V2000
  150.6642  139.3178  154.3597 O   0  0  0  0  0  0  0  0  0  0  0  0
  151.1047  138.2842  155.2156 C   0  0  2  0  0  0  0  0  0  0  0  0
  152.6282  138.4187  155.3918 C   0  0  0  0  0  0  0  0  0  0  0  0
  152.8970  139.5499  156.2037 O   0  0  0  0  0  0  0  0  0  0  0  0
  152.3940  139.4122  157.5229 C   0  0  0  0  0  0  0  0  0  0  0  0
  152.4225  140.7281  158.2760 C   0  0  0  0  0  0  0  0  0  0  0  0
  151.5088  141.7517  157.9468 C   0  0  0  0  0  0  0  0  0  0  0  0
  151.5233  142.9693  158.6550 C   0  0  0  0  0  0  0  0  0  0  0  0
  152.4480  143.1662  159.6988 C   0  0  0  0  0  0  0  0  0  0  0  0
  153.3567  142.1442  160.0356 C   0  0  0  0  0  0  0  0  0  0  0  0
  153.3422  140.9263  159.3278 C   0  0  0  0  0  0  0  0  0  0  0  0
  150.6686  136.9501  154.5781 C   0  0  0  0  0  0  0  0  0  0  0  0
  150.6819  135.8455  155.5202 N   0  0  0  0  0  0  0  0  0  0  0  0
  151.0903  135.8839  156.8031 C   0  0  0  0  0  0  0  0  0  0  0  0
  151.0182  134.7540  157.5005 N   0  0  0  0  0  0  0  0  0  0  0  0
  150.4975  133.8797  156.5621 C   0  0  0  0  0  0  0  0  0  0  0  0
  150.1756  132.5075  156.6671 C   0  0  0  0  0  0  0  0  0  0  0  0
  149.6477  131.8108  155.5604 C   0  0  0  0  0  0  0  0  0  0  0  0
  149.4338  132.4730  154.3342 C   0  0  0  0  0  0  0  0  0  0  0  0
  149.7475  133.8398  154.2049 C   0  0  0  0  0  0  0  0  0  0  0  0
  150.2733  134.5320  155.3119 C   0  0  0  0  0  0  0  0  0  0  0  0
  150.2260  138.9246  153.6203 H   0  0  0  0  0  0  0  0  0  0  0  0
  150.6107  138.3959  156.1819 H   0  0  0  0  0  0  0  0  0  0  0  0
  153.0322  137.5416  155.8980 H   0  0  0  0  0  0  0  0  0  0  0  0
  153.1292  138.4921  154.4249 H   0  0  0  0  0  0  0  0  0  0  0  0
  151.3635  139.0550  157.4944 H   0  0  0  0  0  0  0  0  0  0  0  0
  152.9813  138.6676  158.0631 H   0  0  0  0  0  0  0  0  0  0  0  0
  150.7948  141.6051  157.1495 H   0  0  0  0  0  0  0  0  0  0  0  0
  150.8241  143.7514  158.3985 H   0  0  0  0  0  0  0  0  0  0  0  0
  152.4588  144.0994  160.2423 H   0  0  0  0  0  0  0  0  0  0  0  0
  154.0640  142.2934  160.8380 H   0  0  0  0  0  0  0  0  0  0  0  0
  154.0408  140.1469  159.5948 H   0  0  0  0  0  0  0  0  0  0  0  0
  149.6574  137.0370  154.1778 H   0  0  0  0  0  0  0  0  0  0  0  0
  151.3151  136.7012  153.7357 H   0  0  0  0  0  0  0  0  0  0  0  0
  151.4638  136.7941  157.2492 H   0  0  0  0  0  0  0  0  0  0  0  0
  150.3348  131.9900  157.6015 H   0  0  0  0  0  0  0  0  0  0  0  0
  149.4051  130.7623  155.6532 H   0  0  0  0  0  0  0  0  0  0  0  0
  149.0289  131.9309  153.4920 H   0  0  0  0  0  0  0  0  0  0  0  0
  149.5860  134.3483  153.2661 H   0  0  0  0  0  0  0  0  0  0  0  0
  1  2  1  0  0  0  0
  1 22  1  0  0  0  0
  2  3  1  0  0  0  0
  2 12  1  0  0  0  0
  2 23  1  0  0  0  0
  3  4  1  0  0  0  0
  3 24  1  0  0  0  0
  3 25  1  0  0  0  0
  4  5  1  0  0  0  0
  5  6  1  0  0  0  0
  5 26  1  0  0  0  0
  5 27  1  0  0  0  0
  6 11  1  0  0  0  0
  6  7  2  0  0  0  0
  7  8  1  0  0  0  0
  7 28  1  0  0  0  0
  8  9  2  0  0  0  0
  8 29  1  0  0  0  0
  9 10  1  0  0  0  0
  9 30  1  0  0  0  0
 10 11  2  0  0  0  0
 10 31  1  0  0  0  0
 11 32  1  0  0  0  0
 12 13  1  0  0  0  0
 12 33  1  0  0  0  0
 12 34  1  0  0  0  0
 13 21  1  0  0  0  0
 13 14  1  0  0  0  0
 14 15  2  0  0  0  0
 14 35  1  0  0  0  0
 15 16  1  0  0  0  0
 16 21  2  0  0  0  0
 16 17  1  0  0  0  0
 17 18  2  0  0  0  0
 17 36  1  0  0  0  0
 18 19  1  0  0  0  0
 18 37  1  0  0  0  0
 19 20  2  0  0  0  0
 19 38  1  0  0  0  0
 20 21  1  0  0  0  0
 20 39  1  0  0  0  0
M  END
> <s_m_source_file>
AV-unprocessed.smi

> <i_m_source_file_index>
2004

> <i_lp_mmshare_version>
43012

> <i_f3d_flags>
0

> <s_epik_input>
W2NIXTFbY0hdW2NIXVtjSF1jKGMxMiluKFtjSF1uMilbQ0gyXVtDQEhdKFtPSF0pW0NIMl1PW0NIMl1jM1tjSF1bY0hdW2NIXVtjSF1bY0hdMw==

> <s_epik_cmdline>
J2VwaWtfcHl0aG9uJywgJy1waCcsICc3LjAnLCAnLXRuJywgJzgnLCAnLW1hJywgJzIwMCcsICctbWV0YWxfYmluZGluZycsICctaW1hZScsICc8aW5maWxlLm1hZT4nLCAnLW9tYWUnLCAnPG91dGZpbGUubWFlPic=

> <r_epik_Ionization_Penalty>
0.0713119

> <r_epik_Ionization_Penalty_Charging>
0

> <r_epik_Ionization_Penalty_Neutral>
0.0713119

> <r_epik_State_Penalty>
0.06259

> <r_epik_Charging_Adjusted_Penalty>
0.06259

> <i_epik_Tot_Q>
0

> <i_epik_Tot_abs_Q>
0

> <r_epik_Metal_State_Penalty>
6.60119e-05

> <b_epik_Metal_Only>
0

> <s_lp_Force_Field>
OPLS_2005

> <r_lp_Energy>
16.1981

> <b_lp_Chiralities_Consistent>
1

> <s_lp_Variant>
AV-unprocessed.smi:2004-1

> <Gold.Version>
5.8.1

> <Gold.Id.Protein>
6NUR|6NUR_protein|mol2

> <Gold.PLP.Fitness>
47.5343

> <Gold.PLP.PLP>
-41.3207

> <Gold.PLP.part.hbond>
-3.0000

> <Gold.PLP.part.metal>
0.0000

> <Gold.PLP.part.buried>
-4.4840

> <Gold.PLP.part.nonpolar>
-34.6605

> <Gold.PLP.part.repulsive>
0.0000

> <Gold.PLP.ligand.clash>
0.0000

> <Gold.PLP.ligand.torsion>
0.4003

> <Gold.PLP.Chemscore.Hbond>
2.2880

> <Gold.PLP.Chemscore.CHOScore>
0.0000

> <Gold.PLP.Chemscore.Metal>
0.0000

> <Gold.Chemscore.Hbonds>
donor molecule, donor type, donor heavy atom, donor atom, acceptor molecule, acceptor atom, score
      P1  H  6896  6907       L1    15  0.26
      P1  H  7989  7998       L1     1  1.00
      P1  H  7997  8008       L1     4  1.00

> <Gold.PLP.Chemscore.Internal.Correction>
0.1502

> <Gold.Rescore>
     Score         DG    S(hbond)    S(metal)    S(lipo)     H(rot)  DE(clash)    DE(int)     intcor
     17.32     -17.92       1.64        0.00     110.56       2.33       0.05       0.55       ----

> <Gold.Chemscore.Fitness>
17.3237

> <Gold.Chemscore.DG>
-17.9189

> <Gold.Chemscore.ZeroCoef>
-5.4800

> <Gold.Chemscore.Hbond>
1.6363

> <Gold.Chemscore.Metal>
0.0000

> <Gold.Chemscore.Lipo>
110.5579

> <Gold.Chemscore.Internal_Hbond>
0.0000

> <Gold.Chemscore.DEClash>
0.0465

> <Gold.Chemscore.DEInternal>
0.5487

> <Gold.Chemscore.Rot>
2.3288

> <Gold.Chemscore.Internal.Correction>
   9.000000E+99

> <Gold.Chemscore.Hbonds>
donor molecule, donor type, donor heavy atom, donor atom, acceptor molecule, acceptor atom, score
      P1  H  6896  6907       L1    15  0.16
      P1  H  7989  7998       L1     1  0.28
      P1  H  7997  8008       L1     4  0.82

> <Gold.Chemscore.Hbond.Weighted>
-5.4653

> <Gold.Chemscore.Metal.Weighted>
-0.0000

> <Gold.Chemscore.Lipo.Weighted>
-12.9353

> <Gold.Chemscore.Internal_Hbond.Weighted>
0.0000

> <Gold.Chemscore.DEClash.Weighted>
0.0465

> <Gold.Chemscore.DEInternal.Weighted>
0.5487

> <Gold.Chemscore.Rot.Weighted>
5.9616

> <Gold.Chemscore.Internal.Correction.Weighted>
   9.000000E+99

> <Gold.Protein.RotatedTorsions>
[ 6907 6896 6895 6894 ] final -115.48 input  -60.11 | X-H torsion
[ 7974 7965 7964 7962 ] final  132.49 input  175.53 | X-H torsion
[ 8008 7997 7996 7995 ] final  -28.34 input   59.86 | X-H torsion
[ 10167 10162 10161 10158 ] final  -54.11 input  -65.29 | X-H torsion
[ 10718 10713 10712 10709 ] final  147.07 input   66.30 | X-H torsion
[ 10763 10752 10751 10750 ] final  176.81 input  -60.55 | X-H torsion
[ 11005 11000 10999 10996 ] final  -13.79 input  -57.11 | X-H torsion

> <Gold.Protein.ActiveResidues>
 VAL166  LYS551  ARG553  GLY616  TRP617  ASP618  TYR619  PRO620  LYS621  CYS622 
 ASP623  PHE694  ASN695  SER759  ASP760  ASP761  ALA762  ILE779  LEU786  VAL792 
 PHE793  MET794  SER795  GLU796  ALA797  LYS798  CYS799  TRP800  GLU811  SER814 

> <Gold.Protein.RotatedAtoms>
  150.7981  133.8652  159.3242 H   0  0  0  0  0  0  0  0  0  0  0  0  # atno 6907 bound_to 6896
  151.6471  135.1004  160.0162 H   0  0  0  0  0  0  0  0  0  0  0  0  # atno 6908 bound_to 6896
  152.4066  133.6859  159.6396 H   0  0  0  0  0  0  0  0  0  0  0  0  # atno 6909 bound_to 6896
  144.9963  139.4356  143.5314 H   0  0  0  0  0  0  0  0  0  0  0  0  # atno 7974 bound_to 7965
  154.4337  140.1848  156.1074 H   0  0  0  0  0  0  0  0  0  0  0  0  # atno 8008 bound_to 7997
  156.0245  140.3337  155.7048 H   0  0  0  0  0  0  0  0  0  0  0  0  # atno 8009 bound_to 7997
  155.5929  140.0632  157.2744 H   0  0  0  0  0  0  0  0  0  0  0  0  # atno 8010 bound_to 7997
  140.6448  143.2529  151.4889 H   0  0  0  0  0  0  0  0  0  0  0  0  # atno 10167 bound_to 10162
  157.3255  131.0911  151.1205 H   0  0  0  0  0  0  0  0  0  0  0  0  # atno 10718 bound_to 10713
  154.4862  135.2777  155.1533 H   0  0  0  0  0  0  0  0  0  0  0  0  # atno 10763 bound_to 10752
  154.3223  135.6207  153.5517 H   0  0  0  0  0  0  0  0  0  0  0  0  # atno 10764 bound_to 10752
  152.9881  135.5745  154.5273 H   0  0  0  0  0  0  0  0  0  0  0  0  # atno 10765 bound_to 10752
  140.7798  133.8372  155.9281 H   0  0  0  0  0  0  0  0  0  0  0  0  # atno 11005 bound_to 11000
  146.3442  139.9325  142.8751 LP  0  0  0  0  0  0  0  0  0  0  0  0  # atno 17320 bound_to 7965
  145.2215  140.9937  143.4043 LP  0  0  0  0  0  0  0  0  0  0  0  0  # atno 17321 bound_to 7965
  139.5658  144.2045  152.1763 LP  0  0  0  0  0  0  0  0  0  0  0  0  # atno 17342 bound_to 10162
  140.1327  144.5274  150.6793 LP  0  0  0  0  0  0  0  0  0  0  0  0  # atno 17343 bound_to 10162
  157.2474  130.6598  149.5916 LP  0  0  0  0  0  0  0  0  0  0  0  0  # atno 17370 bound_to 10713
  155.9690  130.4549  150.5868 LP  0  0  0  0  0  0  0  0  0  0  0  0  # atno 17371 bound_to 10713
  140.9494  134.1798  157.4739 LP  0  0  0  0  0  0  0  0  0  0  0  0  # atno 17394 bound_to 11000
  139.8744  134.9903  156.5497 LP  0  0  0  0  0  0  0  0  0  0  0  0  # atno 17395 bound_to 11000

$$$$
