AV-unprocessed.smi:1797|AV-procd|sdf|7258|dock4
  -GOLD-   22720 8513D 1   1.00000     0.00000
 Structure written by MMmdl.
 29 30  0  0  0  0  0  0  0  0  2 V2000
  151.3999  130.3457  155.3250 C   0  0  0  0  0  0  0  0  0  0  0  0
  150.4655  131.4976  155.1810 C   0  0  0  0  0  0  0  0  0  0  0  0
  150.5593  132.6017  155.9261 N   0  0  0  0  0  0  0  0  0  0  0  0
  149.5792  133.5311  155.6092 N   0  0  0  0  0  0  0  0  0  0  0  0
  148.7677  133.1238  154.6227 C   0  0  0  0  0  0  0  0  0  0  0  0
  147.7533  133.8781  154.1607 N   0  5  0  0  0  0  0  0  0  0  0  0
  146.9337  133.4694  153.1566 C   0  0  0  0  0  0  0  0  0  0  0  0
  146.1701  132.5100  153.2583 O   0  0  0  0  0  0  0  0  0  0  0  0
  146.9661  134.1572  151.9984 N   0  0  0  0  0  0  0  0  0  0  0  0
  146.1786  133.8769  150.8018 C   0  0  1  0  0  0  0  0  0  0  0  0
  146.2911  132.3976  150.4038 C   0  0  0  0  0  0  0  0  0  0  0  0
  145.4628  132.1003  149.1435 C   0  0  0  0  0  0  0  0  0  0  0  0
  144.0542  132.7122  149.1762 C   0  0  0  0  0  0  0  0  0  0  0  0
  143.1971  132.2972  148.3991 O   0  0  0  0  0  0  0  0  0  0  0  0
  143.7987  133.7175  150.0318 N   0  0  0  0  0  0  0  0  0  0  0  0
  144.7035  134.2329  151.0590 C   0  0  0  0  0  0  0  0  0  0  0  0
  149.1543  131.5148  154.0137 S   0  0  0  0  0  0  0  0  0  0  0  0
  152.3330  130.5558  154.8020 H   0  0  0  0  0  0  0  0  0  0  0  0
  150.9565  129.4438  154.9025 H   0  0  0  0  0  0  0  0  0  0  0  0
  151.6188  130.1655  156.3778 H   0  0  0  0  0  0  0  0  0  0  0  0
  147.5955  134.9450  151.9491 H   0  0  0  0  0  0  0  0  0  0  0  0
  146.5422  134.4952  149.9787 H   0  0  0  0  0  0  0  0  0  0  0  0
  147.3330  132.1314  150.2222 H   0  0  0  0  0  0  0  0  0  0  0  0
  145.9507  131.7643  151.2247 H   0  0  0  0  0  0  0  0  0  0  0  0
  145.9758  132.5046  148.2703 H   0  0  0  0  0  0  0  0  0  0  0  0
  145.3897  131.0231  148.9915 H   0  0  0  0  0  0  0  0  0  0  0  0
  142.8740  134.1222  150.0063 H   0  0  0  0  0  0  0  0  0  0  0  0
  144.3794  133.8174  152.0144 H   0  0  0  0  0  0  0  0  0  0  0  0
  144.5825  135.3141  151.1310 H   0  0  0  0  0  0  0  0  0  0  0  0
  1  2  1  0  0  0  0
  1 18  1  0  0  0  0
  1 19  1  0  0  0  0
  1 20  1  0  0  0  0
  2 17  1  0  0  0  0
  2  3  2  0  0  0  0
  3  4  1  0  0  0  0
  4  5  2  0  0  0  0
  5  6  1  0  0  0  0
  5 17  1  0  0  0  0
  6  7  1  0  0  0  0
  7  8  2  0  0  0  0
  7  9  1  0  0  0  0
  9 10  1  0  0  0  0
  9 21  1  0  0  0  0
 10 16  1  0  0  0  0
 10 11  1  0  0  0  0
 10 22  1  0  0  0  0
 11 12  1  0  0  0  0
 11 23  1  0  0  0  0
 11 24  1  0  0  0  0
 12 13  1  0  0  0  0
 12 25  1  0  0  0  0
 12 26  1  0  0  0  0
 13 14  2  0  0  0  0
 13 15  1  0  0  0  0
 15 16  1  0  0  0  0
 15 27  1  0  0  0  0
 16 28  1  0  0  0  0
 16 29  1  0  0  0  0
M  CHG  1   6  -1
M  END
> <s_m_source_file>
AV-unprocessed.smi

> <i_m_source_file_index>
1797

> <i_lp_mmshare_version>
43012

> <i_f3d_flags>
0

> <s_epik_input>
W0NIM11jMW5uYyhzMSlbTkhdQyg9TylbTkhdW0NAQEhdMltDSDJdW0NIMl1DKD1PKVtOSF1bQ0gyXTI=

> <s_epik_cmdline>
J2VwaWtfcHl0aG9uJywgJy1waCcsICc3LjAnLCAnLXRuJywgJzgnLCAnLW1hJywgJzIwMCcsICctbWV0YWxfYmluZGluZycsICctaW1hZScsICc8aW5maWxlLm1hZT4nLCAnLW9tYWUnLCAnPG91dGZpbGUubWFlPic=

> <r_lp_tautomer_probability>
1

> <r_epik_Ionization_Penalty>
3.31792

> <r_epik_Ionization_Penalty_Charging>
3.17379

> <r_epik_Ionization_Penalty_Neutral>
0.144127

> <r_epik_State_Penalty>
3.17099

> <r_epik_Charging_Adjusted_Penalty>
6.34478

> <i_epik_Tot_Q>
-1

> <i_epik_Tot_abs_Q>
1

> <r_epik_Metal_State_Penalty>
0.468583

> <b_epik_Metal_Only>
1

> <s_lp_Force_Field>
OPLS_2005

> <r_lp_Energy>
8.48183

> <b_lp_Chiralities_Consistent>
1

> <s_lp_Variant>
AV-unprocessed.smi:1797-4

> <Gold.Version>
5.8.1

> <Gold.Id.Protein>
6NUR|6NUR_protein|mol2

> <Gold.PLP.Fitness>
35.3696

> <Gold.PLP.PLP>
-29.2390

> <Gold.PLP.part.hbond>
-3.0000

> <Gold.PLP.part.metal>
0.0000

> <Gold.PLP.part.buried>
-4.0985

> <Gold.PLP.part.nonpolar>
-22.5154

> <Gold.PLP.part.repulsive>
0.6316

> <Gold.PLP.ligand.clash>
0.0000

> <Gold.PLP.ligand.torsion>
0.7188

> <Gold.PLP.Chemscore.Hbond>
2.5223

> <Gold.PLP.Chemscore.CHOScore>
0.0000

> <Gold.PLP.Chemscore.Metal>
0.0000

> <Gold.Chemscore.Hbonds>
donor molecule, donor type, donor heavy atom, donor atom, acceptor molecule, acceptor atom, score
      L1  H     9    21       P1  7948  1.00
      L1  H    15    27       P1 10186  1.00
      P1  H 10785 10796       L1    14  0.51

> <Gold.PLP.Chemscore.Internal.Correction>
0.0012

> <Gold.Rescore>
     Score         DG    S(hbond)    S(metal)    S(lipo)     H(rot)  DE(clash)    DE(int)     intcor
     15.34     -17.56       2.66        0.00      49.34       1.00       0.05       2.17       ----

> <Gold.Chemscore.Fitness>
15.3441

> <Gold.Chemscore.DG>
-17.5636

> <Gold.Chemscore.ZeroCoef>
-5.4800

> <Gold.Chemscore.Hbond>
2.6560

> <Gold.Chemscore.Metal>
0.0000

> <Gold.Chemscore.Lipo>
49.3365

> <Gold.Chemscore.Internal_Hbond>
0.0000

> <Gold.Chemscore.DEClash>
0.0476

> <Gold.Chemscore.DEInternal>
2.1719

> <Gold.Chemscore.Rot>
1.0000

> <Gold.Chemscore.Internal.Correction>
   9.000000E+99

> <Gold.Chemscore.Hbonds>
donor molecule, donor type, donor heavy atom, donor atom, acceptor molecule, acceptor atom, score
      L1  H     9    21       P1  7948  0.78
      L1  H    15    27       P1 10186  0.98
      P1  H 10785 10796       L1    14  0.22

> <Gold.Chemscore.Hbond.Weighted>
-8.8712

> <Gold.Chemscore.Metal.Weighted>
-0.0000

> <Gold.Chemscore.Lipo.Weighted>
-5.7724

> <Gold.Chemscore.Internal_Hbond.Weighted>
0.0000

> <Gold.Chemscore.DEClash.Weighted>
0.0476

> <Gold.Chemscore.DEInternal.Weighted>
2.1719

> <Gold.Chemscore.Rot.Weighted>
2.5600

> <Gold.Chemscore.Internal.Correction.Weighted>
   9.000000E+99

> <Gold.Protein.RotatedTorsions>
[ 6907 6896 6895 6894 ] final   29.39 input  -60.11 | X-H torsion
[ 7974 7965 7964 7962 ] final   25.08 input  175.53 | X-H torsion
[ 8008 7997 7996 7995 ] final  103.47 input   59.86 | X-H torsion
[ 10167 10162 10161 10158 ] final   60.43 input  -65.29 | X-H torsion
[ 10718 10713 10712 10709 ] final  -90.26 input   66.30 | X-H torsion
[ 10763 10752 10751 10750 ] final  -98.23 input  -60.55 | X-H torsion
[ 11005 11000 10999 10996 ] final -130.82 input  -57.11 | X-H torsion

> <Gold.Protein.ActiveResidues>
 VAL166  LYS551  ARG553  GLY616  TRP617  ASP618  TYR619  PRO620  LYS621  CYS622 
 ASP623  PHE694  ASN695  SER759  ASP760  ASP761  ALA762  ILE779  LEU786  VAL792 
 PHE793  MET794  SER795  GLU796  ALA797  LYS798  CYS799  TRP800  GLU811  SER814 

> <Gold.Protein.RotatedAtoms>
  152.0308  134.9769  160.0572 H   0  0  0  0  0  0  0  0  0  0  0  0  # atno 6907 bound_to 6896
  152.1246  133.4368  159.4700 H   0  0  0  0  0  0  0  0  0  0  0  0  # atno 6908 bound_to 6896
  150.6851  134.2412  159.4516 H   0  0  0  0  0  0  0  0  0  0  0  0  # atno 6909 bound_to 6896
  146.1906  139.7515  142.8834 H   0  0  0  0  0  0  0  0  0  0  0  0  # atno 7974 bound_to 7965
  156.1487  140.3164  155.8612 H   0  0  0  0  0  0  0  0  0  0  0  0  # atno 8008 bound_to 7997
  155.4013  140.0500  157.3053 H   0  0  0  0  0  0  0  0  0  0  0  0  # atno 8009 bound_to 7997
  154.5039  140.2139  155.9302 H   0  0  0  0  0  0  0  0  0  0  0  0  # atno 8010 bound_to 7997
  140.1657  144.4326  150.6686 H   0  0  0  0  0  0  0  0  0  0  0  0  # atno 10167 bound_to 10162
  155.9987  130.4903  150.5296 H   0  0  0  0  0  0  0  0  0  0  0  0  # atno 10718 bound_to 10713
  154.7396  135.5017  153.9100 H   0  0  0  0  0  0  0  0  0  0  0  0  # atno 10763 bound_to 10752
  153.1030  135.6690  153.9646 H   0  0  0  0  0  0  0  0  0  0  0  0  # atno 10764 bound_to 10752
  153.9427  135.3066  155.3421 H   0  0  0  0  0  0  0  0  0  0  0  0  # atno 10765 bound_to 10752
  140.9313  134.1316  157.4232 H   0  0  0  0  0  0  0  0  0  0  0  0  # atno 11005 bound_to 11000
  145.3804  141.0357  143.3181 LP  0  0  0  0  0  0  0  0  0  0  0  0  # atno 17320 bound_to 7965
  144.8480  139.5367  143.6870 LP  0  0  0  0  0  0  0  0  0  0  0  0  # atno 17321 bound_to 7965
  140.6614  143.2253  151.5846 LP  0  0  0  0  0  0  0  0  0  0  0  0  # atno 17342 bound_to 10162
  139.5361  144.2778  152.1253 LP  0  0  0  0  0  0  0  0  0  0  0  0  # atno 17343 bound_to 10162
  157.3247  131.0688  151.1905 LP  0  0  0  0  0  0  0  0  0  0  0  0  # atno 17370 bound_to 10713
  157.2807  130.6748  149.6064 LP  0  0  0  0  0  0  0  0  0  0  0  0  # atno 17371 bound_to 10713
  139.8797  135.0006  156.6018 LP  0  0  0  0  0  0  0  0  0  0  0  0  # atno 17394 bound_to 11000
  140.7859  133.8622  155.8606 LP  0  0  0  0  0  0  0  0  0  0  0  0  # atno 17395 bound_to 11000

$$$$
