AV-unprocessed.smi:148|AV-procd|sdf|1222|dock1
  -GOLD-   2262018413D 1   1.00000     0.00000
 Structure written by MMmdl.
 63 67  0  0  0  0  0  0  0  0  1 V2000
  145.8036  141.8250  154.0690 O   0  0  0  0  0  0  0  0  0  0  0  0
  144.9890  142.4273  155.0533 C   0  0  0  0  0  0  0  0  0  0  0  0
  144.4655  141.3784  156.0649 C   0  0  2  0  0  0  0  0  0  0  0  0
  145.5503  140.3384  156.4583 C   0  0  0  0  0  0  0  0  0  0  0  0
  146.7503  140.9495  156.9999 N   0  0  0  0  0  0  0  0  0  0  0  0
  146.8623  141.6357  158.1889 C   0  0  0  0  0  0  0  0  0  0  0  0
  148.0604  142.0708  158.4699 N   0  0  0  0  0  0  0  0  0  0  0  0
  148.8258  141.6618  157.3860 C   0  0  0  0  0  0  0  0  0  0  0  0
  150.2011  141.7685  157.0552 C   0  0  0  0  0  0  0  0  0  0  0  0
  151.0858  142.3663  157.8813 N   0  0  0  0  0  0  0  0  0  0  0  0
  151.3837  143.7196  157.4077 C   0  0  0  0  0  0  0  0  0  0  0  0
  152.1175  144.5350  158.4766 C   0  0  0  0  0  0  0  0  0  0  0  0
  153.3822  143.7956  158.9153 C   0  0  0  0  0  0  0  0  0  0  0  0
  153.0221  142.3833  159.3942 C   0  0  0  0  0  0  0  0  0  0  0  0
  152.2462  141.5648  158.3250 C   0  0  1  0  0  0  0  0  0  0  0  0
  151.8719  140.1467  158.8855 C   0  0  1  0  0  0  0  0  0  0  0  0
  151.3303  139.1110  157.8738 C   0  0  0  0  0  0  0  0  0  0  0  0
  151.5977  137.7195  158.4658 C   0  0  0  0  0  0  0  0  0  0  0  0
  152.4747  137.9426  159.7008 C   0  0  0  0  0  0  0  0  0  0  0  0
  153.0218  139.3630  159.5542 C   0  0  1  0  0  0  0  0  0  0  0  0
  154.1691  139.3169  158.7237 O   0  0  0  0  0  0  0  0  0  0  0  0
  150.6201  141.2380  155.8758 N   0  0  0  0  0  0  0  0  0  0  0  0
  149.7421  140.6261  155.0745 C   0  0  0  0  0  0  0  0  0  0  0  0
  148.4338  140.4334  155.2610 N   0  0  0  0  0  0  0  0  0  0  0  0
  148.0164  140.9709  156.4435 C   0  0  0  0  0  0  0  0  0  0  0  0
  143.1352  140.7249  155.5948 C   0  0  1  0  0  0  0  0  0  0  0  0
  142.5366  139.6956  156.5590 C   0  0  0  0  0  0  0  0  0  0  0  0
  141.0763  140.1192  156.6972 C   0  0  0  0  0  0  0  0  0  0  0  0
  141.1164  141.5174  156.4690 O   0  0  0  0  0  0  0  0  0  0  0  0
  141.9874  141.7206  155.3680 C   0  0  0  0  0  0  0  0  0  0  0  0
  145.2503  141.3446  153.4719 H   0  0  0  0  0  0  0  0  0  0  0  0
  145.5520  143.2130  155.5572 H   0  0  0  0  0  0  0  0  0  0  0  0
  144.1678  142.9139  154.5274 H   0  0  0  0  0  0  0  0  0  0  0  0
  144.2264  141.9284  156.9765 H   0  0  0  0  0  0  0  0  0  0  0  0
  145.1718  139.6432  157.2073 H   0  0  0  0  0  0  0  0  0  0  0  0
  145.8424  139.7326  155.6014 H   0  0  0  0  0  0  0  0  0  0  0  0
  146.0248  141.7913  158.8534 H   0  0  0  0  0  0  0  0  0  0  0  0
  151.9960  143.6638  156.5063 H   0  0  0  0  0  0  0  0  0  0  0  0
  150.4599  144.2321  157.1335 H   0  0  0  0  0  0  0  0  0  0  0  0
  152.3720  145.5215  158.0883 H   0  0  0  0  0  0  0  0  0  0  0  0
  151.4632  144.6937  159.3347 H   0  0  0  0  0  0  0  0  0  0  0  0
  154.0853  143.7359  158.0837 H   0  0  0  0  0  0  0  0  0  0  0  0
  153.8830  144.3471  159.7115 H   0  0  0  0  0  0  0  0  0  0  0  0
  153.9483  141.8863  159.6780 H   0  0  0  0  0  0  0  0  0  0  0  0
  152.4219  142.4554  160.3027 H   0  0  0  0  0  0  0  0  0  0  0  0
  152.9031  141.4329  157.4641 H   0  0  0  0  0  0  0  0  0  0  0  0
  151.1072  140.2866  159.6520 H   0  0  0  0  0  0  0  0  0  0  0  0
  150.2674  139.2269  157.6728 H   0  0  0  0  0  0  0  0  0  0  0  0
  151.8555  139.2075  156.9227 H   0  0  0  0  0  0  0  0  0  0  0  0
  150.6697  137.2151  158.7372 H   0  0  0  0  0  0  0  0  0  0  0  0
  152.1089  137.0923  157.7347 H   0  0  0  0  0  0  0  0  0  0  0  0
  151.8517  137.8896  160.5947 H   0  0  0  0  0  0  0  0  0  0  0  0
  153.2565  137.1893  159.8069 H   0  0  0  0  0  0  0  0  0  0  0  0
  153.2977  139.7775  160.5243 H   0  0  0  0  0  0  0  0  0  0  0  0
  154.6627  138.5397  158.9364 H   0  0  0  0  0  0  0  0  0  0  0  0
  150.1474  140.2270  154.1566 H   0  0  0  0  0  0  0  0  0  0  0  0
  143.3186  140.2361  154.6373 H   0  0  0  0  0  0  0  0  0  0  0  0
  142.6275  138.6756  156.1845 H   0  0  0  0  0  0  0  0  0  0  0  0
  143.0202  139.7217  157.5342 H   0  0  0  0  0  0  0  0  0  0  0  0
  140.4579  139.6422  155.9352 H   0  0  0  0  0  0  0  0  0  0  0  0
  140.6598  139.8820  157.6764 H   0  0  0  0  0  0  0  0  0  0  0  0
  142.3124  142.7587  155.2941 H   0  0  0  0  0  0  0  0  0  0  0  0
  141.4516  141.4801  154.4482 H   0  0  0  0  0  0  0  0  0  0  0  0
  1  2  1  0  0  0  0
  1 31  1  0  0  0  0
  2  3  1  0  0  0  0
  2 32  1  0  0  0  0
  2 33  1  0  0  0  0
  3  4  1  0  0  0  0
  3 26  1  0  0  0  0
  3 34  1  0  0  0  0
  4  5  1  0  0  0  0
  4 35  1  0  0  0  0
  4 36  1  0  0  0  0
  5 25  1  0  0  0  0
  5  6  1  0  0  0  0
  6  7  2  0  0  0  0
  6 37  1  0  0  0  0
  7  8  1  0  0  0  0
  8 25  2  0  0  0  0
  8  9  1  0  0  0  0
  9 10  1  0  0  0  0
  9 22  2  0  0  0  0
 10 15  1  0  0  0  0
 10 11  1  0  0  0  0
 11 12  1  0  0  0  0
 11 38  1  0  0  0  0
 11 39  1  0  0  0  0
 12 13  1  0  0  0  0
 12 40  1  0  0  0  0
 12 41  1  0  0  0  0
 13 14  1  0  0  0  0
 13 42  1  0  0  0  0
 13 43  1  0  0  0  0
 14 15  1  0  0  0  0
 14 44  1  0  0  0  0
 14 45  1  0  0  0  0
 15 16  1  0  0  0  0
 15 46  1  0  0  0  0
 16 20  1  0  0  0  0
 16 17  1  0  0  0  0
 16 47  1  0  0  0  0
 17 18  1  0  0  0  0
 17 48  1  0  0  0  0
 17 49  1  0  0  0  0
 18 19  1  0  0  0  0
 18 50  1  0  0  0  0
 18 51  1  0  0  0  0
 19 20  1  0  0  0  0
 19 52  1  0  0  0  0
 19 53  1  0  0  0  0
 20 21  1  0  0  0  0
 20 54  1  0  0  0  0
 21 55  1  0  0  0  0
 22 23  1  0  0  0  0
 23 24  2  0  0  0  0
 23 56  1  0  0  0  0
 24 25  1  0  0  0  0
 26 30  1  0  0  0  0
 26 27  1  0  0  0  0
 26 57  1  0  0  0  0
 27 28  1  0  0  0  0
 27 58  1  0  0  0  0
 27 59  1  0  0  0  0
 28 29  1  0  0  0  0
 28 60  1  0  0  0  0
 28 61  1  0  0  0  0
 29 30  1  0  0  0  0
 30 62  1  0  0  0  0
 30 63  1  0  0  0  0
M  END
> <s_m_source_file>
AV-unprocessed.smi

> <i_m_source_file_index>
148

> <i_lp_mmshare_version>
43012

> <i_f3d_flags>
0

> <s_epik_input>
W0NIMl0xT1tDSDJdW0NIMl1bQ0BIXTFbQ0BIXShbQ0gyXVtPSF0pW0NIMl1uKFtjSF1uMiljKGMyMyluW2NIXW5jM040W0NIMl1bQ0gyXVtDSDJdW0NIMl1bQ0BIXTRbQ0BASF01W0NIMl1bQ0gyXVtDSDJdW0NASF01W09IXQ==

> <s_epik_cmdline>
J2VwaWtfcHl0aG9uJywgJy1waCcsICc3LjAnLCAnLXRuJywgJzgnLCAnLW1hJywgJzIwMCcsICctbWV0YWxfYmluZGluZycsICctaW1hZScsICc8aW5maWxlLm1hZT4nLCAnLW9tYWUnLCAnPG91dGZpbGUubWFlPic=

> <r_lp_tautomer_probability>
1

> <r_epik_Ionization_Penalty>
0.00556303

> <r_epik_Ionization_Penalty_Charging>
0

> <r_epik_Ionization_Penalty_Neutral>
0.00556303

> <r_epik_State_Penalty>
0.00401767

> <r_epik_Charging_Adjusted_Penalty>
0.00401767

> <i_epik_Tot_Q>
0

> <i_epik_Tot_abs_Q>
0

> <r_epik_Metal_State_Penalty>
-0

> <b_epik_Metal_Only>
0

> <s_lp_Force_Field>
OPLS_2005

> <r_lp_Energy>
71.6968

> <b_lp_Chiralities_Consistent>
1

> <s_lp_Variant>
AV-unprocessed.smi:148-21

> <Gold.Version>
5.8.1

> <Gold.Id.Protein>
6NUR|6NUR_protein|mol2

> <Gold.PLP.Fitness>
42.8100

> <Gold.PLP.PLP>
-37.5200

> <Gold.PLP.part.hbond>
-2.2268

> <Gold.PLP.part.metal>
0.0000

> <Gold.PLP.part.buried>
-5.5507

> <Gold.PLP.part.nonpolar>
-29.5936

> <Gold.PLP.part.repulsive>
0.3131

> <Gold.PLP.ligand.clash>
0.0000

> <Gold.PLP.ligand.torsion>
0.6960

> <Gold.PLP.Chemscore.Hbond>
2.0000

> <Gold.PLP.Chemscore.CHOScore>
0.0000

> <Gold.PLP.Chemscore.Metal>
0.0000

> <Gold.Chemscore.Hbonds>
donor molecule, donor type, donor heavy atom, donor atom, acceptor molecule, acceptor atom, score
      L1  H     1    31       P1 10175  0.94
      P1  H  7997  8008       L1    21  1.00

> <Gold.PLP.Chemscore.Internal.Correction>
0.6821

> <Gold.Rescore>
     Score         DG    S(hbond)    S(metal)    S(lipo)     H(rot)  DE(clash)    DE(int)     intcor
     12.58     -14.28       1.77        0.00      97.28       3.32       0.25       1.45       ----

> <Gold.Chemscore.Fitness>
12.5815

> <Gold.Chemscore.DG>
-14.2784

> <Gold.Chemscore.ZeroCoef>
-5.4800

> <Gold.Chemscore.Hbond>
1.7713

> <Gold.Chemscore.Metal>
0.0000

> <Gold.Chemscore.Lipo>
97.2843

> <Gold.Chemscore.Internal_Hbond>
0.0000

> <Gold.Chemscore.DEClash>
0.2493

> <Gold.Chemscore.DEInternal>
1.4476

> <Gold.Chemscore.Rot>
3.3203

> <Gold.Chemscore.Internal.Correction>
   9.000000E+99

> <Gold.Chemscore.Hbonds>
donor molecule, donor type, donor heavy atom, donor atom, acceptor molecule, acceptor atom, score
      L1  H     1    31       P1 10175  0.20
      P1  H  7997  8008       L1    21  0.74

> <Gold.Chemscore.Hbond.Weighted>
-5.9161

> <Gold.Chemscore.Metal.Weighted>
-0.0000

> <Gold.Chemscore.Lipo.Weighted>
-11.3823

> <Gold.Chemscore.Internal_Hbond.Weighted>
0.0000

> <Gold.Chemscore.DEClash.Weighted>
0.2493

> <Gold.Chemscore.DEInternal.Weighted>
1.4476

> <Gold.Chemscore.Rot.Weighted>
8.5000

> <Gold.Chemscore.Internal.Correction.Weighted>
   9.000000E+99

> <Gold.Protein.RotatedTorsions>
[ 6907 6896 6895 6894 ] final -114.72 input  -60.11 | X-H torsion
[ 7974 7965 7964 7962 ] final   75.91 input  175.53 | X-H torsion
[ 8008 7997 7996 7995 ] final  -98.21 input   59.86 | X-H torsion
[ 10167 10162 10161 10158 ] final  104.21 input  -65.29 | X-H torsion
[ 10718 10713 10712 10709 ] final  -10.70 input   66.30 | X-H torsion
[ 10763 10752 10751 10750 ] final -162.41 input  -60.55 | X-H torsion
[ 11005 11000 10999 10996 ] final  -41.00 input  -57.11 | X-H torsion

> <Gold.Protein.ActiveResidues>
 VAL166  LYS551  ARG553  GLY616  TRP617  ASP618  TYR619  PRO620  LYS621  CYS622 
 ASP623  PHE694  ASN695  SER759  ASP760  ASP761  ALA762  ILE779  LEU786  VAL792 
 PHE793  MET794  SER795  GLU796  ALA797  LYS798  CYS799  TRP800  GLU811  SER814 

> <Gold.Protein.RotatedAtoms>
  150.7924  133.8760  159.3272 H   0  0  0  0  0  0  0  0  0  0  0  0  # atno 6907 bound_to 6896
  151.6594  135.0989  160.0186 H   0  0  0  0  0  0  0  0  0  0  0  0  # atno 6908 bound_to 6896
  152.4000  133.6764  159.6343 H   0  0  0  0  0  0  0  0  0  0  0  0  # atno 6909 bound_to 6896
  145.7096  139.2610  143.1658 H   0  0  0  0  0  0  0  0  0  0  0  0  # atno 7974 bound_to 7965
  154.7981  140.0457  157.1252 H   0  0  0  0  0  0  0  0  0  0  0  0  # atno 8008 bound_to 7997
  154.9511  140.3065  155.5055 H   0  0  0  0  0  0  0  0  0  0  0  0  # atno 8009 bound_to 7997
  156.2958  140.2288  156.4589 H   0  0  0  0  0  0  0  0  0  0  0  0  # atno 8010 bound_to 7997
  139.7197  144.7061  151.0893 H   0  0  0  0  0  0  0  0  0  0  0  0  # atno 10167 bound_to 10162
  156.6697  130.5006  149.6004 H   0  0  0  0  0  0  0  0  0  0  0  0  # atno 10718 bound_to 10713
  154.7216  135.3027  154.9037 H   0  0  0  0  0  0  0  0  0  0  0  0  # atno 10763 bound_to 10752
  153.9908  135.6719  153.4758 H   0  0  0  0  0  0  0  0  0  0  0  0  # atno 10764 bound_to 10752
  153.0839  135.4994  154.8476 H   0  0  0  0  0  0  0  0  0  0  0  0  # atno 10765 bound_to 10752
  141.0215  133.6860  156.2398 H   0  0  0  0  0  0  0  0  0  0  0  0  # atno 11005 bound_to 11000
  146.0724  140.7854  142.9681 LP  0  0  0  0  0  0  0  0  0  0  0  0  # atno 17320 bound_to 7965
  144.6945  140.3363  143.7207 LP  0  0  0  0  0  0  0  0  0  0  0  0  # atno 17321 bound_to 7965
  140.7751  143.5183  150.9568 LP  0  0  0  0  0  0  0  0  0  0  0  0  # atno 17342 bound_to 10162
  139.8869  143.7001  152.3150 LP  0  0  0  0  0  0  0  0  0  0  0  0  # atno 17343 bound_to 10162
  156.1948  130.6582  151.1102 LP  0  0  0  0  0  0  0  0  0  0  0  0  # atno 17370 bound_to 10713
  157.7081  131.0747  150.6596 LP  0  0  0  0  0  0  0  0  0  0  0  0  # atno 17371 bound_to 10713
  140.6565  134.5013  157.5581 LP  0  0  0  0  0  0  0  0  0  0  0  0  # atno 17394 bound_to 11000
  139.9149  134.8267  156.1400 LP  0  0  0  0  0  0  0  0  0  0  0  0  # atno 17395 bound_to 11000

$$$$
