AV-unprocessed.smi:1448|AV-procd|sdf|5894|dock9
  -GOLD-   22720 5583D 1   1.00000     0.00000
 Structure written by MMmdl.
 49 50  0  0  0  0  0  0  0  0  2 V2000
  143.7659  131.9376  150.2083 C   0  0  0  0  0  0  0  0  0  0  0  0
  144.2242  133.1672  150.9359 C   0  0  0  0  0  0  0  0  0  0  0  0
  145.5494  133.5087  151.3343 C   0  0  0  0  0  0  0  0  0  0  0  0
  145.3770  134.7196  151.9474 C   0  0  0  0  0  0  0  0  0  0  0  0
  146.3070  135.5261  152.5247 N   0  0  0  0  0  0  0  0  0  0  0  0
  146.2303  136.1961  153.6876 C   0  0  0  0  0  0  0  0  0  0  0  0
  145.2719  136.1797  154.4595 O   0  0  0  0  0  0  0  0  0  0  0  0
  147.3404  136.9154  153.9070 N   0  0  0  0  0  0  0  0  0  0  0  0
  147.6011  137.7599  155.0740 C   0  0  0  0  0  0  0  0  0  0  0  0
  149.0119  138.4337  155.0545 C   0  0  0  0  0  0  0  0  0  0  0  0
  150.0076  137.4268  154.5235 N   0  3  0  0  0  0  0  0  0  0  0  0
  150.0549  136.1097  155.2085 C   0  0  0  0  0  0  0  0  0  0  0  0
  151.3860  137.9435  154.3149 C   0  0  0  0  0  0  0  0  0  0  0  0
  148.9829  139.7083  154.1565 C   0  0  0  0  0  0  0  0  0  0  0  0
  148.1034  140.8478  154.7085 C   0  0  0  0  0  0  0  0  0  0  0  0
  148.4912  141.2279  156.1435 C   0  0  0  0  0  0  0  0  0  0  0  0
  148.4790  140.0024  157.0658 C   0  0  0  0  0  0  0  0  0  0  0  0
  149.3833  138.8895  156.5059 C   0  0  0  0  0  0  0  0  0  0  0  0
  144.0420  135.0546  151.9033 N   0  0  0  0  0  0  0  0  0  0  0  0
  143.3708  136.2339  152.4143 C   0  0  0  0  0  0  0  0  0  0  0  0
  143.3327  134.0902  151.2783 N   0  0  0  0  0  0  0  0  0  0  0  0
  144.6070  131.2910  149.9581 H   0  0  0  0  0  0  0  0  0  0  0  0
  143.2597  132.1971  149.2781 H   0  0  0  0  0  0  0  0  0  0  0  0
  143.0715  131.3576  150.8166 H   0  0  0  0  0  0  0  0  0  0  0  0
  146.4577  132.9455  151.1827 H   0  0  0  0  0  0  0  0  0  0  0  0
  147.1584  135.6448  151.9956 H   0  0  0  0  0  0  0  0  0  0  0  0
  148.0763  136.8651  153.2172 H   0  0  0  0  0  0  0  0  0  0  0  0
  146.8087  138.4999  155.1853 H   0  0  0  0  0  0  0  0  0  0  0  0
  147.4827  137.1184  155.9447 H   0  0  0  0  0  0  0  0  0  0  0  0
  150.2561  136.2223  156.2743 H   0  0  0  0  0  0  0  0  0  0  0  0
  150.8412  135.4826  154.7864 H   0  0  0  0  0  0  0  0  0  0  0  0
  149.1263  135.5545  155.0785 H   0  0  0  0  0  0  0  0  0  0  0  0
  151.9112  138.0702  155.2622 H   0  0  0  0  0  0  0  0  0  0  0  0
  151.4040  138.8949  153.7866 H   0  0  0  0  0  0  0  0  0  0  0  0
  151.9616  137.2400  153.7125 H   0  0  0  0  0  0  0  0  0  0  0  0
  149.9968  140.0908  154.0339 H   0  0  0  0  0  0  0  0  0  0  0  0
  148.6274  139.4686  153.1543 H   0  0  0  0  0  0  0  0  0  0  0  0
  148.1950  141.7228  154.0641 H   0  0  0  0  0  0  0  0  0  0  0  0
  147.0517  140.5636  154.6743 H   0  0  0  0  0  0  0  0  0  0  0  0
  149.4864  141.6747  156.1442 H   0  0  0  0  0  0  0  0  0  0  0  0
  147.8111  141.9904  156.5245 H   0  0  0  0  0  0  0  0  0  0  0  0
  148.8297  140.2929  158.0566 H   0  0  0  0  0  0  0  0  0  0  0  0
  147.4595  139.6445  157.2061 H   0  0  0  0  0  0  0  0  0  0  0  0
  149.3899  138.0415  157.1913 H   0  0  0  0  0  0  0  0  0  0  0  0
  150.3915  139.3020  156.5306 H   0  0  0  0  0  0  0  0  0  0  0  0
  143.5939  136.3525  153.4747 H   0  0  0  0  0  0  0  0  0  0  0  0
  142.2908  136.1463  152.2891 H   0  0  0  0  0  0  0  0  0  0  0  0
  143.7193  137.1152  151.8753 H   0  0  0  0  0  0  0  0  0  0  0  0
  149.6715  137.2133  153.5950 H   0  0  0  0  0  0  0  0  0  0  0  0
  1  2  1  0  0  0  0
  1 22  1  0  0  0  0
  1 23  1  0  0  0  0
  1 24  1  0  0  0  0
  2 21  2  0  0  0  0
  2  3  1  0  0  0  0
  3  4  2  0  0  0  0
  3 25  1  0  0  0  0
  4  5  1  0  0  0  0
  4 19  1  0  0  0  0
  5  6  1  0  0  0  0
  5 26  1  0  0  0  0
  6  7  2  0  0  0  0
  6  8  1  0  0  0  0
  8  9  1  0  0  0  0
  8 27  1  0  0  0  0
  9 10  1  0  0  0  0
  9 28  1  0  0  0  0
  9 29  1  0  0  0  0
 10 18  1  0  0  0  0
 10 11  1  0  0  0  0
 10 14  1  0  0  0  0
 11 12  1  0  0  0  0
 11 13  1  0  0  0  0
 11 49  1  0  0  0  0
 12 30  1  0  0  0  0
 12 31  1  0  0  0  0
 12 32  1  0  0  0  0
 13 33  1  0  0  0  0
 13 34  1  0  0  0  0
 13 35  1  0  0  0  0
 14 15  1  0  0  0  0
 14 36  1  0  0  0  0
 14 37  1  0  0  0  0
 15 16  1  0  0  0  0
 15 38  1  0  0  0  0
 15 39  1  0  0  0  0
 16 17  1  0  0  0  0
 16 40  1  0  0  0  0
 16 41  1  0  0  0  0
 17 18  1  0  0  0  0
 17 42  1  0  0  0  0
 17 43  1  0  0  0  0
 18 44  1  0  0  0  0
 18 45  1  0  0  0  0
 19 20  1  0  0  0  0
 19 21  1  0  0  0  0
 20 46  1  0  0  0  0
 20 47  1  0  0  0  0
 20 48  1  0  0  0  0
M  CHG  1  11   1
M  END
> <s_m_source_file>
AV-unprocessed.smi

> <i_m_source_file_index>
1448

> <i_lp_mmshare_version>
43012

> <i_f3d_flags>
0

> <s_epik_input>
W0NIM11jMVtjSF1jKG4objEpW0NIM10pW05IXUMoPU8pW05IXVtDSDJdQzIoTihbQ0gzXSlbQ0gzXSlbQ0gyXVtDSDJdW0NIMl1bQ0gyXVtDSDJdMg==

> <s_epik_cmdline>
J2VwaWtfcHl0aG9uJywgJy1waCcsICc3LjAnLCAnLXRuJywgJzgnLCAnLW1hJywgJzIwMCcsICctbWV0YWxfYmluZGluZycsICctaW1hZScsICc8aW5maWxlLm1hZT4nLCAnLW9tYWUnLCAnPG91dGZpbGUubWFlPic=

> <r_lp_tautomer_probability>
1

> <r_epik_Ionization_Penalty>
0.00238996

> <r_epik_Ionization_Penalty_Charging>
0.00230992

> <r_epik_Ionization_Penalty_Neutral>
8.00361e-05

> <r_epik_State_Penalty>
0.00159337

> <r_epik_Charging_Adjusted_Penalty>
0.00390329

> <i_epik_Tot_Q>
1

> <i_epik_Tot_abs_Q>
1

> <r_epik_Metal_State_Penalty>
-0

> <b_epik_Metal_Only>
0

> <s_lp_Force_Field>
OPLS_2005

> <r_lp_Energy>
34.408

> <b_lp_Chiralities_Consistent>
1

> <s_lp_Variant>
AV-unprocessed.smi:1448-1

> <Gold.Version>
5.8.1

> <Gold.Id.Protein>
6NUR|6NUR_protein|mol2

> <Gold.PLP.Fitness>
38.2305

> <Gold.PLP.PLP>
-27.5019

> <Gold.PLP.part.hbond>
-3.0000

> <Gold.PLP.part.metal>
0.0000

> <Gold.PLP.part.buried>
-4.2220

> <Gold.PLP.part.nonpolar>
-21.1474

> <Gold.PLP.part.repulsive>
0.5028

> <Gold.PLP.ligand.clash>
0.0000

> <Gold.PLP.ligand.torsion>
0.6936

> <Gold.PLP.Chemscore.Hbond>
3.9920

> <Gold.PLP.Chemscore.CHOScore>
0.0000

> <Gold.PLP.Chemscore.Metal>
0.0000

> <Gold.Chemscore.Hbonds>
donor molecule, donor type, donor heavy atom, donor atom, acceptor molecule, acceptor atom, score
      L1  H     5    26       P1  7948  1.00
      L1  H     8    27       P1  7948  1.00
      L1  H    11    49       P1  7948  1.72

> <Gold.PLP.Chemscore.Internal.Correction>
0.1398

> <Gold.Rescore>
     Score         DG    S(hbond)    S(metal)    S(lipo)     H(rot)  DE(clash)    DE(int)     intcor
     17.31     -18.47       2.79        0.00      63.58       1.47       0.19       0.97       ----

> <Gold.Chemscore.Fitness>
17.3142

> <Gold.Chemscore.DG>
-18.4725

> <Gold.Chemscore.ZeroCoef>
-5.4800

> <Gold.Chemscore.Hbond>
2.7916

> <Gold.Chemscore.Metal>
0.0000

> <Gold.Chemscore.Lipo>
63.5783

> <Gold.Chemscore.Internal_Hbond>
0.0000

> <Gold.Chemscore.DEClash>
0.1875

> <Gold.Chemscore.DEInternal>
0.9708

> <Gold.Chemscore.Rot>
1.4727

> <Gold.Chemscore.Internal.Correction>
   9.000000E+99

> <Gold.Chemscore.Hbonds>
donor molecule, donor type, donor heavy atom, donor atom, acceptor molecule, acceptor atom, score
      L1  H     5    26       P1  7948  0.97
      L1  H     8    27       P1  7948  0.99
      L1  H    11    49       P1  7948  0.66

> <Gold.Chemscore.Hbond.Weighted>
-9.3238

> <Gold.Chemscore.Metal.Weighted>
-0.0000

> <Gold.Chemscore.Lipo.Weighted>
-7.4387

> <Gold.Chemscore.Internal_Hbond.Weighted>
0.0000

> <Gold.Chemscore.DEClash.Weighted>
0.1875

> <Gold.Chemscore.DEInternal.Weighted>
0.9708

> <Gold.Chemscore.Rot.Weighted>
3.7700

> <Gold.Chemscore.Internal.Correction.Weighted>
   9.000000E+99

> <Gold.Protein.RotatedTorsions>
[ 6907 6896 6895 6894 ] final   29.32 input  -60.11 | X-H torsion
[ 7974 7965 7964 7962 ] final  159.60 input  175.53 | X-H torsion
[ 8008 7997 7996 7995 ] final  150.86 input   59.86 | X-H torsion
[ 10167 10162 10161 10158 ] final  135.52 input  -65.29 | X-H torsion
[ 10718 10713 10712 10709 ] final   84.39 input   66.30 | X-H torsion
[ 10763 10752 10751 10750 ] final  153.04 input  -60.55 | X-H torsion
[ 11005 11000 10999 10996 ] final  -14.03 input  -57.11 | X-H torsion

> <Gold.Protein.ActiveResidues>
 VAL166  LYS551  ARG553  GLY616  TRP617  ASP618  TYR619  PRO620  LYS621  CYS622 
 ASP623  PHE694  ASN695  SER759  ASP760  ASP761  ALA762  ILE779  LEU786  VAL792 
 PHE793  MET794  SER795  GLU796  ALA797  LYS798  CYS799  TRP800  GLU811  SER814 

> <Gold.Protein.RotatedAtoms>
  152.0298  134.9774  160.0572 H   0  0  0  0  0  0  0  0  0  0  0  0  # atno 6907 bound_to 6896
  152.1255  133.4373  159.4704 H   0  0  0  0  0  0  0  0  0  0  0  0  # atno 6908 bound_to 6896
  150.6852  134.2402  159.4512 H   0  0  0  0  0  0  0  0  0  0  0  0  # atno 6909 bound_to 6896
  144.7781  139.7640  143.6270 H   0  0  0  0  0  0  0  0  0  0  0  0  # atno 7974 bound_to 7965
  156.2698  140.2063  156.6084 H   0  0  0  0  0  0  0  0  0  0  0  0  # atno 8008 bound_to 7997
  154.6851  140.0536  157.0330 H   0  0  0  0  0  0  0  0  0  0  0  0  # atno 8009 bound_to 7997
  155.0945  140.3200  155.4567 H   0  0  0  0  0  0  0  0  0  0  0  0  # atno 8010 bound_to 7997
  139.5214  144.6513  151.5295 H   0  0  0  0  0  0  0  0  0  0  0  0  # atno 10167 bound_to 10162
  157.6897  131.0131  150.2666 H   0  0  0  0  0  0  0  0  0  0  0  0  # atno 10718 bound_to 10713
  154.1298  135.2827  155.3188 H   0  0  0  0  0  0  0  0  0  0  0  0  # atno 10763 bound_to 10752
  154.6364  135.5417  153.7742 H   0  0  0  0  0  0  0  0  0  0  0  0  # atno 10764 bound_to 10752
  153.0285  135.6475  154.1449 H   0  0  0  0  0  0  0  0  0  0  0  0  # atno 10765 bound_to 10752
  140.7823  133.8353  155.9303 H   0  0  0  0  0  0  0  0  0  0  0  0  # atno 11005 bound_to 11000
  146.1974  139.5248  142.9766 LP  0  0  0  0  0  0  0  0  0  0  0  0  # atno 17320 bound_to 7965
  145.6127  141.0337  143.1958 LP  0  0  0  0  0  0  0  0  0  0  0  0  # atno 17321 bound_to 7965
  140.6319  143.9060  150.6612 LP  0  0  0  0  0  0  0  0  0  0  0  0  # atno 17342 bound_to 10162
  140.2367  143.3695  152.1521 LP  0  0  0  0  0  0  0  0  0  0  0  0  # atno 17343 bound_to 10162
  156.3236  130.3789  149.7553 LP  0  0  0  0  0  0  0  0  0  0  0  0  # atno 17370 bound_to 10713
  156.5115  130.8174  151.3170 LP  0  0  0  0  0  0  0  0  0  0  0  0  # atno 17371 bound_to 10713
  140.9471  134.1827  157.4755 LP  0  0  0  0  0  0  0  0  0  0  0  0  # atno 17394 bound_to 11000
  139.8741  134.9894  156.5458 LP  0  0  0  0  0  0  0  0  0  0  0  0  # atno 17395 bound_to 11000

$$$$
