#       Name:                AV-unprocessed.smi:2702
#       Creating user name   scv26
#       Creation time:       Fri Mar 27 14:47:19 2020


#       File generated by GOLD software.
#

@<TRIPOS>MOLECULE
AV-unprocessed.smi:2702
    54    55     1
SMALL
NO_CHARGES


@<TRIPOS>ATOM
      1 ****        -8.1124  -0.4069  -0.5584 C.3            1 S1                 0.0000
      2 ****        -6.6971  -0.3967  -0.6160 O.3            1 S1                 0.0000
      3 ****        -6.2063  -0.3545  -1.9460 C.3            1 S1                 0.0000
      4 ****        -4.6902  -0.3790  -1.9628 C.2            1 S1                 0.0000
      5 ****        -3.9651   0.5395  -2.6432 C.2            1 S1                 0.0000
      6 ****        -2.5027   0.4950  -2.6308 C.2            1 S1                 0.0000
      7 ****        -1.8093   1.3123  -3.2366 O.2            1 S1                 0.0000
      8 ****        -1.9648  -0.5216  -1.8943 N.am           1 S1                 0.0000
      9 ****        -0.5057  -0.6977  -1.7728 C.3            1 S1                 0.0000
     10 ****         0.1220   0.1183  -0.6322 C.2            1 S1                 0.0000
     11 ****        -0.5388   0.9448  -0.0015 O.2            1 S1                 0.0000
     12 ****         1.4154  -0.1340  -0.3813 N.am           1 S1                 0.0000
     13 ****         2.2179   0.5000   0.6637 C.3            1 S1                 0.0000
     14 ****         2.8840   1.7655   0.0909 C.3            1 S1                 0.0000
     15 ****         3.7759   2.4461   1.1333 C.3            1 S1                 0.0000
     16 ****         4.8335   1.4696   1.6586 C.3            1 S1                 0.0000
     17 ****         4.1954   0.2024   2.2621 C.3            1 S1                 0.0000
     18 ****         5.3010  -0.7218   2.8051 C.3            1 S1                 0.0000
     19 ****         3.2620  -0.4983   1.2340 C.3            1 S1                 0.0000
     20 ****         2.5684  -1.7409   1.8349 C.3            1 S1                 0.0000
     21 ****        -2.7669  -1.4473  -1.1978 C.2            1 S1                 0.0000
     22 ****        -4.0601  -1.3887  -1.2282 N.2            1 S1                 0.0000
     23 ****        -8.4357  -0.4351   0.4822 H              1 S1                 0.0000
     24 ****        -8.5211  -1.2841  -1.0617 H              1 S1                 0.0000
     25 ****        -8.5327   0.4889  -1.0174 H              1 S1                 0.0000
     26 ****        -6.5727  -1.2134  -2.5103 H              1 S1                 0.0000
     27 ****        -6.5706   0.5444  -2.4461 H              1 S1                 0.0000
     28 ****        -4.4631   1.3183  -3.2020 H              1 S1                 0.0000
     29 ****        -0.2541  -1.7503  -1.6268 H              1 S1                 0.0000
     30 ****        -0.0116  -0.4208  -2.7057 H              1 S1                 0.0000
     31 ****         1.8800  -0.8264  -0.9506 H              1 S1                 0.0000
     32 ****         1.5646   0.7997   1.4859 H              1 S1                 0.0000
     33 ****         3.4815   1.5074  -0.7846 H              1 S1                 0.0000
     34 ****         2.1235   2.4690  -0.2505 H              1 S1                 0.0000
     35 ****         4.2598   3.3196   0.6957 H              1 S1                 0.0000
     36 ****         3.1655   2.8104   1.9607 H              1 S1                 0.0000
     37 ****         5.5086   1.1935   0.8472 H              1 S1                 0.0000
     38 ****         5.4449   1.9733   2.4082 H              1 S1                 0.0000
     39 ****         3.5865   0.5159   3.1117 H              1 S1                 0.0000
     40 ****         5.8909  -1.1534   1.9959 H              1 S1                 0.0000
     41 ****         4.8932  -1.5393   3.3986 H              1 S1                 0.0000
     42 ****         5.9835  -0.1744   3.4558 H              1 S1                 0.0000
     43 ****         3.8823  -0.8405   0.4039 H              1 S1                 0.0000
     44 ****         1.9611  -1.4736   2.7002 H              1 S1                 0.0000
     45 ****         3.2879  -2.4951   2.1511 H              1 S1                 0.0000
     46 ****         1.9148  -2.2311   1.1135 H              1 S1                 0.0000
     47 ****        -2.2233  -2.2069  -0.6335 H              1 S1                 0.0000
     48 ****        -6.3524  -1.2246  -0.1735 LP             1 S1                 0.0000
     49 ****        -6.3623   0.4076  -0.1253 LP             1 S1                 0.0000
     50 ****        -2.2432   2.0429  -3.7638 LP             1 S1                 0.0000
     51 ****        -0.8121   1.2454  -3.2016 LP             1 S1                 0.0000
     52 ****        -1.5011   1.0940  -0.2288 LP             1 S1                 0.0000
     53 ****        -0.1129   1.4665   0.7376 LP             1 S1                 0.0000
     54 ****        -4.6055  -2.0620  -0.7290 LP             1 S1                 0.0000
@<TRIPOS>BOND
    1    1    2 1     
    2    1   23 1     
    3    1   24 1     
    4    1   25 1     
    5    2    3 1     
    6    3    4 1     
    7    3   26 1     
    8    3   27 1     
    9    4   22 1     
   10    4    5 2     
   11    5    6 1     
   12    5   28 1     
   13    6    7 2     
   14    6    8 am    
   15    8    9 1     
   16    8   21 1     
   17    9   10 1     
   18    9   29 1     
   19    9   30 1     
   20   10   11 2     
   21   10   12 am    
   22   12   13 1     
   23   12   31 1     
   24   13   19 1     
   25   13   14 1     
   26   13   32 1     
   27   14   15 1     
   28   14   33 1     
   29   14   34 1     
   30   15   16 1     
   31   15   35 1     
   32   15   36 1     
   33   16   17 1     
   34   16   37 1     
   35   16   38 1     
   36   17   18 1     
   37   17   19 1     
   38   17   39 1     
   39   18   40 1     
   40   18   41 1     
   41   18   42 1     
   42   19   20 1     
   43   19   43 1     
   44   20   44 1     
   45   20   45 1     
   46   20   46 1     
   47   21   22 2     
   48   21   47 1     
   49    2   48 1     
   50    2   49 1     
   51    7   50 1     
   52    7   51 1     
   53   11   52 1     
   54   11   53 1     
   55   22   54 1     
@<TRIPOS>SUBSTRUCTURE
      1 S1             1
@<TRIPOS>SET
LONE_PAIRS      STATIC     ATOMS    <user>   **** ""
7 48 49 50 51 52 53 54
DONOR_HYDROGENS      STATIC     ATOMS    <user>   **** ""
1 31
ATOM$BLUE        STATIC     ATOMS    COLORGROUP SYSTEM
7 48 49 50 51 52 53 54
ATOM$RED        STATIC     ATOMS    COLORGROUP SYSTEM
1 31
