AV-unprocessed.smi:2145|AV-procd|sdf|8735|dock1
  -GOLD-   2272011503D 1   1.00000     0.00000
 Structure written by MMmdl.
 44 46  0  0  0  0  0  0  0  0  1 V2000
  142.7704  146.3366  154.3213 C   0  0  0  0  0  0  0  0  0  0  0  0
  142.8435  145.0094  155.0747 C   0  0  0  0  0  0  0  0  0  0  0  0
  141.8994  144.6853  155.7944 O   0  0  0  0  0  0  0  0  0  0  0  0
  144.0654  144.1747  154.8961 C   0  0  0  0  0  0  0  0  0  0  0  0
  144.7936  144.2578  153.6882 C   0  0  0  0  0  0  0  0  0  0  0  0
  145.9502  143.4790  153.4939 C   0  0  0  0  0  0  0  0  0  0  0  0
  146.4076  142.6016  154.4964 C   0  0  0  0  0  0  0  0  0  0  0  0
  147.5471  141.8757  154.2229 O   0  0  0  0  0  0  0  0  0  0  0  0
  147.7520  140.6590  154.9284 C   0  0  0  0  0  0  0  0  0  0  0  0
  149.2608  140.3586  154.9763 C   0  0  1  0  0  0  0  0  0  0  0  0
  149.6811  140.0083  153.6741 O   0  0  0  0  0  0  0  0  0  0  0  0
  150.1273  141.5561  155.4214 C   0  0  0  0  0  0  0  0  0  0  0  0
  151.0898  141.2203  156.4625 N   0  0  0  0  0  0  0  0  0  0  0  0
  151.9218  140.1511  156.5164 C   0  0  0  0  0  0  0  0  0  0  0  0
  151.9548  139.1186  155.4348 C   0  0  0  0  0  0  0  0  0  0  0  0
  152.7096  140.0801  157.5895 N   0  0  0  0  0  0  0  0  0  0  0  0
  152.3607  141.2139  158.2973 C   0  0  0  0  0  0  0  0  0  0  0  0
  152.8406  141.7106  159.5304 C   0  0  0  0  0  0  0  0  0  0  0  0
  152.3257  142.9093  160.0662 C   0  0  0  0  0  0  0  0  0  0  0  0
  151.3258  143.6271  159.3785 C   0  0  0  0  0  0  0  0  0  0  0  0
  150.8344  143.1504  158.1480 C   0  0  0  0  0  0  0  0  0  0  0  0
  151.3515  141.9530  157.6173 C   0  0  0  0  0  0  0  0  0  0  0  0
  145.6793  142.5169  155.7087 C   0  0  0  0  0  0  0  0  0  0  0  0
  144.5218  143.2948  155.9048 C   0  0  0  0  0  0  0  0  0  0  0  0
  143.5786  146.9978  154.6337 H   0  0  0  0  0  0  0  0  0  0  0  0
  141.8236  146.8377  154.5235 H   0  0  0  0  0  0  0  0  0  0  0  0
  142.8450  146.1717  153.2463 H   0  0  0  0  0  0  0  0  0  0  0  0
  144.4726  144.9191  152.8961 H   0  0  0  0  0  0  0  0  0  0  0  0
  146.4918  143.5564  152.5626 H   0  0  0  0  0  0  0  0  0  0  0  0
  147.3340  140.7008  155.9359 H   0  0  0  0  0  0  0  0  0  0  0  0
  147.2332  139.8716  154.3825 H   0  0  0  0  0  0  0  0  0  0  0  0
  149.4430  139.5134  155.6402 H   0  0  0  0  0  0  0  0  0  0  0  0
  149.2216  139.2245  153.4130 H   0  0  0  0  0  0  0  0  0  0  0  0
  150.6666  141.9709  154.5693 H   0  0  0  0  0  0  0  0  0  0  0  0
  149.4902  142.3605  155.7912 H   0  0  0  0  0  0  0  0  0  0  0  0
  152.7055  138.3591  155.6558 H   0  0  0  0  0  0  0  0  0  0  0  0
  152.2066  139.5786  154.4790 H   0  0  0  0  0  0  0  0  0  0  0  0
  150.9868  138.6261  155.3489 H   0  0  0  0  0  0  0  0  0  0  0  0
  153.6063  141.1681  160.0648 H   0  0  0  0  0  0  0  0  0  0  0  0
  152.6998  143.2793  161.0095 H   0  0  0  0  0  0  0  0  0  0  0  0
  150.9364  144.5442  159.7960 H   0  0  0  0  0  0  0  0  0  0  0  0
  150.0667  143.6970  157.6207 H   0  0  0  0  0  0  0  0  0  0  0  0
  145.9865  141.8597  156.5080 H   0  0  0  0  0  0  0  0  0  0  0  0
  143.9976  143.1980  156.8438 H   0  0  0  0  0  0  0  0  0  0  0  0
  1  2  1  0  0  0  0
  1 25  1  0  0  0  0
  1 26  1  0  0  0  0
  1 27  1  0  0  0  0
  2  3  2  0  0  0  0
  2  4  1  0  0  0  0
  4 24  1  0  0  0  0
  4  5  2  0  0  0  0
  5  6  1  0  0  0  0
  5 28  1  0  0  0  0
  6  7  2  0  0  0  0
  6 29  1  0  0  0  0
  7  8  1  0  0  0  0
  7 23  1  0  0  0  0
  8  9  1  0  0  0  0
  9 10  1  0  0  0  0
  9 30  1  0  0  0  0
  9 31  1  0  0  0  0
 10 11  1  0  0  0  0
 10 12  1  0  0  0  0
 10 32  1  0  0  0  0
 11 33  1  0  0  0  0
 12 13  1  0  0  0  0
 12 34  1  0  0  0  0
 12 35  1  0  0  0  0
 13 22  1  0  0  0  0
 13 14  1  0  0  0  0
 14 15  1  0  0  0  0
 14 16  2  0  0  0  0
 15 36  1  0  0  0  0
 15 37  1  0  0  0  0
 15 38  1  0  0  0  0
 16 17  1  0  0  0  0
 17 22  2  0  0  0  0
 17 18  1  0  0  0  0
 18 19  2  0  0  0  0
 18 39  1  0  0  0  0
 19 20  1  0  0  0  0
 19 40  1  0  0  0  0
 20 21  2  0  0  0  0
 20 41  1  0  0  0  0
 21 22  1  0  0  0  0
 21 42  1  0  0  0  0
 23 24  2  0  0  0  0
 23 43  1  0  0  0  0
 24 44  1  0  0  0  0
M  END
> <s_m_source_file>
AV-unprocessed.smi

> <i_m_source_file_index>
2145

> <i_lp_mmshare_version>
43012

> <i_f3d_flags>
0

> <s_epik_input>
W0NIM11DKD1PKWMxW2NIXVtjSF1jKFtjSF1bY0hdMSlPW0NIMl1bQ0BIXShbT0hdKVtDSDJdbihjKG4yKVtDSDNdKWMoYzIzKVtjSF1bY0hdW2NIXVtjSF0z

> <s_epik_cmdline>
J2VwaWtfcHl0aG9uJywgJy1waCcsICc3LjAnLCAnLXRuJywgJzgnLCAnLW1hJywgJzIwMCcsICctbWV0YWxfYmluZGluZycsICctaW1hZScsICc8aW5maWxlLm1hZT4nLCAnLW9tYWUnLCAnPG91dGZpbGUubWFlPic=

> <r_lp_tautomer_probability>
0.99995

> <r_epik_Ionization_Penalty>
0.109398

> <r_epik_Ionization_Penalty_Charging>
0

> <r_epik_Ionization_Penalty_Neutral>
0.109398

> <r_epik_State_Penalty>
0.0991698

> <r_epik_Charging_Adjusted_Penalty>
0.0991698

> <i_epik_Tot_Q>
0

> <i_epik_Tot_abs_Q>
0

> <r_epik_Metal_State_Penalty>
0.000107943

> <b_epik_Metal_Only>
0

> <s_lp_Force_Field>
OPLS_2005

> <r_lp_Energy>
22.9418

> <b_lp_Chiralities_Consistent>
1

> <s_lp_Variant>
AV-unprocessed.smi:2145-2

> <Gold.Version>
5.8.1

> <Gold.Id.Protein>
6NUR|6NUR_protein|mol2

> <Gold.PLP.Fitness>
51.3485

> <Gold.PLP.PLP>
-50.1875

> <Gold.PLP.part.hbond>
-2.5866

> <Gold.PLP.part.metal>
0.0000

> <Gold.PLP.part.buried>
-6.0398

> <Gold.PLP.part.nonpolar>
-40.8572

> <Gold.PLP.part.repulsive>
0.1839

> <Gold.PLP.ligand.clash>
0.0000

> <Gold.PLP.ligand.torsion>
1.7332

> <Gold.PLP.Chemscore.Hbond>
1.4618

> <Gold.PLP.Chemscore.CHOScore>
0.0000

> <Gold.PLP.Chemscore.Metal>
0.0000

> <Gold.Chemscore.Hbonds>
donor molecule, donor type, donor heavy atom, donor atom, acceptor molecule, acceptor atom, score
      P1  H  7989  7998       L1    11  0.55
      P1  H  7997  8009       L1    16  0.79

> <Gold.PLP.Chemscore.Internal.Correction>
0.2421

> <Gold.Rescore>
     Score         DG    S(hbond)    S(metal)    S(lipo)     H(rot)  DE(clash)    DE(int)     intcor
     14.56     -17.05       0.81        0.00     124.23       2.22       0.15       2.34       ----

> <Gold.Chemscore.Fitness>
14.5587

> <Gold.Chemscore.DG>
-17.0450

> <Gold.Chemscore.ZeroCoef>
-5.4800

> <Gold.Chemscore.Hbond>
0.8103

> <Gold.Chemscore.Metal>
0.0000

> <Gold.Chemscore.Lipo>
124.2348

> <Gold.Chemscore.Internal_Hbond>
0.0000

> <Gold.Chemscore.DEClash>
0.1503

> <Gold.Chemscore.DEInternal>
2.3361

> <Gold.Chemscore.Rot>
2.2176

> <Gold.Chemscore.Internal.Correction>
   9.000000E+99

> <Gold.Chemscore.Hbonds>
donor molecule, donor type, donor heavy atom, donor atom, acceptor molecule, acceptor atom, score
      P1  H  7989  7998       L1    11  0.27
      P1  H  7997  8009       L1    16  0.11

> <Gold.Chemscore.Hbond.Weighted>
-2.7065

> <Gold.Chemscore.Metal.Weighted>
-0.0000

> <Gold.Chemscore.Lipo.Weighted>
-14.5355

> <Gold.Chemscore.Internal_Hbond.Weighted>
0.0000

> <Gold.Chemscore.DEClash.Weighted>
0.1503

> <Gold.Chemscore.DEInternal.Weighted>
2.3361

> <Gold.Chemscore.Rot.Weighted>
5.6769

> <Gold.Chemscore.Internal.Correction.Weighted>
   9.000000E+99

> <Gold.Protein.RotatedTorsions>
[ 6907 6896 6895 6894 ] final -163.76 input  -60.11 | X-H torsion
[ 7974 7965 7964 7962 ] final   92.38 input  175.53 | X-H torsion
[ 8008 7997 7996 7995 ] final -177.04 input   59.86 | X-H torsion
[ 10167 10162 10161 10158 ] final  122.86 input  -65.29 | X-H torsion
[ 10718 10713 10712 10709 ] final  -43.28 input   66.30 | X-H torsion
[ 10763 10752 10751 10750 ] final  -72.01 input  -60.55 | X-H torsion
[ 11005 11000 10999 10996 ] final -135.43 input  -57.11 | X-H torsion

> <Gold.Protein.ActiveResidues>
 VAL166  LYS551  ARG553  GLY616  TRP617  ASP618  TYR619  PRO620  LYS621  CYS622 
 ASP623  PHE694  ASN695  SER759  ASP760  ASP761  ALA762  ILE779  LEU786  VAL792 
 PHE793  MET794  SER795  GLU796  ALA797  LYS798  CYS799  TRP800  GLU811  SER814 

> <Gold.Protein.RotatedAtoms>
  151.4012  133.3757  159.2732 H   0  0  0  0  0  0  0  0  0  0  0  0  # atno 6907 bound_to 6896
  150.9432  134.8841  159.7636 H   0  0  0  0  0  0  0  0  0  0  0  0  # atno 6908 bound_to 6896
  152.5080  134.3963  159.9453 H   0  0  0  0  0  0  0  0  0  0  0  0  # atno 6909 bound_to 6896
  145.4930  139.2276  143.2819 H   0  0  0  0  0  0  0  0  0  0  0  0  # atno 7974 bound_to 7965
  156.0022  140.1223  157.0536 H   0  0  0  0  0  0  0  0  0  0  0  0  # atno 8008 bound_to 7997
  154.4246  140.1104  156.5781 H   0  0  0  0  0  0  0  0  0  0  0  0  # atno 8009 bound_to 7997
  155.6197  140.3472  155.4650 H   0  0  0  0  0  0  0  0  0  0  0  0  # atno 8010 bound_to 7997
  139.5833  144.6996  151.3472 H   0  0  0  0  0  0  0  0  0  0  0  0  # atno 10167 bound_to 10162
  156.2507  130.4188  149.8653 H   0  0  0  0  0  0  0  0  0  0  0  0  # atno 10718 bound_to 10713
  154.4398  135.5943  153.6122 H   0  0  0  0  0  0  0  0  0  0  0  0  # atno 10763 bound_to 10752
  152.9804  135.5995  154.3737 H   0  0  0  0  0  0  0  0  0  0  0  0  # atno 10764 bound_to 10752
  154.3585  135.2841  155.2311 H   0  0  0  0  0  0  0  0  0  0  0  0  # atno 10765 bound_to 10752
  140.8899  134.1825  157.4535 H   0  0  0  0  0  0  0  0  0  0  0  0  # atno 11005 bound_to 11000
  146.2272  140.5725  142.8991 LP  0  0  0  0  0  0  0  0  0  0  0  0  # atno 17320 bound_to 7965
  144.7823  140.5865  143.6597 LP  0  0  0  0  0  0  0  0  0  0  0  0  # atno 17321 bound_to 7965
  140.7109  143.7393  150.7565 LP  0  0  0  0  0  0  0  0  0  0  0  0  # atno 17342 bound_to 10162
  140.0932  143.4858  152.2467 LP  0  0  0  0  0  0  0  0  0  0  0  0  # atno 17343 bound_to 10162
  156.6202  130.8623  151.3474 LP  0  0  0  0  0  0  0  0  0  0  0  0  # atno 17370 bound_to 10713
  157.7213  130.9562  150.1451 LP  0  0  0  0  0  0  0  0  0  0  0  0  # atno 17371 bound_to 10713
  139.8728  134.9854  156.5279 LP  0  0  0  0  0  0  0  0  0  0  0  0  # atno 17394 bound_to 11000
  140.8360  133.8242  155.9029 LP  0  0  0  0  0  0  0  0  0  0  0  0  # atno 17395 bound_to 11000

$$$$
