AV-unprocessed.smi:198|AV-procd|sdf|1552|dock3
  -GOLD-   2262019423D 1   1.00000     0.00000
 Structure written by MMmdl.
 59 63  0  0  0  0  0  0  0  0  2 V2000
  154.9262  140.3439  162.1139 C   0  0  0  0  0  0  0  0  0  0  0  0
  154.3518  140.6917  160.7966 N   0  3  1  0  0  0  0  0  0  0  0  0
  153.6361  139.5523  160.1728 C   0  0  0  0  0  0  0  0  0  0  0  0
  153.1484  139.9100  158.7594 C   0  0  0  0  0  0  0  0  0  0  0  0
  152.2421  141.1639  158.7826 C   0  0  1  0  0  0  0  0  0  0  0  0
  153.0392  142.3167  159.4406 C   0  0  1  0  0  0  0  0  0  0  0  0
  152.2127  143.6127  159.4607 C   0  0  0  0  0  0  0  0  0  0  0  0
  151.7723  143.9708  158.0362 C   0  0  0  0  0  0  0  0  0  0  0  0
  151.0003  142.8060  157.4003 C   0  0  0  0  0  0  0  0  0  0  0  0
  151.7705  141.5627  157.4467 N   0  0  0  0  0  0  0  0  0  0  0  0
  151.1598  140.6135  156.6976 C   0  0  0  0  0  0  0  0  0  0  0  0
  151.1185  140.7292  155.3436 N   0  0  0  0  0  0  0  0  0  0  0  0
  150.5224  139.7835  154.6112 C   0  0  0  0  0  0  0  0  0  0  0  0
  149.9246  138.6632  155.0221 N   0  0  0  0  0  0  0  0  0  0  0  0
  149.9777  138.5367  156.3799 C   0  0  0  0  0  0  0  0  0  0  0  0
  150.5759  139.4593  157.2830 C   0  0  0  0  0  0  0  0  0  0  0  0
  150.4428  139.0073  158.5887 N   0  0  0  0  0  0  0  0  0  0  0  0
  149.7981  137.8791  158.4666 C   0  0  0  0  0  0  0  0  0  0  0  0
  149.4772  137.5182  157.1760 N   0  0  0  0  0  0  0  0  0  0  0  0
  148.7656  136.3364  156.7756 C   0  0  0  0  0  0  0  0  0  0  0  0
  149.4366  134.9612  156.7541 C   0  0  0  0  0  0  0  0  0  0  0  0
  148.5509  134.5590  155.5514 C   0  0  0  0  0  0  0  0  0  0  0  0
  149.2872  133.7653  154.4580 C   0  0  0  0  0  0  0  0  0  0  0  0
  148.5199  133.6519  153.2771 O   0  0  0  0  0  0  0  0  0  0  0  0
  147.2656  133.8044  155.9532 C   0  0  0  0  0  0  0  0  0  0  0  0
  146.3973  133.6004  154.8574 O   0  0  0  0  0  0  0  0  0  0  0  0
  148.4113  136.0806  155.3106 C   0  0  0  0  0  0  0  0  0  0  0  0
  153.5127  141.9138  160.8495 C   0  0  0  0  0  0  0  0  0  0  0  0
  154.1419  140.0950  162.8299 H   0  0  0  0  0  0  0  0  0  0  0  0
  155.5037  141.1776  162.5149 H   0  0  0  0  0  0  0  0  0  0  0  0
  155.5961  139.4879  162.0278 H   0  0  0  0  0  0  0  0  0  0  0  0
  154.3010  138.6893  160.1202 H   0  0  0  0  0  0  0  0  0  0  0  0
  152.7903  139.2637  160.7992 H   0  0  0  0  0  0  0  0  0  0  0  0
  154.0062  140.0842  158.1082 H   0  0  0  0  0  0  0  0  0  0  0  0
  152.6231  139.0483  158.3483 H   0  0  0  0  0  0  0  0  0  0  0  0
  151.3660  140.9541  159.3990 H   0  0  0  0  0  0  0  0  0  0  0  0
  153.9273  142.5066  158.8346 H   0  0  0  0  0  0  0  0  0  0  0  0
  151.3367  143.4894  160.0989 H   0  0  0  0  0  0  0  0  0  0  0  0
  152.7978  144.4298  159.8838 H   0  0  0  0  0  0  0  0  0  0  0  0
  151.1523  144.8675  158.0485 H   0  0  0  0  0  0  0  0  0  0  0  0
  152.6468  144.2055  157.4278 H   0  0  0  0  0  0  0  0  0  0  0  0
  150.0543  142.6609  157.9246 H   0  0  0  0  0  0  0  0  0  0  0  0
  150.7537  143.0590  156.3679 H   0  0  0  0  0  0  0  0  0  0  0  0
  150.5240  139.9473  153.5435 H   0  0  0  0  0  0  0  0  0  0  0  0
  149.5355  137.2763  159.3240 H   0  0  0  0  0  0  0  0  0  0  0  0
  147.8613  136.2984  157.3856 H   0  0  0  0  0  0  0  0  0  0  0  0
  150.4982  135.0090  156.5080 H   0  0  0  0  0  0  0  0  0  0  0  0
  149.2787  134.3717  157.6577 H   0  0  0  0  0  0  0  0  0  0  0  0
  150.2228  134.2564  154.1887 H   0  0  0  0  0  0  0  0  0  0  0  0
  149.5546  132.7668  154.8048 H   0  0  0  0  0  0  0  0  0  0  0  0
  148.6269  134.4424  152.7706 H   0  0  0  0  0  0  0  0  0  0  0  0
  147.5008  132.8364  156.3969 H   0  0  0  0  0  0  0  0  0  0  0  0
  146.7079  134.3546  156.7113 H   0  0  0  0  0  0  0  0  0  0  0  0
  146.1365  132.6924  154.8444 H   0  0  0  0  0  0  0  0  0  0  0  0
  147.4134  136.4141  155.0252 H   0  0  0  0  0  0  0  0  0  0  0  0
  149.1601  136.4678  154.6179 H   0  0  0  0  0  0  0  0  0  0  0  0
  152.6570  141.7449  161.5056 H   0  0  0  0  0  0  0  0  0  0  0  0
  154.0929  142.7276  161.2869 H   0  0  0  0  0  0  0  0  0  0  0  0
  155.1318  140.9059  160.1915 H   0  0  0  0  0  0  0  0  0  0  0  0
  1  2  1  0  0  0  0
  1 29  1  0  0  0  0
  1 30  1  0  0  0  0
  1 31  1  0  0  0  0
  2 28  1  0  0  0  0
  2  3  1  0  0  0  0
  2 59  1  0  0  0  0
  3  4  1  0  0  0  0
  3 32  1  0  0  0  0
  3 33  1  0  0  0  0
  4  5  1  0  0  0  0
  4 34  1  0  0  0  0
  4 35  1  0  0  0  0
  5 10  1  0  0  0  0
  5  6  1  0  0  0  0
  5 36  1  0  0  0  0
  6  7  1  0  0  0  0
  6 28  1  0  0  0  0
  6 37  1  0  0  0  0
  7  8  1  0  0  0  0
  7 38  1  0  0  0  0
  7 39  1  0  0  0  0
  8  9  1  0  0  0  0
  8 40  1  0  0  0  0
  8 41  1  0  0  0  0
  9 10  1  0  0  0  0
  9 42  1  0  0  0  0
  9 43  1  0  0  0  0
 10 11  1  0  0  0  0
 11 16  1  0  0  0  0
 11 12  2  0  0  0  0
 12 13  1  0  0  0  0
 13 14  2  0  0  0  0
 13 44  1  0  0  0  0
 14 15  1  0  0  0  0
 15 19  1  0  0  0  0
 15 16  2  0  0  0  0
 16 17  1  0  0  0  0
 17 18  2  0  0  0  0
 18 19  1  0  0  0  0
 18 45  1  0  0  0  0
 19 20  1  0  0  0  0
 20 27  1  0  0  0  0
 20 21  1  0  0  0  0
 20 46  1  0  0  0  0
 21 22  1  0  0  0  0
 21 47  1  0  0  0  0
 21 48  1  0  0  0  0
 22 23  1  0  0  0  0
 22 25  1  0  0  0  0
 22 27  1  0  0  0  0
 23 24  1  0  0  0  0
 23 49  1  0  0  0  0
 23 50  1  0  0  0  0
 24 51  1  0  0  0  0
 25 26  1  0  0  0  0
 25 52  1  0  0  0  0
 25 53  1  0  0  0  0
 26 54  1  0  0  0  0
 27 55  1  0  0  0  0
 27 56  1  0  0  0  0
 28 57  1  0  0  0  0
 28 58  1  0  0  0  0
M  CHG  1   2   1
M  END
> <s_m_source_file>
AV-unprocessed.smi

> <i_m_source_file_index>
198

> <i_lp_mmshare_version>
43012

> <i_f3d_flags>
0

> <s_epik_input>
W0NIMl0xW0NIMl1OKFtDSDNdKVtDSDJdW0NAQEhdKFtDQEhdMTIpW0NIMl1bQ0gyXVtDSDJdTjJjKG5bY0hdbjMpYyhjMzQpbltjSF1uNFtDSF0oW0NIMl01KVtDSDJdQzUoW0NIMl1bT0hdKVtDSDJdW09IXQ==

> <s_epik_cmdline>
J2VwaWtfcHl0aG9uJywgJy1waCcsICc3LjAnLCAnLXRuJywgJzgnLCAnLW1hJywgJzIwMCcsICctbWV0YWxfYmluZGluZycsICctaW1hZScsICc8aW5maWxlLm1hZT4nLCAnLW9tYWUnLCAnPG91dGZpbGUubWFlPic=

> <r_lp_tautomer_probability>
1

> <r_epik_Ionization_Penalty>
0.00239938

> <r_epik_Ionization_Penalty_Charging>
0.00138697

> <r_epik_Ionization_Penalty_Neutral>
0.00101241

> <r_epik_State_Penalty>
-0

> <r_epik_Charging_Adjusted_Penalty>
0.00138697

> <i_epik_Tot_Q>
1

> <i_epik_Tot_abs_Q>
1

> <r_epik_Metal_State_Penalty>
-0

> <b_epik_Metal_Only>
0

> <s_lp_Force_Field>
OPLS_2005

> <r_lp_Energy>
56.2866

> <b_lp_Chiralities_Consistent>
1

> <s_lp_Variant>
AV-unprocessed.smi:198-1

> <Gold.Version>
5.8.1

> <Gold.Id.Protein>
6NUR|6NUR_protein|mol2

> <Gold.PLP.Fitness>
44.4256

> <Gold.PLP.PLP>
-39.2525

> <Gold.PLP.part.hbond>
-2.0000

> <Gold.PLP.part.metal>
0.0000

> <Gold.PLP.part.buried>
-1.1344

> <Gold.PLP.part.nonpolar>
-34.9886

> <Gold.PLP.part.repulsive>
0.2019

> <Gold.PLP.ligand.clash>
0.0000

> <Gold.PLP.ligand.torsion>
0.7371

> <Gold.PLP.Chemscore.Hbond>
1.0000

> <Gold.PLP.Chemscore.CHOScore>
1.0000

> <Gold.PLP.Chemscore.Metal>
0.0000

> <Gold.Chemscore.Hbonds>
donor molecule, donor type, donor heavy atom, donor atom, acceptor molecule, acceptor atom, score
      L1  H    24    51       P1  7948  0.70
      L1  C    13    44       P1  7957  0.97

> <Gold.PLP.Chemscore.Internal.Correction>
0.6473

> <Gold.Rescore>
     Score         DG    S(hbond)    S(metal)    S(lipo)     H(rot)  DE(clash)    DE(int)     intcor
      7.23     -12.60       0.96        0.00     100.75       3.08       0.07       5.30       ----

> <Gold.Chemscore.Fitness>
7.2322

> <Gold.Chemscore.DG>
-12.5951

> <Gold.Chemscore.ZeroCoef>
-5.4800

> <Gold.Chemscore.Hbond>
0.9603

> <Gold.Chemscore.Metal>
0.0000

> <Gold.Chemscore.Lipo>
100.7485

> <Gold.Chemscore.Internal_Hbond>
0.0000

> <Gold.Chemscore.DEClash>
0.0659

> <Gold.Chemscore.DEInternal>
5.2971

> <Gold.Chemscore.Rot>
3.0781

> <Gold.Chemscore.Internal.Correction>
   9.000000E+99

> <Gold.Chemscore.Hbonds>
donor molecule, donor type, donor heavy atom, donor atom, acceptor molecule, acceptor atom, score
      L1  H    24    51       P1  7948  0.07

> <Gold.Chemscore.Hbond.Weighted>
-3.2075

> <Gold.Chemscore.Metal.Weighted>
-0.0000

> <Gold.Chemscore.Lipo.Weighted>
-11.7876

> <Gold.Chemscore.Internal_Hbond.Weighted>
0.0000

> <Gold.Chemscore.DEClash.Weighted>
0.0659

> <Gold.Chemscore.DEInternal.Weighted>
5.2971

> <Gold.Chemscore.Rot.Weighted>
7.8800

> <Gold.Chemscore.Internal.Correction.Weighted>
   9.000000E+99

> <Gold.Protein.RotatedTorsions>
[ 6907 6896 6895 6894 ] final -177.32 input  -60.11 | X-H torsion
[ 7974 7965 7964 7962 ] final  -96.21 input  175.53 | X-H torsion
[ 8008 7997 7996 7995 ] final  -48.24 input   59.86 | X-H torsion
[ 10167 10162 10161 10158 ] final  -94.11 input  -65.29 | X-H torsion
[ 10718 10713 10712 10709 ] final  -59.51 input   66.30 | X-H torsion
[ 10763 10752 10751 10750 ] final  154.64 input  -60.55 | X-H torsion
[ 11005 11000 10999 10996 ] final  130.27 input  -57.11 | X-H torsion

> <Gold.Protein.ActiveResidues>
 VAL166  LYS551  ARG553  GLY616  TRP617  ASP618  TYR619  PRO620  LYS621  CYS622 
 ASP623  PHE694  ASN695  SER759  ASP760  ASP761  ALA762  ILE779  LEU786  VAL792 
 PHE793  MET794  SER795  GLU796  ALA797  LYS798  CYS799  TRP800  GLU811  SER814 

> <Gold.Protein.RotatedAtoms>
  151.6190  133.3340  159.3083 H   0  0  0  0  0  0  0  0  0  0  0  0  # atno 6907 bound_to 6896
  150.8116  134.7277  159.6704 H   0  0  0  0  0  0  0  0  0  0  0  0  # atno 6908 bound_to 6896
  152.4212  134.5956  160.0037 H   0  0  0  0  0  0  0  0  0  0  0  0  # atno 6909 bound_to 6896
  145.3498  140.9474  143.2560 H   0  0  0  0  0  0  0  0  0  0  0  0  # atno 7974 bound_to 7965
  154.4026  140.1326  156.4306 H   0  0  0  0  0  0  0  0  0  0  0  0  # atno 8008 bound_to 7997
  155.7554  140.3487  155.5151 H   0  0  0  0  0  0  0  0  0  0  0  0  # atno 8009 bound_to 7997
  155.8909  140.1003  157.1409 H   0  0  0  0  0  0  0  0  0  0  0  0  # atno 8010 bound_to 7997
  140.3178  143.3067  152.0079 H   0  0  0  0  0  0  0  0  0  0  0  0  # atno 10167 bound_to 10162
  156.1057  130.4181  150.0725 H   0  0  0  0  0  0  0  0  0  0  0  0  # atno 10718 bound_to 10713
  154.1556  135.2812  155.3123 H   0  0  0  0  0  0  0  0  0  0  0  0  # atno 10763 bound_to 10752
  154.6185  135.5475  153.7553 H   0  0  0  0  0  0  0  0  0  0  0  0  # atno 10764 bound_to 10752
  153.0208  135.6433  154.1699 H   0  0  0  0  0  0  0  0  0  0  0  0  # atno 10765 bound_to 10752
  139.9662  134.9590  156.9270 H   0  0  0  0  0  0  0  0  0  0  0  0  # atno 11005 bound_to 11000
  144.8726  139.5016  143.6760 LP  0  0  0  0  0  0  0  0  0  0  0  0  # atno 17320 bound_to 7965
  146.2972  139.7316  142.9117 LP  0  0  0  0  0  0  0  0  0  0  0  0  # atno 17321 bound_to 7965
  139.4880  144.6335  151.7023 LP  0  0  0  0  0  0  0  0  0  0  0  0  # atno 17342 bound_to 10162
  140.5511  144.0424  150.6127 LP  0  0  0  0  0  0  0  0  0  0  0  0  # atno 17343 bound_to 10162
  156.8701  130.9521  151.3610 LP  0  0  0  0  0  0  0  0  0  0  0  0  # atno 17370 bound_to 10713
  157.6233  130.8672  149.9146 LP  0  0  0  0  0  0  0  0  0  0  0  0  # atno 17371 bound_to 10713
  140.5390  134.0738  155.7336 LP  0  0  0  0  0  0  0  0  0  0  0  0  # atno 17394 bound_to 11000
  141.1342  133.9250  157.2470 LP  0  0  0  0  0  0  0  0  0  0  0  0  # atno 17395 bound_to 11000

$$$$
