AV-unprocessed.smi:35|AV-procd|sdf|262|dock6
  -GOLD-   2262016 23D 1   1.00000     0.00000
 Structure written by MMmdl.
 29 30  0  0  0  0  0  0  0  0  1 V2000
  151.7651  137.0451  159.2104 O   0  0  0  0  0  0  0  0  0  0  0  0
  151.3083  137.6131  158.2209 C   0  0  0  0  0  0  0  0  0  0  0  0
  152.1598  138.2682  157.3275 N   0  0  0  0  0  0  0  0  0  0  0  0
  151.7584  138.9498  156.1773 C   0  0  0  0  0  0  0  0  0  0  0  0
  152.6000  139.4783  155.4516 O   0  0  0  0  0  0  0  0  0  0  0  0
  150.3733  138.9991  155.8995 N   0  0  0  0  0  0  0  0  0  0  0  0
  149.9218  139.7228  154.6422 C   0  0  1  0  0  0  0  0  0  0  0  0
  149.2056  138.8418  153.8275 O   0  0  0  0  0  0  0  0  0  0  0  0
  147.8095  139.0077  154.0542 C   0  0  2  0  0  0  0  0  0  0  0  0
  146.9792  138.3681  152.9284 C   0  0  0  0  0  0  0  0  0  0  0  0
  147.5863  138.6241  151.6798 O   0  0  0  0  0  0  0  0  0  0  0  0
  147.6961  140.5290  154.1874 C   0  0  2  0  0  0  0  0  0  0  0  0
  147.6731  141.1395  152.9068 O   0  0  0  0  0  0  0  0  0  0  0  0
  148.9522  140.8779  154.9861 C   0  0  2  0  0  0  0  0  0  0  0  0
  149.4621  142.1597  154.6669 O   0  0  0  0  0  0  0  0  0  0  0  0
  149.4910  138.3361  156.7475 C   0  0  0  0  0  0  0  0  0  0  0  0
  149.8976  137.6752  157.8571 C   0  0  0  0  0  0  0  0  0  0  0  0
  148.4838  136.8019  158.9360 Br  0  0  0  0  0  0  0  0  0  0  0  0
  153.1488  138.2416  157.5288 H   0  0  0  0  0  0  0  0  0  0  0  0
  150.8400  140.0275  154.1363 H   0  0  0  0  0  0  0  0  0  0  0  0
  147.5396  138.5634  155.0142 H   0  0  0  0  0  0  0  0  0  0  0  0
  146.9412  137.2862  153.0578 H   0  0  0  0  0  0  0  0  0  0  0  0
  145.9521  138.7342  152.9314 H   0  0  0  0  0  0  0  0  0  0  0  0
  148.2219  139.3145  151.7912 H   0  0  0  0  0  0  0  0  0  0  0  0
  146.7893  140.8210  154.7182 H   0  0  0  0  0  0  0  0  0  0  0  0
  148.3103  140.7052  152.3599 H   0  0  0  0  0  0  0  0  0  0  0  0
  148.7134  140.8459  156.0504 H   0  0  0  0  0  0  0  0  0  0  0  0
  149.0986  142.7841  155.2767 H   0  0  0  0  0  0  0  0  0  0  0  0
  148.4323  138.3269  156.5375 H   0  0  0  0  0  0  0  0  0  0  0  0
  1  2  2  0  0  0  0
  2 17  1  0  0  0  0
  2  3  1  0  0  0  0
  3 19  1  0  0  0  0
  3  4  1  0  0  0  0
  4  5  2  0  0  0  0
  4  6  1  0  0  0  0
  6  7  1  0  0  0  0
  6 16  1  0  0  0  0
  7 14  1  0  0  0  0
  7  8  1  0  0  0  0
  7 20  1  0  0  0  0
  8  9  1  0  0  0  0
  9 10  1  0  0  0  0
  9 12  1  0  0  0  0
  9 21  1  0  0  0  0
 10 11  1  0  0  0  0
 10 22  1  0  0  0  0
 10 23  1  0  0  0  0
 11 24  1  0  0  0  0
 12 13  1  0  0  0  0
 12 14  1  0  0  0  0
 12 25  1  0  0  0  0
 13 26  1  0  0  0  0
 14 15  1  0  0  0  0
 14 27  1  0  0  0  0
 15 28  1  0  0  0  0
 16 17  2  0  0  0  0
 16 29  1  0  0  0  0
 17 18  1  0  0  0  0
M  END
> <s_m_source_file>
AV-unprocessed.smi

> <i_m_source_file_index>
35

> <i_lp_mmshare_version>
43012

> <i_f3d_flags>
0

> <s_epik_input>
Tz1jMVtuSF1jKD1PKW4oW2NIXWMxQnIpW0NAQEhdMk9bQ0BASF0oW0NIMl1bT0hdKVtDQEBIXShbT0hdKVtDQEhdMltPSF0=

> <s_epik_cmdline>
J2VwaWtfcHl0aG9uJywgJy1waCcsICc3LjAnLCAnLXRuJywgJzgnLCAnLW1hJywgJzIwMCcsICctbWV0YWxfYmluZGluZycsICctaW1hZScsICc8aW5maWxlLm1hZT4nLCAnLW9tYWUnLCAnPG91dGZpbGUubWFlPic=

> <r_lp_tautomer_probability>
0.999537

> <r_epik_Ionization_Penalty>
0.10812

> <r_epik_Ionization_Penalty_Charging>
0.108119

> <r_epik_Ionization_Penalty_Neutral>
4.93006e-07

> <r_epik_State_Penalty>
0.0979238

> <r_epik_Charging_Adjusted_Penalty>
0.206043

> <i_epik_Tot_Q>
0

> <i_epik_Tot_abs_Q>
0

> <r_epik_Metal_State_Penalty>
3.07911

> <b_epik_Metal_Only>
0

> <s_epik_Chemistry_Notes>
This compound contains an acetal/aminal-like group ( X-CH(R)-Y where X, Y are N, S, or O) that may be acid/base labile, releasing an aldehyde.

> <s_lp_Force_Field>
OPLS_2005

> <r_lp_Energy>
32.933

> <b_lp_Chiralities_Consistent>
1

> <s_lp_Variant>
AV-unprocessed.smi:35-16

> <Gold.Version>
5.8.1

> <Gold.Id.Protein>
6NUR|6NUR_protein|mol2

> <Gold.PLP.Fitness>
38.5832

> <Gold.PLP.PLP>
-21.6834

> <Gold.PLP.part.hbond>
-8.4551

> <Gold.PLP.part.metal>
0.0000

> <Gold.PLP.part.buried>
-0.2056

> <Gold.PLP.part.nonpolar>
-13.6385

> <Gold.PLP.part.repulsive>
1.6403

> <Gold.PLP.ligand.clash>
0.0000

> <Gold.PLP.ligand.torsion>
0.1584

> <Gold.PLP.Chemscore.Hbond>
5.7309

> <Gold.PLP.Chemscore.CHOScore>
0.0000

> <Gold.PLP.Chemscore.Metal>
0.0000

> <Gold.Chemscore.Hbonds>
donor molecule, donor type, donor heavy atom, donor atom, acceptor molecule, acceptor atom, score
      L1  H    11    24       P1  7957  0.88
      L1  H    13    26       P1  7957  1.00
      L1  H    15    28       P1  8028  0.88
      P1  H  6896  6908       L1     1  0.99
      P1  H  7954  7966       L1    11  0.98
      P1  H  7997  8008       L1     5  1.00
      P1  H  8011  8017       L1    15  0.04

> <Gold.PLP.Chemscore.Internal.Correction>
0.0239

> <Gold.Rescore>
     Score         DG    S(hbond)    S(metal)    S(lipo)     H(rot)  DE(clash)    DE(int)     intcor
     13.17     -15.87       4.85        0.00      30.80       3.67       2.45       0.25       ----

> <Gold.Chemscore.Fitness>
13.1720

> <Gold.Chemscore.DG>
-15.8713

> <Gold.Chemscore.ZeroCoef>
-5.4800

> <Gold.Chemscore.Hbond>
4.8452

> <Gold.Chemscore.Metal>
0.0000

> <Gold.Chemscore.Lipo>
30.8008

> <Gold.Chemscore.Internal_Hbond>
0.0000

> <Gold.Chemscore.DEClash>
2.4482

> <Gold.Chemscore.DEInternal>
0.2512

> <Gold.Chemscore.Rot>
3.6701

> <Gold.Chemscore.Internal.Correction>
   9.000000E+99

> <Gold.Chemscore.Hbonds>
donor molecule, donor type, donor heavy atom, donor atom, acceptor molecule, acceptor atom, score
      L1  H    11    24       P1  7957  0.86
      L1  H    13    26       P1  7957  1.00
      L1  H    15    28       P1  8028  0.85
      P1  H  6896  6908       L1     1  0.91
      P1  H  7954  7966       L1    11  0.22
      P1  H  7997  8008       L1     5  0.96
      P1  H  8011  8017       L1    15  0.04

> <Gold.Chemscore.Hbond.Weighted>
-16.1831

> <Gold.Chemscore.Metal.Weighted>
-0.0000

> <Gold.Chemscore.Lipo.Weighted>
-3.6037

> <Gold.Chemscore.Internal_Hbond.Weighted>
0.0000

> <Gold.Chemscore.DEClash.Weighted>
2.4482

> <Gold.Chemscore.DEInternal.Weighted>
0.2512

> <Gold.Chemscore.Rot.Weighted>
9.3955

> <Gold.Chemscore.Internal.Correction.Weighted>
   9.000000E+99

> <Gold.Protein.RotatedTorsions>
[ 6907 6896 6895 6894 ] final -125.13 input  -60.11 | X-H torsion
[ 7974 7965 7964 7962 ] final  110.19 input  175.53 | X-H torsion
[ 8008 7997 7996 7995 ] final  -29.11 input   59.86 | X-H torsion
[ 10167 10162 10161 10158 ] final   64.80 input  -65.29 | X-H torsion
[ 10718 10713 10712 10709 ] final -111.67 input   66.30 | X-H torsion
[ 10763 10752 10751 10750 ] final   21.02 input  -60.55 | X-H torsion
[ 11005 11000 10999 10996 ] final  159.76 input  -57.11 | X-H torsion

> <Gold.Protein.ActiveResidues>
 VAL166  LYS551  ARG553  GLY616  TRP617  ASP618  TYR619  PRO620  LYS621  CYS622 
 ASP623  PHE694  ASN695  SER759  ASP760  ASP761  ALA762  ILE779  LEU786  VAL792 
 PHE793  MET794  SER795  GLU796  ALA797  LYS798  CYS799  TRP800  GLU811  SER814 

> <Gold.Protein.RotatedAtoms>
  150.8837  133.7337  159.2924 H   0  0  0  0  0  0  0  0  0  0  0  0  # atno 6907 bound_to 6896
  151.4910  135.1056  159.9813 H   0  0  0  0  0  0  0  0  0  0  0  0  # atno 6908 bound_to 6896
  152.4776  133.8130  159.7069 H   0  0  0  0  0  0  0  0  0  0  0  0  # atno 6909 bound_to 6896
  145.2582  139.2713  143.4031 H   0  0  0  0  0  0  0  0  0  0  0  0  # atno 7974 bound_to 7965
  154.4304  140.1827  156.1195 H   0  0  0  0  0  0  0  0  0  0  0  0  # atno 8008 bound_to 7997
  156.0154  140.3346  155.6958 H   0  0  0  0  0  0  0  0  0  0  0  0  # atno 8009 bound_to 7997
  155.6052  140.0644  157.2712 H   0  0  0  0  0  0  0  0  0  0  0  0  # atno 8010 bound_to 7997
  140.1183  144.4755  150.6936 H   0  0  0  0  0  0  0  0  0  0  0  0  # atno 10167 bound_to 10162
  156.0661  130.5880  150.8405 H   0  0  0  0  0  0  0  0  0  0  0  0  # atno 10718 bound_to 10713
  153.1029  135.6677  153.9640 H   0  0  0  0  0  0  0  0  0  0  0  0  # atno 10763 bound_to 10752
  153.9205  135.3015  155.3449 H   0  0  0  0  0  0  0  0  0  0  0  0  # atno 10764 bound_to 10752
  154.7450  135.5062  153.9264 H   0  0  0  0  0  0  0  0  0  0  0  0  # atno 10765 bound_to 10752
  140.1994  134.8349  157.3000 H   0  0  0  0  0  0  0  0  0  0  0  0  # atno 11005 bound_to 11000
  146.3283  140.2991  142.8619 LP  0  0  0  0  0  0  0  0  0  0  0  0  # atno 17320 bound_to 7965
  144.9442  140.8111  143.5612 LP  0  0  0  0  0  0  0  0  0  0  0  0  # atno 17321 bound_to 7965
  140.6887  143.2364  151.5191 LP  0  0  0  0  0  0  0  0  0  0  0  0  # atno 17342 bound_to 10162
  139.5582  144.2222  152.1648 LP  0  0  0  0  0  0  0  0  0  0  0  0  # atno 17343 bound_to 10162
  157.5703  131.0946  150.9428 LP  0  0  0  0  0  0  0  0  0  0  0  0  # atno 17370 bound_to 10713
  156.9646  130.5468  149.5287 LP  0  0  0  0  0  0  0  0  0  0  0  0  # atno 17371 bound_to 10713
  140.2071  134.4183  155.7632 LP  0  0  0  0  0  0  0  0  0  0  0  0  # atno 17394 bound_to 11000
  141.2227  133.7100  156.8278 LP  0  0  0  0  0  0  0  0  0  0  0  0  # atno 17395 bound_to 11000

$$$$
