AV-unprocessed.smi:2788|AV-procd|sdf|10760|dock1
  -GOLD-   2272015193D 1   1.00000     0.00000
 Structure written by MMmdl.
 47 48  0  0  0  0  0  0  0  0  1 V2000
  150.3820  130.6875  155.2949 C   0  0  0  0  0  0  0  0  0  0  0  0
  150.1669  132.0276  155.9387 C   0  0  0  0  0  0  0  0  0  0  0  0
  150.4604  132.1847  157.2181 N   0  0  0  0  0  0  0  0  0  0  0  0
  150.1722  133.5197  157.5167 O   0  0  0  0  0  0  0  0  0  0  0  0
  149.7131  134.1222  156.3908 C   0  0  0  0  0  0  0  0  0  0  0  0
  149.3592  135.5665  156.5021 C   0  0  0  0  0  0  0  0  0  0  0  0
  149.6841  133.2335  155.3516 C   0  0  0  0  0  0  0  0  0  0  0  0
  149.2556  133.4735  153.9258 C   0  0  0  0  0  0  0  0  0  0  0  0
  147.7297  133.4969  153.8386 C   0  0  0  0  0  0  0  0  0  0  0  0
  147.0678  132.8123  154.6166 O   0  0  0  0  0  0  0  0  0  0  0  0
  147.2121  134.2863  152.8789 N   0  0  0  0  0  0  0  0  0  0  0  0
  145.8173  134.5738  152.5050 C   0  0  1  0  0  0  0  0  0  0  0  0
  144.8078  133.9936  153.5330 C   0  0  0  0  0  0  0  0  0  0  0  0
  145.7035  136.1212  152.6044 C   0  0  0  0  0  0  0  0  0  0  0  0
  146.3291  136.7917  151.5282 O   0  0  0  0  0  0  0  0  0  0  0  0
  145.5246  134.0685  151.0444 C   0  0  0  0  0  0  0  0  0  0  0  0
  144.0750  134.3175  150.5499 C   0  0  0  0  0  0  0  0  0  0  0  0
  143.8803  133.8899  149.0867 C   0  0  0  0  0  0  0  0  0  0  0  0
  144.2390  132.4120  148.8900 C   0  0  0  0  0  0  0  0  0  0  0  0
  145.6712  132.1351  149.3632 C   0  0  0  0  0  0  0  0  0  0  0  0
  145.8751  132.5720  150.8232 C   0  0  0  0  0  0  0  0  0  0  0  0
  149.7048  130.5368  154.4545 H   0  0  0  0  0  0  0  0  0  0  0  0
  150.2134  129.8740  156.0013 H   0  0  0  0  0  0  0  0  0  0  0  0
  151.4017  130.5972  154.9199 H   0  0  0  0  0  0  0  0  0  0  0  0
  150.1915  136.1916  156.1789 H   0  0  0  0  0  0  0  0  0  0  0  0
  149.1147  135.8315  157.5308 H   0  0  0  0  0  0  0  0  0  0  0  0
  148.4964  135.8048  155.8801 H   0  0  0  0  0  0  0  0  0  0  0  0
  149.6458  134.4157  153.5403 H   0  0  0  0  0  0  0  0  0  0  0  0
  149.6392  132.6982  153.2619 H   0  0  0  0  0  0  0  0  0  0  0  0
  147.8954  134.7769  152.3208 H   0  0  0  0  0  0  0  0  0  0  0  0
  143.7856  134.2817  153.2862 H   0  0  0  0  0  0  0  0  0  0  0  0
  145.0126  134.3621  154.5387 H   0  0  0  0  0  0  0  0  0  0  0  0
  144.8128  132.9074  153.5887 H   0  0  0  0  0  0  0  0  0  0  0  0
  144.6553  136.4232  152.6263 H   0  0  0  0  0  0  0  0  0  0  0  0
  146.1328  136.4956  153.5337 H   0  0  0  0  0  0  0  0  0  0  0  0
  147.2607  136.8106  151.6861 H   0  0  0  0  0  0  0  0  0  0  0  0
  146.1670  134.6444  150.3769 H   0  0  0  0  0  0  0  0  0  0  0  0
  143.3642  133.7674  151.1652 H   0  0  0  0  0  0  0  0  0  0  0  0
  143.8090  135.3700  150.6313 H   0  0  0  0  0  0  0  0  0  0  0  0
  142.8473  134.0636  148.7840 H   0  0  0  0  0  0  0  0  0  0  0  0
  144.5009  134.5087  148.4373 H   0  0  0  0  0  0  0  0  0  0  0  0
  143.5400  131.7869  149.4474 H   0  0  0  0  0  0  0  0  0  0  0  0
  144.1327  132.1379  147.8400 H   0  0  0  0  0  0  0  0  0  0  0  0
  145.8972  131.0736  149.2586 H   0  0  0  0  0  0  0  0  0  0  0  0
  146.3768  132.6650  148.7222 H   0  0  0  0  0  0  0  0  0  0  0  0
  146.9127  132.3716  151.0850 H   0  0  0  0  0  0  0  0  0  0  0  0
  145.2658  131.9437  151.4738 H   0  0  0  0  0  0  0  0  0  0  0  0
  1  2  1  0  0  0  0
  1 22  1  0  0  0  0
  1 23  1  0  0  0  0
  1 24  1  0  0  0  0
  2  7  1  0  0  0  0
  2  3  2  0  0  0  0
  3  4  1  0  0  0  0
  4  5  1  0  0  0  0
  5  6  1  0  0  0  0
  5  7  2  0  0  0  0
  6 25  1  0  0  0  0
  6 26  1  0  0  0  0
  6 27  1  0  0  0  0
  7  8  1  0  0  0  0
  8  9  1  0  0  0  0
  8 28  1  0  0  0  0
  8 29  1  0  0  0  0
  9 10  2  0  0  0  0
  9 11  1  0  0  0  0
 11 12  1  0  0  0  0
 11 30  1  0  0  0  0
 12 13  1  0  0  0  0
 12 14  1  0  0  0  0
 12 16  1  0  0  0  0
 13 31  1  0  0  0  0
 13 32  1  0  0  0  0
 13 33  1  0  0  0  0
 14 15  1  0  0  0  0
 14 34  1  0  0  0  0
 14 35  1  0  0  0  0
 15 36  1  0  0  0  0
 16 21  1  0  0  0  0
 16 17  1  0  0  0  0
 16 37  1  0  0  0  0
 17 18  1  0  0  0  0
 17 38  1  0  0  0  0
 17 39  1  0  0  0  0
 18 19  1  0  0  0  0
 18 40  1  0  0  0  0
 18 41  1  0  0  0  0
 19 20  1  0  0  0  0
 19 42  1  0  0  0  0
 19 43  1  0  0  0  0
 20 21  1  0  0  0  0
 20 44  1  0  0  0  0
 20 45  1  0  0  0  0
 21 46  1  0  0  0  0
 21 47  1  0  0  0  0
M  END
> <s_m_source_file>
AV-unprocessed.smi

> <i_m_source_file_index>
2788

> <i_lp_mmshare_version>
43012

> <i_f3d_flags>
0

> <s_epik_input>
W0NIM11jMW5vYyhbQ0gzXSljMVtDSDJdQyg9TylbTkhdW0NAQF0oW0NIM10pKFtDSDJdW09IXSlbQ0hdMltDSDJdW0NIMl1bQ0gyXVtDSDJdW0NIMl0y

> <s_epik_cmdline>
J2VwaWtfcHl0aG9uJywgJy1waCcsICc3LjAnLCAnLXRuJywgJzgnLCAnLW1hJywgJzIwMCcsICctbWV0YWxfYmluZGluZycsICctaW1hZScsICc8aW5maWxlLm1hZT4nLCAnLW9tYWUnLCAnPG91dGZpbGUubWFlPic=

> <r_lp_tautomer_probability>
1

> <r_epik_Ionization_Penalty>
1.3408e-07

> <r_epik_Ionization_Penalty_Charging>
0

> <r_epik_Ionization_Penalty_Neutral>
1.3408e-07

> <r_epik_State_Penalty>
-0

> <r_epik_Charging_Adjusted_Penalty>
0

> <i_epik_Tot_Q>
0

> <i_epik_Tot_abs_Q>
0

> <r_epik_Metal_State_Penalty>
-0

> <b_epik_Metal_Only>
0

> <s_lp_Force_Field>
OPLS_2005

> <r_lp_Energy>
15.0378

> <b_lp_Chiralities_Consistent>
1

> <s_lp_Variant>
AV-unprocessed.smi:2788-1

> <Gold.Version>
5.8.1

> <Gold.Id.Protein>
6NUR|6NUR_protein|mol2

> <Gold.PLP.Fitness>
40.7917

> <Gold.PLP.PLP>
-33.6756

> <Gold.PLP.part.hbond>
-3.0000

> <Gold.PLP.part.metal>
0.0000

> <Gold.PLP.part.buried>
-0.3895

> <Gold.PLP.part.nonpolar>
-30.5853

> <Gold.PLP.part.repulsive>
0.0246

> <Gold.PLP.ligand.clash>
0.0000

> <Gold.PLP.ligand.torsion>
0.9065

> <Gold.PLP.Chemscore.Hbond>
2.9440

> <Gold.PLP.Chemscore.CHOScore>
0.0000

> <Gold.PLP.Chemscore.Metal>
0.0000

> <Gold.Chemscore.Hbonds>
donor molecule, donor type, donor heavy atom, donor atom, acceptor molecule, acceptor atom, score
      L1  H    11    30       P1  7948  1.00
      L1  H    15    36       P1  7948  1.00
      P1  H  6896  6908       L1     4  0.76

> <Gold.PLP.Chemscore.Internal.Correction>
0.0971

> <Gold.Rescore>
     Score         DG    S(hbond)    S(metal)    S(lipo)     H(rot)  DE(clash)    DE(int)     intcor
     15.82     -18.42       2.49        0.00      88.56       2.24       0.22       2.39       ----

> <Gold.Chemscore.Fitness>
15.8170

> <Gold.Chemscore.DG>
-18.4247

> <Gold.Chemscore.ZeroCoef>
-5.4800

> <Gold.Chemscore.Hbond>
2.4872

> <Gold.Chemscore.Metal>
0.0000

> <Gold.Chemscore.Lipo>
88.5564

> <Gold.Chemscore.Internal_Hbond>
0.0000

> <Gold.Chemscore.DEClash>
0.2173

> <Gold.Chemscore.DEInternal>
2.3904

> <Gold.Chemscore.Rot>
2.2357

> <Gold.Chemscore.Internal.Correction>
   9.000000E+99

> <Gold.Chemscore.Hbonds>
donor molecule, donor type, donor heavy atom, donor atom, acceptor molecule, acceptor atom, score
      L1  H    11    30       P1  7948  0.65
      L1  H    15    36       P1  7948  0.99
      P1  H  6896  6908       L1     4  0.11

> <Gold.Chemscore.Hbond.Weighted>
-8.3072

> <Gold.Chemscore.Metal.Weighted>
-0.0000

> <Gold.Chemscore.Lipo.Weighted>
-10.3611

> <Gold.Chemscore.Internal_Hbond.Weighted>
0.0000

> <Gold.Chemscore.DEClash.Weighted>
0.2173

> <Gold.Chemscore.DEInternal.Weighted>
2.3904

> <Gold.Chemscore.Rot.Weighted>
5.7235

> <Gold.Chemscore.Internal.Correction.Weighted>
   9.000000E+99

> <Gold.Protein.RotatedTorsions>
[ 6907 6896 6895 6894 ] final   98.35 input  -60.11 | X-H torsion
[ 7974 7965 7964 7962 ] final  140.78 input  175.53 | X-H torsion
[ 8008 7997 7996 7995 ] final -165.21 input   59.86 | X-H torsion
[ 10167 10162 10161 10158 ] final  -47.08 input  -65.29 | X-H torsion
[ 10718 10713 10712 10709 ] final   81.76 input   66.30 | X-H torsion
[ 10763 10752 10751 10750 ] final    5.52 input  -60.55 | X-H torsion
[ 11005 11000 10999 10996 ] final   48.60 input  -57.11 | X-H torsion

> <Gold.Protein.ActiveResidues>
 VAL166  LYS551  ARG553  GLY616  TRP617  ASP618  TYR619  PRO620  LYS621  CYS622 
 ASP623  PHE694  ASN695  SER759  ASP760  ASP761  ALA762  ILE779  LEU786  VAL792 
 PHE793  MET794  SER795  GLU796  ALA797  LYS798  CYS799  TRP800  GLU811  SER814 

> <Gold.Protein.RotatedAtoms>
  152.5410  134.0594  159.8144 H   0  0  0  0  0  0  0  0  0  0  0  0  # atno 6907 bound_to 6896
  151.0724  133.5448  159.2633 H   0  0  0  0  0  0  0  0  0  0  0  0  # atno 6908 bound_to 6896
  151.2306  135.0561  159.9040 H   0  0  0  0  0  0  0  0  0  0  0  0  # atno 6909 bound_to 6896
  144.9155  139.5236  143.5688 H   0  0  0  0  0  0  0  0  0  0  0  0  # atno 7974 bound_to 7965
  155.8465  140.0956  157.1702 H   0  0  0  0  0  0  0  0  0  0  0  0  # atno 8008 bound_to 7997
  154.3983  140.1391  156.3854 H   0  0  0  0  0  0  0  0  0  0  0  0  # atno 8009 bound_to 7997
  155.8008  140.3453  155.5404 H   0  0  0  0  0  0  0  0  0  0  0  0  # atno 8010 bound_to 7997
  140.6790  143.2801  151.3875 H   0  0  0  0  0  0  0  0  0  0  0  0  # atno 10167 bound_to 10162
  157.6841  131.0018  150.2274 H   0  0  0  0  0  0  0  0  0  0  0  0  # atno 10718 bound_to 10713
  153.2585  135.6921  153.7603 H   0  0  0  0  0  0  0  0  0  0  0  0  # atno 10763 bound_to 10752
  153.6672  135.3350  155.3144 H   0  0  0  0  0  0  0  0  0  0  0  0  # atno 10764 bound_to 10752
  154.8421  135.4491  154.1567 H   0  0  0  0  0  0  0  0  0  0  0  0  # atno 10765 bound_to 10752
  140.1176  134.4872  155.8624 H   0  0  0  0  0  0  0  0  0  0  0  0  # atno 11005 bound_to 11000
  146.3180  139.7994  142.8968 LP  0  0  0  0  0  0  0  0  0  0  0  0  # atno 17320 bound_to 7965
  145.3383  141.0282  143.3407 LP  0  0  0  0  0  0  0  0  0  0  0  0  # atno 17321 bound_to 7965
  139.6101  144.1117  152.2289 LP  0  0  0  0  0  0  0  0  0  0  0  0  # atno 17342 bound_to 10162
  140.0528  144.5919  150.7323 LP  0  0  0  0  0  0  0  0  0  0  0  0  # atno 17343 bound_to 10162
  156.2913  130.3746  149.7838 LP  0  0  0  0  0  0  0  0  0  0  0  0  # atno 17370 bound_to 10713
  156.5497  130.8336  151.3295 LP  0  0  0  0  0  0  0  0  0  0  0  0  # atno 17371 bound_to 10713
  141.2144  133.6749  156.6826 LP  0  0  0  0  0  0  0  0  0  0  0  0  # atno 17394 bound_to 11000
  140.3008  134.8165  157.4096 LP  0  0  0  0  0  0  0  0  0  0  0  0  # atno 17395 bound_to 11000

$$$$
