AV-unprocessed.smi:2789|AV-procd|sdf|10762|dock2
  -GOLD-   2272015193D 1   1.00000     0.00000
 Structure written by MMmdl.
 35 36  0  0  0  0  0  0  0  0  1 V2000
  152.7237  139.6920  158.6906 C   0  0  0  0  0  0  0  0  0  0  0  0
  151.6673  140.6140  158.9067 O   0  0  0  0  0  0  0  0  0  0  0  0
  151.8147  141.8332  158.1913 C   0  0  2  0  0  0  0  0  0  0  0  0
  152.9892  142.6715  158.7137 C   0  0  0  0  0  0  0  0  0  0  0  0
  152.5676  144.1145  158.4626 C   0  0  0  0  0  0  0  0  0  0  0  0
  151.0700  144.1156  158.7645 C   0  0  0  0  0  0  0  0  0  0  0  0
  150.5596  142.7134  158.3761 C   0  0  1  0  0  0  0  0  0  0  0  0
  149.7766  142.7599  157.1435 N   0  0  0  0  0  0  0  0  0  0  0  0
  149.3825  141.6892  156.4398 C   0  0  0  0  0  0  0  0  0  0  0  0
  149.6355  140.5305  156.7704 O   0  0  0  0  0  0  0  0  0  0  0  0
  148.6845  142.0556  155.3508 N   0  0  0  0  0  0  0  0  0  0  0  0
  148.1259  141.2673  154.3941 C   0  0  0  0  0  0  0  0  0  0  0  0
  148.5279  140.0372  153.9494 C   0  0  0  0  0  0  0  0  0  0  0  0
  147.5543  139.7362  152.9543 C   0  0  0  0  0  0  0  0  0  0  0  0
  146.6468  140.6932  152.8081 N   0  0  0  0  0  0  0  0  0  0  0  0
  146.9983  141.6464  153.6988 N   0  0  0  0  0  0  0  0  0  0  0  0
  146.2112  142.8587  153.8132 C   0  0  0  0  0  0  0  0  0  0  0  0
  152.5283  138.7778  159.2512 H   0  0  0  0  0  0  0  0  0  0  0  0
  153.6812  140.0902  159.0273 H   0  0  0  0  0  0  0  0  0  0  0  0
  152.8060  139.4264  157.6361 H   0  0  0  0  0  0  0  0  0  0  0  0
  151.9672  141.6291  157.1291 H   0  0  0  0  0  0  0  0  0  0  0  0
  153.1103  142.5142  159.7865 H   0  0  0  0  0  0  0  0  0  0  0  0
  153.9343  142.4205  158.2315 H   0  0  0  0  0  0  0  0  0  0  0  0
  153.1204  144.8276  159.0747 H   0  0  0  0  0  0  0  0  0  0  0  0
  152.7338  144.3708  157.4154 H   0  0  0  0  0  0  0  0  0  0  0  0
  150.9210  144.2655  159.8347 H   0  0  0  0  0  0  0  0  0  0  0  0
  150.5502  144.9277  158.2543 H   0  0  0  0  0  0  0  0  0  0  0  0
  149.9429  142.3183  159.1861 H   0  0  0  0  0  0  0  0  0  0  0  0
  149.5249  143.6752  156.8007 H   0  0  0  0  0  0  0  0  0  0  0  0
  148.5519  143.0479  155.2215 H   0  0  0  0  0  0  0  0  0  0  0  0
  149.3689  139.4390  154.2656 H   0  0  0  0  0  0  0  0  0  0  0  0
  147.4803  138.8541  152.3354 H   0  0  0  0  0  0  0  0  0  0  0  0
  145.7590  142.9086  154.8038 H   0  0  0  0  0  0  0  0  0  0  0  0
  145.4208  142.8768  153.0618 H   0  0  0  0  0  0  0  0  0  0  0  0
  146.8535  143.7280  153.6695 H   0  0  0  0  0  0  0  0  0  0  0  0
  1  2  1  0  0  0  0
  1 18  1  0  0  0  0
  1 19  1  0  0  0  0
  1 20  1  0  0  0  0
  2  3  1  0  0  0  0
  3  7  1  0  0  0  0
  3  4  1  0  0  0  0
  3 21  1  0  0  0  0
  4  5  1  0  0  0  0
  4 22  1  0  0  0  0
  4 23  1  0  0  0  0
  5  6  1  0  0  0  0
  5 24  1  0  0  0  0
  5 25  1  0  0  0  0
  6  7  1  0  0  0  0
  6 26  1  0  0  0  0
  6 27  1  0  0  0  0
  7  8  1  0  0  0  0
  7 28  1  0  0  0  0
  8  9  1  0  0  0  0
  8 29  1  0  0  0  0
  9 10  2  0  0  0  0
  9 11  1  0  0  0  0
 11 12  1  0  0  0  0
 11 30  1  0  0  0  0
 12 16  1  0  0  0  0
 12 13  2  0  0  0  0
 13 14  1  0  0  0  0
 13 31  1  0  0  0  0
 14 15  2  0  0  0  0
 14 32  1  0  0  0  0
 15 16  1  0  0  0  0
 16 17  1  0  0  0  0
 17 33  1  0  0  0  0
 17 34  1  0  0  0  0
 17 35  1  0  0  0  0
M  END
> <s_m_source_file>
AV-unprocessed.smi

> <i_m_source_file_index>
2789

> <i_lp_mmshare_version>
43012

> <i_f3d_flags>
0

> <s_epik_input>
W0NIM11PW0NAQEhdMVtDSDJdW0NIMl1bQ0gyXVtDQEhdMVtOSF1DKD1PKVtOSF1jMltjSF1bY0hdbm4yW0NIM10=

> <s_epik_cmdline>
J2VwaWtfcHl0aG9uJywgJy1waCcsICc3LjAnLCAnLXRuJywgJzgnLCAnLW1hJywgJzIwMCcsICctbWV0YWxfYmluZGluZycsICctaW1hZScsICc8aW5maWxlLm1hZT4nLCAnLW9tYWUnLCAnPG91dGZpbGUubWFlPic=

> <r_lp_tautomer_probability>
1

> <r_epik_Ionization_Penalty>
4.40608e-05

> <r_epik_Ionization_Penalty_Charging>
0

> <r_epik_Ionization_Penalty_Neutral>
4.40608e-05

> <r_epik_State_Penalty>
-0

> <r_epik_Charging_Adjusted_Penalty>
0

> <i_epik_Tot_Q>
0

> <i_epik_Tot_abs_Q>
0

> <r_epik_Metal_State_Penalty>
-0

> <b_epik_Metal_Only>
0

> <s_lp_Force_Field>
OPLS_2005

> <r_lp_Energy>
20.8704

> <b_lp_Chiralities_Consistent>
1

> <s_lp_Variant>
AV-unprocessed.smi:2789-1

> <Gold.Version>
5.8.1

> <Gold.Id.Protein>
6NUR|6NUR_protein|mol2

> <Gold.PLP.Fitness>
42.5576

> <Gold.PLP.PLP>
-34.1555

> <Gold.PLP.part.hbond>
-2.0000

> <Gold.PLP.part.metal>
0.0000

> <Gold.PLP.part.buried>
-3.7960

> <Gold.PLP.part.nonpolar>
-29.3759

> <Gold.PLP.part.repulsive>
0.3691

> <Gold.PLP.ligand.clash>
0.0000

> <Gold.PLP.ligand.torsion>
0.3028

> <Gold.PLP.Chemscore.Hbond>
2.0000

> <Gold.PLP.Chemscore.CHOScore>
1.0000

> <Gold.PLP.Chemscore.Metal>
0.0000

> <Gold.Chemscore.Hbonds>
donor molecule, donor type, donor heavy atom, donor atom, acceptor molecule, acceptor atom, score
      L1  H     8    29       P1  8028  1.00
      L1  H    11    30       P1  8028  1.00
      L1  C    14    32       P1  7957  0.02

> <Gold.PLP.Chemscore.Internal.Correction>
0.0076

> <Gold.Rescore>
     Score         DG    S(hbond)    S(metal)    S(lipo)     H(rot)  DE(clash)    DE(int)     intcor
     16.91     -17.79       1.88        0.00      79.29       1.27       0.00       0.88       ----

> <Gold.Chemscore.Fitness>
16.9076

> <Gold.Chemscore.DG>
-17.7858

> <Gold.Chemscore.ZeroCoef>
-5.4800

> <Gold.Chemscore.Hbond>
1.8811

> <Gold.Chemscore.Metal>
0.0000

> <Gold.Chemscore.Lipo>
79.2929

> <Gold.Chemscore.Internal_Hbond>
0.0000

> <Gold.Chemscore.DEClash>
0.0021

> <Gold.Chemscore.DEInternal>
0.8761

> <Gold.Chemscore.Rot>
1.2712

> <Gold.Chemscore.Internal.Correction>
   9.000000E+99

> <Gold.Chemscore.Hbonds>
donor molecule, donor type, donor heavy atom, donor atom, acceptor molecule, acceptor atom, score
      L1  H     8    29       P1  8028  0.94
      L1  H    11    30       P1  8028  0.97

> <Gold.Chemscore.Hbond.Weighted>
-6.2830

> <Gold.Chemscore.Metal.Weighted>
-0.0000

> <Gold.Chemscore.Lipo.Weighted>
-9.2773

> <Gold.Chemscore.Internal_Hbond.Weighted>
0.0000

> <Gold.Chemscore.DEClash.Weighted>
0.0021

> <Gold.Chemscore.DEInternal.Weighted>
0.8761

> <Gold.Chemscore.Rot.Weighted>
3.2544

> <Gold.Chemscore.Internal.Correction.Weighted>
   9.000000E+99

> <Gold.Protein.RotatedTorsions>
[ 6907 6896 6895 6894 ] final  -51.31 input  -60.11 | X-H torsion
[ 7974 7965 7964 7962 ] final  167.81 input  175.53 | X-H torsion
[ 8008 7997 7996 7995 ] final  108.72 input   59.86 | X-H torsion
[ 10167 10162 10161 10158 ] final  -15.00 input  -65.29 | X-H torsion
[ 10718 10713 10712 10709 ] final  170.26 input   66.30 | X-H torsion
[ 10763 10752 10751 10750 ] final -137.69 input  -60.55 | X-H torsion
[ 11005 11000 10999 10996 ] final -143.51 input  -57.11 | X-H torsion

> <Gold.Protein.ActiveResidues>
 VAL166  LYS551  ARG553  GLY616  TRP617  ASP618  TYR619  PRO620  LYS621  CYS622 
 ASP623  PHE694  ASN695  SER759  ASP760  ASP761  ALA762  ILE779  LEU786  VAL792 
 PHE793  MET794  SER795  GLU796  ALA797  LYS798  CYS799  TRP800  GLU811  SER814 

> <Gold.Protein.RotatedAtoms>
  150.8623  134.7978  159.7092 H   0  0  0  0  0  0  0  0  0  0  0  0  # atno 6907 bound_to 6896
  152.4656  134.5079  159.9755 H   0  0  0  0  0  0  0  0  0  0  0  0  # atno 6908 bound_to 6896
  151.5181  133.3433  159.2932 H   0  0  0  0  0  0  0  0  0  0  0  0  # atno 6909 bound_to 6896
  144.7411  139.8815  143.6396 H   0  0  0  0  0  0  0  0  0  0  0  0  # atno 7974 bound_to 7965
  156.1924  140.3071  155.9359 H   0  0  0  0  0  0  0  0  0  0  0  0  # atno 8008 bound_to 7997
  155.3143  140.0452  157.3053 H   0  0  0  0  0  0  0  0  0  0  0  0  # atno 8009 bound_to 7997
  154.5468  140.2279  155.8558 H   0  0  0  0  0  0  0  0  0  0  0  0  # atno 8010 bound_to 7997
  140.7211  143.5263  150.9573 H   0  0  0  0  0  0  0  0  0  0  0  0  # atno 10167 bound_to 10162
  157.0108  131.0203  151.2804 H   0  0  0  0  0  0  0  0  0  0  0  0  # atno 10718 bound_to 10713
  154.8656  135.3634  154.5263 H   0  0  0  0  0  0  0  0  0  0  0  0  # atno 10763 bound_to 10752
  153.5891  135.7016  153.5435 H   0  0  0  0  0  0  0  0  0  0  0  0  # atno 10764 bound_to 10752
  153.3389  135.4103  155.1518 H   0  0  0  0  0  0  0  0  0  0  0  0  # atno 10765 bound_to 10752
  140.8118  134.2736  157.4938 H   0  0  0  0  0  0  0  0  0  0  0  0  # atno 11005 bound_to 11000
  146.1208  139.4225  143.0230 LP  0  0  0  0  0  0  0  0  0  0  0  0  # atno 17320 bound_to 7965
  145.7308  141.0043  143.1353 LP  0  0  0  0  0  0  0  0  0  0  0  0  # atno 17321 bound_to 7965
  139.8982  143.6869  152.3135 LP  0  0  0  0  0  0  0  0  0  0  0  0  # atno 17342 bound_to 10162
  139.7209  144.7603  151.0957 LP  0  0  0  0  0  0  0  0  0  0  0  0  # atno 17343 bound_to 10162
  157.5322  130.8066  149.7930 LP  0  0  0  0  0  0  0  0  0  0  0  0  # atno 17370 bound_to 10713
  156.0137  130.3822  150.2180 LP  0  0  0  0  0  0  0  0  0  0  0  0  # atno 17371 bound_to 10713
  139.8713  134.9487  156.4004 LP  0  0  0  0  0  0  0  0  0  0  0  0  # atno 17394 bound_to 11000
  140.9190  133.7658  155.9883 LP  0  0  0  0  0  0  0  0  0  0  0  0  # atno 17395 bound_to 11000

$$$$
