#       Name:                AV-unprocessed.smi:3316
#       Creating user name   scv26
#       Creation time:       Fri Mar 27 19:09:54 2020


#       File generated by GOLD software.
#

@<TRIPOS>MOLECULE
AV-unprocessed.smi:3316
    42    44     1
SMALL
NO_CHARGES


@<TRIPOS>ATOM
      1 ****        -2.7165  -2.5331  -2.2063 C.3            1 S1                 0.0000
      2 ****        -2.1252  -1.7643  -1.0146 C.3            1 S1                 0.0000
      3 ****        -0.5866  -1.8522  -0.9924 C.3            1 S1                 0.0000
      4 ****        -0.0280  -1.1826   0.1996 N.4            1 S1                 1.0000
      5 ****         1.4449  -1.1087   0.2216 C.3            1 S1                 0.0000
      6 ****         1.9361  -0.2880   1.4288 C.3            1 S1                 0.0000
      7 ****         3.4881  -0.1672   1.5215 C.3            1 S1                 0.0000
      8 ****         3.7128   1.3592   1.6276 C.3            1 S1                 0.0000
      9 ****         3.3280   1.9748   0.2993 C.2            1 S1                 0.0000
     10 ****         2.0018   1.8834   0.1893 C.2            1 S1                 0.0000
     11 ****         1.4913   1.2005   1.4425 C.3            1 S1                 0.0000
     12 ****         2.4916   1.7506   2.4659 C.3            1 S1                 0.0000
     13 ****        -2.6126  -0.3200  -0.9926 C.ar           1 S1                 0.0000
     14 ****        -3.4074   0.1521   0.0736 C.ar           1 S1                 0.0000
     15 ****        -3.8225   1.4989   0.0618 C.ar           1 S1                 0.0000
     16 ****        -3.4949   2.3666  -0.9190 N.ar           1 S1                 0.0000
     17 ****        -2.7368   1.9106  -1.9384 C.ar           1 S1                 0.0000
     18 ****        -2.2705   0.5834  -2.0224 C.ar           1 S1                 0.0000
     19 ****        -3.8065  -2.5083  -2.1854 H              1 S1                 0.0000
     20 ****        -2.4119  -3.5799  -2.1887 H              1 S1                 0.0000
     21 ****        -2.3926  -2.1115  -3.1583 H              1 S1                 0.0000
     22 ****        -2.4933  -2.2511  -0.1100 H              1 S1                 0.0000
     23 ****        -0.2685  -2.8954  -0.9907 H              1 S1                 0.0000
     24 ****        -0.1699  -1.3962  -1.8917 H              1 S1                 0.0000
     25 ****        -0.3867  -0.2385   0.2225 H              1 S1                 0.0000
     26 ****         1.8474  -2.1210   0.2725 H              1 S1                 0.0000
     27 ****         1.8040  -0.6750  -0.7124 H              1 S1                 0.0000
     28 ****         1.5736  -0.7680   2.3399 H              1 S1                 0.0000
     29 ****         3.8617  -0.6807   2.4084 H              1 S1                 0.0000
     30 ****         3.9997  -0.5894   0.6551 H              1 S1                 0.0000
     31 ****         4.6774   1.6817   2.0203 H              1 S1                 0.0000
     32 ****         4.0262   2.3766  -0.4203 H              1 S1                 0.0000
     33 ****         1.3832   2.1924  -0.6405 H              1 S1                 0.0000
     34 ****         0.4426   1.3905   1.6729 H              1 S1                 0.0000
     35 ****         2.4479   1.2590   3.4400 H              1 S1                 0.0000
     36 ****         2.4030   2.8292   2.6124 H              1 S1                 0.0000
     37 ****        -3.6972  -0.4977   0.8864 H              1 S1                 0.0000
     38 ****        -4.4318   1.8898   0.8631 H              1 S1                 0.0000
     39 ****        -2.4917   2.6253  -2.7100 H              1 S1                 0.0000
     40 ****        -1.6650   0.2728  -2.8610 H              1 S1                 0.0000
     41 ****        -0.3443  -1.6666   1.0277 H              1 S1                 0.0000
     42 ****        -3.8041   3.3171  -0.8912 LP             1 S1                 0.0000
@<TRIPOS>BOND
    1    1    2 1     
    2    1   19 1     
    3    1   20 1     
    4    1   21 1     
    5    2    3 1     
    6    2   13 1     
    7    2   22 1     
    8    3    4 1     
    9    3   23 1     
   10    3   24 1     
   11    4    5 1     
   12    4   25 1     
   13    4   41 1     
   14    5    6 1     
   15    5   26 1     
   16    5   27 1     
   17    6   11 1     
   18    6    7 1     
   19    6   28 1     
   20    7    8 1     
   21    7   29 1     
   22    7   30 1     
   23    8   12 1     
   24    8    9 1     
   25    8   31 1     
   26    9   10 2     
   27    9   32 1     
   28   10   11 1     
   29   10   33 1     
   30   11   12 1     
   31   11   34 1     
   32   12   35 1     
   33   12   36 1     
   34   13   18 ar    
   35   13   14 ar    
   36   14   15 ar    
   37   14   37 1     
   38   15   16 ar    
   39   15   38 1     
   40   16   17 ar    
   41   17   18 ar    
   42   17   39 1     
   43   18   40 1     
   44   16   42 1     
@<TRIPOS>SUBSTRUCTURE
      1 S1             1
@<TRIPOS>SET
LONE_PAIRS      STATIC     ATOMS    <user>   **** ""
1 42
DONOR_HYDROGENS      STATIC     ATOMS    <user>   **** ""
2 25 41
ATOM$BLUE        STATIC     ATOMS    COLORGROUP SYSTEM
1 42
ATOM$RED        STATIC     ATOMS    COLORGROUP SYSTEM
2 25 41
