AV-unprocessed.smi:1199|AV-procd|sdf|5015|dock8
  -GOLD-   22720 4 33D 1   1.00000     0.00000
 Structure written by MMmdl.
 40 41  0  0  0  0  0  0  0  0  2 V2000
  151.8255  139.1051  156.1576 C   0  0  0  0  0  0  0  0  0  0  0  0
  151.2866  138.9569  157.5914 C   0  0  1  0  0  0  0  0  0  0  0  0
  150.7070  140.2800  158.1509 C   0  0  0  0  0  0  0  0  0  0  0  0
  151.6644  141.3721  158.3428 N   0  0  0  0  0  0  0  0  0  0  0  0
  151.0420  142.6926  158.3812 C   0  0  0  0  0  0  0  0  0  0  0  0
  152.0685  143.8117  158.6327 C   0  0  0  0  0  0  0  0  0  0  0  0
  152.7899  143.5471  159.8307 O   0  0  0  0  0  0  0  0  0  0  0  0
  153.4617  142.2929  159.7953 C   0  0  0  0  0  0  0  0  0  0  0  0
  152.4355  141.1706  159.5656 C   0  0  0  0  0  0  0  0  0  0  0  0
  150.2459  137.9326  157.5578 N   0  0  0  0  0  0  0  0  0  0  0  0
  150.2242  136.8212  158.3101 C   0  0  0  0  0  0  0  0  0  0  0  0
  151.1053  136.5438  159.1255 O   0  0  0  0  0  0  0  0  0  0  0  0
  149.0219  135.8902  158.0871 C   0  0  0  0  0  0  0  0  0  0  0  0
  148.6124  135.1419  159.2847 N   0  0  0  0  0  0  0  0  0  0  0  0
  148.2806  135.9903  160.4258 N   0  5  0  0  0  0  0  0  0  0  0  0
  147.8559  135.4113  161.5801 C   0  0  0  0  0  0  0  0  0  0  0  0
  147.5376  136.0609  162.5735 O   0  0  0  0  0  0  0  0  0  0  0  0
  147.7853  133.9603  161.6321 C   0  0  0  0  0  0  0  0  0  0  0  0
  148.1268  133.2008  160.5726 C   0  0  0  0  0  0  0  0  0  0  0  0
  148.5787  133.7788  159.3128 C   0  0  0  0  0  0  0  0  0  0  0  0
  148.9010  133.0909  158.3439 O   0  0  0  0  0  0  0  0  0  0  0  0
  152.6280  139.8367  156.0884 H   0  0  0  0  0  0  0  0  0  0  0  0
  151.0393  139.4191  155.4699 H   0  0  0  0  0  0  0  0  0  0  0  0
  152.2233  138.1577  155.7921 H   0  0  0  0  0  0  0  0  0  0  0  0
  152.0955  138.6070  158.2358 H   0  0  0  0  0  0  0  0  0  0  0  0
  149.8786  140.6150  157.5246 H   0  0  0  0  0  0  0  0  0  0  0  0
  150.2579  140.0689  159.1226 H   0  0  0  0  0  0  0  0  0  0  0  0
  150.5480  142.8992  157.4333 H   0  0  0  0  0  0  0  0  0  0  0  0
  150.2751  142.7198  159.1569 H   0  0  0  0  0  0  0  0  0  0  0  0
  152.7619  143.8933  157.7941 H   0  0  0  0  0  0  0  0  0  0  0  0
  151.5649  144.7740  158.7248 H   0  0  0  0  0  0  0  0  0  0  0  0
  154.2159  142.2959  159.0066 H   0  0  0  0  0  0  0  0  0  0  0  0
  153.9853  142.1414  160.7393 H   0  0  0  0  0  0  0  0  0  0  0  0
  151.7621  141.1196  160.4228 H   0  0  0  0  0  0  0  0  0  0  0  0
  152.9564  140.2135  159.5216 H   0  0  0  0  0  0  0  0  0  0  0  0
  149.4840  138.0777  156.9117 H   0  0  0  0  0  0  0  0  0  0  0  0
  148.1775  136.4776  157.7218 H   0  0  0  0  0  0  0  0  0  0  0  0
  149.2730  135.2041  157.2764 H   0  0  0  0  0  0  0  0  0  0  0  0
  147.4544  133.4811  162.5416 H   0  0  0  0  0  0  0  0  0  0  0  0
  148.0607  132.1264  160.6565 H   0  0  0  0  0  0  0  0  0  0  0  0
  1  2  1  0  0  0  0
  1 22  1  0  0  0  0
  1 23  1  0  0  0  0
  1 24  1  0  0  0  0
  2  3  1  0  0  0  0
  2 10  1  0  0  0  0
  2 25  1  0  0  0  0
  3  4  1  0  0  0  0
  3 26  1  0  0  0  0
  3 27  1  0  0  0  0
  4  9  1  0  0  0  0
  4  5  1  0  0  0  0
  5  6  1  0  0  0  0
  5 28  1  0  0  0  0
  5 29  1  0  0  0  0
  6  7  1  0  0  0  0
  6 30  1  0  0  0  0
  6 31  1  0  0  0  0
  7  8  1  0  0  0  0
  8  9  1  0  0  0  0
  8 32  1  0  0  0  0
  8 33  1  0  0  0  0
  9 34  1  0  0  0  0
  9 35  1  0  0  0  0
 10 11  1  0  0  0  0
 10 36  1  0  0  0  0
 11 12  2  0  0  0  0
 11 13  1  0  0  0  0
 13 37  1  0  0  0  0
 13 38  1  0  0  0  0
 13 14  1  0  0  0  0
 14 15  1  0  0  0  0
 14 20  1  0  0  0  0
 15 16  1  0  0  0  0
 16 17  2  0  0  0  0
 16 18  1  0  0  0  0
 18 39  1  0  0  0  0
 18 19  2  0  0  0  0
 19 40  1  0  0  0  0
 19 20  1  0  0  0  0
 20 21  2  0  0  0  0
M  CHG  1  15  -1
M  END
> <s_m_source_file>
AV-unprocessed.smi

> <i_m_source_file_index>
1199

> <i_lp_mmshare_version>
43012

> <i_f3d_flags>
0

> <s_epik_input>
W0NIMl0xW0NIMl1PW0NIMl1bQ0gyXU4xW0NIMl1bQ0BASF0oW0NIM10pW05IXUMoPU8pW0NIMl1uMltuSF1jKD1PKVtjSF1bY0hdYzI9Tw==

> <s_epik_cmdline>
J2VwaWtfcHl0aG9uJywgJy1waCcsICc3LjAnLCAnLXRuJywgJzgnLCAnLW1hJywgJzIwMCcsICctbWV0YWxfYmluZGluZycsICctaW1hZScsICc8aW5maWxlLm1hZT4nLCAnLW9tYWUnLCAnPG91dGZpbGUubWFlPic=

> <r_lp_tautomer_probability>
1

> <r_epik_Ionization_Penalty>
0.334996

> <r_epik_Ionization_Penalty_Charging>
0.0976136

> <r_epik_Ionization_Penalty_Neutral>
0.237382

> <r_epik_State_Penalty>
0.26804

> <r_epik_Charging_Adjusted_Penalty>
0.365653

> <i_epik_Tot_Q>
-1

> <i_epik_Tot_abs_Q>
1

> <r_epik_Metal_State_Penalty>
0.26804

> <b_epik_Metal_Only>
0

> <s_lp_Force_Field>
OPLS_2005

> <r_lp_Energy>
39.9629

> <b_lp_Chiralities_Consistent>
1

> <s_lp_Variant>
AV-unprocessed.smi:1199-2

> <Gold.Version>
5.8.1

> <Gold.Id.Protein>
6NUR|6NUR_protein|mol2

> <Gold.PLP.Fitness>
49.5564

> <Gold.PLP.PLP>
-39.8381

> <Gold.PLP.part.hbond>
-4.6328

> <Gold.PLP.part.metal>
0.0000

> <Gold.PLP.part.buried>
-6.1152

> <Gold.PLP.part.nonpolar>
-31.8889

> <Gold.PLP.part.repulsive>
0.1057

> <Gold.PLP.ligand.clash>
0.0000

> <Gold.PLP.ligand.torsion>
0.6122

> <Gold.PLP.Chemscore.Hbond>
3.6334

> <Gold.PLP.Chemscore.CHOScore>
0.0000

> <Gold.PLP.Chemscore.Metal>
0.0000

> <Gold.Chemscore.Hbonds>
donor molecule, donor type, donor heavy atom, donor atom, acceptor molecule, acceptor atom, score
      P1  H  6896  6909       L1    12  1.00

> <Gold.PLP.Chemscore.Internal.Correction>
0.0425

> <Gold.Rescore>
     Score         DG    S(hbond)    S(metal)    S(lipo)     H(rot)  DE(clash)    DE(int)     intcor
     13.64     -14.60       1.92        0.00      73.48       2.30       0.32       0.64       ----

> <Gold.Chemscore.Fitness>
13.6388

> <Gold.Chemscore.DG>
-14.6028

> <Gold.Chemscore.ZeroCoef>
-5.4800

> <Gold.Chemscore.Hbond>
1.9169

> <Gold.Chemscore.Metal>
0.0000

> <Gold.Chemscore.Lipo>
73.4788

> <Gold.Chemscore.Internal_Hbond>
0.0000

> <Gold.Chemscore.DEClash>
0.3199

> <Gold.Chemscore.DEInternal>
0.6440

> <Gold.Chemscore.Rot>
2.2955

> <Gold.Chemscore.Internal.Correction>
   9.000000E+99

> <Gold.Chemscore.Hbonds>
donor molecule, donor type, donor heavy atom, donor atom, acceptor molecule, acceptor atom, score
      P1  H  6896  6909       L1    12  0.96

> <Gold.Chemscore.Hbond.Weighted>
-6.4023

> <Gold.Chemscore.Metal.Weighted>
-0.0000

> <Gold.Chemscore.Lipo.Weighted>
-8.5970

> <Gold.Chemscore.Internal_Hbond.Weighted>
0.0000

> <Gold.Chemscore.DEClash.Weighted>
0.3199

> <Gold.Chemscore.DEInternal.Weighted>
0.6440

> <Gold.Chemscore.Rot.Weighted>
5.8766

> <Gold.Chemscore.Internal.Correction.Weighted>
   9.000000E+99

> <Gold.Protein.RotatedTorsions>
[ 6907 6896 6895 6894 ] final  100.26 input  -60.11 | X-H torsion
[ 7974 7965 7964 7962 ] final  140.36 input  175.53 | X-H torsion
[ 8008 7997 7996 7995 ] final -161.09 input   59.86 | X-H torsion
[ 10167 10162 10161 10158 ] final -179.75 input  -65.29 | X-H torsion
[ 10718 10713 10712 10709 ] final -115.05 input   66.30 | X-H torsion
[ 10763 10752 10751 10750 ] final  152.81 input  -60.55 | X-H torsion
[ 11005 11000 10999 10996 ] final  161.97 input  -57.11 | X-H torsion

> <Gold.Protein.ActiveResidues>
 VAL166  LYS551  ARG553  GLY616  TRP617  ASP618  TYR619  PRO620  LYS621  CYS622 
 ASP623  PHE694  ASN695  SER759  ASP760  ASP761  ALA762  ILE779  LEU786  VAL792 
 PHE793  MET794  SER795  GLU796  ALA797  LYS798  CYS799  TRP800  GLU811  SER814 

> <Gold.Protein.RotatedAtoms>
  152.5376  134.0304  159.8021 H   0  0  0  0  0  0  0  0  0  0  0  0  # atno 6907 bound_to 6896
  151.0476  133.5644  159.2652 H   0  0  0  0  0  0  0  0  0  0  0  0  # atno 6908 bound_to 6896
  151.2591  135.0655  159.9145 H   0  0  0  0  0  0  0  0  0  0  0  0  # atno 6909 bound_to 6896
  144.9194  139.5188  143.5671 H   0  0  0  0  0  0  0  0  0  0  0  0  # atno 7974 bound_to 7965
  155.7871  140.0873  157.2028 H   0  0  0  0  0  0  0  0  0  0  0  0  # atno 8008 bound_to 7997
  154.3987  140.1497  156.3178 H   0  0  0  0  0  0  0  0  0  0  0  0  # atno 8009 bound_to 7997
  155.8595  140.3431  155.5750 H   0  0  0  0  0  0  0  0  0  0  0  0  # atno 8010 bound_to 7997
  139.5372  144.2463  152.0820 H   0  0  0  0  0  0  0  0  0  0  0  0  # atno 10167 bound_to 10162
  156.0870  130.6060  150.8856 H   0  0  0  0  0  0  0  0  0  0  0  0  # atno 10718 bound_to 10713
  154.1260  135.2829  155.3197 H   0  0  0  0  0  0  0  0  0  0  0  0  # atno 10763 bound_to 10752
  154.6389  135.5409  153.7770 H   0  0  0  0  0  0  0  0  0  0  0  0  # atno 10764 bound_to 10752
  153.0297  135.6481  154.1412 H   0  0  0  0  0  0  0  0  0  0  0  0  # atno 10765 bound_to 10752
  140.2211  134.8195  157.3221 H   0  0  0  0  0  0  0  0  0  0  0  0  # atno 11005 bound_to 11000
  146.3197  139.8061  142.8955 LP  0  0  0  0  0  0  0  0  0  0  0  0  # atno 17320 bound_to 7965
  145.3322  141.0269  143.3440 LP  0  0  0  0  0  0  0  0  0  0  0  0  # atno 17321 bound_to 7965
  140.1936  144.4728  150.6466 LP  0  0  0  0  0  0  0  0  0  0  0  0  # atno 17342 bound_to 10162
  140.6585  143.2245  151.5912 LP  0  0  0  0  0  0  0  0  0  0  0  0  # atno 17343 bound_to 10162
  157.6008  131.0941  150.8964 LP  0  0  0  0  0  0  0  0  0  0  0  0  # atno 17370 bound_to 10713
  156.9121  130.5284  149.5280 LP  0  0  0  0  0  0  0  0  0  0  0  0  # atno 17371 bound_to 10713
  140.1848  134.4444  155.7750 LP  0  0  0  0  0  0  0  0  0  0  0  0  # atno 17394 bound_to 11000
  141.2223  133.7000  156.7929 LP  0  0  0  0  0  0  0  0  0  0  0  0  # atno 17395 bound_to 11000

$$$$
