#       Name:                AV-unprocessed.smi:72
#       Creating user name   scv26
#       Creation time:       Thu Mar 26 17:09:14 2020


#       File generated by GOLD software.
#

@<TRIPOS>MOLECULE
AV-unprocessed.smi:72
    41    42     1
SMALL
NO_CHARGES


@<TRIPOS>ATOM
      1 ****        -5.0112  -0.2002   0.4851 N.pl3          1 S1                 0.0000
      2 ****        -3.6435  -0.3728   0.5201 C.2            1 S1                 0.0000
      3 ****        -2.8672   0.7310   0.1410 N.2            1 S1                 0.0000
      4 ****        -1.5821   0.5749   0.1771 C.2            1 S1                 0.0000
      5 ****        -0.9856  -0.6812   0.5939 N.am           1 S1                 0.0000
      6 ****         0.5185  -0.8614   0.6298 C.3            1 S1                 0.0000
      7 ****         1.1092   0.3434   1.0179 O.3            1 S1                 0.0000
      8 ****         2.2841   0.5604   0.2465 C.3            1 S1                 0.0000
      9 ****         2.7062   2.0403   0.2806 C.3            1 S1                 0.0000
     10 ****         3.9517   2.2096  -0.3621 O.3            1 S1                 0.0000
     11 ****         1.9401  -0.0391  -1.1249 C.3            1 S1                 0.0000
     12 ****         1.2042   0.8803  -1.9144 O.3            1 S1                 0.0000
     13 ****         1.1177  -1.2655  -0.7364 C.3            1 S1                 0.0000
     14 ****         0.1852  -1.6579  -1.7301 O.3            1 S1                 0.0000
     15 ****        -1.8336  -1.7657   0.9505 C.2            1 S1                 0.0000
     16 ****        -1.3515  -2.8505   1.2765 O.2            1 S1                 0.0000
     17 ****        -3.2149  -1.5424   0.9000 N.2            1 S1                 0.0000
     18 ****         0.7246  -1.5960   1.4094 H              1 S1                 0.0000
     19 ****         3.0724  -0.0426   0.7016 H              1 S1                 0.0000
     20 ****         2.8380  -0.3157  -1.6784 H              1 S1                 0.0000
     21 ****         1.7941  -2.1013  -0.5526 H              1 S1                 0.0000
     22 ****        -5.6687  -0.9243   0.7352 H              1 S1                 0.0000
     23 ****        -5.4564   0.6635   0.2106 H              1 S1                 0.0000
     24 ****        -0.8774   1.3601  -0.0993 H              1 S1                 0.0000
     25 ****         1.9592   2.6851  -0.1827 H              1 S1                 0.0000
     26 ****         2.8100   2.3709   1.3142 H              1 S1                 0.0000
     27 ****         4.1863   3.1244  -0.3254 H              1 S1                 0.0000
     28 ****         0.3930   1.0719  -1.4697 H              1 S1                 0.0000
     29 ****        -0.3035  -2.3995  -1.4074 H              1 S1                 0.0000
     30 ****        -3.2842   1.5945  -0.1427 LP             1 S1                 0.0000
     31 ****         1.3495   0.3006   1.9877 LP             1 S1                 0.0000
     32 ****         0.4667   1.0946   0.8666 LP             1 S1                 0.0000
     33 ****         3.8816   1.9174  -1.3158 LP             1 S1                 0.0000
     34 ****         4.6484   1.6638   0.1034 LP             1 S1                 0.0000
     35 ****         1.0120   0.4786  -2.8097 LP             1 S1                 0.0000
     36 ****         1.7315   1.7217  -2.0328 LP             1 S1                 0.0000
     37 ****         0.6708  -1.9122  -2.5665 LP             1 S1                 0.0000
     38 ****        -0.4391  -0.9012  -1.9241 LP             1 S1                 0.0000
     39 ****        -0.3590  -2.9723   1.2915 LP             1 S1                 0.0000
     40 ****        -1.9523  -3.6098   1.5264 LP             1 S1                 0.0000
     41 ****        -3.8586  -2.2656   1.1503 LP             1 S1                 0.0000
@<TRIPOS>BOND
    1    1    2 1     
    2    1   22 1     
    3    1   23 1     
    4    2   17 2     
    5    2    3 1     
    6    3    4 2     
    7    4    5 1     
    8    4   24 1     
    9    5    6 1     
   10    5   15 am    
   11    6   18 1     
   12    6   13 1     
   13    6    7 1     
   14    7    8 1     
   15    8   19 1     
   16    8    9 1     
   17    8   11 1     
   18    9   10 1     
   19    9   25 1     
   20    9   26 1     
   21   10   27 1     
   22   11   20 1     
   23   11   12 1     
   24   11   13 1     
   25   12   28 1     
   26   13   21 1     
   27   13   14 1     
   28   14   29 1     
   29   15   16 2     
   30   15   17 1     
   31    3   30 1     
   32    7   31 1     
   33    7   32 1     
   34   10   33 1     
   35   10   34 1     
   36   12   35 1     
   37   12   36 1     
   38   14   37 1     
   39   14   38 1     
   40   16   39 1     
   41   16   40 1     
   42   17   41 1     
@<TRIPOS>SUBSTRUCTURE
      1 S1             1
@<TRIPOS>SET
LONE_PAIRS      STATIC     ATOMS    <user>   **** ""
12 30 31 32 33 34 35 36 37 38 39 40 41
DONOR_HYDROGENS      STATIC     ATOMS    <user>   **** ""
5 22 23 27 28 29
ATOM$BLUE        STATIC     ATOMS    COLORGROUP SYSTEM
12 30 31 32 33 34 35 36 37 38 39 40 41
ATOM$RED        STATIC     ATOMS    COLORGROUP SYSTEM
5 22 23 27 28 29
