AV-unprocessed.smi:2781|AV-procd|sdf|10719|dock7
  -GOLD-   2272015153D 1   1.00000     0.00000
 Structure written by MMmdl.
 35 38  0  0  0  0  0  0  0  0  1 V2000
  150.9868  140.3102  156.7104 O   0  0  0  0  0  0  0  0  0  0  0  0
  150.7684  141.5069  156.5188 C   0  0  0  0  0  0  0  0  0  0  0  0
  149.9145  142.0055  155.6074 N   0  0  0  0  0  0  0  0  0  0  0  0
  149.0743  141.2946  154.7097 C   0  0  0  0  0  0  0  0  0  0  0  0
  149.4811  139.9696  154.4327 C   0  0  0  0  0  0  0  0  0  0  0  0
  148.7186  139.1806  153.5496 C   0  0  0  0  0  0  0  0  0  0  0  0
  147.5674  139.7394  152.9668 C   0  0  0  0  0  0  0  0  0  0  0  0
  146.8032  139.0195  152.1118 F   0  0  0  0  0  0  0  0  0  0  0  0
  147.2309  141.0655  153.2951 C   0  0  0  0  0  0  0  0  0  0  0  0
  147.9611  141.8228  154.1414 N   0  0  0  0  0  0  0  0  0  0  0  0
  151.3639  142.4901  157.2069 N   0  0  0  0  0  0  0  0  0  0  0  0
  152.3259  142.3189  158.2470 C   0  0  2  0  0  0  0  0  0  0  0  0
  152.1196  142.9257  159.6224 C   0  0  2  0  0  0  0  0  0  0  0  0
  151.3803  144.1947  160.0623 C   0  0  2  0  0  0  0  0  0  0  0  0
  150.5585  144.8460  158.9317 C   0  0  0  0  0  0  0  0  0  0  0  0
  151.6587  145.3982  157.9994 C   0  0  0  0  0  0  0  0  0  0  0  0
  152.9508  144.9819  158.7309 C   0  0  1  0  0  0  0  0  0  0  0  0
  152.5272  145.1919  160.1805 C   0  0  0  0  0  0  0  0  0  0  0  0
  153.2064  143.4703  158.6985 C   0  0  2  0  0  0  0  0  0  0  0  0
  149.8499  143.0114  155.5576 H   0  0  0  0  0  0  0  0  0  0  0  0
  150.3689  139.5572  154.8900 H   0  0  0  0  0  0  0  0  0  0  0  0
  149.0126  138.1662  153.3241 H   0  0  0  0  0  0  0  0  0  0  0  0
  146.3548  141.5313  152.8684 H   0  0  0  0  0  0  0  0  0  0  0  0
  151.1193  143.4423  156.9778 H   0  0  0  0  0  0  0  0  0  0  0  0
  152.8257  141.3512  158.2540 H   0  0  0  0  0  0  0  0  0  0  0  0
  152.4699  142.3226  160.4579 H   0  0  0  0  0  0  0  0  0  0  0  0
  150.8178  144.0397  160.9834 H   0  0  0  0  0  0  0  0  0  0  0  0
  149.8706  144.1537  158.4483 H   0  0  0  0  0  0  0  0  0  0  0  0
  149.9562  145.6660  159.3255 H   0  0  0  0  0  0  0  0  0  0  0  0
  151.6055  145.0257  156.9775 H   0  0  0  0  0  0  0  0  0  0  0  0
  151.5896  146.4854  157.9430 H   0  0  0  0  0  0  0  0  0  0  0  0
  153.8310  145.5502  158.4295 H   0  0  0  0  0  0  0  0  0  0  0  0
  152.2062  146.2110  160.4048 H   0  0  0  0  0  0  0  0  0  0  0  0
  153.2894  144.8904  160.9017 H   0  0  0  0  0  0  0  0  0  0  0  0
  154.2277  143.2025  158.9635 H   0  0  0  0  0  0  0  0  0  0  0  0
  1  2  2  0  0  0  0
  2  3  1  0  0  0  0
  2 11  1  0  0  0  0
  3  4  1  0  0  0  0
  3 20  1  0  0  0  0
  4 10  1  0  0  0  0
  4  5  2  0  0  0  0
  5  6  1  0  0  0  0
  5 21  1  0  0  0  0
  6  7  2  0  0  0  0
  6 22  1  0  0  0  0
  7  8  1  0  0  0  0
  7  9  1  0  0  0  0
  9 10  2  0  0  0  0
  9 23  1  0  0  0  0
 11 12  1  0  0  0  0
 11 24  1  0  0  0  0
 12 19  1  0  0  0  0
 12 13  1  0  0  0  0
 12 25  1  0  0  0  0
 13 19  1  0  0  0  0
 13 14  1  0  0  0  0
 13 26  1  0  0  0  0
 14 18  1  0  0  0  0
 14 15  1  0  0  0  0
 14 27  1  0  0  0  0
 15 16  1  0  0  0  0
 15 28  1  0  0  0  0
 15 29  1  0  0  0  0
 16 17  1  0  0  0  0
 16 30  1  0  0  0  0
 16 31  1  0  0  0  0
 17 18  1  0  0  0  0
 17 19  1  0  0  0  0
 17 32  1  0  0  0  0
 18 33  1  0  0  0  0
 18 34  1  0  0  0  0
 19 35  1  0  0  0  0
M  END
> <s_m_source_file>
AV-unprocessed.smi

> <i_m_source_file_index>
2781

> <i_lp_mmshare_version>
43012

> <i_f3d_flags>
0

> <s_epik_input>
bjFbY0hdYyhGKVtjSF1bY0hdYzFbTkhdQyg9TylbTkhdW0NASF0yW0NAQEhdM1tDQEhdKFtDSDJdNClbQ0gyXVtDSDJdW0NASF00W0NASF0yMw==

> <s_epik_cmdline>
J2VwaWtfcHl0aG9uJywgJy1waCcsICc3LjAnLCAnLXRuJywgJzgnLCAnLW1hJywgJzIwMCcsICctbWV0YWxfYmluZGluZycsICctaW1hZScsICc8aW5maWxlLm1hZT4nLCAnLW9tYWUnLCAnPG91dGZpbGUubWFlPic=

> <r_lp_tautomer_probability>
1

> <r_epik_Ionization_Penalty>
4.05776e-05

> <r_epik_Ionization_Penalty_Charging>
0

> <r_epik_Ionization_Penalty_Neutral>
4.05776e-05

> <r_epik_State_Penalty>
-0

> <r_epik_Charging_Adjusted_Penalty>
0

> <i_epik_Tot_Q>
0

> <i_epik_Tot_abs_Q>
0

> <r_epik_Metal_State_Penalty>
-0

> <b_epik_Metal_Only>
0

> <s_lp_Force_Field>
OPLS_2005

> <r_lp_Energy>
85.3989

> <b_lp_Chiralities_Consistent>
1

> <s_lp_Variant>
AV-unprocessed.smi:2781-3

> <Gold.Version>
5.8.1

> <Gold.Id.Protein>
6NUR|6NUR_protein|mol2

> <Gold.PLP.Fitness>
44.9707

> <Gold.PLP.PLP>
-39.3568

> <Gold.PLP.part.hbond>
-1.0000

> <Gold.PLP.part.metal>
0.0000

> <Gold.PLP.part.buried>
0.0589

> <Gold.PLP.part.nonpolar>
-38.0148

> <Gold.PLP.part.repulsive>
0.2875

> <Gold.PLP.ligand.clash>
0.0000

> <Gold.PLP.ligand.torsion>
0.2294

> <Gold.PLP.Chemscore.Hbond>
1.0000

> <Gold.PLP.Chemscore.CHOScore>
1.0000

> <Gold.PLP.Chemscore.Metal>
0.0000

> <Gold.Chemscore.Hbonds>
donor molecule, donor type, donor heavy atom, donor atom, acceptor molecule, acceptor atom, score
      L1  H     3    20       P1  8028  1.00
      L1  C     9    23       P1 10175  0.08

> <Gold.PLP.Chemscore.Internal.Correction>
0.0726

> <Gold.Rescore>
     Score         DG    S(hbond)    S(metal)    S(lipo)     H(rot)  DE(clash)    DE(int)     intcor
     17.34     -19.44       0.98        0.00     113.15       1.00       0.29       1.81       ----

> <Gold.Chemscore.Fitness>
17.3417

> <Gold.Chemscore.DG>
-19.4406

> <Gold.Chemscore.ZeroCoef>
-5.4800

> <Gold.Chemscore.Hbond>
0.9826

> <Gold.Chemscore.Metal>
0.0000

> <Gold.Chemscore.Lipo>
113.1524

> <Gold.Chemscore.Internal_Hbond>
0.0000

> <Gold.Chemscore.DEClash>
0.2935

> <Gold.Chemscore.DEInternal>
1.8055

> <Gold.Chemscore.Rot>
1.0000

> <Gold.Chemscore.Internal.Correction>
   9.000000E+99

> <Gold.Chemscore.Hbonds>
donor molecule, donor type, donor heavy atom, donor atom, acceptor molecule, acceptor atom, score
      L1  H     3    20       P1  8028  0.96

> <Gold.Chemscore.Hbond.Weighted>
-3.2818

> <Gold.Chemscore.Metal.Weighted>
-0.0000

> <Gold.Chemscore.Lipo.Weighted>
-13.2388

> <Gold.Chemscore.Internal_Hbond.Weighted>
0.0000

> <Gold.Chemscore.DEClash.Weighted>
0.2935

> <Gold.Chemscore.DEInternal.Weighted>
1.8055

> <Gold.Chemscore.Rot.Weighted>
2.5600

> <Gold.Chemscore.Internal.Correction.Weighted>
   9.000000E+99

> <Gold.Protein.RotatedTorsions>
[ 6907 6896 6895 6894 ] final  -72.56 input  -60.11 | X-H torsion
[ 7974 7965 7964 7962 ] final  102.51 input  175.53 | X-H torsion
[ 8008 7997 7996 7995 ] final   57.14 input   59.86 | X-H torsion
[ 10167 10162 10161 10158 ] final -100.08 input  -65.29 | X-H torsion
[ 10718 10713 10712 10709 ] final -140.66 input   66.30 | X-H torsion
[ 10763 10752 10751 10750 ] final  175.14 input  -60.55 | X-H torsion
[ 11005 11000 10999 10996 ] final  151.57 input  -57.11 | X-H torsion

> <Gold.Protein.ActiveResidues>
 VAL166  LYS551  ARG553  GLY616  TRP617  ASP618  TYR619  PRO620  LYS621  CYS622 
 ASP623  PHE694  ASN695  SER759  ASP760  ASP761  ALA762  ILE779  LEU786  VAL792 
 PHE793  MET794  SER795  GLU796  ALA797  LYS798  CYS799  TRP800  GLU811  SER814 

> <Gold.Protein.RotatedAtoms>
  150.7165  134.5145  159.5623 H   0  0  0  0  0  0  0  0  0  0  0  0  # atno 6907 bound_to 6896
  152.2714  134.7925  160.0422 H   0  0  0  0  0  0  0  0  0  0  0  0  # atno 6908 bound_to 6896
  151.8604  133.3421  159.3738 H   0  0  0  0  0  0  0  0  0  0  0  0  # atno 6909 bound_to 6896
  145.3581  139.2424  143.3521 H   0  0  0  0  0  0  0  0  0  0  0  0  # atno 7974 bound_to 7965
  155.5289  140.3481  155.4422 H   0  0  0  0  0  0  0  0  0  0  0  0  # atno 8008 bound_to 7997
  156.0732  140.1368  156.9830 H   0  0  0  0  0  0  0  0  0  0  0  0  # atno 8009 bound_to 7997
  154.4539  140.0961  156.6676 H   0  0  0  0  0  0  0  0  0  0  0  0  # atno 8010 bound_to 7997
  140.2557  143.3442  152.0673 H   0  0  0  0  0  0  0  0  0  0  0  0  # atno 10167 bound_to 10162
  156.3249  130.7554  151.1660 H   0  0  0  0  0  0  0  0  0  0  0  0  # atno 10718 bound_to 10713
  154.4636  135.2768  155.1695 H   0  0  0  0  0  0  0  0  0  0  0  0  # atno 10763 bound_to 10752
  154.3473  135.6157  153.5629 H   0  0  0  0  0  0  0  0  0  0  0  0  # atno 10764 bound_to 10752
  152.9857  135.5803  154.5003 H   0  0  0  0  0  0  0  0  0  0  0  0  # atno 10765 bound_to 10752
  140.1231  134.8851  157.2099 H   0  0  0  0  0  0  0  0  0  0  0  0  # atno 11005 bound_to 11000
  146.2939  140.4210  142.8729 LP  0  0  0  0  0  0  0  0  0  0  0  0  # atno 17320 bound_to 7965
  144.8667  140.7215  143.6073 LP  0  0  0  0  0  0  0  0  0  0  0  0  # atno 17321 bound_to 7965
  139.5032  144.6751  151.6149 LP  0  0  0  0  0  0  0  0  0  0  0  0  # atno 17342 bound_to 10162
  140.6005  143.9617  150.6383 LP  0  0  0  0  0  0  0  0  0  0  0  0  # atno 17343 bound_to 10162
  157.7419  131.0497  150.5062 LP  0  0  0  0  0  0  0  0  0  0  0  0  # atno 17370 bound_to 10713
  156.5219  130.4164  149.6246 LP  0  0  0  0  0  0  0  0  0  0  0  0  # atno 17371 bound_to 10713
  140.2939  134.3208  155.7307 LP  0  0  0  0  0  0  0  0  0  0  0  0  # atno 17394 bound_to 11000
  141.2155  133.7551  156.9544 LP  0  0  0  0  0  0  0  0  0  0  0  0  # atno 17395 bound_to 11000

$$$$
