AV-unprocessed.smi:157|AV-procd|sdf|1304|dock2
  -GOLD-   2262018593D 1   1.00000     0.00000
 Structure written by MMmdl.
 35 37  0  0  0  0  0  0  0  0  1 V2000
  139.1789  136.7545  156.4945 O   0  0  0  0  0  0  0  0  0  0  0  0
  140.1181  137.7191  156.0700 C   0  0  0  0  0  0  0  0  0  0  0  0
  140.5935  137.4171  154.6399 C   0  0  2  0  0  0  0  0  0  0  0  0
  141.0477  136.0639  154.5690 O   0  0  0  0  0  0  0  0  0  0  0  0
  142.3373  136.0224  154.0409 C   0  0  1  0  0  0  0  0  0  0  0  0
  142.4486  134.8438  153.1260 N   0  0  0  0  0  0  0  0  0  0  0  0
  141.5182  133.8990  152.9374 C   0  0  0  0  0  0  0  0  0  0  0  0
  141.8548  132.9626  152.0670 N   0  0  0  0  0  0  0  0  0  0  0  0
  143.1266  133.3415  151.6411 C   0  0  0  0  0  0  0  0  0  0  0  0
  143.5116  134.5110  152.2812 C   0  0  0  0  0  0  0  0  0  0  0  0
  144.6214  135.3343  152.2690 N   0  0  0  0  0  0  0  0  0  0  0  0
  145.4446  135.2348  151.2732 C   0  0  0  0  0  0  0  0  0  0  0  0
  145.4584  134.3484  150.2058 N   0  0  0  0  0  0  0  0  0  0  0  0
  145.3012  132.9120  150.3563 C   0  0  0  0  0  0  0  0  0  0  0  0
  143.8588  132.4829  150.6505 C   0  0  2  0  0  0  0  0  0  0  0  0
  143.1109  132.5055  149.4517 O   0  0  0  0  0  0  0  0  0  0  0  0
  142.5267  137.3191  153.2675 C   0  0  0  0  0  0  0  0  0  0  0  0
  141.7771  138.2774  154.1663 C   0  0  1  0  0  0  0  0  0  0  0  0
  141.3648  139.4203  153.4456 O   0  0  0  0  0  0  0  0  0  0  0  0
  139.7605  137.4980  153.9393 H   0  0  0  0  0  0  0  0  0  0  0  0
  143.0642  135.8732  154.8400 H   0  0  0  0  0  0  0  0  0  0  0  0
  143.8707  131.4484  150.9949 H   0  0  0  0  0  0  0  0  0  0  0  0
  142.4101  138.5694  155.0055 H   0  0  0  0  0  0  0  0  0  0  0  0
  139.6476  135.9941  156.8027 H   0  0  0  0  0  0  0  0  0  0  0  0
  139.6796  138.7154  156.1359 H   0  0  0  0  0  0  0  0  0  0  0  0
  140.9642  137.6938  156.7572 H   0  0  0  0  0  0  0  0  0  0  0  0
  140.5688  133.8977  153.4528 H   0  0  0  0  0  0  0  0  0  0  0  0
  146.2821  135.9323  151.2234 H   0  0  0  0  0  0  0  0  0  0  0  0
  146.0290  134.5712  149.4030 H   0  0  0  0  0  0  0  0  0  0  0  0
  145.6848  132.4023  149.4719 H   0  0  0  0  0  0  0  0  0  0  0  0
  145.9371  132.6018  151.1870 H   0  0  0  0  0  0  0  0  0  0  0  0
  142.4737  133.2009  149.5147 H   0  0  0  0  0  0  0  0  0  0  0  0
  143.5830  137.5577  153.1390 H   0  0  0  0  0  0  0  0  0  0  0  0
  142.0484  137.2362  152.2897 H   0  0  0  0  0  0  0  0  0  0  0  0
  142.0905  139.7225  152.9212 H   0  0  0  0  0  0  0  0  0  0  0  0
  1  2  1  0  0  0  0
  1 24  1  0  0  0  0
  2  3  1  0  0  0  0
  2 25  1  0  0  0  0
  2 26  1  0  0  0  0
  3 20  1  0  0  0  0
  3 18  1  0  0  0  0
  3  4  1  0  0  0  0
  4  5  1  0  0  0  0
  5 21  1  0  0  0  0
  5  6  1  0  0  0  0
  5 17  1  0  0  0  0
  6 10  1  0  0  0  0
  6  7  1  0  0  0  0
  7  8  2  0  0  0  0
  7 27  1  0  0  0  0
  8  9  1  0  0  0  0
  9 15  1  0  0  0  0
  9 10  2  0  0  0  0
 10 11  1  0  0  0  0
 11 12  2  0  0  0  0
 12 13  1  0  0  0  0
 12 28  1  0  0  0  0
 13 14  1  0  0  0  0
 13 29  1  0  0  0  0
 14 15  1  0  0  0  0
 14 30  1  0  0  0  0
 14 31  1  0  0  0  0
 15 22  1  0  0  0  0
 15 16  1  0  0  0  0
 16 32  1  0  0  0  0
 17 18  1  0  0  0  0
 17 33  1  0  0  0  0
 17 34  1  0  0  0  0
 18 23  1  0  0  0  0
 18 19  1  0  0  0  0
 19 35  1  0  0  0  0
M  END
> <s_m_source_file>
AV-unprocessed.smi

> <i_m_source_file_index>
157

> <i_lp_mmshare_version>
43012

> <i_f3d_flags>
0

> <s_epik_input>
W09IXVtDSDJdW0NASF0xT1tDQEhdKFtDSDJdW0NAQEhdMVtPSF0pbihbY0hdbjIpYyhjMjMpTj1bQ0hdW05IXVtDSDJdW0NASF0zW09IXQ==

> <s_epik_cmdline>
J2VwaWtfcHl0aG9uJywgJy1waCcsICc3LjAnLCAnLXRuJywgJzgnLCAnLW1hJywgJzIwMCcsICctbWV0YWxfYmluZGluZycsICctaW1hZScsICc8aW5maWxlLm1hZT4nLCAnLW9tYWUnLCAnPG91dGZpbGUubWFlPic=

> <r_lp_tautomer_probability>
1

> <r_epik_Ionization_Penalty>
0.0357149

> <r_epik_Ionization_Penalty_Charging>
0.0355056

> <r_epik_Ionization_Penalty_Neutral>
0.000209255

> <r_epik_State_Penalty>
0.0296046

> <r_epik_Charging_Adjusted_Penalty>
0.0651102

> <i_epik_Tot_Q>
0

> <i_epik_Tot_abs_Q>
0

> <r_epik_Metal_State_Penalty>
3.03559e-05

> <b_epik_Metal_Only>
0

> <s_epik_Chemistry_Notes>
This compound has an imine and may undergo hydrolysis. This compound contains an acetal/aminal-like group ( X-CH(R)-Y where X, Y are N, S, or O) that may be acid/base labile, releasing an aldehyde.

> <s_lp_Force_Field>
OPLS_2005

> <r_lp_Energy>
43.9106

> <b_lp_Chiralities_Consistent>
1

> <s_lp_Variant>
AV-unprocessed.smi:157-14

> <Gold.Version>
5.8.1

> <Gold.Id.Protein>
6NUR|6NUR_protein|mol2

> <Gold.PLP.Fitness>
44.0904

> <Gold.PLP.PLP>
-30.5199

> <Gold.PLP.part.hbond>
-6.3389

> <Gold.PLP.part.metal>
0.0000

> <Gold.PLP.part.buried>
-3.6068

> <Gold.PLP.part.nonpolar>
-22.7617

> <Gold.PLP.part.repulsive>
1.9328

> <Gold.PLP.ligand.clash>
0.0000

> <Gold.PLP.ligand.torsion>
0.0947

> <Gold.PLP.Chemscore.Hbond>
3.8640

> <Gold.PLP.Chemscore.CHOScore>
0.7177

> <Gold.PLP.Chemscore.Metal>
0.0000

> <Gold.Chemscore.Hbonds>
donor molecule, donor type, donor heavy atom, donor atom, acceptor molecule, acceptor atom, score
      L1  H     1    24       P1 11000  1.00
      L1  H    13    29       P1  7921  0.98
      L1  H    16    32       P1 10186  1.00
      L1  H    19    35       P1 10175  1.00
      L1  C    12    28       P1  7948  0.52

> <Gold.PLP.Chemscore.Internal.Correction>
0.0148

> <Gold.Rescore>
     Score         DG    S(hbond)    S(metal)    S(lipo)     H(rot)  DE(clash)    DE(int)     intcor
      9.49     -12.08       3.47        0.00      36.88       3.64       1.49       1.09       ----

> <Gold.Chemscore.Fitness>
9.4874

> <Gold.Chemscore.DG>
-12.0752

> <Gold.Chemscore.ZeroCoef>
-5.4800

> <Gold.Chemscore.Hbond>
3.4696

> <Gold.Chemscore.Metal>
0.0000

> <Gold.Chemscore.Lipo>
36.8841

> <Gold.Chemscore.Internal_Hbond>
0.0000

> <Gold.Chemscore.DEClash>
1.4948

> <Gold.Chemscore.DEInternal>
1.0930

> <Gold.Chemscore.Rot>
3.6362

> <Gold.Chemscore.Internal.Correction>
   9.000000E+99

> <Gold.Chemscore.Hbonds>
donor molecule, donor type, donor heavy atom, donor atom, acceptor molecule, acceptor atom, score
      L1  H     1    24       P1 11000  0.86
      L1  H    13    29       P1  7921  0.47
      L1  H    16    32       P1 10186  1.00
      L1  H    19    35       P1 10175  0.60
      P1  H 10785 10796       L1    16  0.01

> <Gold.Chemscore.Hbond.Weighted>
-11.5884

> <Gold.Chemscore.Metal.Weighted>
-0.0000

> <Gold.Chemscore.Lipo.Weighted>
-4.3154

> <Gold.Chemscore.Internal_Hbond.Weighted>
0.0000

> <Gold.Chemscore.DEClash.Weighted>
1.4948

> <Gold.Chemscore.DEInternal.Weighted>
1.0930

> <Gold.Chemscore.Rot.Weighted>
9.3087

> <Gold.Chemscore.Internal.Correction.Weighted>
   9.000000E+99

> <Gold.Protein.RotatedTorsions>
[ 6907 6896 6895 6894 ] final  -91.24 input  -60.11 | X-H torsion
[ 7974 7965 7964 7962 ] final  122.52 input  175.53 | X-H torsion
[ 8008 7997 7996 7995 ] final -151.26 input   59.86 | X-H torsion
[ 10167 10162 10161 10158 ] final   78.59 input  -65.29 | X-H torsion
[ 10718 10713 10712 10709 ] final -145.45 input   66.30 | X-H torsion
[ 10763 10752 10751 10750 ] final  131.55 input  -60.55 | X-H torsion
[ 11005 11000 10999 10996 ] final  -40.21 input  -57.11 | X-H torsion

> <Gold.Protein.ActiveResidues>
 VAL166  LYS551  ARG553  GLY616  TRP617  ASP618  TYR619  PRO620  LYS621  CYS622 
 ASP623  PHE694  ASN695  SER759  ASP760  ASP761  ALA762  ILE779  LEU786  VAL792 
 PHE793  MET794  SER795  GLU796  ALA797  LYS798  CYS799  TRP800  GLU811  SER814 

> <Gold.Protein.RotatedAtoms>
  150.6890  134.2308  159.4433 H   0  0  0  0  0  0  0  0  0  0  0  0  # atno 6907 bound_to 6896
  152.0258  134.9794  160.0581 H   0  0  0  0  0  0  0  0  0  0  0  0  # atno 6908 bound_to 6896
  152.1353  133.4396  159.4777 H   0  0  0  0  0  0  0  0  0  0  0  0  # atno 6909 bound_to 6896
  145.1066  139.3481  143.4784 H   0  0  0  0  0  0  0  0  0  0  0  0  # atno 7974 bound_to 7965
  155.6365  140.0697  157.2632 H   0  0  0  0  0  0  0  0  0  0  0  0  # atno 8008 bound_to 7997
  154.4193  140.1758  156.1577 H   0  0  0  0  0  0  0  0  0  0  0  0  # atno 8009 bound_to 7997
  155.9890  140.3347  155.6738 H   0  0  0  0  0  0  0  0  0  0  0  0  # atno 8010 bound_to 7997
  139.9693  144.5905  150.7999 H   0  0  0  0  0  0  0  0  0  0  0  0  # atno 10167 bound_to 10162
  156.3825  130.7844  151.2038 H   0  0  0  0  0  0  0  0  0  0  0  0  # atno 10718 bound_to 10713
  153.7762  135.3175  155.3359 H   0  0  0  0  0  0  0  0  0  0  0  0  # atno 10763 bound_to 10752
  154.8178  135.4624  154.0696 H   0  0  0  0  0  0  0  0  0  0  0  0  # atno 10764 bound_to 10752
  153.1970  135.6917  153.8364 H   0  0  0  0  0  0  0  0  0  0  0  0  # atno 10765 bound_to 10752
  141.0158  133.6886  156.2291 H   0  0  0  0  0  0  0  0  0  0  0  0  # atno 11005 bound_to 11000
  146.3528  140.0967  142.8610 LP  0  0  0  0  0  0  0  0  0  0  0  0  # atno 17320 bound_to 7965
  145.0894  140.9274  143.4778 LP  0  0  0  0  0  0  0  0  0  0  0  0  # atno 17321 bound_to 7965
  140.7527  143.2995  151.3117 LP  0  0  0  0  0  0  0  0  0  0  0  0  # atno 17342 bound_to 10162
  139.6493  144.0392  152.2614 LP  0  0  0  0  0  0  0  0  0  0  0  0  # atno 17343 bound_to 10162
  157.7493  131.0340  150.4295 LP  0  0  0  0  0  0  0  0  0  0  0  0  # atno 17370 bound_to 10713
  156.4542  130.4018  149.6617 LP  0  0  0  0  0  0  0  0  0  0  0  0  # atno 17371 bound_to 10713
  140.6656  134.4921  157.5585 LP  0  0  0  0  0  0  0  0  0  0  0  0  # atno 17394 bound_to 11000
  139.9116  134.8332  156.1508 LP  0  0  0  0  0  0  0  0  0  0  0  0  # atno 17395 bound_to 11000

$$$$
