AV-unprocessed.smi:1644|AV-procd|sdf|6596|dock1
  -GOLD-   22720 7293D 1   1.00000     0.00000
 Structure written by MMmdl.
 49 51  0  0  0  0  0  0  0  0  3 V2000
  147.7294  132.8596  161.9149 C   0  0  0  0  0  0  0  0  0  0  0  0
  147.3598  134.2994  162.2862 C   0  0  0  0  0  0  0  0  0  0  0  0
  146.2237  134.8605  161.4040 C   0  0  0  0  0  0  0  0  0  0  0  0
  146.6331  135.3544  159.9948 C   0  0  2  0  0  0  0  0  0  0  0  0
  147.3508  134.3370  159.2551 N   0  5  0  0  0  0  0  0  0  0  0  0
  148.5497  134.8449  158.8840 C   0  0  0  0  0  0  0  0  0  0  0  0
  149.4326  134.2619  158.2549 O   0  0  0  0  0  0  0  0  0  0  0  0
  148.6936  136.1146  159.3128 N   0  0  0  0  0  0  0  0  0  0  0  0
  149.8920  136.9363  159.1201 C   0  0  0  0  0  0  0  0  0  0  0  0
  149.6072  138.1384  158.1958 C   0  0  2  0  0  0  0  0  0  0  0  0
  148.9457  137.6841  157.0311 O   0  0  0  0  0  0  0  0  0  0  0  0
  150.9012  138.8572  157.7672 C   0  0  0  0  0  0  0  0  0  0  0  0
  150.6700  140.2646  157.4206 N   0  0  0  0  0  0  0  0  0  0  0  0
  149.9976  140.8169  156.3750 C   0  0  0  0  0  0  0  0  0  0  0  0
  150.0665  142.1705  156.5134 N   0  3  0  0  0  0  0  0  0  0  0  0
  150.7896  142.4852  157.6669 C   0  0  0  0  0  0  0  0  0  0  0  0
  151.1198  143.7116  158.2318 C   0  0  0  0  0  0  0  0  0  0  0  0
  151.8699  143.6890  159.4299 C   0  0  0  0  0  0  0  0  0  0  0  0
  152.2397  145.0117  160.0788 C   0  0  0  0  0  0  0  0  0  0  0  0
  152.2700  142.4611  160.0185 C   0  0  0  0  0  0  0  0  0  0  0  0
  153.0754  142.4467  161.3064 C   0  0  0  0  0  0  0  0  0  0  0  0
  151.9277  141.2249  159.4265 C   0  0  0  0  0  0  0  0  0  0  0  0
  151.1828  141.2661  158.2507 C   0  0  0  0  0  0  0  0  0  0  0  0
  147.6166  136.5072  159.9991 C   0  0  0  0  0  0  0  0  0  0  0  0
  147.4272  137.5893  160.5555 O   0  0  0  0  0  0  0  0  0  0  0  0
  148.5390  132.4918  162.5454 H   0  0  0  0  0  0  0  0  0  0  0  0
  148.0587  132.7928  160.8776 H   0  0  0  0  0  0  0  0  0  0  0  0
  146.8781  132.1905  162.0412 H   0  0  0  0  0  0  0  0  0  0  0  0
  147.0720  134.3263  163.3373 H   0  0  0  0  0  0  0  0  0  0  0  0
  148.2468  134.9267  162.1936 H   0  0  0  0  0  0  0  0  0  0  0  0
  145.4516  134.0978  161.2943 H   0  0  0  0  0  0  0  0  0  0  0  0
  145.7447  135.6849  161.9342 H   0  0  0  0  0  0  0  0  0  0  0  0
  145.7382  135.6772  159.4612 H   0  0  0  0  0  0  0  0  0  0  0  0
  150.2087  137.2906  160.1025 H   0  0  0  0  0  0  0  0  0  0  0  0
  150.7310  136.3430  158.7513 H   0  0  0  0  0  0  0  0  0  0  0  0
  148.9553  138.8523  158.7001 H   0  0  0  0  0  0  0  0  0  0  0  0
  148.9336  138.3871  156.3998 H   0  0  0  0  0  0  0  0  0  0  0  0
  151.6456  138.8282  158.5640 H   0  0  0  0  0  0  0  0  0  0  0  0
  151.3510  138.3654  156.9036 H   0  0  0  0  0  0  0  0  0  0  0  0
  149.4960  140.2794  155.5834 H   0  0  0  0  0  0  0  0  0  0  0  0
  150.8126  144.6427  157.7783 H   0  0  0  0  0  0  0  0  0  0  0  0
  151.8561  145.0593  161.0985 H   0  0  0  0  0  0  0  0  0  0  0  0
  151.8251  145.8568  159.5282 H   0  0  0  0  0  0  0  0  0  0  0  0
  153.3229  145.1317  160.1096 H   0  0  0  0  0  0  0  0  0  0  0  0
  153.3386  141.4300  161.6006 H   0  0  0  0  0  0  0  0  0  0  0  0
  152.5017  142.8910  162.1201 H   0  0  0  0  0  0  0  0  0  0  0  0
  154.0021  143.0083  161.1868 H   0  0  0  0  0  0  0  0  0  0  0  0
  152.2265  140.2890  159.8768 H   0  0  0  0  0  0  0  0  0  0  0  0
  149.6463  142.8282  155.8691 H   0  0  0  0  0  0  0  0  0  0  0  0
  1  2  1  0  0  0  0
  1 26  1  0  0  0  0
  1 27  1  0  0  0  0
  1 28  1  0  0  0  0
  2  3  1  0  0  0  0
  2 29  1  0  0  0  0
  2 30  1  0  0  0  0
  3  4  1  0  0  0  0
  3 31  1  0  0  0  0
  3 32  1  0  0  0  0
  4 24  1  0  0  0  0
  4  5  1  0  0  0  0
  4 33  1  0  0  0  0
  5  6  1  0  0  0  0
  6  7  2  0  0  0  0
  6  8  1  0  0  0  0
  8  9  1  0  0  0  0
  8 24  1  0  0  0  0
  9 10  1  0  0  0  0
  9 34  1  0  0  0  0
  9 35  1  0  0  0  0
 10 11  1  0  0  0  0
 10 12  1  0  0  0  0
 10 36  1  0  0  0  0
 11 37  1  0  0  0  0
 12 13  1  0  0  0  0
 12 38  1  0  0  0  0
 12 39  1  0  0  0  0
 13 23  1  0  0  0  0
 13 14  1  0  0  0  0
 14 15  2  0  0  0  0
 14 40  1  0  0  0  0
 15 16  1  0  0  0  0
 15 49  1  0  0  0  0
 16 23  2  0  0  0  0
 16 17  1  0  0  0  0
 17 18  2  0  0  0  0
 17 41  1  0  0  0  0
 18 19  1  0  0  0  0
 18 20  1  0  0  0  0
 19 42  1  0  0  0  0
 19 43  1  0  0  0  0
 19 44  1  0  0  0  0
 20 21  1  0  0  0  0
 20 22  2  0  0  0  0
 21 45  1  0  0  0  0
 21 46  1  0  0  0  0
 21 47  1  0  0  0  0
 22 23  1  0  0  0  0
 22 48  1  0  0  0  0
 24 25  2  0  0  0  0
M  CHG  1   5  -1
M  CHG  1  15   1
M  END
> <s_m_source_file>
AV-unprocessed.smi

> <i_m_source_file_index>
1644

> <i_lp_mmshare_version>
43012

> <i_f3d_flags>
0

> <s_epik_input>
W0NIM11bQ0gyXVtDSDJdW0NAQEhdMVtOSF1DKD1PKU4oQzE9TylbQ0gyXVtDQEhdKFtPSF0pW0NIMl1uKFtjSF1uMiljKGMyMylbY0hdYyhbQ0gzXSljKFtjSF0zKVtDSDNd

> <s_epik_cmdline>
J2VwaWtfcHl0aG9uJywgJy1waCcsICc3LjAnLCAnLXRuJywgJzgnLCAnLW1hJywgJzIwMCcsICctbWV0YWxfYmluZGluZycsICctaW1hZScsICc8aW5maWxlLm1hZT4nLCAnLW9tYWUnLCAnPG91dGZpbGUubWFlPic=

> <r_lp_tautomer_probability>
1

> <r_epik_Ionization_Penalty>
6.86868

> <r_epik_Ionization_Penalty_Charging>
6.86868

> <r_epik_Ionization_Penalty_Neutral>
5.84798e-07

> <r_epik_State_Penalty>
6.92818

> <r_epik_Charging_Adjusted_Penalty>
13.7969

> <i_epik_Tot_Q>
0

> <i_epik_Tot_abs_Q>
2

> <r_epik_Metal_State_Penalty>
2.98017

> <b_epik_Metal_Only>
1

> <s_lp_Force_Field>
OPLS_2005

> <r_lp_Energy>
22.7735

> <b_lp_Chiralities_Consistent>
1

> <s_lp_Variant>
AV-unprocessed.smi:1644-13

> <Gold.Version>
5.8.1

> <Gold.Id.Protein>
6NUR|6NUR_protein|mol2

> <Gold.PLP.Fitness>
57.8663

> <Gold.PLP.PLP>
-44.9164

> <Gold.PLP.part.hbond>
-3.8451

> <Gold.PLP.part.metal>
0.0000

> <Gold.PLP.part.buried>
-5.5828

> <Gold.PLP.part.nonpolar>
-35.1419

> <Gold.PLP.part.repulsive>
0.0247

> <Gold.PLP.ligand.clash>
0.0000

> <Gold.PLP.ligand.torsion>
0.5626

> <Gold.PLP.Chemscore.Hbond>
4.6640

> <Gold.PLP.Chemscore.CHOScore>
0.0000

> <Gold.PLP.Chemscore.Metal>
0.0000

> <Gold.Chemscore.Hbonds>
donor molecule, donor type, donor heavy atom, donor atom, acceptor molecule, acceptor atom, score
      L1  H    15    49       P1  8028  1.75
      P1  H  6896  6907       L1     7  1.00
      P1  H  6931  6943       L1    25  0.35
      P1  H  6934  6947       L1    25  0.93

> <Gold.PLP.Chemscore.Internal.Correction>
0.0831

> <Gold.Rescore>
     Score         DG    S(hbond)    S(metal)    S(lipo)     H(rot)  DE(clash)    DE(int)     intcor
     19.98     -20.59       2.77        0.00     109.78       2.72       0.02       0.59       ----

> <Gold.Chemscore.Fitness>
19.9809

> <Gold.Chemscore.DG>
-20.5942

> <Gold.Chemscore.ZeroCoef>
-5.4800

> <Gold.Chemscore.Hbond>
2.7678

> <Gold.Chemscore.Metal>
0.0000

> <Gold.Chemscore.Lipo>
109.7818

> <Gold.Chemscore.Internal_Hbond>
0.0000

> <Gold.Chemscore.DEClash>
0.0212

> <Gold.Chemscore.DEInternal>
0.5921

> <Gold.Chemscore.Rot>
2.7245

> <Gold.Chemscore.Internal.Correction>
   9.000000E+99

> <Gold.Chemscore.Hbonds>
donor molecule, donor type, donor heavy atom, donor atom, acceptor molecule, acceptor atom, score
      L1  H    15    49       P1  8028  0.79
      P1  H  6896  6907       L1     7  0.73
      P1  H  6931  6943       L1    25  0.31
      P1  H  6934  6947       L1    25  0.85

> <Gold.Chemscore.Hbond.Weighted>
-9.2445

> <Gold.Chemscore.Metal.Weighted>
-0.0000

> <Gold.Chemscore.Lipo.Weighted>
-12.8445

> <Gold.Chemscore.Internal_Hbond.Weighted>
0.0000

> <Gold.Chemscore.DEClash.Weighted>
0.0212

> <Gold.Chemscore.DEInternal.Weighted>
0.5921

> <Gold.Chemscore.Rot.Weighted>
6.9748

> <Gold.Chemscore.Internal.Correction.Weighted>
   9.000000E+99

> <Gold.Protein.RotatedTorsions>
[ 6907 6896 6895 6894 ] final -114.72 input  -60.11 | X-H torsion
[ 7974 7965 7964 7962 ] final   95.70 input  175.53 | X-H torsion
[ 8008 7997 7996 7995 ] final  153.39 input   59.86 | X-H torsion
[ 10167 10162 10161 10158 ] final  -66.03 input  -65.29 | X-H torsion
[ 10718 10713 10712 10709 ] final  -89.31 input   66.30 | X-H torsion
[ 10763 10752 10751 10750 ] final   18.90 input  -60.55 | X-H torsion
[ 11005 11000 10999 10996 ] final  -38.52 input  -57.11 | X-H torsion

> <Gold.Protein.ActiveResidues>
 VAL166  LYS551  ARG553  GLY616  TRP617  ASP618  TYR619  PRO620  LYS621  CYS622 
 ASP623  PHE694  ASN695  SER759  ASP760  ASP761  ALA762  ILE779  LEU786  VAL792 
 PHE793  MET794  SER795  GLU796  ALA797  LYS798  CYS799  TRP800  GLU811  SER814 

> <Gold.Protein.RotatedAtoms>
  150.7923  133.8761  159.3272 H   0  0  0  0  0  0  0  0  0  0  0  0  # atno 6907 bound_to 6896
  151.6595  135.0989  160.0186 H   0  0  0  0  0  0  0  0  0  0  0  0  # atno 6908 bound_to 6896
  152.3999  133.6764  159.6343 H   0  0  0  0  0  0  0  0  0  0  0  0  # atno 6909 bound_to 6896
  145.4486  139.2295  143.3052 H   0  0  0  0  0  0  0  0  0  0  0  0  # atno 7974 bound_to 7965
  156.2584  140.1995  156.6482 H   0  0  0  0  0  0  0  0  0  0  0  0  # atno 8008 bound_to 7997
  154.6557  140.0566  157.0031 H   0  0  0  0  0  0  0  0  0  0  0  0  # atno 8009 bound_to 7997
  155.1351  140.3237  155.4468 H   0  0  0  0  0  0  0  0  0  0  0  0  # atno 8010 bound_to 7997
  140.5687  143.2316  151.6583 H   0  0  0  0  0  0  0  0  0  0  0  0  # atno 10167 bound_to 10162
  155.9984  130.4867  150.5151 H   0  0  0  0  0  0  0  0  0  0  0  0  # atno 10718 bound_to 10713
  153.1208  135.6719  153.9338 H   0  0  0  0  0  0  0  0  0  0  0  0  # atno 10763 bound_to 10752
  153.8854  135.3053  155.3447 H   0  0  0  0  0  0  0  0  0  0  0  0  # atno 10764 bound_to 10752
  154.7620  135.4983  153.9561 H   0  0  0  0  0  0  0  0  0  0  0  0  # atno 10765 bound_to 10752
  141.0033  133.6944  156.2064 H   0  0  0  0  0  0  0  0  0  0  0  0  # atno 11005 bound_to 11000
  146.2517  140.5243  142.8891 LP  0  0  0  0  0  0  0  0  0  0  0  0  # atno 17320 bound_to 7965
  144.8076  140.6327  143.6437 LP  0  0  0  0  0  0  0  0  0  0  0  0  # atno 17321 bound_to 7965
  139.5106  144.3537  152.0628 LP  0  0  0  0  0  0  0  0  0  0  0  0  # atno 17342 bound_to 10162
  140.2672  144.4003  150.6164 LP  0  0  0  0  0  0  0  0  0  0  0  0  # atno 17343 bound_to 10162
  157.3120  131.0665  151.1994 LP  0  0  0  0  0  0  0  0  0  0  0  0  # atno 17370 bound_to 10713
  157.2937  130.6809  149.6127 LP  0  0  0  0  0  0  0  0  0  0  0  0  # atno 17371 bound_to 10713
  140.6853  134.4724  157.5589 LP  0  0  0  0  0  0  0  0  0  0  0  0  # atno 17394 bound_to 11000
  139.9050  134.8469  156.1741 LP  0  0  0  0  0  0  0  0  0  0  0  0  # atno 17395 bound_to 11000

$$$$
