#       Name:                AV-unprocessed.smi:40
#       Creating user name   scv26
#       Creation time:       Thu Mar 26 16:20:54 2020


#       File generated by GOLD software.
#

@<TRIPOS>MOLECULE
AV-unprocessed.smi:40
    58    59     1
SMALL
NO_CHARGES


@<TRIPOS>ATOM
      1 ****        -6.2655   0.9870   1.0618 C.3            1 S1                 0.0000
      2 ****        -4.7439   0.9627   0.8653 C.3            1 S1                 0.0000
      3 ****        -4.1216  -0.4353   1.0153 C.3            1 S1                 0.0000
      4 ****        -4.4559  -1.3900  -0.1449 C.3            1 S1                 0.0000
      5 ****        -3.8182  -2.7765   0.0159 C.3            1 S1                 0.0000
      6 ****        -2.4058  -2.6574  -0.0196 O.3            1 S1                 0.0000
      7 ****        -1.6272  -3.7512   0.0584 C.2            1 S1                 0.0000
      8 ****        -2.0620  -4.8999   0.1374 O.2            1 S1                 0.0000
      9 ****        -0.2145  -3.4060   0.0780 N.am           1 S1                 0.0000
     10 ****         0.8701  -4.2173   0.1494 C.2            1 S1                 0.0000
     11 ****         0.8322  -5.4217   0.6986 N.2            1 S1                 0.0000
     12 ****         1.9152  -6.2525   0.7987 C.2            1 S1                 0.0000
     13 ****         1.8139  -7.3596   1.3260 O.2            1 S1                 0.0000
     14 ****         3.1451  -5.7829   0.2825 N.am           1 S1                 0.0000
     15 ****         4.3603  -6.6812   0.3904 C.3            1 S1                 0.0000
     16 ****         5.2635  -6.3684  -0.6321 O.3            1 S1                 0.0000
     17 ****         6.4531  -5.8102  -0.0827 C.3            1 S1                 0.0000
     18 ****         7.6388  -6.0778  -1.0164 C.3            1 S1                 0.0000
     19 ****         6.5595  -6.4931   1.2787 C.3            1 S1                 0.0000
     20 ****         7.4154  -5.8086   2.1740 O.3            1 S1                 0.0000
     21 ****         5.1061  -6.5370   1.7382 C.3            1 S1                 0.0000
     22 ****         4.7405  -5.3761   2.4704 O.3            1 S1                 0.0000
     23 ****         3.2135  -4.5153  -0.2771 C.2            1 S1                 0.0000
     24 ****         2.1285  -3.7159  -0.3611 C.2            1 S1                 0.0000
     25 ****         2.2200  -2.4901  -0.9055 F              1 S1                 0.0000
     26 ****         4.0057  -7.6960   0.2031 H              1 S1                 0.0000
     27 ****         6.3121  -4.7363   0.0478 H              1 S1                 0.0000
     28 ****         6.9231  -7.5136   1.1492 H              1 S1                 0.0000
     29 ****         4.9082  -7.4106   2.3600 H              1 S1                 0.0000
     30 ****        -6.6455   2.0072   1.0031 H              1 S1                 0.0000
     31 ****        -6.5427   0.5864   2.0372 H              1 S1                 0.0000
     32 ****        -6.7790   0.4027   0.2988 H              1 S1                 0.0000
     33 ****        -4.4896   1.3792  -0.1101 H              1 S1                 0.0000
     34 ****        -4.2913   1.6261   1.6030 H              1 S1                 0.0000
     35 ****        -3.0386  -0.3207   1.0772 H              1 S1                 0.0000
     36 ****        -4.4327  -0.8770   1.9627 H              1 S1                 0.0000
     37 ****        -5.5359  -1.5161  -0.2155 H              1 S1                 0.0000
     38 ****        -4.1359  -0.9504  -1.0904 H              1 S1                 0.0000
     39 ****        -4.1307  -3.2322   0.9563 H              1 S1                 0.0000
     40 ****        -4.1494  -3.4304  -0.7919 H              1 S1                 0.0000
     41 ****        -0.0339  -2.4169  -0.0145 H              1 S1                 0.0000
     42 ****         8.5635  -5.6798  -0.5983 H              1 S1                 0.0000
     43 ****         7.4820  -5.6073  -1.9870 H              1 S1                 0.0000
     44 ****         7.7790  -7.1465  -1.1823 H              1 S1                 0.0000
     45 ****         7.3677  -6.2329   3.0173 H              1 S1                 0.0000
     46 ****         4.9138  -4.6185   1.9331 H              1 S1                 0.0000
     47 ****         4.1486  -4.1339  -0.6579 H              1 S1                 0.0000
     48 ****        -3.0488  -5.0615   0.1464 LP             1 S1                 0.0000
     49 ****        -1.4284  -5.6717   0.1926 LP             1 S1                 0.0000
     50 ****        -0.0416  -5.7440   1.0626 LP             1 S1                 0.0000
     51 ****         0.9321  -7.6622   1.6879 LP             1 S1                 0.0000
     52 ****         2.6132  -7.9567   1.3926 LP             1 S1                 0.0000
     53 ****         4.8437  -5.7062  -1.2528 LP             1 S1                 0.0000
     54 ****         5.4917  -7.2006  -1.1375 LP             1 S1                 0.0000
     55 ****         7.1232  -4.8560   2.2585 LP             1 S1                 0.0000
     56 ****         8.3550  -5.8400   1.8332 LP             1 S1                 0.0000
     57 ****         5.2785  -5.3239   3.3117 LP             1 S1                 0.0000
     58 ****         3.7676  -5.4130   2.6986 LP             1 S1                 0.0000
@<TRIPOS>BOND
    1    1    2 1     
    2    1   30 1     
    3    1   31 1     
    4    1   32 1     
    5    2    3 1     
    6    2   33 1     
    7    2   34 1     
    8    3    4 1     
    9    3   35 1     
   10    3   36 1     
   11    4    5 1     
   12    4   37 1     
   13    4   38 1     
   14    5    6 1     
   15    5   39 1     
   16    5   40 1     
   17    6    7 1     
   18    7    8 2     
   19    7    9 am    
   20    9   10 1     
   21    9   41 1     
   22   10   24 1     
   23   10   11 2     
   24   11   12 1     
   25   12   13 2     
   26   12   14 am    
   27   14   15 1     
   28   14   23 1     
   29   15   26 1     
   30   15   21 1     
   31   15   16 1     
   32   16   17 1     
   33   17   27 1     
   34   17   18 1     
   35   17   19 1     
   36   18   42 1     
   37   18   43 1     
   38   18   44 1     
   39   19   28 1     
   40   19   20 1     
   41   19   21 1     
   42   20   45 1     
   43   21   29 1     
   44   21   22 1     
   45   22   46 1     
   46   23   24 2     
   47   23   47 1     
   48   24   25 1     
   49    8   48 1     
   50    8   49 1     
   51   11   50 1     
   52   13   51 1     
   53   13   52 1     
   54   16   53 1     
   55   16   54 1     
   56   20   55 1     
   57   20   56 1     
   58   22   57 1     
   59   22   58 1     
@<TRIPOS>SUBSTRUCTURE
      1 S1             1
@<TRIPOS>SET
LONE_PAIRS      STATIC     ATOMS    <user>   **** ""
11 48 49 50 51 52 53 54 55 56 57 58
DONOR_HYDROGENS      STATIC     ATOMS    <user>   **** ""
3 41 45 46
ATOM$BLUE        STATIC     ATOMS    COLORGROUP SYSTEM
11 48 49 50 51 52 53 54 55 56 57 58
ATOM$RED        STATIC     ATOMS    COLORGROUP SYSTEM
3 41 45 46
