AV-unprocessed.smi:2753|AV-procd|sdf|10612|dock5
  -GOLD-   2272015 63D 1   1.00000     0.00000
 Structure written by MMmdl.
 28 29  0  0  0  0  0  0  0  0  2 V2000
  150.8554  145.0312  159.3222 F   0  0  0  0  0  0  0  0  0  0  0  0
  151.7962  144.1605  158.9583 C   0  0  0  0  0  0  0  0  0  0  0  0
  152.5585  144.7529  158.0402 F   0  0  0  0  0  0  0  0  0  0  0  0
  152.5594  143.9238  160.0245 F   0  0  0  0  0  0  0  0  0  0  0  0
  151.1998  142.8975  158.4302 C   0  0  0  0  0  0  0  0  0  0  0  0
  151.4024  141.5790  158.7720 C   0  0  0  0  0  0  0  0  0  0  0  0
  150.5963  140.7567  157.9827 N   0  0  0  0  0  0  0  0  0  0  0  0
  149.9314  141.5917  157.1886 C   0  0  0  0  0  0  0  0  0  0  0  0
  148.9300  141.1901  156.1500 C   0  0  1  0  0  0  0  0  0  0  0  0
  147.5897  141.9300  156.3235 C   0  0  0  0  0  0  0  0  0  0  0  0
  146.5957  141.5105  155.2294 C   0  0  0  0  0  0  0  0  0  0  0  0
  147.2033  141.7066  153.8307 C   0  0  0  0  0  0  0  0  0  0  0  0
  148.4798  140.9697  153.7082 N   0  3  0  0  0  0  0  0  0  0  0  0
  149.4801  141.3751  154.7204 C   0  0  0  0  0  0  0  0  0  0  0  0
  150.2572  142.8698  157.4164 N   0  0  0  0  0  0  0  0  0  0  0  0
  149.8849  143.6755  156.9342 H   0  0  0  0  0  0  0  0  0  0  0  0
  152.0598  141.1609  159.5202 H   0  0  0  0  0  0  0  0  0  0  0  0
  148.7341  140.1251  156.2883 H   0  0  0  0  0  0  0  0  0  0  0  0
  147.1685  141.7242  157.3082 H   0  0  0  0  0  0  0  0  0  0  0  0
  147.7498  143.0080  156.2725 H   0  0  0  0  0  0  0  0  0  0  0  0
  146.3188  140.4643  155.3664 H   0  0  0  0  0  0  0  0  0  0  0  0
  145.6755  142.0882  155.3210 H   0  0  0  0  0  0  0  0  0  0  0  0
  146.5127  141.3541  153.0642 H   0  0  0  0  0  0  0  0  0  0  0  0
  147.3798  142.7658  153.6386 H   0  0  0  0  0  0  0  0  0  0  0  0
  148.2930  139.9829  153.8160 H   0  0  0  0  0  0  0  0  0  0  0  0
  149.7552  142.4164  154.5470 H   0  0  0  0  0  0  0  0  0  0  0  0
  150.3828  140.7797  154.5800 H   0  0  0  0  0  0  0  0  0  0  0  0
  148.8630  141.1299  152.7874 H   0  0  0  0  0  0  0  0  0  0  0  0
  1  2  1  0  0  0  0
  2  3  1  0  0  0  0
  2  4  1  0  0  0  0
  2  5  1  0  0  0  0
  5  6  2  0  0  0  0
  5 15  1  0  0  0  0
  6 17  1  0  0  0  0
  6  7  1  0  0  0  0
  7  8  2  0  0  0  0
  8 15  1  0  0  0  0
  8  9  1  0  0  0  0
  9 14  1  0  0  0  0
  9 10  1  0  0  0  0
  9 18  1  0  0  0  0
 10 11  1  0  0  0  0
 10 19  1  0  0  0  0
 10 20  1  0  0  0  0
 11 12  1  0  0  0  0
 11 21  1  0  0  0  0
 11 22  1  0  0  0  0
 12 13  1  0  0  0  0
 12 23  1  0  0  0  0
 12 24  1  0  0  0  0
 13 14  1  0  0  0  0
 13 25  1  0  0  0  0
 13 28  1  0  0  0  0
 14 26  1  0  0  0  0
 14 27  1  0  0  0  0
 15 16  1  0  0  0  0
M  CHG  1  13   1
M  END
> <s_m_source_file>
AV-unprocessed.smi

> <i_m_source_file_index>
2753

> <i_lp_mmshare_version>
43012

> <i_f3d_flags>
0

> <s_epik_input>
RkMoRikoRiljMVtjSF1bbkhdYyhuMSlbQ0BASF0yW0NIMl1bQ0gyXVtDSDJdW05IXVtDSDJdMg==

> <s_epik_cmdline>
J2VwaWtfcHl0aG9uJywgJy1waCcsICc3LjAnLCAnLXRuJywgJzgnLCAnLW1hJywgJzIwMCcsICctbWV0YWxfYmluZGluZycsICctaW1hZScsICc8aW5maWxlLm1hZT4nLCAnLW9tYWUnLCAnPG91dGZpbGUubWFlPic=

> <r_lp_tautomer_probability>
0.5

> <r_epik_Ionization_Penalty>
0.0187699

> <r_epik_Ionization_Penalty_Charging>
0.00116734

> <r_epik_Ionization_Penalty_Neutral>
0.0176026

> <r_epik_State_Penalty>
1.08926

> <r_epik_Charging_Adjusted_Penalty>
1.09042

> <i_epik_Tot_Q>
1

> <i_epik_Tot_abs_Q>
1

> <r_epik_Metal_State_Penalty>
1.1514

> <b_epik_Metal_Only>
0

> <s_lp_Force_Field>
OPLS_2005

> <r_lp_Energy>
13.0643

> <b_lp_Chiralities_Consistent>
1

> <s_lp_Variant>
AV-unprocessed.smi:2753-4

> <Gold.Version>
5.8.1

> <Gold.Id.Protein>
6NUR|6NUR_protein|mol2

> <Gold.PLP.Fitness>
39.5829

> <Gold.PLP.PLP>
-34.4994

> <Gold.PLP.part.hbond>
-2.0000

> <Gold.PLP.part.metal>
0.0000

> <Gold.PLP.part.buried>
-4.0449

> <Gold.PLP.part.nonpolar>
-28.2269

> <Gold.PLP.part.repulsive>
0.1891

> <Gold.PLP.ligand.clash>
0.0000

> <Gold.PLP.ligand.torsion>
0.3163

> <Gold.PLP.Chemscore.Hbond>
1.8960

> <Gold.PLP.Chemscore.CHOScore>
0.0000

> <Gold.PLP.Chemscore.Metal>
0.0000

> <Gold.Chemscore.Hbonds>
donor molecule, donor type, donor heavy atom, donor atom, acceptor molecule, acceptor atom, score
      L1  H    13    28       P1  7957  0.70
      L1  H    15    16       P1  8028  1.00

> <Gold.PLP.Chemscore.Internal.Correction>
0.0281

> <Gold.Rescore>
     Score         DG    S(hbond)    S(metal)    S(lipo)     H(rot)  DE(clash)    DE(int)     intcor
     15.90     -16.24       1.98        0.00      57.41       1.00       0.14       0.20       ----

> <Gold.Chemscore.Fitness>
15.8985

> <Gold.Chemscore.DG>
-16.2409

> <Gold.Chemscore.ZeroCoef>
-5.4800

> <Gold.Chemscore.Hbond>
1.9772

> <Gold.Chemscore.Metal>
0.0000

> <Gold.Chemscore.Lipo>
57.4102

> <Gold.Chemscore.Internal_Hbond>
0.0000

> <Gold.Chemscore.DEClash>
0.1437

> <Gold.Chemscore.DEInternal>
0.1988

> <Gold.Chemscore.Rot>
1.0000

> <Gold.Chemscore.Internal.Correction>
   9.000000E+99

> <Gold.Chemscore.Hbonds>
donor molecule, donor type, donor heavy atom, donor atom, acceptor molecule, acceptor atom, score
      L1  H    13    28       P1  7957  0.67
      L1  H    15    16       P1  8028  0.98

> <Gold.Chemscore.Hbond.Weighted>
-6.6039

> <Gold.Chemscore.Metal.Weighted>
-0.0000

> <Gold.Chemscore.Lipo.Weighted>
-6.7170

> <Gold.Chemscore.Internal_Hbond.Weighted>
0.0000

> <Gold.Chemscore.DEClash.Weighted>
0.1437

> <Gold.Chemscore.DEInternal.Weighted>
0.1988

> <Gold.Chemscore.Rot.Weighted>
2.5600

> <Gold.Chemscore.Internal.Correction.Weighted>
   9.000000E+99

> <Gold.Protein.RotatedTorsions>
[ 6907 6896 6895 6894 ] final -174.14 input  -60.11 | X-H torsion
[ 7974 7965 7964 7962 ] final   -9.46 input  175.53 | X-H torsion
[ 8008 7997 7996 7995 ] final   -2.20 input   59.86 | X-H torsion
[ 10167 10162 10161 10158 ] final  -63.33 input  -65.29 | X-H torsion
[ 10718 10713 10712 10709 ] final   52.78 input   66.30 | X-H torsion
[ 10763 10752 10751 10750 ] final   -2.31 input  -60.55 | X-H torsion
[ 11005 11000 10999 10996 ] final  -27.11 input  -57.11 | X-H torsion

> <Gold.Protein.ActiveResidues>
 VAL166  LYS551  ARG553  GLY616  TRP617  ASP618  TYR619  PRO620  LYS621  CYS622 
 ASP623  PHE694  ASN695  SER759  ASP760  ASP761  ALA762  ILE779  LEU786  VAL792 
 PHE793  MET794  SER795  GLU796  ALA797  LYS798  CYS799  TRP800  GLU811  SER814 

> <Gold.Protein.RotatedAtoms>
  151.5675  133.3394  159.2982 H   0  0  0  0  0  0  0  0  0  0  0  0  # atno 6907 bound_to 6896
  150.8387  134.7673  159.6925 H   0  0  0  0  0  0  0  0  0  0  0  0  # atno 6908 bound_to 6896
  152.4458  134.5503  159.9916 H   0  0  0  0  0  0  0  0  0  0  0  0  # atno 6909 bound_to 6896
  146.2251  140.2619  142.8352 H   0  0  0  0  0  0  0  0  0  0  0  0  # atno 7974 bound_to 7965
  154.6384  140.2540  155.7351 H   0  0  0  0  0  0  0  0  0  0  0  0  # atno 8008 bound_to 7997
  156.2516  140.2892  156.0687 H   0  0  0  0  0  0  0  0  0  0  0  0  # atno 8009 bound_to 7997
  155.1635  140.0385  157.2838 H   0  0  0  0  0  0  0  0  0  0  0  0  # atno 8010 bound_to 7997
  140.5878  143.2336  151.6206 H   0  0  0  0  0  0  0  0  0  0  0  0  # atno 10167 bound_to 10162
  157.5106  130.8498  149.8430 H   0  0  0  0  0  0  0  0  0  0  0  0  # atno 10718 bound_to 10713
  153.3563  135.6988  153.6748 H   0  0  0  0  0  0  0  0  0  0  0  0  # atno 10763 bound_to 10752
  153.5454  135.3564  155.2737 H   0  0  0  0  0  0  0  0  0  0  0  0  # atno 10764 bound_to 10752
  154.8661  135.4213  154.2810 H   0  0  0  0  0  0  0  0  0  0  0  0  # atno 10765 bound_to 10752
  140.9090  133.7474  156.0644 H   0  0  0  0  0  0  0  0  0  0  0  0  # atno 11005 bound_to 11000
  144.9333  140.7999  143.5676 LP  0  0  0  0  0  0  0  0  0  0  0  0  # atno 17320 bound_to 7965
  145.2564  139.2010  143.4915 LP  0  0  0  0  0  0  0  0  0  0  0  0  # atno 17321 bound_to 7965
  139.5208  144.3211  152.0909 LP  0  0  0  0  0  0  0  0  0  0  0  0  # atno 17342 bound_to 10162
  140.2371  144.4308  150.6275 LP  0  0  0  0  0  0  0  0  0  0  0  0  # atno 17343 bound_to 10162
  156.0287  130.3771  150.1750 LP  0  0  0  0  0  0  0  0  0  0  0  0  # atno 17370 bound_to 10713
  156.9940  130.9902  151.3408 LP  0  0  0  0  0  0  0  0  0  0  0  0  # atno 17371 bound_to 10713
  140.8135  134.3372  157.5404 LP  0  0  0  0  0  0  0  0  0  0  0  0  # atno 17394 bound_to 11000
  139.8754  134.9268  156.3408 LP  0  0  0  0  0  0  0  0  0  0  0  0  # atno 17395 bound_to 11000

$$$$
