AV-unprocessed.smi:2819|AV-procd|sdf|10851|dock4
  -GOLD-   2272015293D 1   1.00000     0.00000
 Structure written by MMmdl.
 51 52  0  0  0  0  0  0  0  0  3 V2000
  153.2385  142.6025  162.2989 C   0  0  0  0  0  0  0  0  0  0  0  0
  152.7571  142.3256  160.9492 N   0  0  0  0  0  0  0  0  0  0  0  0
  153.2294  141.1474  160.2327 C   0  0  0  0  0  0  0  0  0  0  0  0
  151.8763  143.2306  160.3168 C   0  0  0  0  0  0  0  0  0  0  0  0
  151.7418  144.5700  160.7402 C   0  0  0  0  0  0  0  0  0  0  0  0
  150.8348  145.3809  160.0358 C   0  0  0  0  0  0  0  0  0  0  0  0
  150.1261  144.8777  158.9968 N   0  3  0  0  0  0  0  0  0  0  0  0
  150.2901  143.5965  158.6324 C   0  0  0  0  0  0  0  0  0  0  0  0
  149.5303  143.1541  157.5705 N   0  0  0  0  0  0  0  0  0  0  0  0
  149.1440  141.9080  157.2340 C   0  0  0  0  0  0  0  0  0  0  0  0
  149.4440  140.8803  157.8425 O   0  0  0  0  0  0  0  0  0  0  0  0
  148.3755  141.9137  156.1336 N   0  0  0  0  0  0  0  0  0  0  0  0
  147.8145  140.7292  155.4827 C   0  0  0  0  0  0  0  0  0  0  0  0
  146.4240  140.9760  154.8215 C   0  0  0  0  0  0  0  0  0  0  0  0
  145.3388  141.1966  155.9052 C   0  0  0  0  0  0  0  0  0  0  0  0
  146.4676  142.2809  153.9874 C   0  0  0  0  0  0  0  0  0  0  0  0
  146.0239  139.8206  153.9384 N   0  3  0  0  0  0  0  0  0  0  0  0
  146.9741  139.4835  152.8401 C   0  0  0  0  0  0  0  0  0  0  0  0
  146.3711  138.4197  151.9075 C   0  0  0  0  0  0  0  0  0  0  0  0
  146.0392  137.2601  152.6572 O   0  0  0  0  0  0  0  0  0  0  0  0
  145.0625  137.5399  153.6494 C   0  0  0  0  0  0  0  0  0  0  0  0
  145.6170  138.5724  154.6453 C   0  0  0  0  0  0  0  0  0  0  0  0
  151.1441  142.7819  159.2719 N   0  0  0  0  0  0  0  0  0  0  0  0
  153.8165  143.5268  162.3176 H   0  0  0  0  0  0  0  0  0  0  0  0
  153.8786  141.7999  162.6655 H   0  0  0  0  0  0  0  0  0  0  0  0
  152.4023  142.7030  162.9918 H   0  0  0  0  0  0  0  0  0  0  0  0
  153.7350  141.4365  159.3110 H   0  0  0  0  0  0  0  0  0  0  0  0
  152.3963  140.4899  159.9835 H   0  0  0  0  0  0  0  0  0  0  0  0
  153.9367  140.5749  160.8331 H   0  0  0  0  0  0  0  0  0  0  0  0
  152.3026  144.9798  161.5670 H   0  0  0  0  0  0  0  0  0  0  0  0
  150.6524  146.4193  160.2709 H   0  0  0  0  0  0  0  0  0  0  0  0
  149.2104  143.8840  156.9516 H   0  0  0  0  0  0  0  0  0  0  0  0
  148.1748  142.8025  155.6982 H   0  0  0  0  0  0  0  0  0  0  0  0
  148.5428  140.4262  154.7312 H   0  0  0  0  0  0  0  0  0  0  0  0
  147.7683  139.9068  156.1968 H   0  0  0  0  0  0  0  0  0  0  0  0
  145.4750  142.1427  156.4296 H   0  0  0  0  0  0  0  0  0  0  0  0
  145.3538  140.4216  156.6713 H   0  0  0  0  0  0  0  0  0  0  0  0
  144.3395  141.2186  155.4685 H   0  0  0  0  0  0  0  0  0  0  0  0
  146.5564  143.1631  154.6222 H   0  0  0  0  0  0  0  0  0  0  0  0
  145.5601  142.4049  153.3952 H   0  0  0  0  0  0  0  0  0  0  0  0
  147.3189  142.3115  153.3078 H   0  0  0  0  0  0  0  0  0  0  0  0
  147.2148  140.3557  152.2358 H   0  0  0  0  0  0  0  0  0  0  0  0
  147.9107  139.1076  153.2519 H   0  0  0  0  0  0  0  0  0  0  0  0
  145.4880  138.8041  151.3945 H   0  0  0  0  0  0  0  0  0  0  0  0
  147.0919  138.1453  151.1370 H   0  0  0  0  0  0  0  0  0  0  0  0
  144.1434  137.9001  153.1842 H   0  0  0  0  0  0  0  0  0  0  0  0
  144.8139  136.6140  154.1685 H   0  0  0  0  0  0  0  0  0  0  0  0
  146.4680  138.1407  155.1721 H   0  0  0  0  0  0  0  0  0  0  0  0
  144.8429  138.7639  155.3859 H   0  0  0  0  0  0  0  0  0  0  0  0
  149.4728  145.4847  158.5010 H   0  0  0  0  0  0  0  0  0  0  0  0
  145.1869  140.1394  153.4711 H   0  0  0  0  0  0  0  0  0  0  0  0
  1  2  1  0  0  0  0
  1 24  1  0  0  0  0
  1 25  1  0  0  0  0
  1 26  1  0  0  0  0
  2  3  1  0  0  0  0
  2  4  1  0  0  0  0
  3 27  1  0  0  0  0
  3 28  1  0  0  0  0
  3 29  1  0  0  0  0
  4 23  1  0  0  0  0
  4  5  2  0  0  0  0
  5  6  1  0  0  0  0
  5 30  1  0  0  0  0
  6  7  2  0  0  0  0
  6 31  1  0  0  0  0
  7  8  1  0  0  0  0
  7 50  1  0  0  0  0
  8  9  1  0  0  0  0
  8 23  2  0  0  0  0
  9 10  1  0  0  0  0
  9 32  1  0  0  0  0
 10 11  2  0  0  0  0
 10 12  1  0  0  0  0
 12 13  1  0  0  0  0
 12 33  1  0  0  0  0
 13 14  1  0  0  0  0
 13 34  1  0  0  0  0
 13 35  1  0  0  0  0
 14 15  1  0  0  0  0
 14 16  1  0  0  0  0
 14 17  1  0  0  0  0
 15 36  1  0  0  0  0
 15 37  1  0  0  0  0
 15 38  1  0  0  0  0
 16 39  1  0  0  0  0
 16 40  1  0  0  0  0
 16 41  1  0  0  0  0
 17 22  1  0  0  0  0
 17 18  1  0  0  0  0
 17 51  1  0  0  0  0
 18 19  1  0  0  0  0
 18 42  1  0  0  0  0
 18 43  1  0  0  0  0
 19 20  1  0  0  0  0
 19 44  1  0  0  0  0
 19 45  1  0  0  0  0
 20 21  1  0  0  0  0
 21 22  1  0  0  0  0
 21 46  1  0  0  0  0
 21 47  1  0  0  0  0
 22 48  1  0  0  0  0
 22 49  1  0  0  0  0
M  CHG  1   7   1
M  CHG  1  17   1
M  END
> <s_m_source_file>
AV-unprocessed.smi

> <i_m_source_file_index>
2819

> <i_lp_mmshare_version>
43012

> <i_f3d_flags>
0

> <s_epik_input>
W0NIM11OKFtDSDNdKWMxW2NIXVtjSF1uYyhuMSlbTkhdQyg9TylbTkhdW0NIMl1DKFtDSDNdKShbQ0gzXSlOMltDSDJdW0NIMl1PW0NIMl1bQ0gyXTI=

> <s_epik_cmdline>
J2VwaWtfcHl0aG9uJywgJy1waCcsICc3LjAnLCAnLXRuJywgJzgnLCAnLW1hJywgJzIwMCcsICctbWV0YWxfYmluZGluZycsICctaW1hZScsICc8aW5maWxlLm1hZT4nLCAnLW9tYWUnLCAnPG91dGZpbGUubWFlPic=

> <r_lp_tautomer_probability>
0.999336

> <r_epik_Ionization_Penalty>
0.713728

> <r_epik_Ionization_Penalty_Charging>
0.713701

> <r_epik_Ionization_Penalty_Neutral>
2.70516e-05

> <r_epik_State_Penalty>
0.725459

> <r_epik_Charging_Adjusted_Penalty>
1.43916

> <i_epik_Tot_Q>
2

> <i_epik_Tot_abs_Q>
2

> <r_epik_Metal_State_Penalty>
1.06371

> <b_epik_Metal_Only>
0

> <s_lp_Force_Field>
OPLS_2005

> <r_lp_Energy>
33.0145

> <b_lp_Chiralities_Consistent>
1

> <s_lp_Variant>
AV-unprocessed.smi:2819-2

> <Gold.Version>
5.8.1

> <Gold.Id.Protein>
6NUR|6NUR_protein|mol2

> <Gold.PLP.Fitness>
58.6358

> <Gold.PLP.PLP>
-42.8446

> <Gold.PLP.part.hbond>
-4.2958

> <Gold.PLP.part.metal>
0.0000

> <Gold.PLP.part.buried>
-3.5204

> <Gold.PLP.part.nonpolar>
-36.9011

> <Gold.PLP.part.repulsive>
1.1496

> <Gold.PLP.ligand.clash>
0.0000

> <Gold.PLP.ligand.torsion>
0.7085

> <Gold.PLP.Chemscore.Hbond>
5.6923

> <Gold.PLP.Chemscore.CHOScore>
0.0000

> <Gold.PLP.Chemscore.Metal>
0.0000

> <Gold.Chemscore.Hbonds>
donor molecule, donor type, donor heavy atom, donor atom, acceptor molecule, acceptor atom, score
      L1  H     7    50       P1  8029  1.95
      L1  H     9    32       P1  8028  1.00
      L1  H    12    33       P1  8028  0.82
      L1  H    17    51       P1 10175  2.00

> <Gold.PLP.Chemscore.Internal.Correction>
0.1314

> <Gold.Rescore>
     Score         DG    S(hbond)    S(metal)    S(lipo)     H(rot)  DE(clash)    DE(int)     intcor
     20.83     -22.47       3.50        0.00      79.63       1.57       0.08       1.55       ----

> <Gold.Chemscore.Fitness>
20.8316

> <Gold.Chemscore.DG>
-22.4691

> <Gold.Chemscore.ZeroCoef>
-5.4800

> <Gold.Chemscore.Hbond>
3.5015

> <Gold.Chemscore.Metal>
0.0000

> <Gold.Chemscore.Lipo>
79.6307

> <Gold.Chemscore.Internal_Hbond>
0.0000

> <Gold.Chemscore.DEClash>
0.0827

> <Gold.Chemscore.DEInternal>
1.5548

> <Gold.Chemscore.Rot>
1.5713

> <Gold.Chemscore.Internal.Correction>
   9.000000E+99

> <Gold.Chemscore.Hbonds>
donor molecule, donor type, donor heavy atom, donor atom, acceptor molecule, acceptor atom, score
      L1  H     7    50       P1  8029  0.81
      L1  H     9    32       P1  8028  0.53
      L1  H    12    33       P1  8028  0.70
      L1  H    17    51       P1 10175  1.00

> <Gold.Chemscore.Hbond.Weighted>
-11.6949

> <Gold.Chemscore.Metal.Weighted>
-0.0000

> <Gold.Chemscore.Lipo.Weighted>
-9.3168

> <Gold.Chemscore.Internal_Hbond.Weighted>
0.0000

> <Gold.Chemscore.DEClash.Weighted>
0.0827

> <Gold.Chemscore.DEInternal.Weighted>
1.5548

> <Gold.Chemscore.Rot.Weighted>
4.0225

> <Gold.Chemscore.Internal.Correction.Weighted>
   9.000000E+99

> <Gold.Protein.RotatedTorsions>
[ 6907 6896 6895 6894 ] final  -78.67 input  -60.11 | X-H torsion
[ 7974 7965 7964 7962 ] final -171.22 input  175.53 | X-H torsion
[ 8008 7997 7996 7995 ] final   52.00 input   59.86 | X-H torsion
[ 10167 10162 10161 10158 ] final -107.57 input  -65.29 | X-H torsion
[ 10718 10713 10712 10709 ] final -172.62 input   66.30 | X-H torsion
[ 10763 10752 10751 10750 ] final   87.11 input  -60.55 | X-H torsion
[ 11005 11000 10999 10996 ] final  -52.99 input  -57.11 | X-H torsion

> <Gold.Protein.ActiveResidues>
 VAL166  LYS551  ARG553  GLY616  TRP617  ASP618  TYR619  PRO620  LYS621  CYS622 
 ASP623  PHE694  ASN695  SER759  ASP760  ASP761  ALA762  ILE779  LEU786  VAL792 
 PHE793  MET794  SER795  GLU796  ALA797  LYS798  CYS799  TRP800  GLU811  SER814 

> <Gold.Protein.RotatedAtoms>
  150.6967  134.4237  159.5216 H   0  0  0  0  0  0  0  0  0  0  0  0  # atno 6907 bound_to 6896
  152.1975  134.8614  160.0520 H   0  0  0  0  0  0  0  0  0  0  0  0  # atno 6908 bound_to 6896
  151.9547  133.3642  159.4050 H   0  0  0  0  0  0  0  0  0  0  0  0  # atno 6909 bound_to 6896
  144.7160  140.1955  143.6344 H   0  0  0  0  0  0  0  0  0  0  0  0  # atno 7974 bound_to 7965
  155.4446  140.3456  155.4294 H   0  0  0  0  0  0  0  0  0  0  0  0  # atno 8008 bound_to 7997
  156.1258  140.1500  156.9169 H   0  0  0  0  0  0  0  0  0  0  0  0  # atno 8009 bound_to 7997
  154.4857  140.0856  156.7460 H   0  0  0  0  0  0  0  0  0  0  0  0  # atno 8010 bound_to 7997
  140.1756  143.4008  152.1321 H   0  0  0  0  0  0  0  0  0  0  0  0  # atno 10167 bound_to 10162
  156.7583  130.9404  151.3117 H   0  0  0  0  0  0  0  0  0  0  0  0  # atno 10718 bound_to 10713
  153.1636  135.4555  154.9806 H   0  0  0  0  0  0  0  0  0  0  0  0  # atno 10763 bound_to 10752
  154.7915  135.3222  154.7768 H   0  0  0  0  0  0  0  0  0  0  0  0  # atno 10764 bound_to 10752
  153.8254  135.6943  153.4876 H   0  0  0  0  0  0  0  0  0  0  0  0  # atno 10765 bound_to 10752
  141.0953  133.6625  156.4106 H   0  0  0  0  0  0  0  0  0  0  0  0  # atno 11005 bound_to 11000
  145.8729  139.2281  143.1650 LP  0  0  0  0  0  0  0  0  0  0  0  0  # atno 17320 bound_to 7965
  146.0068  140.8471  142.9991 LP  0  0  0  0  0  0  0  0  0  0  0  0  # atno 17321 bound_to 7965
  139.5319  144.7168  151.5028 LP  0  0  0  0  0  0  0  0  0  0  0  0  # atno 17342 bound_to 10162
  140.6554  143.8611  150.6829 LP  0  0  0  0  0  0  0  0  0  0  0  0  # atno 17343 bound_to 10162
  157.6746  130.9083  150.0120 LP  0  0  0  0  0  0  0  0  0  0  0  0  # atno 17370 bound_to 10713
  156.1356  130.3643  149.9663 LP  0  0  0  0  0  0  0  0  0  0  0  0  # atno 17371 bound_to 10713
  140.5155  134.6354  157.5300 LP  0  0  0  0  0  0  0  0  0  0  0  0  # atno 17394 bound_to 11000
  139.9788  134.7171  155.9899 LP  0  0  0  0  0  0  0  0  0  0  0  0  # atno 17395 bound_to 11000

$$$$
