#       Name:                AV-unprocessed.smi:2758
#       Creating user name   scv26
#       Creation time:       Fri Mar 27 15:07:11 2020


#       File generated by GOLD software.
#

@<TRIPOS>MOLECULE
AV-unprocessed.smi:2758
    37    38     1
SMALL
NO_CHARGES


@<TRIPOS>ATOM
      1 ****        -4.8345   0.7380  -0.7147 C.3            1 S1                 0.0000
      2 ****        -3.4182   0.7623  -0.7393 O.3            1 S1                 0.0000
      3 ****        -2.8522  -0.5356  -0.8350 C.3            1 S1                 0.0000
      4 ****        -1.3166  -0.4519  -0.8452 C.3            1 S1                 0.0000
      5 ****        -0.8773  -0.0426  -2.1248 O.3            1 S1                 0.0000
      6 ****        -0.7374   0.4493   0.2645 C.3            1 S1                 0.0000
      7 ****         0.7322   0.5035   0.2487 N.pl3          1 S1                 0.0000
      8 ****         1.5756   1.4536  -0.2477 C.2            1 S1                 0.0000
      9 ****         1.1872   2.7228  -0.9289 C.3            1 S1                 0.0000
     10 ****         2.8483   1.0293  -0.0060 N.pl3          1 S1                 1.0000
     11 ****         2.8188  -0.2012   0.6526 C.ar           1 S1                 0.0000
     12 ****         3.8499  -1.0197   1.1035 C.ar           1 S1                 0.0000
     13 ****         3.4720  -2.2191   1.7426 C.ar           1 S1                 0.0000
     14 ****         2.1154  -2.5652   1.9127 C.ar           1 S1                 0.0000
     15 ****         1.0788  -1.7273   1.4514 C.ar           1 S1                 0.0000
     16 ****         1.4616  -0.5441   0.8207 C.ar           1 S1                 0.0000
     17 ****        -0.9331  -1.4634  -0.7098 H              1 S1                 0.0000
     18 ****        -5.2172   1.7565  -0.6498 H              1 S1                 0.0000
     19 ****        -5.2040   0.1837   0.1490 H              1 S1                 0.0000
     20 ****        -5.2376   0.2841  -1.6211 H              1 S1                 0.0000
     21 ****        -3.1715  -1.1209   0.0288 H              1 S1                 0.0000
     22 ****        -3.2155  -1.0536  -1.7244 H              1 S1                 0.0000
     23 ****         0.0670  -0.0655  -2.1386 H              1 S1                 0.0000
     24 ****        -1.1029   1.4711   0.1573 H              1 S1                 0.0000
     25 ****        -1.0603   0.1106   1.2497 H              1 S1                 0.0000
     26 ****         2.0667   3.2321  -1.3237 H              1 S1                 0.0000
     27 ****         0.6865   3.3880  -0.2254 H              1 S1                 0.0000
     28 ****         0.5073   2.5149  -1.7554 H              1 S1                 0.0000
     29 ****         4.8897  -0.7571   0.9745 H              1 S1                 0.0000
     30 ****         4.2379  -2.8868   2.1099 H              1 S1                 0.0000
     31 ****         1.8646  -3.4922   2.4079 H              1 S1                 0.0000
     32 ****         0.0427  -2.0004   1.5865 H              1 S1                 0.0000
     33 ****         3.6760   1.5476  -0.2716 H              1 S1                 0.0000
     34 ****        -3.0905   1.1935   0.1014 LP             1 S1                 0.0000
     35 ****        -3.1207   1.3005  -1.5278 LP             1 S1                 0.0000
     36 ****        -1.1950   0.8875  -2.3091 LP             1 S1                 0.0000
     37 ****        -1.2401  -0.6627  -2.8204 LP             1 S1                 0.0000
@<TRIPOS>BOND
    1    1    2 1     
    2    1   18 1     
    3    1   19 1     
    4    1   20 1     
    5    2    3 1     
    6    3    4 1     
    7    3   21 1     
    8    3   22 1     
    9    4   17 1     
   10    4    5 1     
   11    4    6 1     
   12    5   23 1     
   13    6    7 1     
   14    6   24 1     
   15    6   25 1     
   16    7   16 1     
   17    7    8 1     
   18    8    9 1     
   19    8   10 2     
   20    9   26 1     
   21    9   27 1     
   22    9   28 1     
   23   10   11 1     
   24   10   33 1     
   25   11   16 ar    
   26   11   12 ar    
   27   12   13 ar    
   28   12   29 1     
   29   13   14 ar    
   30   13   30 1     
   31   14   15 ar    
   32   14   31 1     
   33   15   16 ar    
   34   15   32 1     
   35    2   34 1     
   36    2   35 1     
   37    5   36 1     
   38    5   37 1     
@<TRIPOS>SUBSTRUCTURE
      1 S1             1
@<TRIPOS>SET
LONE_PAIRS      STATIC     ATOMS    <user>   **** ""
4 34 35 36 37
DONOR_HYDROGENS      STATIC     ATOMS    <user>   **** ""
2 23 33
ATOM$BLUE        STATIC     ATOMS    COLORGROUP SYSTEM
4 34 35 36 37
ATOM$RED        STATIC     ATOMS    COLORGROUP SYSTEM
2 23 33
