#       Name:                AV-unprocessed.smi:1149
#       Creating user name   scv26
#       Creation time:       Fri Mar 27 03:46:35 2020


#       File generated by GOLD software.
#

@<TRIPOS>MOLECULE
AV-unprocessed.smi:1149
    57    58     1
SMALL
NO_CHARGES


@<TRIPOS>ATOM
      1 ****        -2.8062   8.0385  -2.8402 C.3            1 S1                 0.0000
      2 ****        -2.9584   6.7244  -3.3657 O.3            1 S1                 0.0000
      3 ****        -2.5643   5.6573  -2.5846 C.ar           1 S1                 0.0000
      4 ****        -2.7193   4.3534  -3.0955 C.ar           1 S1                 0.0000
      5 ****        -2.3199   3.2591  -2.3047 C.ar           1 S1                 0.0000
      6 ****        -1.7670   3.5054  -1.0250 C.ar           1 S1                 0.0000
      7 ****        -1.3413   2.4925  -0.1232 N.am           1 S1                 0.0000
      8 ****        -1.0280   1.2117  -0.3839 C.2            1 S1                 0.0000
      9 ****        -1.0362   0.6866  -1.4967 O.2            1 S1                 0.0000
     10 ****        -0.6706   0.5644   0.7349 N.am           1 S1                 0.0000
     11 ****        -0.2602  -0.8375   0.8130 C.3            1 S1                 0.0000
     12 ****         1.2845  -1.0281   0.9019 C.3            1 S1                 0.0000
     13 ****         1.9808  -0.3968  -0.3304 C.3            1 S1                 0.0000
     14 ****         1.8317  -0.2690   2.1367 C.3            1 S1                 0.0000
     15 ****         1.6524  -2.4874   0.9984 N.4            1 S1                 1.0000
     16 ****         1.3614  -3.3137  -0.2086 C.3            1 S1                 0.0000
     17 ****         1.9825  -4.7197  -0.0725 C.3            1 S1                 0.0000
     18 ****         1.5106  -5.4217   1.1201 N.3            1 S1                 0.0000
     19 ****         0.1192  -5.8499   1.0213 C.3            1 S1                 0.0000
     20 ****         1.7841  -4.6115   2.3066 C.3            1 S1                 0.0000
     21 ****         1.1602  -3.2033   2.2104 C.3            1 S1                 0.0000
     22 ****        -1.6667   4.8471  -0.6021 C.ar           1 S1                 0.0000
     23 ****        -2.0479   5.9002  -1.3547 N.ar           1 S1                 0.0000
     24 ****        -3.1560   8.7635  -3.5749 H              1 S1                 0.0000
     25 ****        -1.7607   8.2641  -2.6251 H              1 S1                 0.0000
     26 ****        -3.3965   8.1759  -1.9331 H              1 S1                 0.0000
     27 ****        -3.1425   4.1944  -4.0764 H              1 S1                 0.0000
     28 ****        -2.4589   2.2616  -2.6908 H              1 S1                 0.0000
     29 ****        -1.2120   2.7950   0.8312 H              1 S1                 0.0000
     30 ****        -0.6877   1.0797   1.6030 H              1 S1                 0.0000
     31 ****        -0.7452  -1.2432   1.7002 H              1 S1                 0.0000
     32 ****        -0.6758  -1.3902  -0.0300 H              1 S1                 0.0000
     33 ****         1.9213   0.6919  -0.3171 H              1 S1                 0.0000
     34 ****         1.5257  -0.7107  -1.2697 H              1 S1                 0.0000
     35 ****         3.0399  -0.6550  -0.3655 H              1 S1                 0.0000
     36 ****         1.7613   0.8119   2.0089 H              1 S1                 0.0000
     37 ****         2.8827  -0.5013   2.3133 H              1 S1                 0.0000
     38 ****         1.2785  -0.5004   3.0465 H              1 S1                 0.0000
     39 ****         0.2877  -3.3851  -0.3790 H              1 S1                 0.0000
     40 ****         1.7877  -2.8665  -1.1041 H              1 S1                 0.0000
     41 ****         1.7655  -5.3185  -0.9578 H              1 S1                 0.0000
     42 ****         3.0688  -4.6342  -0.0182 H              1 S1                 0.0000
     43 ****        -0.1649  -6.4155   1.9091 H              1 S1                 0.0000
     44 ****        -0.0130  -6.5031   0.1580 H              1 S1                 0.0000
     45 ****        -0.5723  -5.0144   0.9194 H              1 S1                 0.0000
     46 ****         1.4182  -5.1297   3.1939 H              1 S1                 0.0000
     47 ****         2.8649  -4.5241   2.4259 H              1 S1                 0.0000
     48 ****         1.4330  -2.6697   3.1184 H              1 S1                 0.0000
     49 ****         0.0727  -3.2711   2.2051 H              1 S1                 0.0000
     50 ****        -1.2631   5.0861   0.3710 H              1 S1                 0.0000
     51 ****         2.6591  -2.4917   1.0809 H              1 S1                 0.0000
     52 ****        -2.4300   6.6816  -4.2136 LP             1 S1                 0.0000
     53 ****        -3.9289   6.5983  -3.5711 LP             1 S1                 0.0000
     54 ****        -1.2916   1.2232  -2.3009 LP             1 S1                 0.0000
     55 ****        -0.7875  -0.2768  -1.5968 LP             1 S1                 0.0000
     56 ****         2.0228  -6.2765   1.2034 LP             1 S1                 0.0000
     57 ****        -1.9520   6.8355  -1.0141 LP             1 S1                 0.0000
@<TRIPOS>BOND
    1    1    2 1     
    2    1   24 1     
    3    1   25 1     
    4    1   26 1     
    5    2    3 1     
    6    3   23 ar    
    7    3    4 ar    
    8    4    5 ar    
    9    4   27 1     
   10    5    6 ar    
   11    5   28 1     
   12    6    7 1     
   13    6   22 ar    
   14    7    8 am    
   15    7   29 1     
   16    8    9 2     
   17    8   10 am    
   18   10   11 1     
   19   10   30 1     
   20   11   12 1     
   21   11   31 1     
   22   11   32 1     
   23   12   13 1     
   24   12   14 1     
   25   12   15 1     
   26   13   33 1     
   27   13   34 1     
   28   13   35 1     
   29   14   36 1     
   30   14   37 1     
   31   14   38 1     
   32   15   21 1     
   33   15   16 1     
   34   15   51 1     
   35   16   17 1     
   36   16   39 1     
   37   16   40 1     
   38   17   18 1     
   39   17   41 1     
   40   17   42 1     
   41   18   19 1     
   42   18   20 1     
   43   19   43 1     
   44   19   44 1     
   45   19   45 1     
   46   20   21 1     
   47   20   46 1     
   48   20   47 1     
   49   21   48 1     
   50   21   49 1     
   51   22   23 ar    
   52   22   50 1     
   53    2   52 1     
   54    2   53 1     
   55    9   54 1     
   56    9   55 1     
   57   18   56 1     
   58   23   57 1     
@<TRIPOS>SUBSTRUCTURE
      1 S1             1
@<TRIPOS>SET
LONE_PAIRS      STATIC     ATOMS    <user>   **** ""
6 52 53 54 55 56 57
DONOR_HYDROGENS      STATIC     ATOMS    <user>   **** ""
3 29 30 51
ATOM$BLUE        STATIC     ATOMS    COLORGROUP SYSTEM
6 52 53 54 55 56 57
ATOM$RED        STATIC     ATOMS    COLORGROUP SYSTEM
3 29 30 51
