AV-unprocessed.smi:289|AV-procd|sdf|2214|dock2
  -GOLD-   2262022 53D 1   1.00000     0.00000
 Structure written by MMmdl.
 51 54  0  0  0  0  0  0  0  0  1 V2000
  153.0934  136.8980  156.5983 O   0  0  0  0  0  0  0  0  0  0  0  0
  152.2779  137.4126  155.8304 C   0  0  0  0  0  0  0  0  0  0  0  0
  152.5307  138.8477  155.3216 C   0  0  0  0  0  0  0  0  0  0  0  0
  151.7689  139.8820  156.0573 N   0  0  0  0  0  0  0  0  0  0  0  0
  150.6373  140.4635  155.4348 C   0  0  0  0  0  0  0  0  0  0  0  0
  150.3007  140.1438  154.2937 O   0  0  0  0  0  0  0  0  0  0  0  0
  149.9068  141.4336  156.2408 C   0  0  0  0  0  0  0  0  0  0  0  0
  148.7945  142.0048  155.7484 F   0  0  0  0  0  0  0  0  0  0  0  0
  150.3194  141.7562  157.4839 C   0  0  0  0  0  0  0  0  0  0  0  0
  151.4531  141.2144  158.0674 N   0  0  0  0  0  0  0  0  0  0  0  0
  151.8687  141.5233  159.4981 C   0  0  1  0  0  0  0  0  0  0  0  0
  153.3175  142.0086  159.6454 C   0  0  0  0  0  0  0  0  0  0  0  0
  153.1758  143.5277  159.6966 C   0  0  0  0  0  0  0  0  0  0  0  0
  151.6696  143.7846  159.5794 C   0  0  0  0  0  0  0  0  0  0  0  0
  151.0707  142.5586  159.9764 O   0  0  0  0  0  0  0  0  0  0  0  0
  152.1751  140.2188  157.3711 C   0  0  0  0  0  0  0  0  0  0  0  0
  153.1366  139.6539  157.8975 O   0  0  0  0  0  0  0  0  0  0  0  0
  151.1663  136.7562  155.4180 N   0  0  0  0  0  0  0  0  0  0  0  0
  150.7492  135.4134  155.8465 C   0  0  0  0  0  0  0  0  0  0  0  0
  149.4403  135.5273  156.6551 C   0  0  0  0  0  0  0  0  0  0  0  0
  148.4100  136.1837  155.8284 N   0  0  0  0  0  0  0  0  0  0  0  0
  147.2628  135.6089  155.3877 C   0  0  0  0  0  0  0  0  0  0  0  0
  146.8048  134.5786  155.8824 O   0  0  0  0  0  0  0  0  0  0  0  0
  146.5314  136.2263  154.2605 C   0  0  0  0  0  0  0  0  0  0  0  0
  146.0390  135.6636  153.1138 C   0  0  0  0  0  0  0  0  0  0  0  0
  145.4757  136.7225  152.3496 C   0  0  0  0  0  0  0  0  0  0  0  0
  145.6871  137.8611  153.0725 C   0  0  0  0  0  0  0  0  0  0  0  0
  146.3411  137.5786  154.2317 O   0  0  0  0  0  0  0  0  0  0  0  0
  148.8455  137.5117  155.3652 C   0  0  0  0  0  0  0  0  0  0  0  0
  150.1492  137.3737  154.5566 C   0  0  0  0  0  0  0  0  0  0  0  0
  153.5995  139.0597  155.3762 H   0  0  0  0  0  0  0  0  0  0  0  0
  152.2982  138.8870  154.2563 H   0  0  0  0  0  0  0  0  0  0  0  0
  149.7132  142.4601  158.0318 H   0  0  0  0  0  0  0  0  0  0  0  0
  151.7031  140.5989  160.0537 H   0  0  0  0  0  0  0  0  0  0  0  0
  153.7019  141.6451  160.5991 H   0  0  0  0  0  0  0  0  0  0  0  0
  153.9731  141.6292  158.8621 H   0  0  0  0  0  0  0  0  0  0  0  0
  153.5547  143.9039  160.6476 H   0  0  0  0  0  0  0  0  0  0  0  0
  153.7288  144.0236  158.8985 H   0  0  0  0  0  0  0  0  0  0  0  0
  151.3361  144.6105  160.2080 H   0  0  0  0  0  0  0  0  0  0  0  0
  151.3915  144.0138  158.5497 H   0  0  0  0  0  0  0  0  0  0  0  0
  150.5877  134.7935  154.9633 H   0  0  0  0  0  0  0  0  0  0  0  0
  151.4967  134.8852  156.4353 H   0  0  0  0  0  0  0  0  0  0  0  0
  149.1673  134.5262  156.9816 H   0  0  0  0  0  0  0  0  0  0  0  0
  149.6012  136.1123  157.5618 H   0  0  0  0  0  0  0  0  0  0  0  0
  146.0775  134.6149  152.8578 H   0  0  0  0  0  0  0  0  0  0  0  0
  144.9869  136.6599  151.3884 H   0  0  0  0  0  0  0  0  0  0  0  0
  145.4556  138.9043  152.9151 H   0  0  0  0  0  0  0  0  0  0  0  0
  148.0911  138.0179  154.7615 H   0  0  0  0  0  0  0  0  0  0  0  0
  149.0088  138.1536  156.2324 H   0  0  0  0  0  0  0  0  0  0  0  0
  150.4493  138.3512  154.1776 H   0  0  0  0  0  0  0  0  0  0  0  0
  149.9874  136.7487  153.6769 H   0  0  0  0  0  0  0  0  0  0  0  0
  1  2  2  0  0  0  0
  2  3  1  0  0  0  0
  2 18  1  0  0  0  0
  3  4  1  0  0  0  0
  3 31  1  0  0  0  0
  3 32  1  0  0  0  0
  4 16  1  0  0  0  0
  4  5  1  0  0  0  0
  5  6  2  0  0  0  0
  5  7  1  0  0  0  0
  7  8  1  0  0  0  0
  7  9  2  0  0  0  0
  9 10  1  0  0  0  0
  9 33  1  0  0  0  0
 10 11  1  0  0  0  0
 10 16  1  0  0  0  0
 11 15  1  0  0  0  0
 11 12  1  0  0  0  0
 11 34  1  0  0  0  0
 12 13  1  0  0  0  0
 12 35  1  0  0  0  0
 12 36  1  0  0  0  0
 13 14  1  0  0  0  0
 13 37  1  0  0  0  0
 13 38  1  0  0  0  0
 14 15  1  0  0  0  0
 14 39  1  0  0  0  0
 14 40  1  0  0  0  0
 16 17  2  0  0  0  0
 18 30  1  0  0  0  0
 18 19  1  0  0  0  0
 19 20  1  0  0  0  0
 19 41  1  0  0  0  0
 19 42  1  0  0  0  0
 20 21  1  0  0  0  0
 20 43  1  0  0  0  0
 20 44  1  0  0  0  0
 21 22  1  0  0  0  0
 21 29  1  0  0  0  0
 22 23  2  0  0  0  0
 22 24  1  0  0  0  0
 24 28  1  0  0  0  0
 24 25  2  0  0  0  0
 25 26  1  0  0  0  0
 25 45  1  0  0  0  0
 26 27  2  0  0  0  0
 26 46  1  0  0  0  0
 27 28  1  0  0  0  0
 27 47  1  0  0  0  0
 29 30  1  0  0  0  0
 29 48  1  0  0  0  0
 29 49  1  0  0  0  0
 30 50  1  0  0  0  0
 30 51  1  0  0  0  0
M  END
> <s_m_source_file>
AV-unprocessed.smi

> <i_m_source_file_index>
289

> <i_lp_mmshare_version>
43012

> <i_f3d_flags>
0

> <s_epik_input>
bzFbY0hdW2NIXVtjSF1jMUMoPU8pTihbQ0gyXVtDSDJdMilbQ0gyXVtDSDJdTjJDKD1PKVtDSDJdbjNjKD1PKWMoRilbY0hdbihjMz1PKVtDQEBIXTRbQ0gyXVtDSDJdW0NIMl1PNA==

> <s_epik_cmdline>
J2VwaWtfcHl0aG9uJywgJy1waCcsICc3LjAnLCAnLXRuJywgJzgnLCAnLW1hJywgJzIwMCcsICctbWV0YWxfYmluZGluZycsICctaW1hZScsICc8aW5maWxlLm1hZT4nLCAnLW9tYWUnLCAnPG91dGZpbGUubWFlPic=

> <r_lp_tautomer_probability>
1

> <r_epik_Ionization_Penalty>
6.38128e-09

> <r_epik_Ionization_Penalty_Charging>
4.20153e-09

> <r_epik_Ionization_Penalty_Neutral>
2.17976e-09

> <r_epik_State_Penalty>
-0

> <r_epik_Charging_Adjusted_Penalty>
4.20153e-09

> <i_epik_Tot_Q>
0

> <i_epik_Tot_abs_Q>
0

> <r_epik_Metal_State_Penalty>
-0

> <b_epik_Metal_Only>
0

> <s_epik_Chemistry_Notes>
This compound contains an acetal/aminal-like group ( X-CH(R)-Y where X, Y are N, S, or O) that may be acid/base labile, releasing an aldehyde.

> <s_lp_Force_Field>
OPLS_2005

> <r_lp_Energy>
67.9556

> <b_lp_Chiralities_Consistent>
1

> <s_lp_Variant>
AV-unprocessed.smi:289-2

> <Gold.Version>
5.8.1

> <Gold.Id.Protein>
6NUR|6NUR_protein|mol2

> <Gold.PLP.Fitness>
48.5332

> <Gold.PLP.PLP>
-40.1768

> <Gold.PLP.part.hbond>
-4.0000

> <Gold.PLP.part.metal>
0.0000

> <Gold.PLP.part.buried>
1.3414

> <Gold.PLP.part.nonpolar>
-38.9325

> <Gold.PLP.part.repulsive>
0.2498

> <Gold.PLP.ligand.clash>
0.0060

> <Gold.PLP.ligand.torsion>
1.4280

> <Gold.PLP.Chemscore.Hbond>
2.5296

> <Gold.PLP.Chemscore.CHOScore>
1.0000

> <Gold.PLP.Chemscore.Metal>
0.0000

> <Gold.Chemscore.Hbonds>
donor molecule, donor type, donor heavy atom, donor atom, acceptor molecule, acceptor atom, score
      P1  H  7989  7998       L1     6  0.85
      P1  H  7997  8010       L1    17  1.00
      P1  H 10752 10763       L1     1  0.65
      L1  C    27    47       P1 10175  1.00

> <Gold.PLP.Chemscore.Internal.Correction>
0.6296

> <Gold.Rescore>
     Score         DG    S(hbond)    S(metal)    S(lipo)     H(rot)  DE(clash)    DE(int)     intcor
      8.51     -15.96       1.47        0.00      83.89       1.66       1.15       6.31       ----

> <Gold.Chemscore.Fitness>
8.5107

> <Gold.Chemscore.DG>
-15.9644

> <Gold.Chemscore.ZeroCoef>
-5.4800

> <Gold.Chemscore.Hbond>
1.4713

> <Gold.Chemscore.Metal>
0.0000

> <Gold.Chemscore.Lipo>
83.8874

> <Gold.Chemscore.Internal_Hbond>
0.0000

> <Gold.Chemscore.DEClash>
1.1461

> <Gold.Chemscore.DEInternal>
6.3075

> <Gold.Chemscore.Rot>
1.6580

> <Gold.Chemscore.Internal.Correction>
   9.000000E+99

> <Gold.Chemscore.Hbonds>
donor molecule, donor type, donor heavy atom, donor atom, acceptor molecule, acceptor atom, score
      P1  H  7989  7998       L1     6  0.14
      P1  H  7997  8010       L1    17  0.25
      P1  H 10752 10763       L1     1  0.10

> <Gold.Chemscore.Hbond.Weighted>
-4.9142

> <Gold.Chemscore.Metal.Weighted>
-0.0000

> <Gold.Chemscore.Lipo.Weighted>
-9.8148

> <Gold.Chemscore.Internal_Hbond.Weighted>
0.0000

> <Gold.Chemscore.DEClash.Weighted>
1.1461

> <Gold.Chemscore.DEInternal.Weighted>
6.3075

> <Gold.Chemscore.Rot.Weighted>
4.2446

> <Gold.Chemscore.Internal.Correction.Weighted>
   9.000000E+99

> <Gold.Protein.RotatedTorsions>
[ 6907 6896 6895 6894 ] final -169.30 input  -60.11 | X-H torsion
[ 7974 7965 7964 7962 ] final   19.69 input  175.53 | X-H torsion
[ 8008 7997 7996 7995 ] final   56.49 input   59.86 | X-H torsion
[ 10167 10162 10161 10158 ] final  105.43 input  -65.29 | X-H torsion
[ 10718 10713 10712 10709 ] final  175.33 input   66.30 | X-H torsion
[ 10763 10752 10751 10750 ] final  126.97 input  -60.55 | X-H torsion
[ 11005 11000 10999 10996 ] final  104.81 input  -57.11 | X-H torsion

> <Gold.Protein.ActiveResidues>
 VAL166  LYS551  ARG553  GLY616  TRP617  ASP618  TYR619  PRO620  LYS621  CYS622 
 ASP623  PHE694  ASN695  SER759  ASP760  ASP761  ALA762  ILE779  LEU786  VAL792 
 PHE793  MET794  SER795  GLU796  ALA797  LYS798  CYS799  TRP800  GLU811  SER814 

> <Gold.Protein.RotatedAtoms>
  151.4894  133.3528  159.2850 H   0  0  0  0  0  0  0  0  0  0  0  0  # atno 6907 bound_to 6896
  150.8845  134.8243  159.7260 H   0  0  0  0  0  0  0  0  0  0  0  0  # atno 6908 bound_to 6896
  152.4784  134.4795  159.9713 H   0  0  0  0  0  0  0  0  0  0  0  0  # atno 6909 bound_to 6896
  146.2140  139.8277  142.8666 H   0  0  0  0  0  0  0  0  0  0  0  0  # atno 7974 bound_to 7965
  155.5183  140.3479  155.4402 H   0  0  0  0  0  0  0  0  0  0  0  0  # atno 8008 bound_to 7997
  156.0802  140.1384  156.9749 H   0  0  0  0  0  0  0  0  0  0  0  0  # atno 8009 bound_to 7997
  154.4575  140.0947  156.6776 H   0  0  0  0  0  0  0  0  0  0  0  0  # atno 8010 bound_to 7997
  139.7093  144.7080  151.1053 H   0  0  0  0  0  0  0  0  0  0  0  0  # atno 10167 bound_to 10162
  156.9365  130.9987  151.2977 H   0  0  0  0  0  0  0  0  0  0  0  0  # atno 10718 bound_to 10713
  153.7019  135.3282  155.3226 H   0  0  0  0  0  0  0  0  0  0  0  0  # atno 10763 bound_to 10752
  154.8410  135.4456  154.1402 H   0  0  0  0  0  0  0  0  0  0  0  0  # atno 10764 bound_to 10752
  153.2472  135.6977  153.7797 H   0  0  0  0  0  0  0  0  0  0  0  0  # atno 10765 bound_to 10752
  139.8795  134.9313  156.5418 H   0  0  0  0  0  0  0  0  0  0  0  0  # atno 11005 bound_to 11000
  145.3029  141.0199  143.3598 LP  0  0  0  0  0  0  0  0  0  0  0  0  # atno 17320 bound_to 7965
  144.8992  139.4671  143.6640 LP  0  0  0  0  0  0  0  0  0  0  0  0  # atno 17321 bound_to 7965
  140.7729  143.5315  150.9418 LP  0  0  0  0  0  0  0  0  0  0  0  0  # atno 17342 bound_to 10162
  139.8999  143.6849  152.3133 LP  0  0  0  0  0  0  0  0  0  0  0  0  # atno 17343 bound_to 10162
  157.5813  130.8378  149.8526 LP  0  0  0  0  0  0  0  0  0  0  0  0  # atno 17370 bound_to 10713
  156.0424  130.3736  150.1403 LP  0  0  0  0  0  0  0  0  0  0  0  0  # atno 17371 bound_to 10713
  140.8305  133.8283  155.8979 LP  0  0  0  0  0  0  0  0  0  0  0  0  # atno 17394 bound_to 11000
  140.9333  134.1994  157.4849 LP  0  0  0  0  0  0  0  0  0  0  0  0  # atno 17395 bound_to 11000

$$$$
