AV-unprocessed.smi:3075|AV-procd|sdf|11724|dock4
  -GOLD-   2272017123D 1   1.00000     0.00000
 Structure written by MMmdl.
 29 30  0  0  0  0  0  0  0  0  1 V2000
  150.7248  143.6361  157.6643 N   0  0  0  0  0  0  0  0  0  0  0  0
  150.5561  142.2957  158.1904 C   0  0  0  0  0  0  0  0  0  0  0  0
  151.8403  141.7304  158.7791 C   0  0  0  0  0  0  0  0  0  0  0  0
  152.4608  142.4148  159.8458 C   0  0  0  0  0  0  0  0  0  0  0  0
  153.6601  141.9126  160.3819 C   0  0  0  0  0  0  0  0  0  0  0  0
  154.1974  140.7388  159.8242 C   0  0  0  0  0  0  0  0  0  0  0  0
  153.6161  140.0719  158.8059 N   0  0  0  0  0  0  0  0  0  0  0  0
  152.4573  140.5481  158.2868 C   0  0  0  0  0  0  0  0  0  0  0  0
  151.8642  139.8097  157.2457 N   0  0  0  0  0  0  0  0  0  0  0  0
  151.5927  140.5232  156.0016 C   0  0  0  0  0  0  0  0  0  0  0  0
  150.7704  139.6307  155.0564 C   0  0  0  0  0  0  0  0  0  0  0  0
  151.4629  138.4048  154.8362 O   0  0  0  0  0  0  0  0  0  0  0  0
  151.6632  137.6778  156.0452 C   0  0  0  0  0  0  0  0  0  0  0  0
  152.5019  138.5180  157.0237 C   0  0  0  0  0  0  0  0  0  0  0  0
  151.6958  143.7817  157.4272 H   0  0  0  0  0  0  0  0  0  0  0  0
  150.2127  143.7209  156.7980 H   0  0  0  0  0  0  0  0  0  0  0  0
  149.7470  142.2950  158.9204 H   0  0  0  0  0  0  0  0  0  0  0  0
  150.2325  141.6462  157.3765 H   0  0  0  0  0  0  0  0  0  0  0  0
  152.0236  143.3173  160.2473 H   0  0  0  0  0  0  0  0  0  0  0  0
  154.1567  142.4162  161.1979 H   0  0  0  0  0  0  0  0  0  0  0  0
  155.1175  140.3225  160.2070 H   0  0  0  0  0  0  0  0  0  0  0  0
  151.0507  141.4455  156.2139 H   0  0  0  0  0  0  0  0  0  0  0  0
  152.5316  140.7996  155.5195 H   0  0  0  0  0  0  0  0  0  0  0  0
  149.7805  139.4326  155.4708 H   0  0  0  0  0  0  0  0  0  0  0  0
  150.6218  140.1321  154.1000 H   0  0  0  0  0  0  0  0  0  0  0  0
  150.7006  137.4140  156.4867 H   0  0  0  0  0  0  0  0  0  0  0  0
  152.1761  136.7432  155.8174 H   0  0  0  0  0  0  0  0  0  0  0  0
  153.5013  138.6782  156.6169 H   0  0  0  0  0  0  0  0  0  0  0  0
  152.6238  137.9813  157.9641 H   0  0  0  0  0  0  0  0  0  0  0  0
  1  2  1  0  0  0  0
  1 15  1  0  0  0  0
  1 16  1  0  0  0  0
  2  3  1  0  0  0  0
  2 17  1  0  0  0  0
  2 18  1  0  0  0  0
  3  8  1  0  0  0  0
  3  4  2  0  0  0  0
  4  5  1  0  0  0  0
  4 19  1  0  0  0  0
  5  6  2  0  0  0  0
  5 20  1  0  0  0  0
  6  7  1  0  0  0  0
  6 21  1  0  0  0  0
  7  8  2  0  0  0  0
  8  9  1  0  0  0  0
  9 14  1  0  0  0  0
  9 10  1  0  0  0  0
 10 11  1  0  0  0  0
 10 22  1  0  0  0  0
 10 23  1  0  0  0  0
 11 12  1  0  0  0  0
 11 24  1  0  0  0  0
 11 25  1  0  0  0  0
 12 13  1  0  0  0  0
 13 14  1  0  0  0  0
 13 26  1  0  0  0  0
 13 27  1  0  0  0  0
 14 28  1  0  0  0  0
 14 29  1  0  0  0  0
M  END
> <s_m_source_file>
AV-unprocessed.smi

> <i_m_source_file_index>
3075

> <i_lp_mmshare_version>
43012

> <i_f3d_flags>
0

> <s_epik_input>
W05IMl1bQ0gyXWMxW2NIXVtjSF1bY0hdbmMxTjJbQ0gyXVtDSDJdT1tDSDJdW0NIMl0y

> <s_epik_cmdline>
J2VwaWtfcHl0aG9uJywgJy1waCcsICc3LjAnLCAnLXRuJywgJzgnLCAnLW1hJywgJzIwMCcsICctbWV0YWxfYmluZGluZycsICctaW1hZScsICc8aW5maWxlLm1hZT4nLCAnLW9tYWUnLCAnPG91dGZpbGUubWFlPic=

> <r_lp_tautomer_probability>
1

> <r_epik_Ionization_Penalty>
1.38161

> <r_epik_Ionization_Penalty_Charging>
0

> <r_epik_Ionization_Penalty_Neutral>
1.38161

> <r_epik_State_Penalty>
1.45585

> <r_epik_Charging_Adjusted_Penalty>
1.45585

> <i_epik_Tot_Q>
0

> <i_epik_Tot_abs_Q>
0

> <r_epik_Metal_State_Penalty>
1.45048

> <b_epik_Metal_Only>
0

> <s_lp_Force_Field>
OPLS_2005

> <r_lp_Energy>
18.9945

> <b_lp_Chiralities_Consistent>
1

> <s_lp_Variant>
AV-unprocessed.smi:3075-2

> <Gold.Version>
5.8.1

> <Gold.Id.Protein>
6NUR|6NUR_protein|mol2

> <Gold.PLP.Fitness>
32.0870

> <Gold.PLP.PLP>
-26.1316

> <Gold.PLP.part.hbond>
-2.0000

> <Gold.PLP.part.metal>
0.0000

> <Gold.PLP.part.buried>
-3.0062

> <Gold.PLP.part.nonpolar>
-20.7302

> <Gold.PLP.part.repulsive>
0.1025

> <Gold.PLP.ligand.clash>
0.0000

> <Gold.PLP.ligand.torsion>
0.0990

> <Gold.PLP.Chemscore.Hbond>
1.9920

> <Gold.PLP.Chemscore.CHOScore>
0.0000

> <Gold.PLP.Chemscore.Metal>
0.0000

> <Gold.Chemscore.Hbonds>
donor molecule, donor type, donor heavy atom, donor atom, acceptor molecule, acceptor atom, score
      L1  H     1    16       P1  8028  0.98
      P1  H  7997  8009       L1     7  1.00

> <Gold.PLP.Chemscore.Internal.Correction>
0.1774

> <Gold.Rescore>
     Score         DG    S(hbond)    S(metal)    S(lipo)     H(rot)  DE(clash)    DE(int)     intcor
     14.65     -15.03       1.40        0.00      69.93       1.29       0.14       0.24       ----

> <Gold.Chemscore.Fitness>
14.6535

> <Gold.Chemscore.DG>
-15.0294

> <Gold.Chemscore.ZeroCoef>
-5.4800

> <Gold.Chemscore.Hbond>
1.3961

> <Gold.Chemscore.Metal>
0.0000

> <Gold.Chemscore.Lipo>
69.9348

> <Gold.Chemscore.Internal_Hbond>
0.0000

> <Gold.Chemscore.DEClash>
0.1363

> <Gold.Chemscore.DEInternal>
0.2397

> <Gold.Chemscore.Rot>
1.2875

> <Gold.Chemscore.Internal.Correction>
   9.000000E+99

> <Gold.Chemscore.Hbonds>
donor molecule, donor type, donor heavy atom, donor atom, acceptor molecule, acceptor atom, score
      L1  H     1    16       P1  8028  0.89
      P1  H  7997  8009       L1     7  0.20

> <Gold.Chemscore.Hbond.Weighted>
-4.6631

> <Gold.Chemscore.Metal.Weighted>
-0.0000

> <Gold.Chemscore.Lipo.Weighted>
-8.1824

> <Gold.Chemscore.Internal_Hbond.Weighted>
0.0000

> <Gold.Chemscore.DEClash.Weighted>
0.1363

> <Gold.Chemscore.DEInternal.Weighted>
0.2397

> <Gold.Chemscore.Rot.Weighted>
3.2961

> <Gold.Chemscore.Internal.Correction.Weighted>
   9.000000E+99

> <Gold.Protein.RotatedTorsions>
[ 6907 6896 6895 6894 ] final   55.20 input  -60.11 | X-H torsion
[ 7974 7965 7964 7962 ] final -130.99 input  175.53 | X-H torsion
[ 8008 7997 7996 7995 ] final  143.01 input   59.86 | X-H torsion
[ 10167 10162 10161 10158 ] final  169.31 input  -65.29 | X-H torsion
[ 10718 10713 10712 10709 ] final   71.86 input   66.30 | X-H torsion
[ 10763 10752 10751 10750 ] final  -52.63 input  -60.55 | X-H torsion
[ 11005 11000 10999 10996 ] final  164.51 input  -57.11 | X-H torsion

> <Gold.Protein.ActiveResidues>
 VAL166  LYS551  ARG553  GLY616  TRP617  ASP618  TYR619  PRO620  LYS621  CYS622 
 ASP623  PHE694  ASN695  SER759  ASP760  ASP761  ALA762  ILE779  LEU786  VAL792 
 PHE793  MET794  SER795  GLU796  ALA797  LYS798  CYS799  TRP800  GLU811  SER814 

> <Gold.Protein.RotatedAtoms>
  152.3515  134.6999  160.0234 H   0  0  0  0  0  0  0  0  0  0  0  0  # atno 6907 bound_to 6896
  151.7352  133.3314  159.3359 H   0  0  0  0  0  0  0  0  0  0  0  0  # atno 6908 bound_to 6896
  150.7543  134.6261  159.6206 H   0  0  0  0  0  0  0  0  0  0  0  0  # atno 6909 bound_to 6896
  144.9422  140.7251  143.4840 H   0  0  0  0  0  0  0  0  0  0  0  0  # atno 7974 bound_to 7965
  156.2938  140.2273  156.4822 H   0  0  0  0  0  0  0  0  0  0  0  0  # atno 8008 bound_to 7997
  154.7843  140.0458  157.1173 H   0  0  0  0  0  0  0  0  0  0  0  0  # atno 8009 bound_to 7997
  154.9721  140.3068  155.4987 H   0  0  0  0  0  0  0  0  0  0  0  0  # atno 8010 bound_to 7997
  139.4989  144.3720  151.9715 H   0  0  0  0  0  0  0  0  0  0  0  0  # atno 10167 bound_to 10162
  157.6473  130.9550  150.0849 H   0  0  0  0  0  0  0  0  0  0  0  0  # atno 10718 bound_to 10713
  154.1459  135.6498  153.4952 H   0  0  0  0  0  0  0  0  0  0  0  0  # atno 10763 bound_to 10752
  153.0152  135.5326  154.6858 H   0  0  0  0  0  0  0  0  0  0  0  0  # atno 10764 bound_to 10752
  154.6132  135.2956  155.0380 H   0  0  0  0  0  0  0  0  0  0  0  0  # atno 10765 bound_to 10752
  140.2466  134.8009  157.3462 H   0  0  0  0  0  0  0  0  0  0  0  0  # atno 11005 bound_to 11000
  145.2973  139.1862  143.4708 LP  0  0  0  0  0  0  0  0  0  0  0  0  # atno 17320 bound_to 7965
  146.3290  140.2959  142.8618 LP  0  0  0  0  0  0  0  0  0  0  0  0  # atno 17321 bound_to 7965
  140.3156  144.3488  150.6022 LP  0  0  0  0  0  0  0  0  0  0  0  0  # atno 17342 bound_to 10162
  140.5764  143.2176  151.7507 LP  0  0  0  0  0  0  0  0  0  0  0  0  # atno 17343 bound_to 10162
  156.1814  130.3650  149.9030 LP  0  0  0  0  0  0  0  0  0  0  0  0  # atno 17370 bound_to 10713
  156.6981  130.8922  151.3596 LP  0  0  0  0  0  0  0  0  0  0  0  0  # atno 17371 bound_to 10713
  140.1600  134.4741  155.7901 LP  0  0  0  0  0  0  0  0  0  0  0  0  # atno 17394 bound_to 11000
  141.2205  133.6897  156.7527 LP  0  0  0  0  0  0  0  0  0  0  0  0  # atno 17395 bound_to 11000

$$$$
