AV-unprocessed.smi:626|AV-procd|sdf|3110|dock1
  -GOLD-   22720 0 33D 1   1.00000     0.00000
 Structure written by MMmdl.
 34 36  0  0  0  0  0  0  0  0  1 V2000
  150.0532  135.5648  155.0838 C   0  0  0  0  0  0  0  0  0  0  0  0
  150.4134  136.9651  154.9251 N   0  0  0  0  0  0  0  0  0  0  0  0
  151.5302  137.5189  155.4203 C   0  0  0  0  0  0  0  0  0  0  0  0
  152.3714  136.8876  156.0602 O   0  0  0  0  0  0  0  0  0  0  0  0
  151.7349  139.0107  155.1490 C   0  0  0  0  0  0  0  0  0  0  0  0
  152.0055  139.7482  156.4215 C   0  0  0  0  0  0  0  0  0  0  0  0
  153.0121  139.4068  157.2172 N   0  0  0  0  0  0  0  0  0  0  0  0
  152.9047  140.3132  158.2813 O   0  0  0  0  0  0  0  0  0  0  0  0
  151.8593  141.1221  157.9813 C   0  0  0  0  0  0  0  0  0  0  0  0
  151.4359  142.1392  159.0006 C   0  0  1  0  0  0  0  0  0  0  0  0
  152.5823  142.7652  159.8269 C   0  0  0  0  0  0  0  0  0  0  0  0
  152.3162  144.2759  159.6781 C   0  0  1  0  0  0  0  0  0  0  0  0
  152.6833  144.7195  158.2487 C   0  0  0  0  0  0  0  0  0  0  0  0
  151.5362  144.1332  157.4035 C   0  0  0  0  0  0  0  0  0  0  0  0
  150.6930  143.3808  158.4532 C   0  0  2  0  0  0  0  0  0  0  0  0
  150.7928  144.3319  159.6422 C   0  0  0  0  0  0  0  0  0  0  0  0
  151.2360  140.7849  156.8525 N   0  0  0  0  0  0  0  0  0  0  0  0
  149.0994  135.3683  154.5942 H   0  0  0  0  0  0  0  0  0  0  0  0
  149.9545  135.3062  156.1389 H   0  0  0  0  0  0  0  0  0  0  0  0
  150.8072  134.9168  154.6350 H   0  0  0  0  0  0  0  0  0  0  0  0
  149.7708  137.5526  154.4134 H   0  0  0  0  0  0  0  0  0  0  0  0
  152.5717  139.1487  154.4627 H   0  0  0  0  0  0  0  0  0  0  0  0
  150.8528  139.4251  154.6588 H   0  0  0  0  0  0  0  0  0  0  0  0
  150.7666  141.6279  159.6947 H   0  0  0  0  0  0  0  0  0  0  0  0
  152.5147  142.4546  160.8701 H   0  0  0  0  0  0  0  0  0  0  0  0
  153.5780  142.4985  159.4711 H   0  0  0  0  0  0  0  0  0  0  0  0
  152.7827  144.8808  160.4561 H   0  0  0  0  0  0  0  0  0  0  0  0
  152.7004  145.8071  158.1683 H   0  0  0  0  0  0  0  0  0  0  0  0
  153.6600  144.3459  157.9390 H   0  0  0  0  0  0  0  0  0  0  0  0
  150.9513  144.9368  156.9542 H   0  0  0  0  0  0  0  0  0  0  0  0
  151.8880  143.4997  156.5904 H   0  0  0  0  0  0  0  0  0  0  0  0
  149.6774  143.1669  158.1186 H   0  0  0  0  0  0  0  0  0  0  0  0
  150.3242  143.9460  160.5495 H   0  0  0  0  0  0  0  0  0  0  0  0
  150.4009  145.3295  159.4349 H   0  0  0  0  0  0  0  0  0  0  0  0
  1  2  1  0  0  0  0
  1 18  1  0  0  0  0
  1 19  1  0  0  0  0
  1 20  1  0  0  0  0
  2  3  1  0  0  0  0
  2 21  1  0  0  0  0
  3  4  2  0  0  0  0
  3  5  1  0  0  0  0
  5  6  1  0  0  0  0
  5 22  1  0  0  0  0
  5 23  1  0  0  0  0
  6 17  1  0  0  0  0
  6  7  2  0  0  0  0
  7  8  1  0  0  0  0
  8  9  1  0  0  0  0
  9 10  1  0  0  0  0
  9 17  2  0  0  0  0
 10 15  1  0  0  0  0
 10 11  1  0  0  0  0
 10 24  1  0  0  0  0
 11 12  1  0  0  0  0
 11 25  1  0  0  0  0
 11 26  1  0  0  0  0
 12 16  1  0  0  0  0
 12 13  1  0  0  0  0
 12 27  1  0  0  0  0
 13 14  1  0  0  0  0
 13 28  1  0  0  0  0
 13 29  1  0  0  0  0
 14 15  1  0  0  0  0
 14 30  1  0  0  0  0
 14 31  1  0  0  0  0
 15 16  1  0  0  0  0
 15 32  1  0  0  0  0
 16 33  1  0  0  0  0
 16 34  1  0  0  0  0
M  END
> <s_m_source_file>
AV-unprocessed.smi

> <i_m_source_file_index>
626

> <i_lp_mmshare_version>
43012

> <i_f3d_flags>
0

> <s_epik_input>
W0NIM11bTkhdQyg9TylbQ0gyXWMxbm9jKG4xKVtDQEhdKFtDSDJdW0NAQEhdMjMpW0NAQEhdKFtDSDJdMylbQ0gyXVtDSDJdMg==

> <s_epik_cmdline>
J2VwaWtfcHl0aG9uJywgJy1waCcsICc3LjAnLCAnLXRuJywgJzgnLCAnLW1hJywgJzIwMCcsICctbWV0YWxfYmluZGluZycsICctaW1hZScsICc8aW5maWxlLm1hZT4nLCAnLW9tYWUnLCAnPG91dGZpbGUubWFlPic=

> <r_lp_tautomer_probability>
1

> <r_epik_Ionization_Penalty>
1.02916e-07

> <r_epik_Ionization_Penalty_Charging>
0

> <r_epik_Ionization_Penalty_Neutral>
1.02916e-07

> <r_epik_State_Penalty>
-0

> <r_epik_Charging_Adjusted_Penalty>
0

> <i_epik_Tot_Q>
0

> <i_epik_Tot_abs_Q>
0

> <r_epik_Metal_State_Penalty>
-0

> <b_epik_Metal_Only>
0

> <s_lp_Force_Field>
OPLS_2005

> <r_lp_Energy>
49.0627

> <b_lp_Chiralities_Consistent>
1

> <s_lp_Variant>
AV-unprocessed.smi:626-2

> <Gold.Version>
5.8.1

> <Gold.Id.Protein>
6NUR|6NUR_protein|mol2

> <Gold.PLP.Fitness>
42.4120

> <Gold.PLP.PLP>
-38.0443

> <Gold.PLP.part.hbond>
-3.0000

> <Gold.PLP.part.metal>
0.0000

> <Gold.PLP.part.buried>
-4.9262

> <Gold.PLP.part.nonpolar>
-31.9358

> <Gold.PLP.part.repulsive>
0.0764

> <Gold.PLP.ligand.clash>
0.0000

> <Gold.PLP.ligand.torsion>
0.7706

> <Gold.PLP.Chemscore.Hbond>
1.9420

> <Gold.PLP.Chemscore.CHOScore>
0.0000

> <Gold.PLP.Chemscore.Metal>
0.0000

> <Gold.Chemscore.Hbonds>
donor molecule, donor type, donor heavy atom, donor atom, acceptor molecule, acceptor atom, score
      P1  H  7997  8009       L1     7  0.95
      P1  H 10752 10765       L1     4  0.98

> <Gold.PLP.Chemscore.Internal.Correction>
0.0830

> <Gold.Rescore>
     Score         DG    S(hbond)    S(metal)    S(lipo)     H(rot)  DE(clash)    DE(int)     intcor
     13.75     -15.73       0.99        0.00      94.61       1.61       0.03       1.95       ----

> <Gold.Chemscore.Fitness>
13.7519

> <Gold.Chemscore.DG>
-15.7262

> <Gold.Chemscore.ZeroCoef>
-5.4800

> <Gold.Chemscore.Hbond>
0.9892

> <Gold.Chemscore.Metal>
0.0000

> <Gold.Chemscore.Lipo>
94.6068

> <Gold.Chemscore.Internal_Hbond>
0.0000

> <Gold.Chemscore.DEClash>
0.0259

> <Gold.Chemscore.DEInternal>
1.9484

> <Gold.Chemscore.Rot>
1.6119

> <Gold.Chemscore.Internal.Correction>
   9.000000E+99

> <Gold.Chemscore.Hbonds>
donor molecule, donor type, donor heavy atom, donor atom, acceptor molecule, acceptor atom, score
      P1  H  7997  8009       L1     7  0.07
      P1  H 10752 10765       L1     4  0.77

> <Gold.Chemscore.Hbond.Weighted>
-3.3038

> <Gold.Chemscore.Metal.Weighted>
-0.0000

> <Gold.Chemscore.Lipo.Weighted>
-11.0690

> <Gold.Chemscore.Internal_Hbond.Weighted>
0.0000

> <Gold.Chemscore.DEClash.Weighted>
0.0259

> <Gold.Chemscore.DEInternal.Weighted>
1.9484

> <Gold.Chemscore.Rot.Weighted>
4.1266

> <Gold.Chemscore.Internal.Correction.Weighted>
   9.000000E+99

> <Gold.Protein.RotatedTorsions>
[ 6907 6896 6895 6894 ] final  -76.69 input  -60.11 | X-H torsion
[ 7974 7965 7964 7962 ] final  -30.54 input  175.53 | X-H torsion
[ 8008 7997 7996 7995 ] final -165.36 input   59.86 | X-H torsion
[ 10167 10162 10161 10158 ] final  100.40 input  -65.29 | X-H torsion
[ 10718 10713 10712 10709 ] final  139.87 input   66.30 | X-H torsion
[ 10763 10752 10751 10750 ] final -151.91 input  -60.55 | X-H torsion
[ 11005 11000 10999 10996 ] final  125.22 input  -57.11 | X-H torsion

> <Gold.Protein.ActiveResidues>
 VAL166  LYS551  ARG553  GLY616  TRP617  ASP618  TYR619  PRO620  LYS621  CYS622 
 ASP623  PHE694  ASN695  SER759  ASP760  ASP761  ALA762  ILE779  LEU786  VAL792 
 PHE793  MET794  SER795  GLU796  ALA797  LYS798  CYS799  TRP800  GLU811  SER814 

> <Gold.Protein.RotatedAtoms>
  150.7020  134.4534  159.5346 H   0  0  0  0  0  0  0  0  0  0  0  0  # atno 6907 bound_to 6896
  152.2222  134.8399  160.0493 H   0  0  0  0  0  0  0  0  0  0  0  0  # atno 6908 bound_to 6896
  151.9245  133.3559  159.3946 H   0  0  0  0  0  0  0  0  0  0  0  0  # atno 6909 bound_to 6896
  146.1135  140.5553  142.8767 H   0  0  0  0  0  0  0  0  0  0  0  0  # atno 7974 bound_to 7965
  155.8487  140.0959  157.1689 H   0  0  0  0  0  0  0  0  0  0  0  0  # atno 8008 bound_to 7997
  154.3984  140.1387  156.3879 H   0  0  0  0  0  0  0  0  0  0  0  0  # atno 8009 bound_to 7997
  155.7985  140.3453  155.5392 H   0  0  0  0  0  0  0  0  0  0  0  0  # atno 8010 bound_to 7997
  139.7531  144.6978  151.0403 H   0  0  0  0  0  0  0  0  0  0  0  0  # atno 10167 bound_to 10162
  157.4096  131.1026  151.0468 H   0  0  0  0  0  0  0  0  0  0  0  0  # atno 10718 bound_to 10713
  154.8028  135.3248  154.7508 H   0  0  0  0  0  0  0  0  0  0  0  0  # atno 10763 bound_to 10752
  153.8172  135.6890  153.4836 H   0  0  0  0  0  0  0  0  0  0  0  0  # atno 10764 bound_to 10752
  153.1754  135.4607  154.9902 H   0  0  0  0  0  0  0  0  0  0  0  0  # atno 10765 bound_to 10752
  139.9396  134.9637  156.8526 H   0  0  0  0  0  0  0  0  0  0  0  0  # atno 11005 bound_to 11000
  144.7532  140.5244  143.6787 LP  0  0  0  0  0  0  0  0  0  0  0  0  # atno 17320 bound_to 7965
  145.5614  139.1479  143.3339 LP  0  0  0  0  0  0  0  0  0  0  0  0  # atno 17321 bound_to 7965
  140.7800  143.4785  151.0049 LP  0  0  0  0  0  0  0  0  0  0  0  0  # atno 17342 bound_to 10162
  139.8473  143.7485  152.3179 LP  0  0  0  0  0  0  0  0  0  0  0  0  # atno 17343 bound_to 10162
  157.1437  130.6154  149.5562 LP  0  0  0  0  0  0  0  0  0  0  0  0  # atno 17370 bound_to 10713
  155.9846  130.4872  150.6993 LP  0  0  0  0  0  0  0  0  0  0  0  0  # atno 17371 bound_to 10713
  140.5986  134.0193  155.7528 LP  0  0  0  0  0  0  0  0  0  0  0  0  # atno 17394 bound_to 11000
  141.1025  133.9746  157.3054 LP  0  0  0  0  0  0  0  0  0  0  0  0  # atno 17395 bound_to 11000

$$$$
