AV-unprocessed.smi:1843|AV-procd|sdf|7501|dock3
  -GOLD-   22720 9203D 1   1.00000     0.00000
 Structure written by MMmdl.
 37 39  0  0  0  0  0  0  0  0  1 V2000
  145.4798  129.1640  152.2759 O   0  0  0  0  0  0  0  0  0  0  0  0
  146.4616  129.5871  151.6651 C   0  0  0  0  0  0  0  0  0  0  0  0
  147.4753  128.8330  151.2048 N   0  0  0  0  0  0  0  0  0  0  0  0
  147.6397  127.4258  151.3024 C   0  0  0  0  0  0  0  0  0  0  0  0
  147.1865  126.6926  152.3285 N   0  0  0  0  0  0  0  0  0  0  0  0
  147.4834  125.3457  152.1739 N   0  0  0  0  0  0  0  0  0  0  0  0
  148.1479  125.0988  151.0387 C   0  0  0  0  0  0  0  0  0  0  0  0
  148.5800  123.7233  150.6529 C   0  0  0  0  0  0  0  0  0  0  0  0
  148.1810  123.1089  149.3289 C   0  0  0  0  0  0  0  0  0  0  0  0
  147.5874  122.5843  150.6116 C   0  0  0  0  0  0  0  0  0  0  0  0
  148.4699  126.5195  150.0495 S   0  0  0  0  0  0  0  0  0  0  0  0
  146.6502  130.8827  151.3751 N   0  0  0  0  0  0  0  0  0  0  0  0
  145.7328  131.9674  151.7196 C   0  0  1  0  0  0  0  0  0  0  0  0
  146.4016  133.3514  151.5824 C   0  0  0  0  0  0  0  0  0  0  0  0
  145.4236  134.4744  151.9657 C   0  0  0  0  0  0  0  0  0  0  0  0
  144.1280  134.3997  151.1410 C   0  0  0  0  0  0  0  0  0  0  0  0
  143.4645  133.0141  151.2523 C   0  0  0  0  0  0  0  0  0  0  0  0
  144.4348  131.8739  150.8859 C   0  0  1  0  0  0  0  0  0  0  0  0
  144.7138  131.9373  149.4989 O   0  0  0  0  0  0  0  0  0  0  0  0
  148.2171  129.3228  150.7268 H   0  0  0  0  0  0  0  0  0  0  0  0
  149.5790  123.5145  151.0308 H   0  0  0  0  0  0  0  0  0  0  0  0
  147.5230  123.6764  148.6740 H   0  0  0  0  0  0  0  0  0  0  0  0
  148.9160  122.4860  148.8238 H   0  0  0  0  0  0  0  0  0  0  0  0
  147.9257  121.6116  150.9621 H   0  0  0  0  0  0  0  0  0  0  0  0
  146.5433  122.8162  150.8130 H   0  0  0  0  0  0  0  0  0  0  0  0
  147.4875  131.1397  150.8740 H   0  0  0  0  0  0  0  0  0  0  0  0
  145.4454  131.8407  152.7656 H   0  0  0  0  0  0  0  0  0  0  0  0
  147.2842  133.4084  152.2202 H   0  0  0  0  0  0  0  0  0  0  0  0
  146.7510  133.5009  150.5599 H   0  0  0  0  0  0  0  0  0  0  0  0
  145.1837  134.4002  153.0271 H   0  0  0  0  0  0  0  0  0  0  0  0
  145.8982  135.4458  151.8243 H   0  0  0  0  0  0  0  0  0  0  0  0
  143.4322  135.1703  151.4745 H   0  0  0  0  0  0  0  0  0  0  0  0
  144.3489  134.6192  150.0957 H   0  0  0  0  0  0  0  0  0  0  0  0
  143.1159  132.8698  152.2757 H   0  0  0  0  0  0  0  0  0  0  0  0
  142.5761  132.9727  150.6210 H   0  0  0  0  0  0  0  0  0  0  0  0
  143.9474  130.9172  151.0779 H   0  0  0  0  0  0  0  0  0  0  0  0
  145.0237  132.8055  149.2939 H   0  0  0  0  0  0  0  0  0  0  0  0
  1  2  2  0  0  0  0
  2  3  1  0  0  0  0
  2 12  1  0  0  0  0
  3  4  1  0  0  0  0
  3 20  1  0  0  0  0
  4 11  1  0  0  0  0
  4  5  2  0  0  0  0
  5  6  1  0  0  0  0
  6  7  2  0  0  0  0
  7  8  1  0  0  0  0
  7 11  1  0  0  0  0
  8 10  1  0  0  0  0
  8  9  1  0  0  0  0
  8 21  1  0  0  0  0
  9 10  1  0  0  0  0
  9 22  1  0  0  0  0
  9 23  1  0  0  0  0
 10 24  1  0  0  0  0
 10 25  1  0  0  0  0
 12 13  1  0  0  0  0
 12 26  1  0  0  0  0
 13 18  1  0  0  0  0
 13 14  1  0  0  0  0
 13 27  1  0  0  0  0
 14 15  1  0  0  0  0
 14 28  1  0  0  0  0
 14 29  1  0  0  0  0
 15 16  1  0  0  0  0
 15 30  1  0  0  0  0
 15 31  1  0  0  0  0
 16 17  1  0  0  0  0
 16 32  1  0  0  0  0
 16 33  1  0  0  0  0
 17 18  1  0  0  0  0
 17 34  1  0  0  0  0
 17 35  1  0  0  0  0
 18 19  1  0  0  0  0
 18 36  1  0  0  0  0
 19 37  1  0  0  0  0
M  END
> <s_m_source_file>
AV-unprocessed.smi

> <i_m_source_file_index>
1843

> <i_lp_mmshare_version>
43012

> <i_f3d_flags>
0

> <s_epik_input>
W09IXVtDQEBIXTFbQ0gyXVtDSDJdW0NIMl1bQ0gyXVtDQEhdMVtOSF1DKD1PKVtOSF1jMm5uYyhzMilbQ0hdM1tDSDJdW0NIMl0z

> <s_epik_cmdline>
J2VwaWtfcHl0aG9uJywgJy1waCcsICc3LjAnLCAnLXRuJywgJzgnLCAnLW1hJywgJzIwMCcsICctbWV0YWxfYmluZGluZycsICctaW1hZScsICc8aW5maWxlLm1hZT4nLCAnLW9tYWUnLCAnPG91dGZpbGUubWFlPic=

> <r_lp_tautomer_probability>
1

> <r_epik_Ionization_Penalty>
0.000257313

> <r_epik_Ionization_Penalty_Charging>
0

> <r_epik_Ionization_Penalty_Neutral>
0.000257313

> <r_epik_State_Penalty>
-0

> <r_epik_Charging_Adjusted_Penalty>
0

> <i_epik_Tot_Q>
0

> <i_epik_Tot_abs_Q>
0

> <r_epik_Metal_State_Penalty>
0.147479

> <b_epik_Metal_Only>
0

> <s_lp_Force_Field>
OPLS_2005

> <r_lp_Energy>
11.0621

> <b_lp_Chiralities_Consistent>
1

> <s_lp_Variant>
AV-unprocessed.smi:1843-2

> <Gold.Version>
5.8.1

> <Gold.Id.Protein>
6NUR|6NUR_protein|mol2

> <Gold.PLP.Fitness>
41.8511

> <Gold.PLP.PLP>
-36.1426

> <Gold.PLP.part.hbond>
-4.4653

> <Gold.PLP.part.metal>
0.0000

> <Gold.PLP.part.buried>
-6.0217

> <Gold.PLP.part.nonpolar>
-27.0725

> <Gold.PLP.part.repulsive>
0.3063

> <Gold.PLP.ligand.clash>
0.0000

> <Gold.PLP.ligand.torsion>
0.4156

> <Gold.PLP.Chemscore.Hbond>
2.1326

> <Gold.PLP.Chemscore.CHOScore>
0.0000

> <Gold.PLP.Chemscore.Metal>
0.0000

> <Gold.Chemscore.Hbonds>
donor molecule, donor type, donor heavy atom, donor atom, acceptor molecule, acceptor atom, score
      L1  H     3    20       P1 10747  0.95
      L1  H    12    26       P1 10747  1.00

> <Gold.PLP.Chemscore.Internal.Correction>
0.1419

> <Gold.Rescore>
     Score         DG    S(hbond)    S(metal)    S(lipo)     H(rot)  DE(clash)    DE(int)     intcor
     13.02     -13.96       1.52        0.00      67.20       1.74       0.35       0.59       ----

> <Gold.Chemscore.Fitness>
13.0245

> <Gold.Chemscore.DG>
-13.9632

> <Gold.Chemscore.ZeroCoef>
-5.4800

> <Gold.Chemscore.Hbond>
1.5198

> <Gold.Chemscore.Metal>
0.0000

> <Gold.Chemscore.Lipo>
67.2022

> <Gold.Chemscore.Internal_Hbond>
0.0000

> <Gold.Chemscore.DEClash>
0.3533

> <Gold.Chemscore.DEInternal>
0.5854

> <Gold.Chemscore.Rot>
1.7404

> <Gold.Chemscore.Internal.Correction>
   9.000000E+99

> <Gold.Chemscore.Hbonds>
donor molecule, donor type, donor heavy atom, donor atom, acceptor molecule, acceptor atom, score
      L1  H     3    20       P1 10747  0.21
      L1  H    12    26       P1 10747  0.96

> <Gold.Chemscore.Hbond.Weighted>
-5.0760

> <Gold.Chemscore.Metal.Weighted>
-0.0000

> <Gold.Chemscore.Lipo.Weighted>
-7.8627

> <Gold.Chemscore.Internal_Hbond.Weighted>
0.0000

> <Gold.Chemscore.DEClash.Weighted>
0.3533

> <Gold.Chemscore.DEInternal.Weighted>
0.5854

> <Gold.Chemscore.Rot.Weighted>
4.4555

> <Gold.Chemscore.Internal.Correction.Weighted>
   9.000000E+99

> <Gold.Protein.RotatedTorsions>
[ 6907 6896 6895 6894 ] final -134.76 input  -60.11 | X-H torsion
[ 7974 7965 7964 7962 ] final   -0.03 input  175.53 | X-H torsion
[ 8008 7997 7996 7995 ] final   31.35 input   59.86 | X-H torsion
[ 10167 10162 10161 10158 ] final   18.51 input  -65.29 | X-H torsion
[ 10718 10713 10712 10709 ] final  -29.55 input   66.30 | X-H torsion
[ 10763 10752 10751 10750 ] final -106.16 input  -60.55 | X-H torsion
[ 11005 11000 10999 10996 ] final  141.60 input  -57.11 | X-H torsion

> <Gold.Protein.ActiveResidues>
 VAL166  LYS551  ARG553  GLY616  TRP617  ASP618  TYR619  PRO620  LYS621  CYS622 
 ASP623  PHE694  ASN695  SER759  ASP760  ASP761  ALA762  ILE779  LEU786  VAL792 
 PHE793  MET794  SER795  GLU796  ALA797  LYS798  CYS799  TRP800  GLU811  SER814 

> <Gold.Protein.RotatedAtoms>
  150.9897  133.6162  159.2709 H   0  0  0  0  0  0  0  0  0  0  0  0  # atno 6907 bound_to 6896
  151.3387  135.0857  159.9373 H   0  0  0  0  0  0  0  0  0  0  0  0  # atno 6908 bound_to 6896
  152.5242  133.9512  159.7727 H   0  0  0  0  0  0  0  0  0  0  0  0  # atno 6909 bound_to 6896
  146.2431  140.1209  142.8340 H   0  0  0  0  0  0  0  0  0  0  0  0  # atno 7974 bound_to 7965
  155.1050  140.3233  155.4537 H   0  0  0  0  0  0  0  0  0  0  0  0  # atno 8008 bound_to 7997
  156.2706  140.2054  156.6123 H   0  0  0  0  0  0  0  0  0  0  0  0  # atno 8009 bound_to 7997
  154.6799  140.0527  157.0242 H   0  0  0  0  0  0  0  0  0  0  0  0  # atno 8010 bound_to 7997
  140.5647  143.9272  150.6668 H   0  0  0  0  0  0  0  0  0  0  0  0  # atno 10167 bound_to 10162
  156.4110  130.4408  149.7252 H   0  0  0  0  0  0  0  0  0  0  0  0  # atno 10718 bound_to 10713
  154.7994  135.4722  154.0238 H   0  0  0  0  0  0  0  0  0  0  0  0  # atno 10763 bound_to 10752
  153.1756  135.6832  153.8555 H   0  0  0  0  0  0  0  0  0  0  0  0  # atno 10764 bound_to 10752
  153.8123  135.3215  155.3379 H   0  0  0  0  0  0  0  0  0  0  0  0  # atno 10765 bound_to 10752
  140.0413  134.9303  157.0849 H   0  0  0  0  0  0  0  0  0  0  0  0  # atno 11005 bound_to 11000
  145.0407  140.8943  143.5054 LP  0  0  0  0  0  0  0  0  0  0  0  0  # atno 17320 bound_to 7965
  145.1289  139.2645  143.5550 LP  0  0  0  0  0  0  0  0  0  0  0  0  # atno 17321 bound_to 7965
  140.2732  143.3441  152.1219 LP  0  0  0  0  0  0  0  0  0  0  0  0  # atno 17342 bound_to 10162
  139.5087  144.6855  151.5899 LP  0  0  0  0  0  0  0  0  0  0  0  0  # atno 17343 bound_to 10162
  156.4230  130.7778  151.2796 LP  0  0  0  0  0  0  0  0  0  0  0  0  # atno 17370 bound_to 10713
  157.7507  131.0177  150.3595 LP  0  0  0  0  0  0  0  0  0  0  0  0  # atno 17371 bound_to 10713
  140.4064  134.2028  155.7163 LP  0  0  0  0  0  0  0  0  0  0  0  0  # atno 17394 bound_to 11000
  141.1884  133.8260  157.0994 LP  0  0  0  0  0  0  0  0  0  0  0  0  # atno 17395 bound_to 11000

$$$$
