AV-unprocessed.smi:1129|AV-procd|sdf|4847|dock6
  -GOLD-   22720 3413D 1   1.00000     0.00000
 Structure written by MMmdl.
 40 41  0  0  0  0  0  0  0  0  1 V2000
  135.5057  140.1791  153.8417 C   0  0  0  0  0  0  0  0  0  0  0  0
  136.7578  140.5489  154.3922 O   0  0  0  0  0  0  0  0  0  0  0  0
  137.6682  141.0115  153.4085 C   0  0  0  0  0  0  0  0  0  0  0  0
  139.0485  140.4030  153.6738 C   0  0  0  0  0  0  0  0  0  0  0  0
  138.8965  139.0075  153.9157 O   0  0  0  0  0  0  0  0  0  0  0  0
  139.9607  138.1719  153.6455 C   0  0  0  0  0  0  0  0  0  0  0  0
  139.8673  136.8187  154.0268 C   0  0  0  0  0  0  0  0  0  0  0  0
  140.9488  135.9585  153.7568 C   0  0  0  0  0  0  0  0  0  0  0  0
  142.0972  136.4835  153.1181 C   0  0  0  0  0  0  0  0  0  0  0  0
  143.2396  135.7121  152.7742 N   0  0  0  0  0  0  0  0  0  0  0  0
  143.2945  134.4151  152.4184 C   0  0  0  0  0  0  0  0  0  0  0  0
  142.3129  133.6750  152.3513 O   0  0  0  0  0  0  0  0  0  0  0  0
  144.6992  133.8709  152.0920 C   0  0  1  0  0  0  0  0  0  0  0  0
  144.7307  132.3331  152.0096 C   0  0  0  0  0  0  0  0  0  0  0  0
  144.0157  131.7746  150.7644 C   0  0  0  0  0  0  0  0  0  0  0  0
  144.3095  132.5591  149.4766 C   0  0  0  0  0  0  0  0  0  0  0  0
  144.0417  132.0546  148.3887 O   0  0  0  0  0  0  0  0  0  0  0  0
  144.8150  133.8017  149.5684 N   0  0  0  0  0  0  0  0  0  0  0  0
  145.2812  134.4632  150.7885 C   0  0  0  0  0  0  0  0  0  0  0  0
  142.0840  137.8478  152.7613 C   0  0  0  0  0  0  0  0  0  0  0  0
  141.0518  138.6782  153.0195 N   0  0  0  0  0  0  0  0  0  0  0  0
  134.8461  139.8286  154.6353 H   0  0  0  0  0  0  0  0  0  0  0  0
  135.6168  139.3728  153.1154 H   0  0  0  0  0  0  0  0  0  0  0  0
  135.0232  141.0267  153.3532 H   0  0  0  0  0  0  0  0  0  0  0  0
  137.3247  140.7558  152.4048 H   0  0  0  0  0  0  0  0  0  0  0  0
  137.7339  142.0991  153.4651 H   0  0  0  0  0  0  0  0  0  0  0  0
  139.6786  140.5526  152.7956 H   0  0  0  0  0  0  0  0  0  0  0  0
  139.5257  140.9027  154.5187 H   0  0  0  0  0  0  0  0  0  0  0  0
  138.9792  136.4455  154.5147 H   0  0  0  0  0  0  0  0  0  0  0  0
  140.8706  134.9176  154.0292 H   0  0  0  0  0  0  0  0  0  0  0  0
  144.1278  136.1816  152.8770 H   0  0  0  0  0  0  0  0  0  0  0  0
  145.3566  134.1761  152.9081 H   0  0  0  0  0  0  0  0  0  0  0  0
  145.7697  132.0012  151.9994 H   0  0  0  0  0  0  0  0  0  0  0  0
  144.2912  131.8985  152.9084 H   0  0  0  0  0  0  0  0  0  0  0  0
  144.2878  130.7285  150.6204 H   0  0  0  0  0  0  0  0  0  0  0  0
  142.9367  131.7905  150.9209 H   0  0  0  0  0  0  0  0  0  0  0  0
  144.9530  134.3073  148.7051 H   0  0  0  0  0  0  0  0  0  0  0  0
  145.0590  135.5287  150.7149 H   0  0  0  0  0  0  0  0  0  0  0  0
  146.3686  134.3831  150.8095 H   0  0  0  0  0  0  0  0  0  0  0  0
  142.9307  138.2909  152.2574 H   0  0  0  0  0  0  0  0  0  0  0  0
  1  2  1  0  0  0  0
  1 22  1  0  0  0  0
  1 23  1  0  0  0  0
  1 24  1  0  0  0  0
  2  3  1  0  0  0  0
  3  4  1  0  0  0  0
  3 25  1  0  0  0  0
  3 26  1  0  0  0  0
  4  5  1  0  0  0  0
  4 27  1  0  0  0  0
  4 28  1  0  0  0  0
  5  6  1  0  0  0  0
  6 21  1  0  0  0  0
  6  7  2  0  0  0  0
  7  8  1  0  0  0  0
  7 29  1  0  0  0  0
  8  9  2  0  0  0  0
  8 30  1  0  0  0  0
  9 10  1  0  0  0  0
  9 20  1  0  0  0  0
 10 11  1  0  0  0  0
 10 31  1  0  0  0  0
 11 12  2  0  0  0  0
 11 13  1  0  0  0  0
 13 19  1  0  0  0  0
 13 14  1  0  0  0  0
 13 32  1  0  0  0  0
 14 15  1  0  0  0  0
 14 33  1  0  0  0  0
 14 34  1  0  0  0  0
 15 16  1  0  0  0  0
 15 35  1  0  0  0  0
 15 36  1  0  0  0  0
 16 17  2  0  0  0  0
 16 18  1  0  0  0  0
 18 19  1  0  0  0  0
 18 37  1  0  0  0  0
 19 38  1  0  0  0  0
 19 39  1  0  0  0  0
 20 21  2  0  0  0  0
 20 40  1  0  0  0  0
M  END
> <s_m_source_file>
AV-unprocessed.smi

> <i_m_source_file_index>
1129

> <i_lp_mmshare_version>
43012

> <i_f3d_flags>
0

> <s_epik_input>
W0NIM11PW0NIMl1bQ0gyXU9jMVtjSF1bY0hdYyhbY0hdbjEpW05IXUMoPU8pW0NAQEhdMltDSDJdW0NIMl1DKD1PKVtOSF1bQ0gyXTI=

> <s_epik_cmdline>
J2VwaWtfcHl0aG9uJywgJy1waCcsICc3LjAnLCAnLXRuJywgJzgnLCAnLW1hJywgJzIwMCcsICctbWV0YWxfYmluZGluZycsICctaW1hZScsICc8aW5maWxlLm1hZT4nLCAnLW9tYWUnLCAnPG91dGZpbGUubWFlPic=

> <r_lp_tautomer_probability>
1

> <r_epik_Ionization_Penalty>
1.79985e-05

> <r_epik_Ionization_Penalty_Charging>
0

> <r_epik_Ionization_Penalty_Neutral>
1.79985e-05

> <r_epik_State_Penalty>
-0

> <r_epik_Charging_Adjusted_Penalty>
0

> <i_epik_Tot_Q>
0

> <i_epik_Tot_abs_Q>
0

> <r_epik_Metal_State_Penalty>
-0

> <b_epik_Metal_Only>
0

> <s_lp_Force_Field>
OPLS_2005

> <r_lp_Energy>
14.8931

> <b_lp_Chiralities_Consistent>
1

> <s_lp_Variant>
AV-unprocessed.smi:1129-2

> <Gold.Version>
5.8.1

> <Gold.Id.Protein>
6NUR|6NUR_protein|mol2

> <Gold.PLP.Fitness>
40.8049

> <Gold.PLP.PLP>
-34.9353

> <Gold.PLP.part.hbond>
-2.4222

> <Gold.PLP.part.metal>
0.0000

> <Gold.PLP.part.buried>
-7.0224

> <Gold.PLP.part.nonpolar>
-27.3059

> <Gold.PLP.part.repulsive>
2.3611

> <Gold.PLP.ligand.clash>
0.0000

> <Gold.PLP.ligand.torsion>
0.9929

> <Gold.PLP.Chemscore.Hbond>
1.0693

> <Gold.PLP.Chemscore.CHOScore>
1.5269

> <Gold.PLP.Chemscore.Metal>
0.0000

> <Gold.Chemscore.Hbonds>
donor molecule, donor type, donor heavy atom, donor atom, acceptor molecule, acceptor atom, score
      L1  H    18    37       P1  7921  0.86
      P1  H 10785 10796       L1    17  0.38
      L1  C    20    40       P1 10171  0.81
      L1  C    20    40       P1 10175  0.92

> <Gold.PLP.Chemscore.Internal.Correction>
0.0669

> <Gold.Rescore>
     Score         DG    S(hbond)    S(metal)    S(lipo)     H(rot)  DE(clash)    DE(int)     intcor
      6.07     -12.61       1.48        0.00      62.85       2.03       3.26       3.28       ----

> <Gold.Chemscore.Fitness>
6.0727

> <Gold.Chemscore.DG>
-12.6080

> <Gold.Chemscore.ZeroCoef>
-5.4800

> <Gold.Chemscore.Hbond>
1.4848

> <Gold.Chemscore.Metal>
0.0000

> <Gold.Chemscore.Lipo>
62.8542

> <Gold.Chemscore.Internal_Hbond>
0.0000

> <Gold.Chemscore.DEClash>
3.2564

> <Gold.Chemscore.DEInternal>
3.2789

> <Gold.Chemscore.Rot>
2.0255

> <Gold.Chemscore.Internal.Correction>
   9.000000E+99

> <Gold.Chemscore.Hbonds>
donor molecule, donor type, donor heavy atom, donor atom, acceptor molecule, acceptor atom, score
      L1  H    18    37       P1  7921  0.85
      P1  H 10785 10796       L1    17  0.26

> <Gold.Chemscore.Hbond.Weighted>
-4.9593

> <Gold.Chemscore.Metal.Weighted>
-0.0000

> <Gold.Chemscore.Lipo.Weighted>
-7.3539

> <Gold.Chemscore.Internal_Hbond.Weighted>
0.0000

> <Gold.Chemscore.DEClash.Weighted>
3.2564

> <Gold.Chemscore.DEInternal.Weighted>
3.2789

> <Gold.Chemscore.Rot.Weighted>
5.1853

> <Gold.Chemscore.Internal.Correction.Weighted>
   9.000000E+99

> <Gold.Protein.RotatedTorsions>
[ 6907 6896 6895 6894 ] final -161.95 input  -60.11 | X-H torsion
[ 7974 7965 7964 7962 ] final -159.68 input  175.53 | X-H torsion
[ 8008 7997 7996 7995 ] final  150.71 input   59.86 | X-H torsion
[ 10167 10162 10161 10158 ] final  126.92 input  -65.29 | X-H torsion
[ 10718 10713 10712 10709 ] final  -28.41 input   66.30 | X-H torsion
[ 10763 10752 10751 10750 ] final  118.92 input  -60.55 | X-H torsion
[ 11005 11000 10999 10996 ] final   72.64 input  -57.11 | X-H torsion

> <Gold.Protein.ActiveResidues>
 VAL166  LYS551  ARG553  GLY616  TRP617  ASP618  TYR619  PRO620  LYS621  CYS622 
 ASP623  PHE694  ASN695  SER759  ASP760  ASP761  ALA762  ILE779  LEU786  VAL792 
 PHE793  MET794  SER795  GLU796  ALA797  LYS798  CYS799  TRP800  GLU811  SER814 

> <Gold.Protein.RotatedAtoms>
  151.3727  133.3849  159.2701 H   0  0  0  0  0  0  0  0  0  0  0  0  # atno 6907 bound_to 6896
  150.9638  134.9023  159.7757 H   0  0  0  0  0  0  0  0  0  0  0  0  # atno 6908 bound_to 6896
  152.5159  134.3687  159.9362 H   0  0  0  0  0  0  0  0  0  0  0  0  # atno 6909 bound_to 6896
  144.7456  140.3651  143.6088 H   0  0  0  0  0  0  0  0  0  0  0  0  # atno 7974 bound_to 7965
  156.2704  140.2067  156.6061 H   0  0  0  0  0  0  0  0  0  0  0  0  # atno 8008 bound_to 7997
  154.6868  140.0534  157.0347 H   0  0  0  0  0  0  0  0  0  0  0  0  # atno 8009 bound_to 7997
  155.0922  140.3197  155.4573 H   0  0  0  0  0  0  0  0  0  0  0  0  # atno 8010 bound_to 7997
  139.5605  144.6878  151.4056 H   0  0  0  0  0  0  0  0  0  0  0  0  # atno 10167 bound_to 10162
  156.4256  130.4435  149.7153 H   0  0  0  0  0  0  0  0  0  0  0  0  # atno 10718 bound_to 10713
  153.5751  135.3494  155.2853 H   0  0  0  0  0  0  0  0  0  0  0  0  # atno 10763 bound_to 10752
  154.8676  135.4168  154.2682 H   0  0  0  0  0  0  0  0  0  0  0  0  # atno 10764 bound_to 10752
  153.3456  135.7052  153.6901 H   0  0  0  0  0  0  0  0  0  0  0  0  # atno 10765 bound_to 10752
  139.9481  134.7277  156.0930 H   0  0  0  0  0  0  0  0  0  0  0  0  # atno 11005 bound_to 11000
  145.7137  139.1691  143.2524 LP  0  0  0  0  0  0  0  0  0  0  0  0  # atno 17320 bound_to 7965
  146.1328  140.7162  142.9404 LP  0  0  0  0  0  0  0  0  0  0  0  0  # atno 17321 bound_to 7965
  140.6884  143.7919  150.7220 LP  0  0  0  0  0  0  0  0  0  0  0  0  # atno 17342 bound_to 10162
  140.1394  143.4455  152.2203 LP  0  0  0  0  0  0  0  0  0  0  0  0  # atno 17343 bound_to 10162
  156.4076  130.7706  151.2717 LP  0  0  0  0  0  0  0  0  0  0  0  0  # atno 17370 bound_to 10713
  157.7508  131.0221  150.3778 LP  0  0  0  0  0  0  0  0  0  0  0  0  # atno 17371 bound_to 10713
  141.1136  133.6635  156.3040 LP  0  0  0  0  0  0  0  0  0  0  0  0  # atno 17394 bound_to 11000
  140.5786  134.5768  157.5474 LP  0  0  0  0  0  0  0  0  0  0  0  0  # atno 17395 bound_to 11000

$$$$
