AV-unprocessed.smi:1575|AV-procd|sdf|6341|dock3
  -GOLD-   22720 6553D 1   1.00000     0.00000
 Structure written by MMmdl.
 40 40  0  0  0  0  0  0  0  0  2 V2000
  152.4500  137.7505  160.1560 C   0  0  0  0  0  0  0  0  0  0  0  0
  151.9870  138.8393  159.3098 N   0  0  0  0  0  0  0  0  0  0  0  0
  152.7628  139.5006  158.4390 C   0  0  0  0  0  0  0  0  0  0  0  0
  153.9551  139.2394  158.2686 O   0  0  0  0  0  0  0  0  0  0  0  0
  152.0770  140.6108  157.6245 C   0  0  2  0  0  0  0  0  0  0  0  0
  151.6569  141.7326  158.6051 C   0  0  0  0  0  0  0  0  0  0  0  0
  152.8104  142.6118  159.1437 C   0  0  0  0  0  0  0  0  0  0  0  0
  153.4617  142.0237  160.4060 C   0  0  0  0  0  0  0  0  0  0  0  0
  152.3189  144.0427  159.4087 C   0  0  0  0  0  0  0  0  0  0  0  0
  150.8762  140.0947  156.9729 N   0  0  0  0  0  0  0  0  0  0  0  0
  150.7796  139.6845  155.6971 C   0  0  0  0  0  0  0  0  0  0  0  0
  151.7422  139.6538  154.9309 O   0  0  0  0  0  0  0  0  0  0  0  0
  149.3948  139.2505  155.1864 C   0  0  0  0  0  0  0  0  0  0  0  0
  148.3514  140.2883  155.2884 N   0  0  0  0  0  0  0  0  0  0  0  0
  147.7980  140.7772  154.0917 C   0  0  0  0  0  0  0  0  0  0  0  0
  146.8241  141.7071  154.0872 C   0  0  0  0  0  0  0  0  0  0  0  0
  146.3427  142.2092  155.3682 C   0  0  0  0  0  0  0  0  0  0  0  0
  145.4529  143.0575  155.3833 O   0  0  0  0  0  0  0  0  0  0  0  0
  146.9114  141.7042  156.5020 N   0  5  0  0  0  0  0  0  0  0  0  0
  147.9002  140.7575  156.4917 C   0  0  0  0  0  0  0  0  0  0  0  0
  148.3905  140.3059  157.5269 O   0  0  0  0  0  0  0  0  0  0  0  0
  151.6417  137.4155  160.8056 H   0  0  0  0  0  0  0  0  0  0  0  0
  153.2822  138.0712  160.7842 H   0  0  0  0  0  0  0  0  0  0  0  0
  152.7757  136.9029  159.5516 H   0  0  0  0  0  0  0  0  0  0  0  0
  151.0179  139.1107  159.3923 H   0  0  0  0  0  0  0  0  0  0  0  0
  152.7698  140.9992  156.8761 H   0  0  0  0  0  0  0  0  0  0  0  0
  150.9322  142.3839  158.1122 H   0  0  0  0  0  0  0  0  0  0  0  0
  151.1289  141.2912  159.4521 H   0  0  0  0  0  0  0  0  0  0  0  0
  153.5830  142.6854  158.3775 H   0  0  0  0  0  0  0  0  0  0  0  0
  152.7299  141.8813  161.2015 H   0  0  0  0  0  0  0  0  0  0  0  0
  154.2418  142.6839  160.7862 H   0  0  0  0  0  0  0  0  0  0  0  0
  153.9311  141.0613  160.2036 H   0  0  0  0  0  0  0  0  0  0  0  0
  151.5420  144.0603  160.1734 H   0  0  0  0  0  0  0  0  0  0  0  0
  151.9072  144.4911  158.5040 H   0  0  0  0  0  0  0  0  0  0  0  0
  153.1346  144.6824  159.7471 H   0  0  0  0  0  0  0  0  0  0  0  0
  150.0328  140.0825  157.5285 H   0  0  0  0  0  0  0  0  0  0  0  0
  149.4928  138.9187  154.1513 H   0  0  0  0  0  0  0  0  0  0  0  0
  149.0956  138.3605  155.7415 H   0  0  0  0  0  0  0  0  0  0  0  0
  148.2048  140.3483  153.1878 H   0  0  0  0  0  0  0  0  0  0  0  0
  146.4069  142.0696  153.1593 H   0  0  0  0  0  0  0  0  0  0  0  0
  1  2  1  0  0  0  0
  1 22  1  0  0  0  0
  1 23  1  0  0  0  0
  1 24  1  0  0  0  0
  2  3  1  0  0  0  0
  2 25  1  0  0  0  0
  3  4  2  0  0  0  0
  3  5  1  0  0  0  0
  5  6  1  0  0  0  0
  5 10  1  0  0  0  0
  5 26  1  0  0  0  0
  6  7  1  0  0  0  0
  6 27  1  0  0  0  0
  6 28  1  0  0  0  0
  7  8  1  0  0  0  0
  7  9  1  0  0  0  0
  7 29  1  0  0  0  0
  8 30  1  0  0  0  0
  8 31  1  0  0  0  0
  8 32  1  0  0  0  0
  9 33  1  0  0  0  0
  9 34  1  0  0  0  0
  9 35  1  0  0  0  0
 10 11  1  0  0  0  0
 10 36  1  0  0  0  0
 11 12  2  0  0  0  0
 11 13  1  0  0  0  0
 13 14  1  0  0  0  0
 13 37  1  0  0  0  0
 13 38  1  0  0  0  0
 14 20  1  0  0  0  0
 14 15  1  0  0  0  0
 15 16  2  0  0  0  0
 15 39  1  0  0  0  0
 16 17  1  0  0  0  0
 16 40  1  0  0  0  0
 17 18  2  0  0  0  0
 17 19  1  0  0  0  0
 19 20  1  0  0  0  0
 20 21  2  0  0  0  0
M  CHG  1  19  -1
M  END
> <s_m_source_file>
AV-unprocessed.smi

> <i_m_source_file_index>
1575

> <i_lp_mmshare_version>
43012

> <i_f3d_flags>
0

> <s_epik_input>
W0NIM11bTkhdQyg9TylbQ0BIXShbQ0gyXVtDSF0oW0NIM10pW0NIM10pW05IXUMoPU8pW0NIMl1uMVtjSF1bY0hdYyg9TylbbkhdYzE9Tw==

> <s_epik_cmdline>
J2VwaWtfcHl0aG9uJywgJy1waCcsICc3LjAnLCAnLXRuJywgJzgnLCAnLW1hJywgJzIwMCcsICctbWV0YWxfYmluZGluZycsICctaW1hZScsICc8aW5maWxlLm1hZT4nLCAnLW9tYWUnLCAnPG91dGZpbGUubWFlPic=

> <r_lp_tautomer_probability>
0.999537

> <r_epik_Ionization_Penalty>
3.03017

> <r_epik_Ionization_Penalty_Charging>
2.35557e-08

> <r_epik_Ionization_Penalty_Neutral>
3.03017

> <r_epik_State_Penalty>
3.02913

> <r_epik_Charging_Adjusted_Penalty>
3.02913

> <i_epik_Tot_Q>
-1

> <i_epik_Tot_abs_Q>
1

> <r_epik_Metal_State_Penalty>
0.455824

> <b_epik_Metal_Only>
1

> <s_lp_Force_Field>
OPLS_2005

> <r_lp_Energy>
14.6611

> <b_lp_Chiralities_Consistent>
1

> <s_lp_Variant>
AV-unprocessed.smi:1575-3

> <Gold.Version>
5.8.1

> <Gold.Id.Protein>
6NUR|6NUR_protein|mol2

> <Gold.PLP.Fitness>
44.2445

> <Gold.PLP.PLP>
-36.9640

> <Gold.PLP.part.hbond>
-1.8744

> <Gold.PLP.part.metal>
0.0000

> <Gold.PLP.part.buried>
-5.8328

> <Gold.PLP.part.nonpolar>
-30.1869

> <Gold.PLP.part.repulsive>
0.5957

> <Gold.PLP.ligand.clash>
0.0000

> <Gold.PLP.ligand.torsion>
0.8900

> <Gold.PLP.Chemscore.Hbond>
2.0000

> <Gold.PLP.Chemscore.CHOScore>
1.0000

> <Gold.PLP.Chemscore.Metal>
0.0000

> <Gold.Chemscore.Hbonds>
donor molecule, donor type, donor heavy atom, donor atom, acceptor molecule, acceptor atom, score
      P1  H  7989  7998       L1    12  1.00
      P1  H  7997  8008       L1     4  1.00
      L1  C    15    39       P1  7957  1.00

> <Gold.PLP.Chemscore.Internal.Correction>
0.0605

> <Gold.Rescore>
     Score         DG    S(hbond)    S(metal)    S(lipo)     H(rot)  DE(clash)    DE(int)     intcor
     11.41     -13.77       1.93        0.00      75.86       2.74       0.01       2.35       ----

> <Gold.Chemscore.Fitness>
11.4055

> <Gold.Chemscore.DG>
-13.7703

> <Gold.Chemscore.ZeroCoef>
-5.4800

> <Gold.Chemscore.Hbond>
1.9275

> <Gold.Chemscore.Metal>
0.0000

> <Gold.Chemscore.Lipo>
75.8600

> <Gold.Chemscore.Internal_Hbond>
0.0000

> <Gold.Chemscore.DEClash>
0.0126

> <Gold.Chemscore.DEInternal>
2.3521

> <Gold.Chemscore.Rot>
2.7435

> <Gold.Chemscore.Internal.Correction>
   9.000000E+99

> <Gold.Chemscore.Hbonds>
donor molecule, donor type, donor heavy atom, donor atom, acceptor molecule, acceptor atom, score
      P1  H  7989  7998       L1    12  0.88
      P1  H  7997  8008       L1     4  0.98

> <Gold.Chemscore.Hbond.Weighted>
-6.4379

> <Gold.Chemscore.Metal.Weighted>
-0.0000

> <Gold.Chemscore.Lipo.Weighted>
-8.8756

> <Gold.Chemscore.Internal_Hbond.Weighted>
0.0000

> <Gold.Chemscore.DEClash.Weighted>
0.0126

> <Gold.Chemscore.DEInternal.Weighted>
2.3521

> <Gold.Chemscore.Rot.Weighted>
7.0233

> <Gold.Chemscore.Internal.Correction.Weighted>
   9.000000E+99

> <Gold.Protein.RotatedTorsions>
[ 6907 6896 6895 6894 ] final   -0.23 input  -60.11 | X-H torsion
[ 7974 7965 7964 7962 ] final -176.00 input  175.53 | X-H torsion
[ 8008 7997 7996 7995 ] final -114.58 input   59.86 | X-H torsion
[ 10167 10162 10161 10158 ] final   50.26 input  -65.29 | X-H torsion
[ 10718 10713 10712 10709 ] final   48.66 input   66.30 | X-H torsion
[ 10763 10752 10751 10750 ] final  135.13 input  -60.55 | X-H torsion
[ 11005 11000 10999 10996 ] final -128.79 input  -57.11 | X-H torsion

> <Gold.Protein.ActiveResidues>
 VAL166  LYS551  ARG553  GLY616  TRP617  ASP618  TYR619  PRO620  LYS621  CYS622 
 ASP623  PHE694  ASN695  SER759  ASP760  ASP761  ALA762  ILE779  LEU786  VAL792 
 PHE793  MET794  SER795  GLU796  ALA797  LYS798  CYS799  TRP800  GLU811  SER814 

> <Gold.Protein.RotatedAtoms>
  151.5657  135.1064  159.9982 H   0  0  0  0  0  0  0  0  0  0  0  0  # atno 6907 bound_to 6896
  152.4425  133.7471  159.6684 H   0  0  0  0  0  0  0  0  0  0  0  0  # atno 6908 bound_to 6896
  150.8334  133.7985  159.3113 H   0  0  0  0  0  0  0  0  0  0  0  0  # atno 6909 bound_to 6896
  144.7127  140.1237  143.6403 H   0  0  0  0  0  0  0  0  0  0  0  0  # atno 7974 bound_to 7965
  155.0386  140.0392  157.2501 H   0  0  0  0  0  0  0  0  0  0  0  0  # atno 8008 bound_to 7997
  154.7235  140.2716  155.6496 H   0  0  0  0  0  0  0  0  0  0  0  0  # atno 8009 bound_to 7997
  156.2823  140.2698  156.1914 H   0  0  0  0  0  0  0  0  0  0  0  0  # atno 8010 bound_to 7997
  140.2743  144.3230  150.6281 H   0  0  0  0  0  0  0  0  0  0  0  0  # atno 10167 bound_to 10162
  157.4709  130.8254  149.7987 H   0  0  0  0  0  0  0  0  0  0  0  0  # atno 10718 bound_to 10713
  153.8350  135.3099  155.3422 H   0  0  0  0  0  0  0  0  0  0  0  0  # atno 10763 bound_to 10752
  154.7957  135.4756  154.0159 H   0  0  0  0  0  0  0  0  0  0  0  0  # atno 10764 bound_to 10752
  153.1611  135.6861  153.8833 H   0  0  0  0  0  0  0  0  0  0  0  0  # atno 10765 bound_to 10752
  140.9486  134.1096  157.4083 H   0  0  0  0  0  0  0  0  0  0  0  0  # atno 11005 bound_to 11000
  145.9348  139.2630  143.1303 LP  0  0  0  0  0  0  0  0  0  0  0  0  # atno 17320 bound_to 7965
  145.9485  140.8927  143.0271 LP  0  0  0  0  0  0  0  0  0  0  0  0  # atno 17321 bound_to 7965
  140.5864  143.2170  151.7334 LP  0  0  0  0  0  0  0  0  0  0  0  0  # atno 17342 bound_to 10162
  139.4980  144.4004  152.0187 LP  0  0  0  0  0  0  0  0  0  0  0  0  # atno 17343 bound_to 10162
  156.0073  130.3849  150.2387 LP  0  0  0  0  0  0  0  0  0  0  0  0  # atno 17370 bound_to 10713
  157.0569  131.0079  151.3235 LP  0  0  0  0  0  0  0  0  0  0  0  0  # atno 17371 bound_to 10713
  139.8841  135.0059  156.6344 LP  0  0  0  0  0  0  0  0  0  0  0  0  # atno 17394 bound_to 11000
  140.7634  133.8798  155.8435 LP  0  0  0  0  0  0  0  0  0  0  0  0  # atno 17395 bound_to 11000

$$$$
