#       Name:                AV-unprocessed.smi:2807
#       Creating user name   scv26
#       Creation time:       Fri Mar 27 15:26:04 2020


#       File generated by GOLD software.
#

@<TRIPOS>MOLECULE
AV-unprocessed.smi:2807
    37    38     1
SMALL
NO_CHARGES


@<TRIPOS>ATOM
      1 ****        -0.5273   2.7331   0.0446 O.2            1 S1                 0.0000
      2 ****         0.0512   1.6942  -0.2939 C.2            1 S1                 0.0000
      3 ****        -0.4667   0.4832  -0.6470 N.pl3          1 S1                -1.0000
      4 ****        -1.8990   0.1639  -0.6618 C.3            1 S1                 0.0000
      5 ****        -2.1287  -1.1831   0.0401 C.3            1 S1                 0.0000
      6 ****        -1.9814  -2.2764  -1.0348 C.3            1 S1                 0.0000
      7 ****        -1.9963  -1.5637  -2.3959 C.3            1 S1                 0.0000
      8 ****        -2.4034  -0.1167  -2.0902 C.3            1 S1                 0.0000
      9 ****        -1.9428   0.7975  -3.0671 O.3            1 S1                 0.0000
     10 ****         1.5942   1.6926  -0.3356 C.3            1 S1                 0.0000
     11 ****         2.0151   1.1278  -1.4726 F              1 S1                 0.0000
     12 ****         2.0264   2.9563  -0.3356 F              1 S1                 0.0000
     13 ****         2.1705   0.9754   0.8846 C.ar           1 S1                 0.0000
     14 ****         2.2307   1.6258   2.1384 C.ar           1 S1                 0.0000
     15 ****         2.7552   0.9239   3.2403 C.ar           1 S1                 0.0000
     16 ****         3.2013  -0.3979   3.0527 C.ar           1 S1                 0.0000
     17 ****         3.1011  -0.9611   1.7653 C.ar           1 S1                 0.0000
     18 ****         2.6011  -0.2965   0.7024 N.ar           1 S1                 0.0000
     19 ****        -2.5057   0.9403  -0.1928 H              1 S1                 0.0000
     20 ****        -1.4636  -1.3426   0.8904 H              1 S1                 0.0000
     21 ****        -3.1472  -1.2082   0.4296 H              1 S1                 0.0000
     22 ****        -1.0474  -2.8260  -0.9078 H              1 S1                 0.0000
     23 ****        -2.7939  -2.9999  -0.9580 H              1 S1                 0.0000
     24 ****        -0.9971  -1.5997  -2.8360 H              1 S1                 0.0000
     25 ****        -2.6762  -2.0380  -3.1042 H              1 S1                 0.0000
     26 ****        -3.4928  -0.0611  -2.0773 H              1 S1                 0.0000
     27 ****        -2.0050   1.6676  -2.7036 H              1 S1                 0.0000
     28 ****         1.8736   2.6386   2.2534 H              1 S1                 0.0000
     29 ****         2.8125   1.3906   4.2125 H              1 S1                 0.0000
     30 ****         3.6084  -0.9674   3.8748 H              1 S1                 0.0000
     31 ****         3.4331  -1.9726   1.5840 H              1 S1                 0.0000
     32 ****        -1.5261   2.7581   0.0871 LP             1 S1                 0.0000
     33 ****         0.0036   3.5484   0.2760 LP             1 S1                 0.0000
     34 ****         0.1736  -0.2369  -0.9142 LP             1 S1                 0.0000
     35 ****        -2.5095   0.7312  -3.8883 LP             1 S1                 0.0000
     36 ****        -0.9920   0.5943  -3.3009 LP             1 S1                 0.0000
     37 ****         2.5497  -0.7315  -0.1965 LP             1 S1                 0.0000
@<TRIPOS>BOND
    1    1    2 2     
    2    2    3 1     
    3    2   10 1     
    4    3    4 1     
    5    4    8 1     
    6    4    5 1     
    7    4   19 1     
    8    5    6 1     
    9    5   20 1     
   10    5   21 1     
   11    6    7 1     
   12    6   22 1     
   13    6   23 1     
   14    7    8 1     
   15    7   24 1     
   16    7   25 1     
   17    8    9 1     
   18    8   26 1     
   19    9   27 1     
   20   10   11 1     
   21   10   12 1     
   22   10   13 1     
   23   13   18 ar    
   24   13   14 ar    
   25   14   15 ar    
   26   14   28 1     
   27   15   16 ar    
   28   15   29 1     
   29   16   17 ar    
   30   16   30 1     
   31   17   18 ar    
   32   17   31 1     
   33    1   32 1     
   34    1   33 1     
   35    3   34 1     
   36    9   35 1     
   37    9   36 1     
   38   18   37 1     
@<TRIPOS>SUBSTRUCTURE
      1 S1             1
@<TRIPOS>SET
LONE_PAIRS      STATIC     ATOMS    <user>   **** ""
6 32 33 34 35 36 37
DONOR_HYDROGENS      STATIC     ATOMS    <user>   **** ""
1 27
ATOM$BLUE        STATIC     ATOMS    COLORGROUP SYSTEM
6 32 33 34 35 36 37
ATOM$RED        STATIC     ATOMS    COLORGROUP SYSTEM
1 27
