AV-unprocessed.smi:3158|AV-procd|sdf|12045|dock2
  -GOLD-   2272017473D 1   1.00000     0.00000
 Structure written by MMmdl.
 39 39  0  0  0  0  0  0  0  0  1 V2000
  150.9109  137.2215  154.8438 C   0  0  0  0  0  0  0  0  0  0  0  0
  152.0519  138.2364  154.6812 C   0  0  0  0  0  0  0  0  0  0  0  0
  152.2721  139.1258  155.9192 C   0  0  2  0  0  0  0  0  0  0  0  0
  152.7251  138.2997  157.1337 C   0  0  0  0  0  0  0  0  0  0  0  0
  151.0476  139.8535  156.2424 N   0  0  0  0  0  0  0  0  0  0  0  0
  150.2106  140.4083  155.3515 C   0  0  0  0  0  0  0  0  0  0  0  0
  150.3883  140.3592  154.1339 O   0  0  0  0  0  0  0  0  0  0  0  0
  149.0057  141.1711  155.9275 C   0  0  2  0  0  0  0  0  0  0  0  0
  148.0104  141.5403  154.8159 C   0  0  0  0  0  0  0  0  0  0  0  0
  149.3880  142.3829  156.6751 N   0  0  0  0  0  0  0  0  0  0  0  0
  150.0627  142.1218  157.9419 C   0  0  0  0  0  0  0  0  0  0  0  0
  151.4704  142.7323  157.9058 C   0  0  0  0  0  0  0  0  0  0  0  0
  151.7236  143.5495  159.0762 N   0  0  0  0  0  0  0  0  0  0  0  0
  151.9416  144.9094  159.1409 C   0  0  0  0  0  0  0  0  0  0  0  0
  152.1414  145.2263  160.4541 C   0  0  0  0  0  0  0  0  0  0  0  0
  152.0270  143.9766  161.1245 C   0  0  0  0  0  0  0  0  0  0  0  0
  151.7779  142.9745  160.2969 N   0  0  0  0  0  0  0  0  0  0  0  0
  150.7679  136.6514  153.9258 H   0  0  0  0  0  0  0  0  0  0  0  0
  149.9697  137.7216  155.0732 H   0  0  0  0  0  0  0  0  0  0  0  0
  151.1167  136.5101  155.6438 H   0  0  0  0  0  0  0  0  0  0  0  0
  152.9737  137.7059  154.4384 H   0  0  0  0  0  0  0  0  0  0  0  0
  151.8322  138.8696  153.8209 H   0  0  0  0  0  0  0  0  0  0  0  0
  153.0609  139.8415  155.6795 H   0  0  0  0  0  0  0  0  0  0  0  0
  153.6505  137.7643  156.9201 H   0  0  0  0  0  0  0  0  0  0  0  0
  151.9720  137.5634  157.4163 H   0  0  0  0  0  0  0  0  0  0  0  0
  152.9089  138.9363  157.9998 H   0  0  0  0  0  0  0  0  0  0  0  0
  150.8253  139.9543  157.2222 H   0  0  0  0  0  0  0  0  0  0  0  0
  148.4845  140.5055  156.6183 H   0  0  0  0  0  0  0  0  0  0  0  0
  147.6943  140.6584  154.2572 H   0  0  0  0  0  0  0  0  0  0  0  0
  148.4418  142.2478  154.1063 H   0  0  0  0  0  0  0  0  0  0  0  0
  147.1132  141.9987  155.2332 H   0  0  0  0  0  0  0  0  0  0  0  0
  149.9476  143.0059  156.1100 H   0  0  0  0  0  0  0  0  0  0  0  0
  149.4876  142.5554  158.7613 H   0  0  0  0  0  0  0  0  0  0  0  0
  150.1397  141.0493  158.1246 H   0  0  0  0  0  0  0  0  0  0  0  0
  152.2269  141.9473  157.8638 H   0  0  0  0  0  0  0  0  0  0  0  0
  151.6014  143.3478  157.0141 H   0  0  0  0  0  0  0  0  0  0  0  0
  151.9374  145.5307  158.2574 H   0  0  0  0  0  0  0  0  0  0  0  0
  152.3401  146.2018  160.8721 H   0  0  0  0  0  0  0  0  0  0  0  0
  152.1173  143.7687  162.1806 H   0  0  0  0  0  0  0  0  0  0  0  0
  1  2  1  0  0  0  0
  1 18  1  0  0  0  0
  1 19  1  0  0  0  0
  1 20  1  0  0  0  0
  2  3  1  0  0  0  0
  2 21  1  0  0  0  0
  2 22  1  0  0  0  0
  3  4  1  0  0  0  0
  3  5  1  0  0  0  0
  3 23  1  0  0  0  0
  4 24  1  0  0  0  0
  4 25  1  0  0  0  0
  4 26  1  0  0  0  0
  5  6  1  0  0  0  0
  5 27  1  0  0  0  0
  6  7  2  0  0  0  0
  6  8  1  0  0  0  0
  8  9  1  0  0  0  0
  8 10  1  0  0  0  0
  8 28  1  0  0  0  0
  9 29  1  0  0  0  0
  9 30  1  0  0  0  0
  9 31  1  0  0  0  0
 10 11  1  0  0  0  0
 10 32  1  0  0  0  0
 11 12  1  0  0  0  0
 11 33  1  0  0  0  0
 11 34  1  0  0  0  0
 12 13  1  0  0  0  0
 12 35  1  0  0  0  0
 12 36  1  0  0  0  0
 13 17  1  0  0  0  0
 13 14  1  0  0  0  0
 14 15  2  0  0  0  0
 14 37  1  0  0  0  0
 15 16  1  0  0  0  0
 15 38  1  0  0  0  0
 16 17  2  0  0  0  0
 16 39  1  0  0  0  0
M  END
> <s_m_source_file>
AV-unprocessed.smi

> <i_m_source_file_index>
3158

> <i_lp_mmshare_version>
43012

> <i_f3d_flags>
0

> <s_epik_input>
W0NIM11bQ0gyXVtDQEhdKFtDSDNdKVtOSF1DKD1PKVtDQEhdKFtDSDNdKVtOSF1bQ0gyXVtDSDJdbjFbY0hdW2NIXVtjSF1uMQ==

> <s_epik_cmdline>
J2VwaWtfcHl0aG9uJywgJy1waCcsICc3LjAnLCAnLXRuJywgJzgnLCAnLW1hJywgJzIwMCcsICctbWV0YWxfYmluZGluZycsICctaW1hZScsICc8aW5maWxlLm1hZT4nLCAnLW9tYWUnLCAnPG91dGZpbGUubWFlPic=

> <r_lp_tautomer_probability>
1

> <r_epik_Ionization_Penalty>
0.724013

> <r_epik_Ionization_Penalty_Charging>
0

> <r_epik_Ionization_Penalty_Neutral>
0.724013

> <r_epik_State_Penalty>
0.74758

> <r_epik_Charging_Adjusted_Penalty>
0.74758

> <i_epik_Tot_Q>
0

> <i_epik_Tot_abs_Q>
0

> <r_epik_Metal_State_Penalty>
0.746846

> <b_epik_Metal_Only>
0

> <s_lp_Force_Field>
OPLS_2005

> <r_lp_Energy>
5.18205

> <b_lp_Chiralities_Consistent>
1

> <s_lp_Variant>
AV-unprocessed.smi:3158-5

> <Gold.Version>
5.8.1

> <Gold.Id.Protein>
6NUR|6NUR_protein|mol2

> <Gold.PLP.Fitness>
39.6560

> <Gold.PLP.PLP>
-38.2894

> <Gold.PLP.part.hbond>
-1.5323

> <Gold.PLP.part.metal>
0.0000

> <Gold.PLP.part.buried>
-6.1166

> <Gold.PLP.part.nonpolar>
-32.0087

> <Gold.PLP.part.repulsive>
0.8711

> <Gold.PLP.ligand.clash>
0.0000

> <Gold.PLP.ligand.torsion>
1.2444

> <Gold.PLP.Chemscore.Hbond>
1.2000

> <Gold.PLP.Chemscore.CHOScore>
0.0000

> <Gold.PLP.Chemscore.Metal>
0.0000

> <Gold.Chemscore.Hbonds>
donor molecule, donor type, donor heavy atom, donor atom, acceptor molecule, acceptor atom, score
      L1  H    10    32       P1  8028  0.19
      P1  H  7989  7998       L1     7  0.84

> <Gold.PLP.Chemscore.Internal.Correction>
0.2555

> <Gold.Rescore>
     Score         DG    S(hbond)    S(metal)    S(lipo)     H(rot)  DE(clash)    DE(int)     intcor
     11.29     -15.05       1.42        0.00      87.82       2.12       0.12       3.65       ----

> <Gold.Chemscore.Fitness>
11.2914

> <Gold.Chemscore.DG>
-15.0525

> <Gold.Chemscore.ZeroCoef>
-5.4800

> <Gold.Chemscore.Hbond>
1.4171

> <Gold.Chemscore.Metal>
0.0000

> <Gold.Chemscore.Lipo>
87.8239

> <Gold.Chemscore.Internal_Hbond>
0.0000

> <Gold.Chemscore.DEClash>
0.1156

> <Gold.Chemscore.DEInternal>
3.6455

> <Gold.Chemscore.Rot>
2.1234

> <Gold.Chemscore.Internal.Correction>
   9.000000E+99

> <Gold.Chemscore.Hbonds>
donor molecule, donor type, donor heavy atom, donor atom, acceptor molecule, acceptor atom, score
      L1  H    10    32       P1  8028  0.20
      P1  H  7989  7998       L1     7  0.77

> <Gold.Chemscore.Hbond.Weighted>
-4.7330

> <Gold.Chemscore.Metal.Weighted>
-0.0000

> <Gold.Chemscore.Lipo.Weighted>
-10.2754

> <Gold.Chemscore.Internal_Hbond.Weighted>
0.0000

> <Gold.Chemscore.DEClash.Weighted>
0.1156

> <Gold.Chemscore.DEInternal.Weighted>
3.6455

> <Gold.Chemscore.Rot.Weighted>
5.4359

> <Gold.Chemscore.Internal.Correction.Weighted>
   9.000000E+99

> <Gold.Protein.RotatedTorsions>
[ 6907 6896 6895 6894 ] final  110.69 input  -60.11 | X-H torsion
[ 7974 7965 7964 7962 ] final -113.62 input  175.53 | X-H torsion
[ 8008 7997 7996 7995 ] final   50.12 input   59.86 | X-H torsion
[ 10167 10162 10161 10158 ] final   21.11 input  -65.29 | X-H torsion
[ 10718 10713 10712 10709 ] final  -32.11 input   66.30 | X-H torsion
[ 10763 10752 10751 10750 ] final -113.17 input  -60.55 | X-H torsion
[ 11005 11000 10999 10996 ] final  -98.66 input  -57.11 | X-H torsion

> <Gold.Protein.ActiveResidues>
 VAL166  LYS551  ARG553  GLY616  TRP617  ASP618  TYR619  PRO620  LYS621  CYS622 
 ASP623  PHE694  ASN695  SER759  ASP760  ASP761  ALA762  ILE779  LEU786  VAL792 
 PHE793  MET794  SER795  GLU796  ALA797  LYS798  CYS799  TRP800  GLU811  SER814 

> <Gold.Protein.RotatedAtoms>
  152.5007  133.8764  159.7323 H   0  0  0  0  0  0  0  0  0  0  0  0  # atno 6907 bound_to 6896
  150.9237  133.6840  159.2833 H   0  0  0  0  0  0  0  0  0  0  0  0  # atno 6908 bound_to 6896
  151.4209  135.1002  159.9666 H   0  0  0  0  0  0  0  0  0  0  0  0  # atno 6909 bound_to 6896
  145.1299  140.8718  143.3764 H   0  0  0  0  0  0  0  0  0  0  0  0  # atno 7974 bound_to 7965
  155.4134  140.3443  155.4265 H   0  0  0  0  0  0  0  0  0  0  0  0  # atno 8008 bound_to 7997
  156.1435  140.1549  156.8915 H   0  0  0  0  0  0  0  0  0  0  0  0  # atno 8009 bound_to 7997
  154.4991  140.0819  156.7740 H   0  0  0  0  0  0  0  0  0  0  0  0  # atno 8010 bound_to 7997
  140.5452  143.9607  150.6543 H   0  0  0  0  0  0  0  0  0  0  0  0  # atno 10167 bound_to 10162
  156.3789  130.4352  149.7485 H   0  0  0  0  0  0  0  0  0  0  0  0  # atno 10718 bound_to 10713
  154.8384  135.4464  154.1308 H   0  0  0  0  0  0  0  0  0  0  0  0  # atno 10763 bound_to 10752
  153.2519  135.6927  153.7677 H   0  0  0  0  0  0  0  0  0  0  0  0  # atno 10764 bound_to 10752
  153.6986  135.3375  155.3195 H   0  0  0  0  0  0  0  0  0  0  0  0  # atno 10765 bound_to 10752
  141.1337  133.8262  157.0868 H   0  0  0  0  0  0  0  0  0  0  0  0  # atno 11005 bound_to 11000
  145.0647  139.3078  143.5862 LP  0  0  0  0  0  0  0  0  0  0  0  0  # atno 17320 bound_to 7965
  146.3515  140.0101  142.8668 LP  0  0  0  0  0  0  0  0  0  0  0  0  # atno 17321 bound_to 7965
  140.3018  143.3255  152.0964 LP  0  0  0  0  0  0  0  0  0  0  0  0  # atno 17342 bound_to 10162
  139.5004  144.6692  151.6284 LP  0  0  0  0  0  0  0  0  0  0  0  0  # atno 17343 bound_to 10162
  156.4583  130.7939  151.2960 LP  0  0  0  0  0  0  0  0  0  0  0  0  # atno 17370 bound_to 10713
  157.7490  131.0074  150.3187 LP  0  0  0  0  0  0  0  0  0  0  0  0  # atno 17371 bound_to 10713
  140.0417  134.9851  157.0973 LP  0  0  0  0  0  0  0  0  0  0  0  0  # atno 17394 bound_to 11000
  140.4125  134.1966  155.7163 LP  0  0  0  0  0  0  0  0  0  0  0  0  # atno 17395 bound_to 11000

$$$$
