AV-unprocessed.smi:1941|AV-procd|sdf|7845|dock3
  -GOLD-   22720 9583D 1   1.00000     0.00000
 Structure written by MMmdl.
 40 41  0  0  0  0  0  0  0  0  1 V2000
  150.8334  142.3779  157.2178 C   0  0  0  0  0  0  0  0  0  0  0  0
  150.5453  141.3425  156.1858 C   0  0  0  0  0  0  0  0  0  0  0  0
  151.3574  140.3153  155.9229 N   0  0  0  0  0  0  0  0  0  0  0  0
  150.8655  139.4849  154.9110 C   0  0  0  0  0  0  0  0  0  0  0  0
  151.6496  138.2810  154.4846 C   0  0  0  0  0  0  0  0  0  0  0  0
  151.2206  137.0104  155.2368 C   0  0  0  0  0  0  0  0  0  0  0  0
  150.3326  136.1835  154.4277 N   0  0  0  0  0  0  0  0  0  0  0  0
  149.9320  134.9457  154.7489 C   0  0  0  0  0  0  0  0  0  0  0  0
  150.2568  134.3638  155.7839 O   0  0  0  0  0  0  0  0  0  0  0  0
  149.1388  134.4220  153.8033 N   0  0  0  0  0  0  0  0  0  0  0  0
  148.5373  133.0899  153.8305 C   0  0  2  0  0  0  0  0  0  0  0  0
  149.6365  132.0504  154.0925 C   0  0  0  0  0  0  0  0  0  0  0  0
  147.7920  132.8189  152.5092 C   0  0  2  0  0  0  0  0  0  0  0  0
  146.6415  133.7812  152.2105 C   0  0  0  0  0  0  0  0  0  0  0  0
  145.7435  132.9818  151.2801 C   0  0  0  0  0  0  0  0  0  0  0  0
  146.2026  131.5330  151.4713 C   0  0  0  0  0  0  0  0  0  0  0  0
  147.1214  131.5693  152.5547 O   0  0  0  0  0  0  0  0  0  0  0  0
  149.6565  139.9001  154.4108 C   0  0  0  0  0  0  0  0  0  0  0  0
  149.0931  141.3513  155.1928 S   0  0  0  0  0  0  0  0  0  0  0  0
  151.8760  142.3256  157.5331 H   0  0  0  0  0  0  0  0  0  0  0  0
  150.1958  142.2230  158.0881 H   0  0  0  0  0  0  0  0  0  0  0  0
  150.6410  143.3719  156.8136 H   0  0  0  0  0  0  0  0  0  0  0  0
  151.5315  138.1236  153.4118 H   0  0  0  0  0  0  0  0  0  0  0  0
  152.7135  138.4616  154.6434 H   0  0  0  0  0  0  0  0  0  0  0  0
  152.0938  136.4329  155.5458 H   0  0  0  0  0  0  0  0  0  0  0  0
  150.6897  137.2822  156.1495 H   0  0  0  0  0  0  0  0  0  0  0  0
  150.0091  136.5788  153.5570 H   0  0  0  0  0  0  0  0  0  0  0  0
  148.9343  134.9895  152.9941 H   0  0  0  0  0  0  0  0  0  0  0  0
  147.8164  133.0198  154.6470 H   0  0  0  0  0  0  0  0  0  0  0  0
  149.2220  131.0433  154.1394 H   0  0  0  0  0  0  0  0  0  0  0  0
  150.1385  132.2416  155.0416 H   0  0  0  0  0  0  0  0  0  0  0  0
  150.3922  132.0626  153.3064 H   0  0  0  0  0  0  0  0  0  0  0  0
  148.4929  132.8118  151.6719 H   0  0  0  0  0  0  0  0  0  0  0  0
  146.1001  134.0147  153.1286 H   0  0  0  0  0  0  0  0  0  0  0  0
  146.9785  134.7206  151.7716 H   0  0  0  0  0  0  0  0  0  0  0  0
  144.6929  133.1137  151.5407 H   0  0  0  0  0  0  0  0  0  0  0  0
  145.8740  133.2890  150.2420 H   0  0  0  0  0  0  0  0  0  0  0  0
  145.3746  130.8567  151.6851 H   0  0  0  0  0  0  0  0  0  0  0  0
  146.7145  131.1715  150.5785 H   0  0  0  0  0  0  0  0  0  0  0  0
  149.0646  139.4421  153.6322 H   0  0  0  0  0  0  0  0  0  0  0  0
  1  2  1  0  0  0  0
  1 20  1  0  0  0  0
  1 21  1  0  0  0  0
  1 22  1  0  0  0  0
  2 19  1  0  0  0  0
  2  3  2  0  0  0  0
  3  4  1  0  0  0  0
  4  5  1  0  0  0  0
  4 18  2  0  0  0  0
  5  6  1  0  0  0  0
  5 23  1  0  0  0  0
  5 24  1  0  0  0  0
  6  7  1  0  0  0  0
  6 25  1  0  0  0  0
  6 26  1  0  0  0  0
  7  8  1  0  0  0  0
  7 27  1  0  0  0  0
  8  9  2  0  0  0  0
  8 10  1  0  0  0  0
 10 11  1  0  0  0  0
 10 28  1  0  0  0  0
 11 12  1  0  0  0  0
 11 13  1  0  0  0  0
 11 29  1  0  0  0  0
 12 30  1  0  0  0  0
 12 31  1  0  0  0  0
 12 32  1  0  0  0  0
 13 17  1  0  0  0  0
 13 14  1  0  0  0  0
 13 33  1  0  0  0  0
 14 15  1  0  0  0  0
 14 34  1  0  0  0  0
 14 35  1  0  0  0  0
 15 16  1  0  0  0  0
 15 36  1  0  0  0  0
 15 37  1  0  0  0  0
 16 17  1  0  0  0  0
 16 38  1  0  0  0  0
 16 39  1  0  0  0  0
 18 19  1  0  0  0  0
 18 40  1  0  0  0  0
M  END
> <s_m_source_file>
AV-unprocessed.smi

> <i_m_source_file_index>
1941

> <i_lp_mmshare_version>
43012

> <i_f3d_flags>
0

> <s_epik_input>
W0NIM11jMW5jKFtjSF1zMSlbQ0gyXVtDSDJdW05IXUMoPU8pW05IXVtDQEhdKFtDSDNdKVtDQEBIXTJbQ0gyXVtDSDJdW0NIMl1PMg==

> <s_epik_cmdline>
J2VwaWtfcHl0aG9uJywgJy1waCcsICc3LjAnLCAnLXRuJywgJzgnLCAnLW1hJywgJzIwMCcsICctbWV0YWxfYmluZGluZycsICctaW1hZScsICc8aW5maWxlLm1hZT4nLCAnLW9tYWUnLCAnPG91dGZpbGUubWFlPic=

> <r_epik_Ionization_Penalty>
0.00195486

> <r_epik_Ionization_Penalty_Charging>
0

> <r_epik_Ionization_Penalty_Neutral>
0.00195486

> <r_epik_State_Penalty>
0.00129472

> <r_epik_Charging_Adjusted_Penalty>
0.00129472

> <i_epik_Tot_Q>
0

> <i_epik_Tot_abs_Q>
0

> <r_epik_Metal_State_Penalty>
-0

> <b_epik_Metal_Only>
0

> <s_lp_Force_Field>
OPLS_2005

> <r_lp_Energy>
10.4909

> <b_lp_Chiralities_Consistent>
1

> <s_lp_Variant>
AV-unprocessed.smi:1941-1

> <Gold.Version>
5.8.1

> <Gold.Id.Protein>
6NUR|6NUR_protein|mol2

> <Gold.PLP.Fitness>
43.9298

> <Gold.PLP.PLP>
-37.4798

> <Gold.PLP.part.hbond>
-3.1169

> <Gold.PLP.part.metal>
0.0000

> <Gold.PLP.part.buried>
-1.2954

> <Gold.PLP.part.nonpolar>
-33.1140

> <Gold.PLP.part.repulsive>
0.2285

> <Gold.PLP.ligand.clash>
0.0000

> <Gold.PLP.ligand.torsion>
0.7338

> <Gold.PLP.Chemscore.Hbond>
1.8352

> <Gold.PLP.Chemscore.CHOScore>
0.7695

> <Gold.PLP.Chemscore.Metal>
0.0000

> <Gold.Chemscore.Hbonds>
donor molecule, donor type, donor heavy atom, donor atom, acceptor molecule, acceptor atom, score
      L1  H     7    27       P1  7948  0.78
      L1  H    10    28       P1  7948  0.85
      L1  C    18    40       P1  7957  0.64

> <Gold.PLP.Chemscore.Internal.Correction>
0.1035

> <Gold.Rescore>
     Score         DG    S(hbond)    S(metal)    S(lipo)     H(rot)  DE(clash)    DE(int)     intcor
     13.05     -15.05       1.36        0.00      80.02       1.69       0.01       1.99       ----

> <Gold.Chemscore.Fitness>
13.0510

> <Gold.Chemscore.DG>
-15.0523

> <Gold.Chemscore.ZeroCoef>
-5.4800

> <Gold.Chemscore.Hbond>
1.3599

> <Gold.Chemscore.Metal>
0.0000

> <Gold.Chemscore.Lipo>
80.0222

> <Gold.Chemscore.Internal_Hbond>
0.0000

> <Gold.Chemscore.DEClash>
0.0081

> <Gold.Chemscore.DEInternal>
1.9932

> <Gold.Chemscore.Rot>
1.6923

> <Gold.Chemscore.Internal.Correction>
   9.000000E+99

> <Gold.Chemscore.Hbonds>
donor molecule, donor type, donor heavy atom, donor atom, acceptor molecule, acceptor atom, score
      L1  H     7    27       P1  7948  0.13
      L1  H    10    28       P1  7948  0.15

> <Gold.Chemscore.Hbond.Weighted>
-4.5420

> <Gold.Chemscore.Metal.Weighted>
-0.0000

> <Gold.Chemscore.Lipo.Weighted>
-9.3626

> <Gold.Chemscore.Internal_Hbond.Weighted>
0.0000

> <Gold.Chemscore.DEClash.Weighted>
0.0081

> <Gold.Chemscore.DEInternal.Weighted>
1.9932

> <Gold.Chemscore.Rot.Weighted>
4.3323

> <Gold.Chemscore.Internal.Correction.Weighted>
   9.000000E+99

> <Gold.Protein.RotatedTorsions>
[ 6907 6896 6895 6894 ] final -172.05 input  -60.11 | X-H torsion
[ 7974 7965 7964 7962 ] final -167.52 input  175.53 | X-H torsion
[ 8008 7997 7996 7995 ] final -147.49 input   59.86 | X-H torsion
[ 10167 10162 10161 10158 ] final   86.44 input  -65.29 | X-H torsion
[ 10718 10713 10712 10709 ] final   14.66 input   66.30 | X-H torsion
[ 10763 10752 10751 10750 ] final -135.14 input  -60.55 | X-H torsion
[ 11005 11000 10999 10996 ] final   -1.91 input  -57.11 | X-H torsion

> <Gold.Protein.ActiveResidues>
 VAL166  LYS551  ARG553  GLY616  TRP617  ASP618  TYR619  PRO620  LYS621  CYS622 
 ASP623  PHE694  ASN695  SER759  ASP760  ASP761  ALA762  ILE779  LEU786  VAL792 
 PHE793  MET794  SER795  GLU796  ALA797  LYS798  CYS799  TRP800  GLU811  SER814 

> <Gold.Protein.RotatedAtoms>
  151.5338  133.3444  159.2922 H   0  0  0  0  0  0  0  0  0  0  0  0  # atno 6907 bound_to 6896
  150.8577  134.7923  159.7070 H   0  0  0  0  0  0  0  0  0  0  0  0  # atno 6908 bound_to 6896
  152.4606  134.5201  159.9831 H   0  0  0  0  0  0  0  0  0  0  0  0  # atno 6909 bound_to 6896
  144.7221  140.2507  143.6279 H   0  0  0  0  0  0  0  0  0  0  0  0  # atno 7974 bound_to 7965
  155.5763  140.0639  157.2794 H   0  0  0  0  0  0  0  0  0  0  0  0  # atno 8008 bound_to 7997
  154.4346  140.1860  156.0977 H   0  0  0  0  0  0  0  0  0  0  0  0  # atno 8009 bound_to 7997
  156.0338  140.3303  155.7172 H   0  0  0  0  0  0  0  0  0  0  0  0  # atno 8010 bound_to 7997
  139.8875  144.6405  150.8775 H   0  0  0  0  0  0  0  0  0  0  0  0  # atno 10167 bound_to 10162
  157.0423  130.6236  149.5753 H   0  0  0  0  0  0  0  0  0  0  0  0  # atno 10718 bound_to 10713
  154.8708  135.3712  154.4850 H   0  0  0  0  0  0  0  0  0  0  0  0  # atno 10763 bound_to 10752
  153.5500  135.7025  153.5600 H   0  0  0  0  0  0  0  0  0  0  0  0  # atno 10764 bound_to 10752
  153.3723  135.4018  155.1762 H   0  0  0  0  0  0  0  0  0  0  0  0  # atno 10765 bound_to 10752
  140.6525  133.9392  155.8388 H   0  0  0  0  0  0  0  0  0  0  0  0  # atno 11005 bound_to 11000
  145.8231  139.2052  143.1926 LP  0  0  0  0  0  0  0  0  0  0  0  0  # atno 17320 bound_to 7965
  146.0497  140.8082  142.9788 LP  0  0  0  0  0  0  0  0  0  0  0  0  # atno 17321 bound_to 7965
  140.7733  143.3537  151.1964 LP  0  0  0  0  0  0  0  0  0  0  0  0  # atno 17342 bound_to 10162
  139.7140  143.9330  152.2959 LP  0  0  0  0  0  0  0  0  0  0  0  0  # atno 17343 bound_to 10162
  156.0034  130.5117  150.7744 LP  0  0  0  0  0  0  0  0  0  0  0  0  # atno 17370 bound_to 10713
  157.5095  131.0924  151.0216 LP  0  0  0  0  0  0  0  0  0  0  0  0  # atno 17371 bound_to 10713
  141.0526  134.0463  157.3764 LP  0  0  0  0  0  0  0  0  0  0  0  0  # atno 17394 bound_to 11000
  139.9041  135.0174  156.7404 LP  0  0  0  0  0  0  0  0  0  0  0  0  # atno 17395 bound_to 11000

$$$$
