AV-unprocessed.smi:218|AV-procd|sdf|1668|dock6
  -GOLD-   2262020 73D 1   1.00000     0.00000
 Structure written by MMmdl.
 54 57  0  0  0  0  0  0  0  0  1 V2000
  151.7690  138.2527  155.3571 C   0  0  0  0  0  0  0  0  0  0  0  0
  151.7253  139.6137  156.0623 C   0  0  0  0  0  0  0  0  0  0  0  0
  151.3035  139.4650  157.5341 C   0  0  0  0  0  0  0  0  0  0  0  0
  150.7776  140.4179  155.3573 O   0  0  0  0  0  0  0  0  0  0  0  0
  149.4329  140.1035  155.3993 C   0  0  0  0  0  0  0  0  0  0  0  0
  148.8294  139.5960  154.2307 C   0  0  0  0  0  0  0  0  0  0  0  0
  147.4561  139.2793  154.2553 C   0  0  0  0  0  0  0  0  0  0  0  0
  146.7747  138.7225  153.0238 C   0  0  0  0  0  0  0  0  0  0  0  0
  145.3305  138.6196  153.1792 N   0  0  0  0  0  0  0  0  0  0  0  0
  144.7491  137.4077  153.3051 C   0  0  0  0  0  0  0  0  0  0  0  0
  144.0231  137.0926  154.4088 N   0  0  0  0  0  0  0  0  0  0  0  0
  143.4437  135.8930  154.5045 C   0  0  0  0  0  0  0  0  0  0  0  0
  143.4698  134.8833  153.6325 N   0  0  0  0  0  0  0  0  0  0  0  0
  144.2088  135.1858  152.5243 C   0  0  0  0  0  0  0  0  0  0  0  0
  144.8682  136.4252  152.2879 C   0  0  0  0  0  0  0  0  0  0  0  0
  145.4995  136.3951  151.0534 N   0  0  0  0  0  0  0  0  0  0  0  0
  145.2197  135.2089  150.5865 C   0  0  0  0  0  0  0  0  0  0  0  0
  144.4779  134.3953  151.4194 N   0  0  0  0  0  0  0  0  0  0  0  0
  143.9738  133.0024  151.1336 C   0  0  2  0  0  0  0  0  0  0  0  0
  144.4726  132.1196  152.0871 O   0  0  0  0  0  0  0  0  0  0  0  0
  145.7563  131.6731  151.6785 C   0  0  1  0  0  0  0  0  0  0  0  0
  146.1217  130.3992  152.4550 C   0  0  0  0  0  0  0  0  0  0  0  0
  147.2552  129.7802  151.8856 O   0  0  0  0  0  0  0  0  0  0  0  0
  145.5906  131.4866  150.1641 C   0  0  2  0  0  0  0  0  0  0  0  0
  146.8003  131.8006  149.5025 O   0  0  0  0  0  0  0  0  0  0  0  0
  144.4974  132.4878  149.7772 C   0  0  1  0  0  0  0  0  0  0  0  0
  143.4716  131.8524  149.0424 O   0  0  0  0  0  0  0  0  0  0  0  0
  146.7372  139.4793  155.4503 C   0  0  0  0  0  0  0  0  0  0  0  0
  147.4261  139.9915  156.5667 C   0  0  0  0  0  0  0  0  0  0  0  0
  148.7405  140.2992  156.5493 N   0  0  0  0  0  0  0  0  0  0  0  0
  142.8892  133.0997  151.1957 H   0  0  0  0  0  0  0  0  0  0  0  0
  146.4743  132.4668  151.8957 H   0  0  0  0  0  0  0  0  0  0  0  0
  145.2901  130.4640  149.9299 H   0  0  0  0  0  0  0  0  0  0  0  0
  144.8904  133.3041  149.1718 H   0  0  0  0  0  0  0  0  0  0  0  0
  152.4808  137.5825  155.8398 H   0  0  0  0  0  0  0  0  0  0  0  0
  152.0730  138.3634  154.3158 H   0  0  0  0  0  0  0  0  0  0  0  0
  150.7922  137.7686  155.3691 H   0  0  0  0  0  0  0  0  0  0  0  0
  152.7281  140.0390  156.0019 H   0  0  0  0  0  0  0  0  0  0  0  0
  151.9981  138.8231  158.0763 H   0  0  0  0  0  0  0  0  0  0  0  0
  150.3099  139.0234  157.6147 H   0  0  0  0  0  0  0  0  0  0  0  0
  151.2796  140.4261  158.0468 H   0  0  0  0  0  0  0  0  0  0  0  0
  149.4120  139.4528  153.3323 H   0  0  0  0  0  0  0  0  0  0  0  0
  147.0026  139.3570  152.1663 H   0  0  0  0  0  0  0  0  0  0  0  0
  147.1921  137.7367  152.8137 H   0  0  0  0  0  0  0  0  0  0  0  0
  144.8157  139.4883  153.1666 H   0  0  0  0  0  0  0  0  0  0  0  0
  142.8787  135.7162  155.4077 H   0  0  0  0  0  0  0  0  0  0  0  0
  145.5509  134.8974  149.6065 H   0  0  0  0  0  0  0  0  0  0  0  0
  146.3542  130.6490  153.4904 H   0  0  0  0  0  0  0  0  0  0  0  0
  145.2883  129.6965  152.4722 H   0  0  0  0  0  0  0  0  0  0  0  0
  147.7484  130.4329  151.4126 H   0  0  0  0  0  0  0  0  0  0  0  0
  147.4895  131.2666  149.8668 H   0  0  0  0  0  0  0  0  0  0  0  0
  142.6387  132.1655  149.3614 H   0  0  0  0  0  0  0  0  0  0  0  0
  145.6844  139.2460  155.5137 H   0  0  0  0  0  0  0  0  0  0  0  0
  146.9077  140.1584  157.4992 H   0  0  0  0  0  0  0  0  0  0  0  0
  1  2  1  0  0  0  0
  1 35  1  0  0  0  0
  1 36  1  0  0  0  0
  1 37  1  0  0  0  0
  2  3  1  0  0  0  0
  2  4  1  0  0  0  0
  2 38  1  0  0  0  0
  3 39  1  0  0  0  0
  3 40  1  0  0  0  0
  3 41  1  0  0  0  0
  4  5  1  0  0  0  0
  5 30  1  0  0  0  0
  5  6  2  0  0  0  0
  6  7  1  0  0  0  0
  6 42  1  0  0  0  0
  7  8  1  0  0  0  0
  7 28  2  0  0  0  0
  8  9  1  0  0  0  0
  8 43  1  0  0  0  0
  8 44  1  0  0  0  0
  9 10  1  0  0  0  0
  9 45  1  0  0  0  0
 10 15  1  0  0  0  0
 10 11  2  0  0  0  0
 11 12  1  0  0  0  0
 12 13  2  0  0  0  0
 12 46  1  0  0  0  0
 13 14  1  0  0  0  0
 14 18  1  0  0  0  0
 14 15  2  0  0  0  0
 15 16  1  0  0  0  0
 16 17  2  0  0  0  0
 17 18  1  0  0  0  0
 17 47  1  0  0  0  0
 18 19  1  0  0  0  0
 19 31  1  0  0  0  0
 19 26  1  0  0  0  0
 19 20  1  0  0  0  0
 20 21  1  0  0  0  0
 21 32  1  0  0  0  0
 21 22  1  0  0  0  0
 21 24  1  0  0  0  0
 22 23  1  0  0  0  0
 22 48  1  0  0  0  0
 22 49  1  0  0  0  0
 23 50  1  0  0  0  0
 24 33  1  0  0  0  0
 24 25  1  0  0  0  0
 24 26  1  0  0  0  0
 25 51  1  0  0  0  0
 26 34  1  0  0  0  0
 26 27  1  0  0  0  0
 27 52  1  0  0  0  0
 28 29  1  0  0  0  0
 28 53  1  0  0  0  0
 29 30  2  0  0  0  0
 29 54  1  0  0  0  0
M  END
> <s_m_source_file>
AV-unprocessed.smi

> <i_m_source_file_index>
218

> <i_lp_mmshare_version>
43012

> <i_f3d_flags>
0

> <s_epik_input>
W0NIM11bQ0hdKFtDSDNdKU9jMVtjSF1jKFtjSF1bY0hdbjEpW0NIMl1bTkhdYyhuW2NIXW4yKWMoYzIzKW5bY0hdbjNbQ0BASF00T1tDQEhdKFtDSDJdW09IXSlbQ0BASF0oW09IXSlbQ0BIXTRbT0hd

> <s_epik_cmdline>
J2VwaWtfcHl0aG9uJywgJy1waCcsICc3LjAnLCAnLXRuJywgJzgnLCAnLW1hJywgJzIwMCcsICctbWV0YWxfYmluZGluZycsICctaW1hZScsICc8aW5maWxlLm1hZT4nLCAnLW9tYWUnLCAnPG91dGZpbGUubWFlPic=

> <r_lp_tautomer_probability>
1

> <r_epik_Ionization_Penalty>
0.00457014

> <r_epik_Ionization_Penalty_Charging>
0

> <r_epik_Ionization_Penalty_Neutral>
0.00457014

> <r_epik_State_Penalty>
-0

> <r_epik_Charging_Adjusted_Penalty>
0

> <i_epik_Tot_Q>
0

> <i_epik_Tot_abs_Q>
0

> <r_epik_Metal_State_Penalty>
-0

> <b_epik_Metal_Only>
0

> <s_epik_Chemistry_Notes>
This compound contains an acetal/aminal-like group ( X-CH(R)-Y where X, Y are N, S, or O) that may be acid/base labile, releasing an aldehyde.

> <s_lp_Force_Field>
OPLS_2005

> <r_lp_Energy>
35.6768

> <b_lp_Chiralities_Consistent>
1

> <s_lp_Variant>
AV-unprocessed.smi:218-7

> <Gold.Version>
5.8.1

> <Gold.Id.Protein>
6NUR|6NUR_protein|mol2

> <Gold.PLP.Fitness>
60.7425

> <Gold.PLP.PLP>
-44.7211

> <Gold.PLP.part.hbond>
-5.5556

> <Gold.PLP.part.metal>
0.0000

> <Gold.PLP.part.buried>
-6.7862

> <Gold.PLP.part.nonpolar>
-34.5239

> <Gold.PLP.part.repulsive>
1.9157

> <Gold.PLP.ligand.clash>
0.0000

> <Gold.PLP.ligand.torsion>
0.8932

> <Gold.PLP.Chemscore.Hbond>
4.9520

> <Gold.PLP.Chemscore.CHOScore>
0.9444

> <Gold.PLP.Chemscore.Metal>
0.0000

> <Gold.Chemscore.Hbonds>
donor molecule, donor type, donor heavy atom, donor atom, acceptor molecule, acceptor atom, score
      L1  H     9    45       P1 10175  0.99
      L1  H    23    50       P1 10747  0.98
      L1  H    25    51       P1 10747  1.00
      P1  H  7989  7998       L1     4  0.84
      P1  H 10785 10796       L1    27  0.91
      L1  C    17    47       P1  7921  1.00

> <Gold.PLP.Chemscore.Internal.Correction>
0.1185

> <Gold.Rescore>
     Score         DG    S(hbond)    S(metal)    S(lipo)     H(rot)  DE(clash)    DE(int)     intcor
     14.47     -17.84       4.61        0.00      81.45       4.90       1.28       2.09       ----

> <Gold.Chemscore.Fitness>
14.4706

> <Gold.Chemscore.DG>
-17.8405

> <Gold.Chemscore.ZeroCoef>
-5.4800

> <Gold.Chemscore.Hbond>
4.6056

> <Gold.Chemscore.Metal>
0.0000

> <Gold.Chemscore.Lipo>
81.4483

> <Gold.Chemscore.Internal_Hbond>
0.0000

> <Gold.Chemscore.DEClash>
1.2759

> <Gold.Chemscore.DEInternal>
2.0940

> <Gold.Chemscore.Rot>
4.9029

> <Gold.Chemscore.Internal.Correction>
   9.000000E+99

> <Gold.Chemscore.Hbonds>
donor molecule, donor type, donor heavy atom, donor atom, acceptor molecule, acceptor atom, score
      L1  H     9    45       P1 10175  0.94
      L1  H    23    50       P1 10747  0.93
      L1  H    25    51       P1 10747  0.96
      P1  H  7989  7998       L1     4  0.46
      P1  H 10785 10796       L1    27  0.45

> <Gold.Chemscore.Hbond.Weighted>
-15.3825

> <Gold.Chemscore.Metal.Weighted>
-0.0000

> <Gold.Chemscore.Lipo.Weighted>
-9.5295

> <Gold.Chemscore.Internal_Hbond.Weighted>
0.0000

> <Gold.Chemscore.DEClash.Weighted>
1.2759

> <Gold.Chemscore.DEInternal.Weighted>
2.0940

> <Gold.Chemscore.Rot.Weighted>
12.5515

> <Gold.Chemscore.Internal.Correction.Weighted>
   9.000000E+99

> <Gold.Protein.RotatedTorsions>
[ 6907 6896 6895 6894 ] final  -52.98 input  -60.11 | X-H torsion
[ 7974 7965 7964 7962 ] final  -95.08 input  175.53 | X-H torsion
[ 8008 7997 7996 7995 ] final   90.05 input   59.86 | X-H torsion
[ 10167 10162 10161 10158 ] final  -83.57 input  -65.29 | X-H torsion
[ 10718 10713 10712 10709 ] final   98.05 input   66.30 | X-H torsion
[ 10763 10752 10751 10750 ] final  131.49 input  -60.55 | X-H torsion
[ 11005 11000 10999 10996 ] final   41.00 input  -57.11 | X-H torsion

> <Gold.Protein.ActiveResidues>
 VAL166  LYS551  ARG553  GLY616  TRP617  ASP618  TYR619  PRO620  LYS621  CYS622 
 ASP623  PHE694  ASN695  SER759  ASP760  ASP761  ALA762  ILE779  LEU786  VAL792 
 PHE793  MET794  SER795  GLU796  ALA797  LYS798  CYS799  TRP800  GLU811  SER814 

> <Gold.Protein.RotatedAtoms>
  150.8468  134.7780  159.6976 H   0  0  0  0  0  0  0  0  0  0  0  0  # atno 6907 bound_to 6896
  152.4543  134.5323  159.9824 H   0  0  0  0  0  0  0  0  0  0  0  0  # atno 6908 bound_to 6896
  151.5451  133.3388  159.2978 H   0  0  0  0  0  0  0  0  0  0  0  0  # atno 6909 bound_to 6896
  145.3648  140.9497  143.2480 H   0  0  0  0  0  0  0  0  0  0  0  0  # atno 7974 bound_to 7965
  156.0073  140.3354  155.6905 H   0  0  0  0  0  0  0  0  0  0  0  0  # atno 8008 bound_to 7997
  155.6207  140.0675  157.2697 H   0  0  0  0  0  0  0  0  0  0  0  0  # atno 8009 bound_to 7997
  154.4269  140.1777  156.1356 H   0  0  0  0  0  0  0  0  0  0  0  0  # atno 8010 bound_to 7997
  140.4214  143.2583  151.8884 H   0  0  0  0  0  0  0  0  0  0  0  0  # atno 10167 bound_to 10162
  157.6902  131.0628  150.4738 H   0  0  0  0  0  0  0  0  0  0  0  0  # atno 10718 bound_to 10713
  153.7752  135.3176  155.3358 H   0  0  0  0  0  0  0  0  0  0  0  0  # atno 10763 bound_to 10752
  154.8181  135.4622  154.0705 H   0  0  0  0  0  0  0  0  0  0  0  0  # atno 10764 bound_to 10752
  153.1977  135.6918  153.8356 H   0  0  0  0  0  0  0  0  0  0  0  0  # atno 10765 bound_to 10752
  140.1877  134.4026  155.8164 H   0  0  0  0  0  0  0  0  0  0  0  0  # atno 11005 bound_to 11000
  144.8620  139.5164  143.6808 LP  0  0  0  0  0  0  0  0  0  0  0  0  # atno 17320 bound_to 7965
  146.2911  139.7143  142.9160 LP  0  0  0  0  0  0  0  0  0  0  0  0  # atno 17321 bound_to 7965
  139.4783  144.5433  151.8496 LP  0  0  0  0  0  0  0  0  0  0  0  0  # atno 17342 bound_to 10162
  140.4529  144.1830  150.5899 LP  0  0  0  0  0  0  0  0  0  0  0  0  # atno 17343 bound_to 10162
  156.5074  130.4131  149.6320 LP  0  0  0  0  0  0  0  0  0  0  0  0  # atno 17370 bound_to 10713
  156.3272  130.7312  151.2235 LP  0  0  0  0  0  0  0  0  0  0  0  0  # atno 17371 bound_to 10713
  141.2225  133.7031  156.8040 LP  0  0  0  0  0  0  0  0  0  0  0  0  # atno 17394 bound_to 11000
  140.2195  134.8767  157.3362 LP  0  0  0  0  0  0  0  0  0  0  0  0  # atno 17395 bound_to 11000

$$$$
