#       Name:                AV-unprocessed.smi:886
#       Creating user name   scv26
#       Creation time:       Fri Mar 27 01:53:51 2020


#       File generated by GOLD software.
#

@<TRIPOS>MOLECULE
AV-unprocessed.smi:886
    40    42     1
SMALL
NO_CHARGES


@<TRIPOS>ATOM
      1 ****        -3.5631  -3.5894  -0.3889 C.3            1 S1                 0.0000
      2 ****        -2.1288  -3.3470  -0.3763 N.am           1 S1                 0.0000
      3 ****        -1.5509  -2.2709   0.1792 C.2            1 S1                 0.0000
      4 ****        -2.1874  -1.3680   0.7236 O.2            1 S1                 0.0000
      5 ****        -0.0489  -2.2164   0.0642 C.ar           1 S1                 0.0000
      6 ****         0.7100  -3.3878   0.2960 C.ar           1 S1                 0.0000
      7 ****         2.1131  -3.3339   0.2213 C.ar           1 S1                 0.0000
      8 ****         2.7154  -2.1002  -0.0786 C.ar           1 S1                 0.0000
      9 ****         2.0116  -0.9718  -0.2987 N.ar           1 S1                 0.0000
     10 ****         0.6582  -1.0140  -0.2286 C.ar           1 S1                 0.0000
     11 ****        -0.0323   0.1838  -0.4885 N.pl3          1 S1                 0.0000
     12 ****         0.6340   1.4760  -0.3651 C.3            1 S1                 0.0000
     13 ****         0.9593   1.8458   1.0881 C.3            1 S1                 0.0000
     14 ****         0.2445   3.1941   1.2411 C.3            1 S1                 0.0000
     15 ****         0.9139   4.3039   0.4192 C.3            1 S1                 0.0000
     16 ****         0.5096   3.9243  -1.0050 C.3            1 S1                 0.0000
     17 ****        -0.2907   2.6351  -0.7738 C.3            1 S1                 0.0000
     18 ****        -0.9128   2.9517   0.4614 O.3            1 S1                 0.0000
     19 ****        -3.7781  -4.5218  -0.9106 H              1 S1                 0.0000
     20 ****        -4.0888  -2.7829  -0.9017 H              1 S1                 0.0000
     21 ****        -3.9522  -3.6688   0.6271 H              1 S1                 0.0000
     22 ****        -1.5386  -4.0368  -0.8186 H              1 S1                 0.0000
     23 ****         0.2284  -4.3242   0.5378 H              1 S1                 0.0000
     24 ****         2.7124  -4.2153   0.3948 H              1 S1                 0.0000
     25 ****         3.7900  -2.0162  -0.1428 H              1 S1                 0.0000
     26 ****        -1.0368   0.1749  -0.3806 H              1 S1                 0.0000
     27 ****         1.5278   1.4831  -0.9905 H              1 S1                 0.0000
     28 ****         0.5458   1.1211   1.7912 H              1 S1                 0.0000
     29 ****         2.0316   1.9191   1.2712 H              1 S1                 0.0000
     30 ****         0.0390   3.4706   2.2755 H              1 S1                 0.0000
     31 ****         0.5095   5.2816   0.6835 H              1 S1                 0.0000
     32 ****         1.9947   4.3291   0.5614 H              1 S1                 0.0000
     33 ****        -0.1231   4.6984  -1.4408 H              1 S1                 0.0000
     34 ****         1.3655   3.7725  -1.6635 H              1 S1                 0.0000
     35 ****        -0.9807   2.3999  -1.5851 H              1 S1                 0.0000
     36 ****        -3.1854  -1.4156   0.7670 LP             1 S1                 0.0000
     37 ****        -1.7063  -0.5872   1.1223 LP             1 S1                 0.0000
     38 ****         2.4814  -0.1149  -0.5108 LP             1 S1                 0.0000
     39 ****        -1.4935   3.7628   0.3911 LP             1 S1                 0.0000
     40 ****        -1.4502   2.1869   0.8168 LP             1 S1                 0.0000
@<TRIPOS>BOND
    1    1    2 1     
    2    1   19 1     
    3    1   20 1     
    4    1   21 1     
    5    2    3 am    
    6    2   22 1     
    7    3    4 2     
    8    3    5 1     
    9    5   10 ar    
   10    5    6 ar    
   11    6    7 ar    
   12    6   23 1     
   13    7    8 ar    
   14    7   24 1     
   15    8    9 ar    
   16    8   25 1     
   17    9   10 ar    
   18   10   11 1     
   19   11   12 1     
   20   11   26 1     
   21   12   17 1     
   22   12   13 1     
   23   12   27 1     
   24   13   14 1     
   25   13   28 1     
   26   13   29 1     
   27   14   18 1     
   28   14   15 1     
   29   14   30 1     
   30   15   16 1     
   31   15   31 1     
   32   15   32 1     
   33   16   17 1     
   34   16   33 1     
   35   16   34 1     
   36   17   18 1     
   37   17   35 1     
   38    4   36 1     
   39    4   37 1     
   40    9   38 1     
   41   18   39 1     
   42   18   40 1     
@<TRIPOS>SUBSTRUCTURE
      1 S1             1
@<TRIPOS>SET
LONE_PAIRS      STATIC     ATOMS    <user>   **** ""
5 36 37 38 39 40
DONOR_HYDROGENS      STATIC     ATOMS    <user>   **** ""
2 22 26
ATOM$BLUE        STATIC     ATOMS    COLORGROUP SYSTEM
5 36 37 38 39 40
ATOM$RED        STATIC     ATOMS    COLORGROUP SYSTEM
2 22 26
