AV-unprocessed.smi:2881|AV-procd|sdf|11066|dock1
  -GOLD-   2272015543D 1   1.00000     0.00000
 Structure written by MMmdl.
 40 42  0  0  0  0  0  0  0  0  1 V2000
  136.5658  137.1453  155.5229 C   0  0  0  0  0  0  0  0  0  0  0  0
  138.0587  137.1036  155.3760 C   0  0  0  0  0  0  0  0  0  0  0  0
  138.8438  137.5573  154.2761 C   0  0  0  0  0  0  0  0  0  0  0  0
  140.1327  137.2978  154.6503 C   0  0  0  0  0  0  0  0  0  0  0  0
  141.4335  137.5612  153.9594 C   0  0  0  0  0  0  0  0  0  0  0  0
  142.2090  136.2589  153.7573 C   0  0  0  0  0  0  0  0  0  0  0  0
  141.7832  135.2071  154.2331 O   0  0  0  0  0  0  0  0  0  0  0  0
  143.3606  136.3531  153.0740 N   0  0  0  0  0  0  0  0  0  0  0  0
  144.3257  135.2730  152.8754 C   0  0  1  0  0  0  0  0  0  0  0  0
  143.7965  134.2728  151.8252 C   0  0  2  0  0  0  0  0  0  0  0  0
  144.6261  132.9780  151.9010 C   0  0  0  0  0  0  0  0  0  0  0  0
  145.9772  133.4117  151.3010 C   0  0  0  0  0  0  0  0  0  0  0  0
  145.7407  134.8964  150.9584 C   0  0  1  0  0  0  0  0  0  0  0  0
  144.2840  134.8759  150.5131 C   0  0  0  0  0  0  0  0  0  0  0  0
  145.6893  135.7242  152.2664 C   0  0  1  0  0  0  0  0  0  0  0  0
  145.8648  137.2442  152.0354 C   0  0  0  0  0  0  0  0  0  0  0  0
  147.0750  137.5066  151.3575 O   0  0  0  0  0  0  0  0  0  0  0  0
  140.0599  136.7164  155.8960 N   0  0  0  0  0  0  0  0  0  0  0  0
  138.7992  136.5962  156.3504 N   0  0  0  0  0  0  0  0  0  0  0  0
  140.8522  136.4105  156.4433 H   0  0  0  0  0  0  0  0  0  0  0  0
  136.1597  138.0711  155.1152 H   0  0  0  0  0  0  0  0  0  0  0  0
  136.2618  137.0849  156.5686 H   0  0  0  0  0  0  0  0  0  0  0  0
  136.0994  136.3157  154.9917 H   0  0  0  0  0  0  0  0  0  0  0  0
  138.5102  138.0139  153.3562 H   0  0  0  0  0  0  0  0  0  0  0  0
  142.0400  138.2520  154.5462 H   0  0  0  0  0  0  0  0  0  0  0  0
  141.2566  138.0389  152.9947 H   0  0  0  0  0  0  0  0  0  0  0  0
  143.6214  137.2612  152.7177 H   0  0  0  0  0  0  0  0  0  0  0  0
  144.4841  134.7572  153.8244 H   0  0  0  0  0  0  0  0  0  0  0  0
  142.7216  134.0963  151.8809 H   0  0  0  0  0  0  0  0  0  0  0  0
  144.7224  132.6018  152.9202 H   0  0  0  0  0  0  0  0  0  0  0  0
  144.1737  132.1911  151.2962 H   0  0  0  0  0  0  0  0  0  0  0  0
  146.8067  133.2711  151.9949 H   0  0  0  0  0  0  0  0  0  0  0  0
  146.1965  132.8367  150.4005 H   0  0  0  0  0  0  0  0  0  0  0  0
  146.4407  135.2784  150.2150 H   0  0  0  0  0  0  0  0  0  0  0  0
  144.1049  134.2334  149.6491 H   0  0  0  0  0  0  0  0  0  0  0  0
  143.8741  135.8661  150.3094 H   0  0  0  0  0  0  0  0  0  0  0  0
  146.4933  135.4045  152.9314 H   0  0  0  0  0  0  0  0  0  0  0  0
  145.0377  137.6640  151.4624 H   0  0  0  0  0  0  0  0  0  0  0  0
  145.9021  137.7740  152.9871 H   0  0  0  0  0  0  0  0  0  0  0  0
  147.7926  137.2330  151.9087 H   0  0  0  0  0  0  0  0  0  0  0  0
  1 21  1  0  0  0  0
  1 22  1  0  0  0  0
  1 23  1  0  0  0  0
  1  2  1  0  0  0  0
  2 19  2  0  0  0  0
  2  3  1  0  0  0  0
  3  4  2  0  0  0  0
  3 24  1  0  0  0  0
  4 18  1  0  0  0  0
  4  5  1  0  0  0  0
  5  6  1  0  0  0  0
  5 25  1  0  0  0  0
  5 26  1  0  0  0  0
  6  7  2  0  0  0  0
  6  8  1  0  0  0  0
  8  9  1  0  0  0  0
  8 27  1  0  0  0  0
  9 15  1  0  0  0  0
  9 10  1  0  0  0  0
  9 28  1  0  0  0  0
 10 14  1  0  0  0  0
 10 11  1  0  0  0  0
 10 29  1  0  0  0  0
 11 12  1  0  0  0  0
 11 30  1  0  0  0  0
 11 31  1  0  0  0  0
 12 13  1  0  0  0  0
 12 32  1  0  0  0  0
 12 33  1  0  0  0  0
 13 14  1  0  0  0  0
 13 15  1  0  0  0  0
 13 34  1  0  0  0  0
 14 35  1  0  0  0  0
 14 36  1  0  0  0  0
 15 16  1  0  0  0  0
 15 37  1  0  0  0  0
 16 17  1  0  0  0  0
 16 38  1  0  0  0  0
 16 39  1  0  0  0  0
 17 40  1  0  0  0  0
 18 19  1  0  0  0  0
 18 20  1  0  0  0  0
M  END
> <s_m_source_file>
AV-unprocessed.smi

> <i_m_source_file_index>
2881

> <i_lp_mmshare_version>
43012

> <i_f3d_flags>
0

> <s_epik_input>
W0NIM11jMVtjSF1jKG5bbkhdMSlbQ0gyXUMoPU8pW05IXVtDQEhdKFtDQEBIXTIzKVtDQEhdKFtDSDJdW09IXSlbQ0BASF0oW0NIMl0zKVtDSDJdW0NIMl0y

> <s_epik_cmdline>
J2VwaWtfcHl0aG9uJywgJy1waCcsICc3LjAnLCAnLXRuJywgJzgnLCAnLW1hJywgJzIwMCcsICctbWV0YWxfYmluZGluZycsICctaW1hZScsICc8aW5maWxlLm1hZT4nLCAnLW9tYWUnLCAnPG91dGZpbGUubWFlPic=

> <r_lp_tautomer_probability>
0.5

> <r_epik_Ionization_Penalty>
0.00013396

> <r_epik_Ionization_Penalty_Charging>
0

> <r_epik_Ionization_Penalty_Neutral>
0.00013396

> <r_epik_State_Penalty>
0.41068

> <r_epik_Charging_Adjusted_Penalty>
0.41068

> <i_epik_Tot_Q>
0

> <i_epik_Tot_abs_Q>
0

> <r_epik_Metal_State_Penalty>
0.41066

> <b_epik_Metal_Only>
0

> <s_lp_Force_Field>
OPLS_2005

> <r_lp_Energy>
46.6503

> <b_lp_Chiralities_Consistent>
1

> <s_lp_Variant>
AV-unprocessed.smi:2881-12

> <Gold.Version>
5.8.1

> <Gold.Id.Protein>
6NUR|6NUR_protein|mol2

> <Gold.PLP.Fitness>
39.9752

> <Gold.PLP.PLP>
-34.8144

> <Gold.PLP.part.hbond>
-3.7273

> <Gold.PLP.part.metal>
0.0000

> <Gold.PLP.part.buried>
-7.5432

> <Gold.PLP.part.nonpolar>
-24.6518

> <Gold.PLP.part.repulsive>
0.2596

> <Gold.PLP.ligand.clash>
0.0000

> <Gold.PLP.ligand.torsion>
0.1835

> <Gold.PLP.Chemscore.Hbond>
1.8260

> <Gold.PLP.Chemscore.CHOScore>
0.0000

> <Gold.PLP.Chemscore.Metal>
0.0000

> <Gold.Chemscore.Hbonds>
donor molecule, donor type, donor heavy atom, donor atom, acceptor molecule, acceptor atom, score
      L1  H    17    40       P1  7948  0.69
      P1  H  7954  7966       L1    17  0.70
      P1  H 11000 11005       L1     7  0.38

> <Gold.PLP.Chemscore.Internal.Correction>
0.0499

> <Gold.Rescore>
     Score         DG    S(hbond)    S(metal)    S(lipo)     H(rot)  DE(clash)    DE(int)     intcor
     14.32     -14.63       1.91        0.00      73.52       2.28       0.10       0.21       ----

> <Gold.Chemscore.Fitness>
14.3163

> <Gold.Chemscore.DG>
-14.6327

> <Gold.Chemscore.ZeroCoef>
-5.4800

> <Gold.Chemscore.Hbond>
1.9091

> <Gold.Chemscore.Metal>
0.0000

> <Gold.Chemscore.Lipo>
73.5180

> <Gold.Chemscore.Internal_Hbond>
0.0000

> <Gold.Chemscore.DEClash>
0.1041

> <Gold.Chemscore.DEInternal>
0.2123

> <Gold.Chemscore.Rot>
2.2755

> <Gold.Chemscore.Internal.Correction>
   9.000000E+99

> <Gold.Chemscore.Hbonds>
donor molecule, donor type, donor heavy atom, donor atom, acceptor molecule, acceptor atom, score
      L1  H    17    40       P1  7948  0.66
      P1  H  7954  7966       L1    17  0.07
      P1  H 11000 11005       L1     7  0.37

> <Gold.Chemscore.Hbond.Weighted>
-6.3763

> <Gold.Chemscore.Metal.Weighted>
-0.0000

> <Gold.Chemscore.Lipo.Weighted>
-8.6016

> <Gold.Chemscore.Internal_Hbond.Weighted>
0.0000

> <Gold.Chemscore.DEClash.Weighted>
0.1041

> <Gold.Chemscore.DEInternal.Weighted>
0.2123

> <Gold.Chemscore.Rot.Weighted>
5.8252

> <Gold.Chemscore.Internal.Correction.Weighted>
   9.000000E+99

> <Gold.Protein.RotatedTorsions>
[ 6907 6896 6895 6894 ] final -106.24 input  -60.11 | X-H torsion
[ 7974 7965 7964 7962 ] final -174.58 input  175.53 | X-H torsion
[ 8008 7997 7996 7995 ] final   52.17 input   59.86 | X-H torsion
[ 10167 10162 10161 10158 ] final   54.64 input  -65.29 | X-H torsion
[ 10718 10713 10712 10709 ] final   73.82 input   66.30 | X-H torsion
[ 10763 10752 10751 10750 ] final  -34.35 input  -60.55 | X-H torsion
[ 11005 11000 10999 10996 ] final   14.82 input  -57.11 | X-H torsion

> <Gold.Protein.ActiveResidues>
 VAL166  LYS551  ARG553  GLY616  TRP617  ASP618  TYR619  PRO620  LYS621  CYS622 
 ASP623  PHE694  ASN695  SER759  ASP760  ASP761  ALA762  ILE779  LEU786  VAL792 
 PHE793  MET794  SER795  GLU796  ALA797  LYS798  CYS799  TRP800  GLU811  SER814 

> <Gold.Protein.RotatedAtoms>
  150.7378  134.0006  159.3636 H   0  0  0  0  0  0  0  0  0  0  0  0  # atno 6907 bound_to 6896
  151.7960  135.0720  160.0403 H   0  0  0  0  0  0  0  0  0  0  0  0  # atno 6908 bound_to 6896
  152.3174  133.5781  159.5758 H   0  0  0  0  0  0  0  0  0  0  0  0  # atno 6909 bound_to 6896
  144.7131  140.1450  143.6389 H   0  0  0  0  0  0  0  0  0  0  0  0  # atno 7974 bound_to 7965
  155.4474  140.3457  155.4297 H   0  0  0  0  0  0  0  0  0  0  0  0  # atno 8008 bound_to 7997
  156.1241  140.1495  156.9191 H   0  0  0  0  0  0  0  0  0  0  0  0  # atno 8009 bound_to 7997
  154.4845  140.0859  156.7434 H   0  0  0  0  0  0  0  0  0  0  0  0  # atno 8010 bound_to 7997
  140.2279  144.3718  150.6425 H   0  0  0  0  0  0  0  0  0  0  0  0  # atno 10167 bound_to 10162
  157.6565  130.9647  150.1124 H   0  0  0  0  0  0  0  0  0  0  0  0  # atno 10718 bound_to 10713
  153.8452  135.6854  153.4798 H   0  0  0  0  0  0  0  0  0  0  0  0  # atno 10763 bound_to 10752
  153.1430  135.4649  154.9522 H   0  0  0  0  0  0  0  0  0  0  0  0  # atno 10764 bound_to 10752
  154.7827  135.3274  154.7902 H   0  0  0  0  0  0  0  0  0  0  0  0  # atno 10765 bound_to 10752
  140.4652  134.1087  155.7723 H   0  0  0  0  0  0  0  0  0  0  0  0  # atno 11005 bound_to 11000
  145.9168  139.2521  143.1405 LP  0  0  0  0  0  0  0  0  0  0  0  0  # atno 17320 bound_to 7965
  145.9661  140.8797  143.0186 LP  0  0  0  0  0  0  0  0  0  0  0  0  # atno 17321 bound_to 7965
  140.6207  143.2176  151.6700 LP  0  0  0  0  0  0  0  0  0  0  0  0  # atno 17342 bound_to 10162
  139.5120  144.3489  152.0670 LP  0  0  0  0  0  0  0  0  0  0  0  0  # atno 17343 bound_to 10162
  156.2017  130.3660  149.8780 LP  0  0  0  0  0  0  0  0  0  0  0  0  # atno 17370 bound_to 10713
  156.6682  130.8809  151.3558 LP  0  0  0  0  0  0  0  0  0  0  0  0  # atno 17371 bound_to 10713
  141.1603  133.8806  157.1867 LP  0  0  0  0  0  0  0  0  0  0  0  0  # atno 17394 bound_to 11000
  139.9920  135.0061  156.9996 LP  0  0  0  0  0  0  0  0  0  0  0  0  # atno 17395 bound_to 11000

$$$$
