AV-unprocessed.smi:1947|AV-procd|sdf|7866|dock1
  -GOLD-   2272010 13D 1   1.00000     0.00000
 Structure written by MMmdl.
 39 40  0  0  0  0  0  0  0  0  1 V2000
  151.6401  136.2660  149.6261 C   0  0  0  0  0  0  0  0  0  0  0  0
  151.8709  137.7771  149.7863 C   0  0  1  0  0  0  0  0  0  0  0  0
  152.8021  138.3340  148.6912 C   0  0  0  0  0  0  0  0  0  0  0  0
  153.0537  139.8386  148.8786 C   0  0  0  0  0  0  0  0  0  0  0  0
  151.7338  140.6237  148.9192 C   0  0  0  0  0  0  0  0  0  0  0  0
  150.7909  140.0769  150.0043 C   0  0  0  0  0  0  0  0  0  0  0  0
  150.5432  138.5656  149.8417 C   0  0  1  0  0  0  0  0  0  0  0  0
  149.8287  138.3552  148.6299 O   0  0  0  0  0  0  0  0  0  0  0  0
  148.5119  138.8830  148.6297 C   0  0  0  0  0  0  0  0  0  0  0  0
  147.5302  137.7619  148.2578 C   0  0  0  0  0  0  0  0  0  0  0  0
  147.4961  136.7185  149.2775 N   0  0  0  0  0  0  0  0  0  0  0  0
  146.6180  135.7069  149.3190 C   0  0  0  0  0  0  0  0  0  0  0  0
  145.7620  135.5160  148.4554 O   0  0  0  0  0  0  0  0  0  0  0  0
  146.7958  134.9555  150.4173 N   0  0  0  0  0  0  0  0  0  0  0  0
  146.0353  133.8372  150.8405 C   0  0  0  0  0  0  0  0  0  0  0  0
  146.4482  133.1704  151.9249 N   0  0  0  0  0  0  0  0  0  0  0  0
  145.6126  132.1024  152.2288 N   0  0  0  0  0  0  0  0  0  0  0  0
  144.6001  132.0069  151.3618 C   0  0  0  0  0  0  0  0  0  0  0  0
  144.5651  133.2122  150.0871 S   0  0  0  0  0  0  0  0  0  0  0  0
  151.1827  136.0312  148.6650 H   0  0  0  0  0  0  0  0  0  0  0  0
  150.9841  135.8833  150.4084 H   0  0  0  0  0  0  0  0  0  0  0  0
  152.5802  135.7172  149.6863 H   0  0  0  0  0  0  0  0  0  0  0  0
  152.3720  137.9207  150.7446 H   0  0  0  0  0  0  0  0  0  0  0  0
  153.7533  137.8011  148.7042 H   0  0  0  0  0  0  0  0  0  0  0  0
  152.3651  138.1574  147.7072 H   0  0  0  0  0  0  0  0  0  0  0  0
  153.6059  140.0045  149.8046 H   0  0  0  0  0  0  0  0  0  0  0  0
  153.6839  140.2132  148.0715 H   0  0  0  0  0  0  0  0  0  0  0  0
  151.9354  141.6797  149.1006 H   0  0  0  0  0  0  0  0  0  0  0  0
  151.2453  140.5665  147.9458 H   0  0  0  0  0  0  0  0  0  0  0  0
  151.2260  140.2665  150.9864 H   0  0  0  0  0  0  0  0  0  0  0  0
  149.8430  140.6154  149.9802 H   0  0  0  0  0  0  0  0  0  0  0  0
  149.9683  138.2169  150.7022 H   0  0  0  0  0  0  0  0  0  0  0  0
  148.2653  139.2899  149.6118 H   0  0  0  0  0  0  0  0  0  0  0  0
  148.4424  139.7001  147.9106 H   0  0  0  0  0  0  0  0  0  0  0  0
  146.5292  138.1686  148.1073 H   0  0  0  0  0  0  0  0  0  0  0  0
  147.8287  137.3076  147.3126 H   0  0  0  0  0  0  0  0  0  0  0  0
  148.1644  136.8002  150.0296 H   0  0  0  0  0  0  0  0  0  0  0  0
  147.5483  135.2265  151.0331 H   0  0  0  0  0  0  0  0  0  0  0  0
  143.8681  131.2210  151.4744 H   0  0  0  0  0  0  0  0  0  0  0  0
  1  2  1  0  0  0  0
  1 20  1  0  0  0  0
  1 21  1  0  0  0  0
  1 22  1  0  0  0  0
  2  7  1  0  0  0  0
  2  3  1  0  0  0  0
  2 23  1  0  0  0  0
  3  4  1  0  0  0  0
  3 24  1  0  0  0  0
  3 25  1  0  0  0  0
  4  5  1  0  0  0  0
  4 26  1  0  0  0  0
  4 27  1  0  0  0  0
  5  6  1  0  0  0  0
  5 28  1  0  0  0  0
  5 29  1  0  0  0  0
  6  7  1  0  0  0  0
  6 30  1  0  0  0  0
  6 31  1  0  0  0  0
  7  8  1  0  0  0  0
  7 32  1  0  0  0  0
  8  9  1  0  0  0  0
  9 10  1  0  0  0  0
  9 33  1  0  0  0  0
  9 34  1  0  0  0  0
 10 11  1  0  0  0  0
 10 35  1  0  0  0  0
 10 36  1  0  0  0  0
 11 12  1  0  0  0  0
 11 37  1  0  0  0  0
 12 13  2  0  0  0  0
 12 14  1  0  0  0  0
 14 15  1  0  0  0  0
 14 38  1  0  0  0  0
 15 19  1  0  0  0  0
 15 16  2  0  0  0  0
 16 17  1  0  0  0  0
 17 18  2  0  0  0  0
 18 19  1  0  0  0  0
 18 39  1  0  0  0  0
M  END
> <s_m_source_file>
AV-unprocessed.smi

> <i_m_source_file_index>
1947

> <i_lp_mmshare_version>
43012

> <i_f3d_flags>
0

> <s_epik_input>
W0NIM11bQ0BASF0xW0NIMl1bQ0gyXVtDSDJdW0NIMl1bQ0BIXTFPW0NIMl1bQ0gyXVtOSF1DKD1PKVtOSF1jMm5uW2NIXXMy

> <s_epik_cmdline>
J2VwaWtfcHl0aG9uJywgJy1waCcsICc3LjAnLCAnLXRuJywgJzgnLCAnLW1hJywgJzIwMCcsICctbWV0YWxfYmluZGluZycsICctaW1hZScsICc8aW5maWxlLm1hZT4nLCAnLW9tYWUnLCAnPG91dGZpbGUubWFlPic=

> <r_lp_tautomer_probability>
1

> <r_epik_Ionization_Penalty>
0.00220897

> <r_epik_Ionization_Penalty_Charging>
0

> <r_epik_Ionization_Penalty_Neutral>
0.00220897

> <r_epik_State_Penalty>
-0

> <r_epik_Charging_Adjusted_Penalty>
0

> <i_epik_Tot_Q>
0

> <i_epik_Tot_abs_Q>
0

> <r_epik_Metal_State_Penalty>
0.345002

> <b_epik_Metal_Only>
0

> <s_lp_Force_Field>
OPLS_2005

> <r_lp_Energy>
8.88806

> <b_lp_Chiralities_Consistent>
1

> <s_lp_Variant>
AV-unprocessed.smi:1947-2

> <Gold.Version>
5.8.1

> <Gold.Id.Protein>
6NUR|6NUR_protein|mol2

> <Gold.PLP.Fitness>
37.2186

> <Gold.PLP.PLP>
-32.1076

> <Gold.PLP.part.hbond>
-2.0000

> <Gold.PLP.part.metal>
0.0000

> <Gold.PLP.part.buried>
-3.5962

> <Gold.PLP.part.nonpolar>
-27.5745

> <Gold.PLP.part.repulsive>
0.5151

> <Gold.PLP.ligand.clash>
0.0000

> <Gold.PLP.ligand.torsion>
0.4456

> <Gold.PLP.Chemscore.Hbond>
1.9920

> <Gold.PLP.Chemscore.CHOScore>
0.0000

> <Gold.PLP.Chemscore.Metal>
0.0000

> <Gold.Chemscore.Hbonds>
donor molecule, donor type, donor heavy atom, donor atom, acceptor molecule, acceptor atom, score
      L1  H    11    37       P1  7948  0.40
      L1  H    14    38       P1  7948  1.00

> <Gold.PLP.Chemscore.Internal.Correction>
0.0263

> <Gold.Rescore>
     Score         DG    S(hbond)    S(metal)    S(lipo)     H(rot)  DE(clash)    DE(int)     intcor
     14.11     -14.73       1.74        0.00      71.80       1.94       0.11       0.51       ----

> <Gold.Chemscore.Fitness>
14.1062

> <Gold.Chemscore.DG>
-14.7265

> <Gold.Chemscore.ZeroCoef>
-5.4800

> <Gold.Chemscore.Hbond>
1.7389

> <Gold.Chemscore.Metal>
0.0000

> <Gold.Chemscore.Lipo>
71.8042

> <Gold.Chemscore.Internal_Hbond>
0.0000

> <Gold.Chemscore.DEClash>
0.1114

> <Gold.Chemscore.DEInternal>
0.5089

> <Gold.Chemscore.Rot>
1.9385

> <Gold.Chemscore.Internal.Correction>
   9.000000E+99

> <Gold.Chemscore.Hbonds>
donor molecule, donor type, donor heavy atom, donor atom, acceptor molecule, acceptor atom, score
      L1  H    11    37       P1  7948  0.01
      L1  H    14    38       P1  7948  0.30

> <Gold.Chemscore.Hbond.Weighted>
-5.8079

> <Gold.Chemscore.Metal.Weighted>
-0.0000

> <Gold.Chemscore.Lipo.Weighted>
-8.4011

> <Gold.Chemscore.Internal_Hbond.Weighted>
0.0000

> <Gold.Chemscore.DEClash.Weighted>
0.1114

> <Gold.Chemscore.DEInternal.Weighted>
0.5089

> <Gold.Chemscore.Rot.Weighted>
4.9625

> <Gold.Chemscore.Internal.Correction.Weighted>
   9.000000E+99

> <Gold.Protein.RotatedTorsions>
[ 6907 6896 6895 6894 ] final  -54.08 input  -60.11 | X-H torsion
[ 7974 7965 7964 7962 ] final -169.64 input  175.53 | X-H torsion
[ 8008 7997 7996 7995 ] final   94.49 input   59.86 | X-H torsion
[ 10167 10162 10161 10158 ] final -163.80 input  -65.29 | X-H torsion
[ 10718 10713 10712 10709 ] final -104.36 input   66.30 | X-H torsion
[ 10763 10752 10751 10750 ] final -125.23 input  -60.55 | X-H torsion
[ 11005 11000 10999 10996 ] final  137.79 input  -57.11 | X-H torsion

> <Gold.Protein.ActiveResidues>
 VAL166  LYS551  ARG553  GLY616  TRP617  ASP618  TYR619  PRO620  LYS621  CYS622 
 ASP623  PHE694  ASN695  SER759  ASP760  ASP761  ALA762  ILE779  LEU786  VAL792 
 PHE793  MET794  SER795  GLU796  ALA797  LYS798  CYS799  TRP800  GLU811  SER814 

> <Gold.Protein.RotatedAtoms>
  150.8370  134.7647  159.6900 H   0  0  0  0  0  0  0  0  0  0  0  0  # atno 6907 bound_to 6896
  152.4465  134.5481  159.9868 H   0  0  0  0  0  0  0  0  0  0  0  0  # atno 6908 bound_to 6896
  151.5629  133.3363  159.3010 H   0  0  0  0  0  0  0  0  0  0  0  0  # atno 6909 bound_to 6896
  144.7182  140.2191  143.6318 H   0  0  0  0  0  0  0  0  0  0  0  0  # atno 7974 bound_to 7965
  156.0585  140.3299  155.7433 H   0  0  0  0  0  0  0  0  0  0  0  0  # atno 8008 bound_to 7997
  155.5492  140.0608  157.2871 H   0  0  0  0  0  0  0  0  0  0  0  0  # atno 8009 bound_to 7997
  154.4469  140.1897  156.0657 H   0  0  0  0  0  0  0  0  0  0  0  0  # atno 8010 bound_to 7997
  139.6295  144.0466  152.2004 H   0  0  0  0  0  0  0  0  0  0  0  0  # atno 10167 bound_to 10162
  156.0301  130.5511  150.7385 H   0  0  0  0  0  0  0  0  0  0  0  0  # atno 10718 bound_to 10713
  154.8733  135.4036  154.3234 H   0  0  0  0  0  0  0  0  0  0  0  0  # atno 10763 bound_to 10752
  153.4059  135.7019  153.6398 H   0  0  0  0  0  0  0  0  0  0  0  0  # atno 10764 bound_to 10752
  153.5121  135.3705  155.2562 H   0  0  0  0  0  0  0  0  0  0  0  0  # atno 10765 bound_to 10752
  140.0138  134.9427  157.0333 H   0  0  0  0  0  0  0  0  0  0  0  0  # atno 11005 bound_to 11000
  145.8518  139.2179  143.1767 LP  0  0  0  0  0  0  0  0  0  0  0  0  # atno 17320 bound_to 7965
  146.0253  140.8309  142.9903 LP  0  0  0  0  0  0  0  0  0  0  0  0  # atno 17321 bound_to 7965
  140.0128  144.6211  150.7632 LP  0  0  0  0  0  0  0  0  0  0  0  0  # atno 17342 bound_to 10162
  140.7431  143.2841  151.3513 LP  0  0  0  0  0  0  0  0  0  0  0  0  # atno 17343 bound_to 10162
  157.4960  131.0915  151.0371 LP  0  0  0  0  0  0  0  0  0  0  0  0  # atno 17370 bound_to 10713
  157.0765  130.5885  149.5412 LP  0  0  0  0  0  0  0  0  0  0  0  0  # atno 17371 bound_to 10713
  140.4507  134.1585  155.7181 LP  0  0  0  0  0  0  0  0  0  0  0  0  # atno 17394 bound_to 11000
  141.1729  133.8573  157.1514 LP  0  0  0  0  0  0  0  0  0  0  0  0  # atno 17395 bound_to 11000

$$$$
