AV-unprocessed.smi:1570|AV-procd|sdf|6318|dock6
  -GOLD-   22720 6523D 1   1.00000     0.00000
 Structure written by MMmdl.
 52 54  0  0  0  0  0  0  0  0  2 V2000
  155.0496  140.4488  160.4427 C   0  0  0  0  0  0  0  0  0  0  0  0
  153.7246  141.0560  160.9215 C   0  0  0  0  0  0  0  0  0  0  0  0
  152.9666  141.6154  159.8053 N   0  0  0  0  0  0  0  0  0  0  0  0
  152.7096  141.0106  158.6219 C   0  0  0  0  0  0  0  0  0  0  0  0
  153.0647  139.8782  158.2958 O   0  0  0  0  0  0  0  0  0  0  0  0
  152.0272  141.8829  157.8424 N   0  0  0  0  0  0  0  0  0  0  0  0
  151.5900  141.6672  156.4634 C   0  0  0  0  0  0  0  0  0  0  0  0
  151.0941  140.2248  156.2339 C   0  0  2  0  0  0  0  0  0  0  0  0
  150.5695  140.1480  154.9241 O   0  0  0  0  0  0  0  0  0  0  0  0
  149.9954  139.7942  157.2297 C   0  0  0  0  0  0  0  0  0  0  0  0
  150.1768  138.4031  157.7138 N   0  3  1  0  0  0  0  0  0  0  0  0
  149.1142  137.9623  158.6510 C   0  0  0  0  0  0  0  0  0  0  0  0
  149.3881  136.5295  159.1444 C   0  0  1  0  0  0  0  0  0  0  0  0
  148.2661  136.0086  160.0495 C   0  0  0  0  0  0  0  0  0  0  0  0
  149.4905  135.6619  158.0206 O   0  0  0  0  0  0  0  0  0  0  0  0
  150.5619  136.0139  157.1521 C   0  0  1  0  0  0  0  0  0  0  0  0
  150.6355  134.9662  156.0357 C   0  0  0  0  0  0  0  0  0  0  0  0
  150.3184  137.4324  156.6033 C   0  0  0  0  0  0  0  0  0  0  0  0
  151.8528  143.0842  158.5445 C   0  0  0  0  0  0  0  0  0  0  0  0
  151.2296  144.2890  158.1750 C   0  0  0  0  0  0  0  0  0  0  0  0
  151.2340  145.3370  159.1250 C   0  0  0  0  0  0  0  0  0  0  0  0
  151.8474  145.1661  160.3932 C   0  0  0  0  0  0  0  0  0  0  0  0
  152.4679  143.9427  160.7392 C   0  0  0  0  0  0  0  0  0  0  0  0
  152.4462  142.9170  159.7781 C   0  0  0  0  0  0  0  0  0  0  0  0
  155.6100  140.0332  161.2803 H   0  0  0  0  0  0  0  0  0  0  0  0
  155.6778  141.2001  159.9631 H   0  0  0  0  0  0  0  0  0  0  0  0
  154.8798  139.6453  159.7253 H   0  0  0  0  0  0  0  0  0  0  0  0
  153.1304  140.2952  161.4299 H   0  0  0  0  0  0  0  0  0  0  0  0
  153.9153  141.8341  161.6612 H   0  0  0  0  0  0  0  0  0  0  0  0
  150.8128  142.3842  156.1927 H   0  0  0  0  0  0  0  0  0  0  0  0
  152.4342  141.8812  155.8065 H   0  0  0  0  0  0  0  0  0  0  0  0
  151.9478  139.5500  156.2840 H   0  0  0  0  0  0  0  0  0  0  0  0
  150.4552  139.2375  154.6967 H   0  0  0  0  0  0  0  0  0  0  0  0
  149.9662  140.4560  158.0952 H   0  0  0  0  0  0  0  0  0  0  0  0
  149.0250  139.8960  156.7406 H   0  0  0  0  0  0  0  0  0  0  0  0
  149.0578  138.6348  159.5064 H   0  0  0  0  0  0  0  0  0  0  0  0
  148.1462  138.0057  158.1487 H   0  0  0  0  0  0  0  0  0  0  0  0
  150.3248  136.5047  159.7041 H   0  0  0  0  0  0  0  0  0  0  0  0
  148.1546  136.6334  160.9360 H   0  0  0  0  0  0  0  0  0  0  0  0
  148.4751  134.9923  160.3842 H   0  0  0  0  0  0  0  0  0  0  0  0
  147.3095  135.9964  159.5261 H   0  0  0  0  0  0  0  0  0  0  0  0
  151.4996  135.9917  157.7107 H   0  0  0  0  0  0  0  0  0  0  0  0
  151.4487  135.1855  155.3436 H   0  0  0  0  0  0  0  0  0  0  0  0
  149.7081  134.9328  155.4633 H   0  0  0  0  0  0  0  0  0  0  0  0
  150.8085  133.9712  156.4465 H   0  0  0  0  0  0  0  0  0  0  0  0
  149.4178  137.4515  155.9871 H   0  0  0  0  0  0  0  0  0  0  0  0
  151.1517  137.7260  155.9634 H   0  0  0  0  0  0  0  0  0  0  0  0
  150.7666  144.4141  157.2074 H   0  0  0  0  0  0  0  0  0  0  0  0
  150.7659  146.2794  158.8814 H   0  0  0  0  0  0  0  0  0  0  0  0
  151.8412  145.9801  161.1030 H   0  0  0  0  0  0  0  0  0  0  0  0
  152.9383  143.8082  161.7018 H   0  0  0  0  0  0  0  0  0  0  0  0
  151.0517  138.3869  158.2187 H   0  0  0  0  0  0  0  0  0  0  0  0
  1  2  1  0  0  0  0
  1 25  1  0  0  0  0
  1 26  1  0  0  0  0
  1 27  1  0  0  0  0
  2  3  1  0  0  0  0
  2 28  1  0  0  0  0
  2 29  1  0  0  0  0
  3 24  1  0  0  0  0
  3  4  1  0  0  0  0
  4  5  2  0  0  0  0
  4  6  1  0  0  0  0
  6  7  1  0  0  0  0
  6 19  1  0  0  0  0
  7  8  1  0  0  0  0
  7 30  1  0  0  0  0
  7 31  1  0  0  0  0
  8  9  1  0  0  0  0
  8 10  1  0  0  0  0
  8 32  1  0  0  0  0
  9 33  1  0  0  0  0
 10 11  1  0  0  0  0
 10 34  1  0  0  0  0
 10 35  1  0  0  0  0
 11 18  1  0  0  0  0
 11 12  1  0  0  0  0
 11 52  1  0  0  0  0
 12 13  1  0  0  0  0
 12 36  1  0  0  0  0
 12 37  1  0  0  0  0
 13 14  1  0  0  0  0
 13 15  1  0  0  0  0
 13 38  1  0  0  0  0
 14 39  1  0  0  0  0
 14 40  1  0  0  0  0
 14 41  1  0  0  0  0
 15 16  1  0  0  0  0
 16 17  1  0  0  0  0
 16 18  1  0  0  0  0
 16 42  1  0  0  0  0
 17 43  1  0  0  0  0
 17 44  1  0  0  0  0
 17 45  1  0  0  0  0
 18 46  1  0  0  0  0
 18 47  1  0  0  0  0
 19 24  2  0  0  0  0
 19 20  1  0  0  0  0
 20 21  2  0  0  0  0
 20 48  1  0  0  0  0
 21 22  1  0  0  0  0
 21 49  1  0  0  0  0
 22 23  2  0  0  0  0
 22 50  1  0  0  0  0
 23 24  1  0  0  0  0
 23 51  1  0  0  0  0
M  CHG  1  11   1
M  END
> <s_m_source_file>
AV-unprocessed.smi

> <i_m_source_file_index>
1570

> <i_lp_mmshare_version>
43012

> <i_f3d_flags>
0

> <s_epik_input>
W2NIXTFbY0hdW2NIXVtjSF1jKGMxMiluKFtDSDJdW0NIM10pYyg9TyluMltDSDJdW0NASF0oW09IXSlbQ0gyXU4zW0NIMl1bQ0BASF0oW0NIM10pT1tDQEBIXShbQ0gzXSlbQ0gyXTM=

> <s_epik_cmdline>
J2VwaWtfcHl0aG9uJywgJy1waCcsICc3LjAnLCAnLXRuJywgJzgnLCAnLW1hJywgJzIwMCcsICctbWV0YWxfYmluZGluZycsICctaW1hZScsICc8aW5maWxlLm1hZT4nLCAnLW9tYWUnLCAnPG91dGZpbGUubWFlPic=

> <r_epik_Ionization_Penalty>
0.706332

> <r_epik_Ionization_Penalty_Charging>
0.706318

> <r_epik_Ionization_Penalty_Neutral>
1.42224e-05

> <r_epik_State_Penalty>
0.729493

> <r_epik_Charging_Adjusted_Penalty>
1.43581

> <i_epik_Tot_Q>
1

> <i_epik_Tot_abs_Q>
1

> <r_epik_Metal_State_Penalty>
0.729493

> <b_epik_Metal_Only>
0

> <s_lp_Force_Field>
OPLS_2005

> <r_lp_Energy>
50.1879

> <b_lp_Chiralities_Consistent>
1

> <s_lp_Variant>
AV-unprocessed.smi:1570-7

> <Gold.Version>
5.8.1

> <Gold.Id.Protein>
6NUR|6NUR_protein|mol2

> <Gold.PLP.Fitness>
49.8036

> <Gold.PLP.PLP>
-45.7731

> <Gold.PLP.part.hbond>
-2.5005

> <Gold.PLP.part.metal>
0.0000

> <Gold.PLP.part.buried>
-7.0882

> <Gold.PLP.part.nonpolar>
-35.3153

> <Gold.PLP.part.repulsive>
0.0513

> <Gold.PLP.ligand.clash>
0.0000

> <Gold.PLP.ligand.torsion>
1.0346

> <Gold.PLP.Chemscore.Hbond>
2.0000

> <Gold.PLP.Chemscore.CHOScore>
0.0000

> <Gold.PLP.Chemscore.Metal>
0.0000

> <Gold.Chemscore.Hbonds>
donor molecule, donor type, donor heavy atom, donor atom, acceptor molecule, acceptor atom, score
      P1  H  7989  7998       L1     9  1.00
      P1  H  7997  8010       L1     5  1.00

> <Gold.PLP.Chemscore.Internal.Correction>
0.0997

> <Gold.Rescore>
     Score         DG    S(hbond)    S(metal)    S(lipo)     H(rot)  DE(clash)    DE(int)     intcor
     15.58     -20.00       1.52        0.00     127.39       2.13       1.29       3.12       ----

> <Gold.Chemscore.Fitness>
15.5814

> <Gold.Chemscore.DG>
-19.9968

> <Gold.Chemscore.ZeroCoef>
-5.4800

> <Gold.Chemscore.Hbond>
1.5165

> <Gold.Chemscore.Metal>
0.0000

> <Gold.Chemscore.Lipo>
127.3947

> <Gold.Chemscore.Internal_Hbond>
0.0000

> <Gold.Chemscore.DEClash>
1.2939

> <Gold.Chemscore.DEInternal>
3.1215

> <Gold.Chemscore.Rot>
2.1303

> <Gold.Chemscore.Internal.Correction>
   9.000000E+99

> <Gold.Chemscore.Hbonds>
donor molecule, donor type, donor heavy atom, donor atom, acceptor molecule, acceptor atom, score
      P1  H  7989  7998       L1     9  0.48
      P1  H  7997  8010       L1     5  0.62

> <Gold.Chemscore.Hbond.Weighted>
-5.0652

> <Gold.Chemscore.Metal.Weighted>
-0.0000

> <Gold.Chemscore.Lipo.Weighted>
-14.9052

> <Gold.Chemscore.Internal_Hbond.Weighted>
0.0000

> <Gold.Chemscore.DEClash.Weighted>
1.2939

> <Gold.Chemscore.DEInternal.Weighted>
3.1215

> <Gold.Chemscore.Rot.Weighted>
5.4535

> <Gold.Chemscore.Internal.Correction.Weighted>
   9.000000E+99

> <Gold.Protein.RotatedTorsions>
[ 6907 6896 6895 6894 ] final  -47.94 input  -60.11 | X-H torsion
[ 7974 7965 7964 7962 ] final -126.62 input  175.53 | X-H torsion
[ 8008 7997 7996 7995 ] final   34.62 input   59.86 | X-H torsion
[ 10167 10162 10161 10158 ] final  143.17 input  -65.29 | X-H torsion
[ 10718 10713 10712 10709 ] final   -6.40 input   66.30 | X-H torsion
[ 10763 10752 10751 10750 ] final  -97.82 input  -60.55 | X-H torsion
[ 11005 11000 10999 10996 ] final   22.69 input  -57.11 | X-H torsion

> <Gold.Protein.ActiveResidues>
 VAL166  LYS551  ARG553  GLY616  TRP617  ASP618  TYR619  PRO620  LYS621  CYS622 
 ASP623  PHE694  ASN695  SER759  ASP760  ASP761  ALA762  ILE779  LEU786  VAL792 
 PHE793  MET794  SER795  GLU796  ALA797  LYS798  CYS799  TRP800  GLU811  SER814 

> <Gold.Protein.RotatedAtoms>
  150.8957  134.8365  159.7324 H   0  0  0  0  0  0  0  0  0  0  0  0  # atno 6907 bound_to 6896
  152.4863  134.4580  159.9606 H   0  0  0  0  0  0  0  0  0  0  0  0  # atno 6908 bound_to 6896
  151.4637  133.3547  159.2848 H   0  0  0  0  0  0  0  0  0  0  0  0  # atno 6909 bound_to 6896
  144.9853  140.7680  143.4587 H   0  0  0  0  0  0  0  0  0  0  0  0  # atno 7974 bound_to 7965
  155.1577  140.3280  155.4418 H   0  0  0  0  0  0  0  0  0  0  0  0  # atno 8008 bound_to 7997
  156.2553  140.1965  156.6637 H   0  0  0  0  0  0  0  0  0  0  0  0  # atno 8009 bound_to 7997
  154.6427  140.0568  156.9851 H   0  0  0  0  0  0  0  0  0  0  0  0  # atno 8010 bound_to 7997
  139.4976  144.6058  151.6381 H   0  0  0  0  0  0  0  0  0  0  0  0  # atno 10167 bound_to 10162
  156.7324  130.5184  149.5842 H   0  0  0  0  0  0  0  0  0  0  0  0  # atno 10718 bound_to 10713
  154.7361  135.5032  153.9045 H   0  0  0  0  0  0  0  0  0  0  0  0  # atno 10763 bound_to 10752
  153.0997  135.6682  153.9704 H   0  0  0  0  0  0  0  0  0  0  0  0  # atno 10764 bound_to 10752
  153.9493  135.3059  155.3418 H   0  0  0  0  0  0  0  0  0  0  0  0  # atno 10765 bound_to 10752
  140.3778  134.1953  155.7664 H   0  0  0  0  0  0  0  0  0  0  0  0  # atno 11005 bound_to 11000
  145.2362  139.2093  143.5017 LP  0  0  0  0  0  0  0  0  0  0  0  0  # atno 17320 bound_to 7965
  146.3418  140.2248  142.8592 LP  0  0  0  0  0  0  0  0  0  0  0  0  # atno 17321 bound_to 7965
  140.5719  144.0093  150.6221 LP  0  0  0  0  0  0  0  0  0  0  0  0  # atno 17342 bound_to 10162
  140.3214  143.3135  152.0780 LP  0  0  0  0  0  0  0  0  0  0  0  0  # atno 17343 bound_to 10162
  156.1520  130.6316  151.0608 LP  0  0  0  0  0  0  0  0  0  0  0  0  # atno 17370 bound_to 10713
  157.6853  131.0826  150.7259 LP  0  0  0  0  0  0  0  0  0  0  0  0  # atno 17371 bound_to 10713
  141.1933  133.8153  157.0803 LP  0  0  0  0  0  0  0  0  0  0  0  0  # atno 17394 bound_to 11000
  140.0501  134.9810  157.1121 LP  0  0  0  0  0  0  0  0  0  0  0  0  # atno 17395 bound_to 11000

$$$$
