#       Name:                AV-unprocessed.smi:290
#       Creating user name   scv26
#       Creation time:       Thu Mar 26 22:05:27 2020


#       File generated by GOLD software.
#

@<TRIPOS>MOLECULE
AV-unprocessed.smi:290
    69    72     1
SMALL
NO_CHARGES


@<TRIPOS>ATOM
      1 ****        -3.3800  -1.3044  -3.1219 C.3            1 S1                 0.0000
      2 ****        -4.4660  -1.4097  -2.0389 C.3            1 S1                 0.0000
      3 ****        -5.7275  -1.7038  -2.6213 O.3            1 S1                 0.0000
      4 ****        -6.5672  -2.1650  -1.5786 C.3            1 S1                 0.0000
      5 ****        -5.6579  -3.1181  -0.8124 C.3            1 S1                 0.0000
      6 ****        -4.2675  -2.4877  -0.9402 C.3            1 S1                 0.0000
      7 ****        -3.3622  -3.4991  -1.3520 O.3            1 S1                 0.0000
      8 ****        -3.7660  -1.9048   0.4043 C.3            1 S1                 0.0000
      9 ****        -2.4871  -1.2180   0.2988 N.pl3          1 S1                 0.0000
     10 ****        -1.2384  -1.7989   0.2897 C.2            1 S1                 0.0000
     11 ****        -0.2375  -0.9692   0.1766 N.2            1 S1                 0.0000
     12 ****        -0.8417   0.2803   0.1118 C.ar           1 S1                 0.0000
     13 ****        -0.3586   1.6126  -0.0164 C.ar           1 S1                 0.0000
     14 ****         0.9442   1.9532  -0.1109 N.3            1 S1                 0.0000
     15 ****         1.5866   1.5915  -1.3732 C.3            1 S1                 0.0000
     16 ****         3.0452   1.2747  -1.0353 C.3            1 S1                 0.0000
     17 ****         2.9027   0.7059   0.3783 C.3            1 S1                 0.0000
     18 ****         4.1471   0.5126   1.1863 N.4            1 S1                 1.0000
     19 ****         4.6587  -0.8761   1.0734 C.3            1 S1                 0.0000
     20 ****         5.2159   1.5296   0.9757 C.3            1 S1                 0.0000
     21 ****         6.1952   1.6269   2.1595 C.3            1 S1                 0.0000
     22 ****         5.5215   2.0807   3.3140 O.3            1 S1                 0.0000
     23 ****         1.7955   1.5699   1.0151 C.3            1 S1                 0.0000
     24 ****         2.2532   2.8341   1.7607 C.3            1 S1                 0.0000
     25 ****        -1.2640   2.6196  -0.0500 N.ar           1 S1                 0.0000
     26 ****        -2.5690   2.3456   0.0433 C.ar           1 S1                 0.0000
     27 ****        -3.1661   1.1582   0.1699 N.ar           1 S1                 0.0000
     28 ****        -2.2555   0.1429   0.1955 C.ar           1 S1                 0.0000
     29 ****         2.4468  -0.2783   0.2570 H              1 S1                 0.0000
     30 ****         1.2444   0.9561   1.7296 H              1 S1                 0.0000
     31 ****        -2.4038  -1.0988  -2.6821 H              1 S1                 0.0000
     32 ****        -3.6060  -0.4949  -3.8160 H              1 S1                 0.0000
     33 ****        -3.3029  -2.2230  -3.7041 H              1 S1                 0.0000
     34 ****        -4.5784  -0.4327  -1.5680 H              1 S1                 0.0000
     35 ****        -6.8744  -1.3262  -0.9518 H              1 S1                 0.0000
     36 ****        -7.4613  -2.6540  -1.9656 H              1 S1                 0.0000
     37 ****        -5.9810  -3.2557   0.2201 H              1 S1                 0.0000
     38 ****        -5.6912  -4.0963  -1.2954 H              1 S1                 0.0000
     39 ****        -3.3663  -4.1873  -0.7046 H              1 S1                 0.0000
     40 ****        -4.4994  -1.2035   0.8046 H              1 S1                 0.0000
     41 ****        -3.6663  -2.6965   1.1481 H              1 S1                 0.0000
     42 ****        -1.0929  -2.8669   0.3622 H              1 S1                 0.0000
     43 ****         1.1055   0.7169  -1.8141 H              1 S1                 0.0000
     44 ****         1.5133   2.4072  -2.0930 H              1 S1                 0.0000
     45 ****         3.4981   0.5736  -1.7368 H              1 S1                 0.0000
     46 ****         3.6210   2.1994  -1.0555 H              1 S1                 0.0000
     47 ****         4.9799  -1.0889   0.0531 H              1 S1                 0.0000
     48 ****         3.8872  -1.5980   1.3443 H              1 S1                 0.0000
     49 ****         5.5000  -1.0570   1.7401 H              1 S1                 0.0000
     50 ****         5.7609   1.2964   0.0598 H              1 S1                 0.0000
     51 ****         4.7855   2.5179   0.8277 H              1 S1                 0.0000
     52 ****         6.6909   0.6809   2.3711 H              1 S1                 0.0000
     53 ****         6.9828   2.3429   1.9242 H              1 S1                 0.0000
     54 ****         6.1511   2.1801   4.0124 H              1 S1                 0.0000
     55 ****         2.9022   2.5909   2.6009 H              1 S1                 0.0000
     56 ****         1.3946   3.3705   2.1655 H              1 S1                 0.0000
     57 ****         2.7818   3.5243   1.1030 H              1 S1                 0.0000
     58 ****        -3.2292   3.1996   0.0116 H              1 S1                 0.0000
     59 ****         3.8548   0.6162   2.1480 H              1 S1                 0.0000
     60 ****        -5.6266  -2.4122  -3.3198 LP             1 S1                 0.0000
     61 ****        -6.1150  -0.8802  -3.0354 LP             1 S1                 0.0000
     62 ****        -2.4419  -3.1160  -1.4311 LP             1 S1                 0.0000
     63 ****        -3.6474  -3.8670  -2.2370 LP             1 S1                 0.0000
     64 ****         0.7388  -1.1832   0.1441 LP             1 S1                 0.0000
     65 ****         0.8704   2.9500  -0.0799 LP             1 S1                 0.0000
     66 ****         4.8250   1.4147   3.5810 LP             1 S1                 0.0000
     67 ****         5.0860   2.9610   3.1255 LP             1 S1                 0.0000
     68 ****        -0.9566   3.5665  -0.1444 LP             1 S1                 0.0000
     69 ****        -4.1555   1.0295   0.2374 LP             1 S1                 0.0000
@<TRIPOS>BOND
    1    1    2 1     
    2    1   31 1     
    3    1   32 1     
    4    1   33 1     
    5    2    6 1     
    6    2    3 1     
    7    2   34 1     
    8    3    4 1     
    9    4    5 1     
   10    4   35 1     
   11    4   36 1     
   12    5    6 1     
   13    5   37 1     
   14    5   38 1     
   15    6    7 1     
   16    6    8 1     
   17    7   39 1     
   18    8    9 1     
   19    8   40 1     
   20    8   41 1     
   21    9   28 1     
   22    9   10 1     
   23   10   11 2     
   24   10   42 1     
   25   11   12 1     
   26   12   28 ar    
   27   12   13 ar    
   28   13   14 1     
   29   13   25 ar    
   30   14   23 1     
   31   14   15 1     
   32   15   16 1     
   33   15   43 1     
   34   15   44 1     
   35   16   17 1     
   36   16   45 1     
   37   16   46 1     
   38   17   29 1     
   39   17   18 1     
   40   17   23 1     
   41   18   19 1     
   42   18   20 1     
   43   18   59 1     
   44   19   47 1     
   45   19   48 1     
   46   19   49 1     
   47   20   21 1     
   48   20   50 1     
   49   20   51 1     
   50   21   22 1     
   51   21   52 1     
   52   21   53 1     
   53   22   54 1     
   54   23   30 1     
   55   23   24 1     
   56   24   55 1     
   57   24   56 1     
   58   24   57 1     
   59   25   26 ar    
   60   26   27 ar    
   61   26   58 1     
   62   27   28 ar    
   63    3   60 1     
   64    3   61 1     
   65    7   62 1     
   66    7   63 1     
   67   11   64 1     
   68   14   65 1     
   69   22   66 1     
   70   22   67 1     
   71   25   68 1     
   72   27   69 1     
@<TRIPOS>SUBSTRUCTURE
      1 S1             1
@<TRIPOS>SET
LONE_PAIRS      STATIC     ATOMS    <user>   **** ""
10 60 61 62 63 64 65 66 67 68 69
DONOR_HYDROGENS      STATIC     ATOMS    <user>   **** ""
3 39 59 54
ATOM$BLUE        STATIC     ATOMS    COLORGROUP SYSTEM
10 60 61 62 63 64 65 66 67 68 69
ATOM$RED        STATIC     ATOMS    COLORGROUP SYSTEM
3 39 59 54
