AV-unprocessed.smi:454|AV-procd|sdf|2613|dock6
  -GOLD-   2262023 13D 1   1.00000     0.00000
 Structure written by MMmdl.
 44 45  0  0  0  0  0  0  0  0  2 V2000
  150.4611  145.0062  160.2352 C   0  0  0  0  0  0  0  0  0  0  0  0
  151.7175  144.5432  159.7739 O   0  0  0  0  0  0  0  0  0  0  0  0
  152.0823  145.1041  158.5234 C   0  0  0  0  0  0  0  0  0  0  0  0
  151.8877  144.0685  157.4050 C   0  0  0  0  0  0  0  0  0  0  0  0
  150.5318  143.5313  157.3713 N   0  0  0  0  0  0  0  0  0  0  0  0
  150.3031  142.1483  157.4152 C   0  0  0  0  0  0  0  0  0  0  0  0
  151.4106  141.2786  157.3080 C   0  0  0  0  0  0  0  0  0  0  0  0
  151.1941  139.8880  157.3706 C   0  0  0  0  0  0  0  0  0  0  0  0
  149.8745  139.4263  157.5346 C   0  0  0  0  0  0  0  0  0  0  0  0
  149.5235  137.6820  157.6811 S   0  0  0  0  0  0  0  0  0  0  0  0
  150.5993  137.0812  158.4845 O   0  0  0  0  0  0  0  0  0  0  0  0
  148.1170  137.4950  158.0692 O   0  0  0  0  0  0  0  0  0  0  0  0
  149.7097  137.1300  156.0443 N   0  0  0  0  0  0  0  0  0  0  0  0
  148.5850  136.4126  155.4199 C   0  0  0  0  0  0  0  0  0  0  0  0
  147.5950  137.4141  154.8002 C   0  0  0  0  0  0  0  0  0  0  0  0
  148.2815  138.2695  153.8029 N   0  3  0  0  0  0  0  0  0  0  0  0
  147.3515  139.1719  153.0911 C   0  0  0  0  0  0  0  0  0  0  0  0
  149.4134  138.9955  154.4269 C   0  0  0  0  0  0  0  0  0  0  0  0
  150.4017  138.0123  155.0860 C   0  0  0  0  0  0  0  0  0  0  0  0
  148.8273  140.3635  157.6189 C   0  0  0  0  0  0  0  0  0  0  0  0
  149.0335  141.6957  157.5579 N   0  0  0  0  0  0  0  0  0  0  0  0
  150.2315  144.5439  161.1951 H   0  0  0  0  0  0  0  0  0  0  0  0
  149.6643  144.7465  159.5371 H   0  0  0  0  0  0  0  0  0  0  0  0
  150.4669  146.0880  160.3753 H   0  0  0  0  0  0  0  0  0  0  0  0
  151.4452  145.9673  158.3256 H   0  0  0  0  0  0  0  0  0  0  0  0
  153.1136  145.4609  158.5417 H   0  0  0  0  0  0  0  0  0  0  0  0
  152.1817  144.4770  156.4377 H   0  0  0  0  0  0  0  0  0  0  0  0
  152.5539  143.2256  157.5890 H   0  0  0  0  0  0  0  0  0  0  0  0
  149.8051  144.1227  156.9955 H   0  0  0  0  0  0  0  0  0  0  0  0
  152.4115  141.6675  157.1897 H   0  0  0  0  0  0  0  0  0  0  0  0
  152.0245  139.2013  157.3037 H   0  0  0  0  0  0  0  0  0  0  0  0
  148.9745  135.7465  154.6486 H   0  0  0  0  0  0  0  0  0  0  0  0
  148.0864  135.7770  156.1515 H   0  0  0  0  0  0  0  0  0  0  0  0
  146.7835  136.8700  154.3157 H   0  0  0  0  0  0  0  0  0  0  0  0
  147.1433  138.0344  155.5764 H   0  0  0  0  0  0  0  0  0  0  0  0
  146.8750  139.8683  153.7826 H   0  0  0  0  0  0  0  0  0  0  0  0
  146.5707  138.6002  152.5884 H   0  0  0  0  0  0  0  0  0  0  0  0
  147.8810  139.7503  152.3332 H   0  0  0  0  0  0  0  0  0  0  0  0
  149.9353  139.5756  153.6649 H   0  0  0  0  0  0  0  0  0  0  0  0
  149.0334  139.7116  155.1561 H   0  0  0  0  0  0  0  0  0  0  0  0
  151.2027  138.5545  155.5890 H   0  0  0  0  0  0  0  0  0  0  0  0
  150.8773  137.3956  154.3222 H   0  0  0  0  0  0  0  0  0  0  0  0
  147.8049  140.0406  157.7494 H   0  0  0  0  0  0  0  0  0  0  0  0
  148.6772  137.6511  153.1090 H   0  0  0  0  0  0  0  0  0  0  0  0
  1  2  1  0  0  0  0
  1 22  1  0  0  0  0
  1 23  1  0  0  0  0
  1 24  1  0  0  0  0
  2  3  1  0  0  0  0
  3  4  1  0  0  0  0
  3 25  1  0  0  0  0
  3 26  1  0  0  0  0
  4  5  1  0  0  0  0
  4 27  1  0  0  0  0
  4 28  1  0  0  0  0
  5  6  1  0  0  0  0
  5 29  1  0  0  0  0
  6 21  1  0  0  0  0
  6  7  2  0  0  0  0
  7  8  1  0  0  0  0
  7 30  1  0  0  0  0
  8  9  2  0  0  0  0
  8 31  1  0  0  0  0
  9 10  1  0  0  0  0
  9 20  1  0  0  0  0
 10 11  2  0  0  0  0
 10 12  2  0  0  0  0
 10 13  1  0  0  0  0
 13 19  1  0  0  0  0
 13 14  1  0  0  0  0
 14 15  1  0  0  0  0
 14 32  1  0  0  0  0
 14 33  1  0  0  0  0
 15 16  1  0  0  0  0
 15 34  1  0  0  0  0
 15 35  1  0  0  0  0
 16 17  1  0  0  0  0
 16 18  1  0  0  0  0
 16 44  1  0  0  0  0
 17 36  1  0  0  0  0
 17 37  1  0  0  0  0
 17 38  1  0  0  0  0
 18 19  1  0  0  0  0
 18 39  1  0  0  0  0
 18 40  1  0  0  0  0
 19 41  1  0  0  0  0
 19 42  1  0  0  0  0
 20 21  2  0  0  0  0
 20 43  1  0  0  0  0
M  CHG  1  16   1
M  END
> <s_m_source_file>
AV-unprocessed.smi

> <i_m_source_file_index>
454

> <i_lp_mmshare_version>
43012

> <i_f3d_flags>
0

> <s_epik_input>
W0NIM11PW0NIMl1bQ0gyXVtOSF1jMVtjSF1bY0hdYyhbY0hdbjEpUyg9TykoPU8pTjJbQ0gyXVtDSDJdTihbQ0gzXSlbQ0gyXVtDSDJdMg==

> <s_epik_cmdline>
J2VwaWtfcHl0aG9uJywgJy1waCcsICc3LjAnLCAnLXRuJywgJzgnLCAnLW1hJywgJzIwMCcsICctbWV0YWxfYmluZGluZycsICctaW1hZScsICc8aW5maWxlLm1hZT4nLCAnLW9tYWUnLCAnPG91dGZpbGUubWFlPic=

> <r_lp_tautomer_probability>
1

> <r_epik_Ionization_Penalty>
1.23801

> <r_epik_Ionization_Penalty_Charging>
1.23786

> <r_epik_Ionization_Penalty_Neutral>
0.00015121

> <r_epik_State_Penalty>
1.30655

> <r_epik_Charging_Adjusted_Penalty>
2.54442

> <i_epik_Tot_Q>
1

> <i_epik_Tot_abs_Q>
1

> <r_epik_Metal_State_Penalty>
1.30672

> <b_epik_Metal_Only>
0

> <s_lp_Force_Field>
OPLS_2005

> <r_lp_Energy>
1.84277

> <b_lp_Chiralities_Consistent>
1

> <s_lp_Variant>
AV-unprocessed.smi:454-2

> <Gold.Version>
5.8.1

> <Gold.Id.Protein>
6NUR|6NUR_protein|mol2

> <Gold.PLP.Fitness>
39.4587

> <Gold.PLP.PLP>
-30.5022

> <Gold.PLP.part.hbond>
-2.5235

> <Gold.PLP.part.metal>
0.0000

> <Gold.PLP.part.buried>
-6.4688

> <Gold.PLP.part.nonpolar>
-21.7401

> <Gold.PLP.part.repulsive>
0.1707

> <Gold.PLP.ligand.clash>
0.0000

> <Gold.PLP.ligand.torsion>
1.7317

> <Gold.PLP.Chemscore.Hbond>
3.2400

> <Gold.PLP.Chemscore.CHOScore>
0.0000

> <Gold.PLP.Chemscore.Metal>
0.0000

> <Gold.Chemscore.Hbonds>
donor molecule, donor type, donor heavy atom, donor atom, acceptor molecule, acceptor atom, score
      L1  H     5    29       P1  8028  1.00
      L1  H    16    44       P1  7948  2.00

> <Gold.PLP.Chemscore.Internal.Correction>
2.6998

> <Gold.Rescore>
     Score         DG    S(hbond)    S(metal)    S(lipo)     H(rot)  DE(clash)    DE(int)     intcor
     16.73     -19.11       2.80        0.00      72.61       1.65       0.52       1.86       ----

> <Gold.Chemscore.Fitness>
16.7322

> <Gold.Chemscore.DG>
-19.1077

> <Gold.Chemscore.ZeroCoef>
-5.4800

> <Gold.Chemscore.Hbond>
2.8006

> <Gold.Chemscore.Metal>
0.0000

> <Gold.Chemscore.Lipo>
72.6109

> <Gold.Chemscore.Internal_Hbond>
0.0000

> <Gold.Chemscore.DEClash>
0.5183

> <Gold.Chemscore.DEInternal>
1.8572

> <Gold.Chemscore.Rot>
1.6491

> <Gold.Chemscore.Internal.Correction>
   9.000000E+99

> <Gold.Chemscore.Hbonds>
donor molecule, donor type, donor heavy atom, donor atom, acceptor molecule, acceptor atom, score
      L1  H     5    29       P1  8028  0.75
      L1  H    16    44       P1  7948  1.00
      P1  H  6896  6907       L1    11  0.03

> <Gold.Chemscore.Hbond.Weighted>
-9.3541

> <Gold.Chemscore.Metal.Weighted>
-0.0000

> <Gold.Chemscore.Lipo.Weighted>
-8.4955

> <Gold.Chemscore.Internal_Hbond.Weighted>
0.0000

> <Gold.Chemscore.DEClash.Weighted>
0.5183

> <Gold.Chemscore.DEInternal.Weighted>
1.8572

> <Gold.Chemscore.Rot.Weighted>
4.2218

> <Gold.Chemscore.Internal.Correction.Weighted>
   9.000000E+99

> <Gold.Protein.RotatedTorsions>
[ 6907 6896 6895 6894 ] final  -26.75 input  -60.11 | X-H torsion
[ 7974 7965 7964 7962 ] final   11.94 input  175.53 | X-H torsion
[ 8008 7997 7996 7995 ] final   64.65 input   59.86 | X-H torsion
[ 10167 10162 10161 10158 ] final -101.04 input  -65.29 | X-H torsion
[ 10718 10713 10712 10709 ] final -128.97 input   66.30 | X-H torsion
[ 10763 10752 10751 10750 ] final  163.59 input  -60.55 | X-H torsion
[ 11005 11000 10999 10996 ] final   10.65 input  -57.11 | X-H torsion

> <Gold.Protein.ActiveResidues>
 VAL166  LYS551  ARG553  GLY616  TRP617  ASP618  TYR619  PRO620  LYS621  CYS622 
 ASP623  PHE694  ASN695  SER759  ASP760  ASP761  ALA762  ILE779  LEU786  VAL792 
 PHE793  MET794  SER795  GLU796  ALA797  LYS798  CYS799  TRP800  GLU811  SER814 

> <Gold.Protein.RotatedAtoms>
  151.1566  135.0253  159.8691 H   0  0  0  0  0  0  0  0  0  0  0  0  # atno 6907 bound_to 6896
  152.5452  134.1327  159.8456 H   0  0  0  0  0  0  0  0  0  0  0  0  # atno 6908 bound_to 6896
  151.1418  133.4920  159.2629 H   0  0  0  0  0  0  0  0  0  0  0  0  # atno 6909 bound_to 6896
  146.2361  139.9410  142.8483 H   0  0  0  0  0  0  0  0  0  0  0  0  # atno 7974 bound_to 7965
  155.6494  140.3497  155.4743 H   0  0  0  0  0  0  0  0  0  0  0  0  # atno 8008 bound_to 7997
  155.9860  140.1184  157.0706 H   0  0  0  0  0  0  0  0  0  0  0  0  # atno 8009 bound_to 7997
  154.4205  140.1129  156.5486 H   0  0  0  0  0  0  0  0  0  0  0  0  # atno 8010 bound_to 7997
  140.2456  143.3508  152.0762 H   0  0  0  0  0  0  0  0  0  0  0  0  # atno 10167 bound_to 10162
  156.2002  130.6852  151.0529 H   0  0  0  0  0  0  0  0  0  0  0  0  # atno 10718 bound_to 10713
  154.2960  135.2760  155.2633 H   0  0  0  0  0  0  0  0  0  0  0  0  # atno 10763 bound_to 10752
  154.5091  135.5787  153.6594 H   0  0  0  0  0  0  0  0  0  0  0  0  # atno 10764 bound_to 10752
  152.9907  135.6176  154.3128 H   0  0  0  0  0  0  0  0  0  0  0  0  # atno 10765 bound_to 10752
  140.5121  134.0642  155.7821 H   0  0  0  0  0  0  0  0  0  0  0  0  # atno 11005 bound_to 11000
  145.1952  140.9830  143.4187 LP  0  0  0  0  0  0  0  0  0  0  0  0  # atno 17320 bound_to 7965
  144.9822  139.3772  143.6256 LP  0  0  0  0  0  0  0  0  0  0  0  0  # atno 17321 bound_to 7965
  139.5063  144.6811  151.6006 LP  0  0  0  0  0  0  0  0  0  0  0  0  # atno 17342 bound_to 10162
  140.6080  143.9488  150.6433 LP  0  0  0  0  0  0  0  0  0  0  0  0  # atno 17343 bound_to 10162
  157.6981  131.0786  150.6907 LP  0  0  0  0  0  0  0  0  0  0  0  0  # atno 17370 bound_to 10713
  156.6964  130.4610  149.5585 LP  0  0  0  0  0  0  0  0  0  0  0  0  # atno 17371 bound_to 10713
  141.1380  133.9188  157.2391 LP  0  0  0  0  0  0  0  0  0  0  0  0  # atno 17394 bound_to 11000
  139.9653  135.0143  156.9370 LP  0  0  0  0  0  0  0  0  0  0  0  0  # atno 17395 bound_to 11000

$$$$
