#       Name:                AV-unprocessed.smi:3294
#       Creating user name   scv26
#       Creation time:       Fri Mar 27 18:57:01 2020


#       File generated by GOLD software.
#

@<TRIPOS>MOLECULE
AV-unprocessed.smi:3294
    40    42     1
SMALL
NO_CHARGES


@<TRIPOS>ATOM
      1 ****        -3.7185   4.1650   0.6784 C.3            1 S1                 0.0000
      2 ****        -3.7526   2.7378   0.1722 C.ar           1 S1                 0.0000
      3 ****        -2.6111   1.9126   0.2576 C.ar           1 S1                 0.0000
      4 ****        -2.6956   0.5864  -0.2307 C.ar           1 S1                 0.0000
      5 ****        -1.6255  -0.3480  -0.1850 N.am           1 S1                 0.0000
      6 ****        -0.3047  -0.1060  -0.1194 C.2            1 S1                 0.0000
      7 ****         0.2137   1.0104  -0.1259 O.2            1 S1                 0.0000
      8 ****         0.3940  -1.2512  -0.0661 N.am           1 S1                 0.0000
      9 ****         1.8483  -1.3857   0.0038 C.3            1 S1                 0.0000
     10 ****         2.4622  -0.7843   1.2600 C.3            1 S1                 0.0000
     11 ****         3.7124  -1.3643   1.8775 C.3            1 S1                 0.0000
     12 ****         2.3835  -1.5003   2.5864 C.3            1 S1                 0.0000
     13 ****         2.5702  -0.8951  -1.2426 C.3            1 S1                 0.0000
     14 ****         2.6559  -1.7514  -2.4833 C.3            1 S1                 0.0000
     15 ****         3.8969  -1.4825  -1.6622 C.3            1 S1                 0.0000
     16 ****        -3.9295   0.1489  -0.7546 C.ar           1 S1                 0.0000
     17 ****        -5.0092   1.0535  -0.7946 C.ar           1 S1                 0.0000
     18 ****        -4.9295   2.3234  -0.3452 N.ar           1 S1                 0.0000
     19 ****        -2.7154   4.4474   0.9994 H              1 S1                 0.0000
     20 ****        -4.3934   4.2819   1.5266 H              1 S1                 0.0000
     21 ****        -4.0296   4.8549  -0.1066 H              1 S1                 0.0000
     22 ****        -1.7069   2.3001   0.7015 H              1 S1                 0.0000
     23 ****        -1.8953  -1.3173  -0.2641 H              1 S1                 0.0000
     24 ****        -0.1293  -2.1144  -0.0727 H              1 S1                 0.0000
     25 ****         2.0170  -2.4621   0.0593 H              1 S1                 0.0000
     26 ****         2.3868   0.3004   1.3068 H              1 S1                 0.0000
     27 ****         4.1336  -2.2627   1.4314 H              1 S1                 0.0000
     28 ****         4.4363  -0.6660   2.2924 H              1 S1                 0.0000
     29 ****         2.2206  -0.8929   3.4742 H              1 S1                 0.0000
     30 ****         1.9230  -2.4861   2.6041 H              1 S1                 0.0000
     31 ****         2.4658   0.1745  -1.4149 H              1 S1                 0.0000
     32 ****         2.2348  -2.7539  -2.4398 H              1 S1                 0.0000
     33 ****         2.5692  -1.2503  -3.4454 H              1 S1                 0.0000
     34 ****         4.6380  -0.8018  -2.0764 H              1 S1                 0.0000
     35 ****         4.2978  -2.3086  -1.0783 H              1 S1                 0.0000
     36 ****        -4.0499  -0.8582  -1.1263 H              1 S1                 0.0000
     37 ****        -5.9633   0.7471  -1.1970 H              1 S1                 0.0000
     38 ****        -0.3598   1.8276  -0.1835 LP             1 S1                 0.0000
     39 ****         1.2083   1.1001  -0.0736 LP             1 S1                 0.0000
     40 ****        -5.7168   2.9381  -0.3937 LP             1 S1                 0.0000
@<TRIPOS>BOND
    1    1    2 1     
    2    1   19 1     
    3    1   20 1     
    4    1   21 1     
    5    2   18 ar    
    6    2    3 ar    
    7    3    4 ar    
    8    3   22 1     
    9    4    5 1     
   10    4   16 ar    
   11    5    6 am    
   12    5   23 1     
   13    6    7 2     
   14    6    8 am    
   15    8    9 1     
   16    8   24 1     
   17    9   10 1     
   18    9   13 1     
   19    9   25 1     
   20   10   12 1     
   21   10   11 1     
   22   10   26 1     
   23   11   12 1     
   24   11   27 1     
   25   11   28 1     
   26   12   29 1     
   27   12   30 1     
   28   13   15 1     
   29   13   14 1     
   30   13   31 1     
   31   14   15 1     
   32   14   32 1     
   33   14   33 1     
   34   15   34 1     
   35   15   35 1     
   36   16   17 ar    
   37   16   36 1     
   38   17   18 ar    
   39   17   37 1     
   40    7   38 1     
   41    7   39 1     
   42   18   40 1     
@<TRIPOS>SUBSTRUCTURE
      1 S1             1
@<TRIPOS>SET
LONE_PAIRS      STATIC     ATOMS    <user>   **** ""
3 38 39 40
DONOR_HYDROGENS      STATIC     ATOMS    <user>   **** ""
2 23 24
ATOM$BLUE        STATIC     ATOMS    COLORGROUP SYSTEM
3 38 39 40
ATOM$RED        STATIC     ATOMS    COLORGROUP SYSTEM
2 23 24
