#       Name:                AV-unprocessed.smi:285
#       Creating user name   scv26
#       Creation time:       Thu Mar 26 21:52:33 2020


#       File generated by GOLD software.
#

@<TRIPOS>MOLECULE
AV-unprocessed.smi:285
    40    42     1
SMALL
NO_CHARGES


@<TRIPOS>ATOM
      1 ****        -5.2908   0.1829  -0.3110 N.pl3          1 S1                 0.0000
      2 ****        -3.9867   0.4669  -0.1889 C.ar           1 S1                 0.0000
      3 ****        -3.6244   1.7590  -0.0121 N.ar           1 S1                 0.0000
      4 ****        -2.3301   2.0697   0.1119 C.ar           1 S1                 0.0000
      5 ****        -1.2697   1.2580   0.0860 N.ar           1 S1                 0.0000
      6 ****        -1.6349  -0.0456  -0.0942 C.ar           1 S1                 0.0000
      7 ****        -2.9715  -0.5216  -0.2364 C.ar           1 S1                 0.0000
      8 ****        -2.9757  -1.9017  -0.3946 N.2            1 S1                 0.0000
      9 ****        -1.7072  -2.1998  -0.3480 C.2            1 S1                 0.0000
     10 ****        -1.1381  -4.0108  -0.5024 Br             1 S1                 0.0000
     11 ****        -0.8219  -1.1594  -0.1766 N.pl3          1 S1                 0.0000
     12 ****         0.6711  -1.1968  -0.0977 C.3            1 S1                 0.0000
     13 ****         1.1507  -0.9478   1.3324 C.3            1 S1                 0.0000
     14 ****         2.4543  -0.2163   1.0909 C.3            1 S1                 0.0000
     15 ****         3.5118  -1.1318   0.8716 O.3            1 S1                 0.0000
     16 ****         2.1184   0.6099  -0.1613 C.3            1 S1                 0.0000
     17 ****         3.2979   1.0479  -1.0461 C.3            1 S1                 0.0000
     18 ****         4.1372   1.9373  -0.3405 O.3            1 S1                 0.0000
     19 ****         1.1907  -0.1810  -0.9023 O.3            1 S1                 0.0000
     20 ****        -5.5874  -0.7733  -0.4438 H              1 S1                 0.0000
     21 ****        -5.9737   0.9256  -0.2748 H              1 S1                 0.0000
     22 ****        -2.1125   3.1183   0.2515 H              1 S1                 0.0000
     23 ****         0.9741  -2.1657  -0.4931 H              1 S1                 0.0000
     24 ****         0.4474  -0.2959   1.8525 H              1 S1                 0.0000
     25 ****         1.2483  -1.8802   1.8898 H              1 S1                 0.0000
     26 ****         2.7221   0.4209   1.9343 H              1 S1                 0.0000
     27 ****         4.2994  -0.6405   0.6932 H              1 S1                 0.0000
     28 ****         1.5704   1.4982   0.1571 H              1 S1                 0.0000
     29 ****         3.8760   0.1929  -1.3966 H              1 S1                 0.0000
     30 ****         2.9240   1.5611  -1.9324 H              1 S1                 0.0000
     31 ****         4.8297   2.2190  -0.9187 H              1 S1                 0.0000
     32 ****        -4.3201   2.4763   0.0255 LP             1 S1                 0.0000
     33 ****        -0.3239   1.5670   0.1863 LP             1 S1                 0.0000
     34 ****        -3.7571  -2.5141  -0.5144 LP             1 S1                 0.0000
     35 ****         3.2950  -1.7176   0.0907 LP             1 S1                 0.0000
     36 ****         3.6435  -1.6971   1.6859 LP             1 S1                 0.0000
     37 ****         4.5290   1.4729   0.4537 LP             1 S1                 0.0000
     38 ****         3.6088   2.7298  -0.0360 LP             1 S1                 0.0000
     39 ****         0.4434   0.4008  -1.2233 LP             1 S1                 0.0000
     40 ****         1.6573  -0.5879  -1.6876 LP             1 S1                 0.0000
@<TRIPOS>BOND
    1    1    2 1     
    2    1   20 1     
    3    1   21 1     
    4    2    7 ar    
    5    2    3 ar    
    6    3    4 ar    
    7    4    5 ar    
    8    4   22 1     
    9    5    6 ar    
   10    6   11 1     
   11    6    7 ar    
   12    7    8 1     
   13    8    9 2     
   14    9   10 1     
   15    9   11 1     
   16   11   12 1     
   17   12   19 1     
   18   12   13 1     
   19   12   23 1     
   20   13   14 1     
   21   13   24 1     
   22   13   25 1     
   23   14   15 1     
   24   14   16 1     
   25   14   26 1     
   26   15   27 1     
   27   16   17 1     
   28   16   19 1     
   29   16   28 1     
   30   17   18 1     
   31   17   29 1     
   32   17   30 1     
   33   18   31 1     
   34    3   32 1     
   35    5   33 1     
   36    8   34 1     
   37   15   35 1     
   38   15   36 1     
   39   18   37 1     
   40   18   38 1     
   41   19   39 1     
   42   19   40 1     
@<TRIPOS>SUBSTRUCTURE
      1 S1             1
@<TRIPOS>SET
LONE_PAIRS      STATIC     ATOMS    <user>   **** ""
9 32 33 34 35 36 37 38 39 40
DONOR_HYDROGENS      STATIC     ATOMS    <user>   **** ""
4 20 21 27 31
ATOM$BLUE        STATIC     ATOMS    COLORGROUP SYSTEM
9 32 33 34 35 36 37 38 39 40
ATOM$RED        STATIC     ATOMS    COLORGROUP SYSTEM
4 20 21 27 31
