AV-unprocessed.smi:1610|AV-procd|sdf|6471|dock1
  -GOLD-   22720 7123D 1   1.00000     0.00000
 Structure written by MMmdl.
 45 46  0  0  0  0  0  0  0  0  2 V2000
  154.9559  132.8813  161.8067 C   0  0  0  0  0  0  0  0  0  0  0  0
  155.4835  133.7496  160.2736 S   0  0  0  0  0  0  0  0  0  0  0  0
  156.2269  132.8044  159.4265 O   0  0  0  0  0  0  0  0  0  0  0  0
  154.3258  134.4786  159.7346 O   0  0  0  0  0  0  0  0  0  0  0  0
  156.6007  134.9272  160.8595 N   0  0  0  0  0  0  0  0  0  0  0  0
  156.2489  135.8314  161.9562 C   0  0  0  0  0  0  0  0  0  0  0  0
  154.9164  136.5471  161.6493 C   0  0  0  0  0  0  0  0  0  0  0  0
  154.6263  137.6369  162.6962 C   0  0  0  0  0  0  0  0  0  0  0  0
  155.7609  138.5760  162.7275 N   0  0  0  0  0  0  0  0  0  0  0  0
  155.7738  139.8404  162.2337 C   0  0  0  0  0  0  0  0  0  0  0  0
  156.8017  140.5075  162.1084 O   0  0  0  0  0  0  0  0  0  0  0  0
  154.5693  140.3207  161.8840 N   0  0  0  0  0  0  0  0  0  0  0  0
  154.3346  141.6472  161.3314 C   0  0  0  0  0  0  0  0  0  0  0  0
  153.1981  141.6090  160.3014 C   0  0  0  0  0  0  0  0  0  0  0  0
  152.7341  142.9995  159.9135 C   0  0  0  0  0  0  0  0  0  0  0  0
  152.3692  143.9382  160.9039 C   0  0  0  0  0  0  0  0  0  0  0  0
  151.9360  145.2224  160.5129 C   0  0  0  0  0  0  0  0  0  0  0  0
  151.8769  145.5387  159.1401 C   0  0  0  0  0  0  0  0  0  0  0  0
  152.2332  144.6143  158.2212 N   0  3  0  0  0  0  0  0  0  0  0  0
  152.6529  143.3741  158.5548 C   0  0  0  0  0  0  0  0  0  0  0  0
  156.9806  137.9165  163.2117 C   0  0  0  0  0  0  0  0  0  0  0  0
  157.3957  136.8349  162.1970 C   0  0  0  0  0  0  0  0  0  0  0  0
  154.1966  132.1406  161.5576 H   0  0  0  0  0  0  0  0  0  0  0  0
  154.5409  133.6015  162.5113 H   0  0  0  0  0  0  0  0  0  0  0  0
  155.8113  132.3791  162.2575 H   0  0  0  0  0  0  0  0  0  0  0  0
  157.2220  135.3146  160.1495 H   0  0  0  0  0  0  0  0  0  0  0  0
  156.1220  135.2457  162.8677 H   0  0  0  0  0  0  0  0  0  0  0  0
  154.9578  137.0031  160.6589 H   0  0  0  0  0  0  0  0  0  0  0  0
  154.0968  135.8291  161.6253 H   0  0  0  0  0  0  0  0  0  0  0  0
  153.6656  138.1075  162.4870 H   0  0  0  0  0  0  0  0  0  0  0  0
  154.5120  137.1820  163.6813 H   0  0  0  0  0  0  0  0  0  0  0  0
  153.7649  139.7237  162.0101 H   0  0  0  0  0  0  0  0  0  0  0  0
  154.0863  142.3315  162.1440 H   0  0  0  0  0  0  0  0  0  0  0  0
  155.2487  142.0180  160.8639 H   0  0  0  0  0  0  0  0  0  0  0  0
  153.5236  141.0807  159.4041 H   0  0  0  0  0  0  0  0  0  0  0  0
  152.3507  141.0483  160.6984 H   0  0  0  0  0  0  0  0  0  0  0  0
  152.4181  143.6780  161.9514 H   0  0  0  0  0  0  0  0  0  0  0  0
  151.6523  145.9536  161.2556 H   0  0  0  0  0  0  0  0  0  0  0  0
  151.5572  146.4951  158.7520 H   0  0  0  0  0  0  0  0  0  0  0  0
  152.9074  142.7242  157.7299 H   0  0  0  0  0  0  0  0  0  0  0  0
  157.8051  138.6132  163.3691 H   0  0  0  0  0  0  0  0  0  0  0  0
  156.7876  137.4639  164.1855 H   0  0  0  0  0  0  0  0  0  0  0  0
  158.2836  136.3105  162.5522 H   0  0  0  0  0  0  0  0  0  0  0  0
  157.6746  137.3144  161.2573 H   0  0  0  0  0  0  0  0  0  0  0  0
  152.1824  144.8634  157.2329 H   0  0  0  0  0  0  0  0  0  0  0  0
  1  2  1  0  0  0  0
  1 23  1  0  0  0  0
  1 24  1  0  0  0  0
  1 25  1  0  0  0  0
  2  3  2  0  0  0  0
  2  4  2  0  0  0  0
  2  5  1  0  0  0  0
  5  6  1  0  0  0  0
  5 26  1  0  0  0  0
  6 22  1  0  0  0  0
  6  7  1  0  0  0  0
  6 27  1  0  0  0  0
  7  8  1  0  0  0  0
  7 28  1  0  0  0  0
  7 29  1  0  0  0  0
  8  9  1  0  0  0  0
  8 30  1  0  0  0  0
  8 31  1  0  0  0  0
  9 10  1  0  0  0  0
  9 21  1  0  0  0  0
 10 11  2  0  0  0  0
 10 12  1  0  0  0  0
 12 13  1  0  0  0  0
 12 32  1  0  0  0  0
 13 14  1  0  0  0  0
 13 33  1  0  0  0  0
 13 34  1  0  0  0  0
 14 15  1  0  0  0  0
 14 35  1  0  0  0  0
 14 36  1  0  0  0  0
 15 20  1  0  0  0  0
 15 16  2  0  0  0  0
 16 17  1  0  0  0  0
 16 37  1  0  0  0  0
 17 18  2  0  0  0  0
 17 38  1  0  0  0  0
 18 19  1  0  0  0  0
 18 39  1  0  0  0  0
 19 20  2  0  0  0  0
 19 45  1  0  0  0  0
 20 40  1  0  0  0  0
 21 22  1  0  0  0  0
 21 41  1  0  0  0  0
 21 42  1  0  0  0  0
 22 43  1  0  0  0  0
 22 44  1  0  0  0  0
M  CHG  1  19   1
M  END
> <s_m_source_file>
AV-unprocessed.smi

> <i_m_source_file_index>
1610

> <i_lp_mmshare_version>
43012

> <i_f3d_flags>
0

> <s_epik_input>
W0NIM11TKD1PKSg9TylbTkhdW0NIXTFbQ0gyXVtDSDJdTihbQ0gyXVtDSDJdMSlDKD1PKVtOSF1bQ0gyXVtDSDJdYzJbY0hdW2NIXVtjSF1uW2NIXTI=

> <s_epik_cmdline>
J2VwaWtfcHl0aG9uJywgJy1waCcsICc3LjAnLCAnLXRuJywgJzgnLCAnLW1hJywgJzIwMCcsICctbWV0YWxfYmluZGluZycsICctaW1hZScsICc8aW5maWxlLm1hZT4nLCAnLW9tYWUnLCAnPG91dGZpbGUubWFlPic=

> <r_epik_Ionization_Penalty>
2.20747

> <r_epik_Ionization_Penalty_Charging>
2.20741

> <r_epik_Ionization_Penalty_Neutral>
6.06433e-05

> <r_epik_State_Penalty>
2.35137

> <r_epik_Charging_Adjusted_Penalty>
4.55877

> <i_epik_Tot_Q>
1

> <i_epik_Tot_abs_Q>
1

> <r_epik_Metal_State_Penalty>
2.37242

> <b_epik_Metal_Only>
0

> <s_lp_Force_Field>
OPLS_2005

> <r_lp_Energy>
29.2562

> <b_lp_Chiralities_Consistent>
1

> <s_lp_Variant>
AV-unprocessed.smi:1610-2

> <Gold.Version>
5.8.1

> <Gold.Id.Protein>
6NUR|6NUR_protein|mol2

> <Gold.PLP.Fitness>
41.9296

> <Gold.PLP.PLP>
-39.5507

> <Gold.PLP.part.hbond>
-2.0000

> <Gold.PLP.part.metal>
0.0000

> <Gold.PLP.part.buried>
-4.1452

> <Gold.PLP.part.nonpolar>
-33.5750

> <Gold.PLP.part.repulsive>
0.0496

> <Gold.PLP.ligand.clash>
0.0000

> <Gold.PLP.ligand.torsion>
0.8799

> <Gold.PLP.Chemscore.Hbond>
1.0000

> <Gold.PLP.Chemscore.CHOScore>
0.0000

> <Gold.PLP.Chemscore.Metal>
0.0000

> <Gold.Chemscore.Hbonds>
donor molecule, donor type, donor heavy atom, donor atom, acceptor molecule, acceptor atom, score
      P1  H  6896  6909       L1     4  1.00

> <Gold.PLP.Chemscore.Internal.Correction>
1.1387

> <Gold.Rescore>
     Score         DG    S(hbond)    S(metal)    S(lipo)     H(rot)  DE(clash)    DE(int)     intcor
     14.18     -16.99       1.00        0.00     109.45       1.81       1.19       1.62       ----

> <Gold.Chemscore.Fitness>
14.1762

> <Gold.Chemscore.DG>
-16.9858

> <Gold.Chemscore.ZeroCoef>
-5.4800

> <Gold.Chemscore.Hbond>
1.0000

> <Gold.Chemscore.Metal>
0.0000

> <Gold.Chemscore.Lipo>
109.4468

> <Gold.Chemscore.Internal_Hbond>
0.0000

> <Gold.Chemscore.DEClash>
1.1881

> <Gold.Chemscore.DEInternal>
1.6214

> <Gold.Chemscore.Rot>
1.8123

> <Gold.Chemscore.Internal.Correction>
   9.000000E+99

> <Gold.Chemscore.Hbonds>
donor molecule, donor type, donor heavy atom, donor atom, acceptor molecule, acceptor atom, score
      P1  H  6896  6909       L1     4  1.00

> <Gold.Chemscore.Hbond.Weighted>
-3.3400

> <Gold.Chemscore.Metal.Weighted>
-0.0000

> <Gold.Chemscore.Lipo.Weighted>
-12.8053

> <Gold.Chemscore.Internal_Hbond.Weighted>
0.0000

> <Gold.Chemscore.DEClash.Weighted>
1.1881

> <Gold.Chemscore.DEInternal.Weighted>
1.6214

> <Gold.Chemscore.Rot.Weighted>
4.6395

> <Gold.Chemscore.Internal.Correction.Weighted>
   9.000000E+99

> <Gold.Protein.RotatedTorsions>
[ 6907 6896 6895 6894 ] final -158.46 input  -60.11 | X-H torsion
[ 7974 7965 7964 7962 ] final  115.60 input  175.53 | X-H torsion
[ 8008 7997 7996 7995 ] final   91.63 input   59.86 | X-H torsion
[ 10167 10162 10161 10158 ] final   83.11 input  -65.29 | X-H torsion
[ 10718 10713 10712 10709 ] final  -88.24 input   66.30 | X-H torsion
[ 10763 10752 10751 10750 ] final  164.55 input  -60.55 | X-H torsion
[ 11005 11000 10999 10996 ] final -157.14 input  -57.11 | X-H torsion

> <Gold.Protein.ActiveResidues>
 VAL166  LYS551  ARG553  GLY616  TRP617  ASP618  TYR619  PRO620  LYS621  CYS622 
 ASP623  PHE694  ASN695  SER759  ASP760  ASP761  ALA762  ILE779  LEU786  VAL792 
 PHE793  MET794  SER795  GLU796  ALA797  LYS798  CYS799  TRP800  GLU811  SER814 

> <Gold.Protein.RotatedAtoms>
  151.3185  133.4050  159.2652 H   0  0  0  0  0  0  0  0  0  0  0  0  # atno 6907 bound_to 6896
  151.0054  134.9356  159.7988 H   0  0  0  0  0  0  0  0  0  0  0  0  # atno 6908 bound_to 6896
  152.5286  134.3150  159.9180 H   0  0  0  0  0  0  0  0  0  0  0  0  # atno 6909 bound_to 6896
  145.1900  139.3005  143.4373 H   0  0  0  0  0  0  0  0  0  0  0  0  # atno 7974 bound_to 7965
  156.0260  140.3335  155.7089 H   0  0  0  0  0  0  0  0  0  0  0  0  # atno 8008 bound_to 7997
  155.5954  140.0650  157.2765 H   0  0  0  0  0  0  0  0  0  0  0  0  # atno 8009 bound_to 7997
  154.4334  140.1820  156.1106 H   0  0  0  0  0  0  0  0  0  0  0  0  # atno 8010 bound_to 7997
  139.9218  144.6208  150.8433 H   0  0  0  0  0  0  0  0  0  0  0  0  # atno 10167 bound_to 10162
  155.9984  130.4829  150.4989 H   0  0  0  0  0  0  0  0  0  0  0  0  # atno 10718 bound_to 10713
  154.3106  135.2757  155.2568 H   0  0  0  0  0  0  0  0  0  0  0  0  # atno 10763 bound_to 10752
  154.4964  135.5820  153.6501 H   0  0  0  0  0  0  0  0  0  0  0  0  # atno 10764 bound_to 10752
  152.9888  135.6147  154.3283 H   0  0  0  0  0  0  0  0  0  0  0  0  # atno 10765 bound_to 10752
  140.6679  134.4279  157.5232 H   0  0  0  0  0  0  0  0  0  0  0  0  # atno 11005 bound_to 11000
  146.3438  140.2109  142.8590 LP  0  0  0  0  0  0  0  0  0  0  0  0  # atno 17320 bound_to 7965
  145.0051  140.8666  143.5258 LP  0  0  0  0  0  0  0  0  0  0  0  0  # atno 17321 bound_to 7965
  140.7660  143.3292  151.2448 LP  0  0  0  0  0  0  0  0  0  0  0  0  # atno 17342 bound_to 10162
  139.6855  143.9780  152.2832 LP  0  0  0  0  0  0  0  0  0  0  0  0  # atno 17343 bound_to 10162
  157.2976  131.0639  151.2091 LP  0  0  0  0  0  0  0  0  0  0  0  0  # atno 17370 bound_to 10713
  157.3081  130.6876  149.6200 LP  0  0  0  0  0  0  0  0  0  0  0  0  # atno 17371 bound_to 10713
  139.8991  134.8598  156.1973 LP  0  0  0  0  0  0  0  0  0  0  0  0  # atno 17394 bound_to 11000
  141.0415  133.6935  156.1607 LP  0  0  0  0  0  0  0  0  0  0  0  0  # atno 17395 bound_to 11000

$$$$
