AV-unprocessed.smi:2926|AV-procd|sdf|11228|dock8
  -GOLD-   2272016123D 1   1.00000     0.00000
 Structure written by MMmdl.
 31 31  0  0  0  0  0  0  0  0  2 V2000
  153.0227  142.9010  159.9814 C   0  0  0  0  0  0  0  0  0  0  0  0
  152.2706  143.3399  158.7015 C   0  0  0  0  0  0  0  0  0  0  0  0
  152.4027  144.8730  158.5540 C   0  0  0  0  0  0  0  0  0  0  0  0
  150.7930  142.8341  158.6612 C   0  0  1  0  0  0  0  0  0  0  0  0
  149.7848  143.7144  159.4358 C   0  0  0  0  0  0  0  0  0  0  0  0
  148.5855  143.0242  159.7325 O   0  0  0  0  0  0  0  0  0  0  0  0
  150.3495  142.7099  157.2769 N   0  5  0  0  0  0  0  0  0  0  0  0
  150.0858  141.2394  156.6458 S   0  0  0  0  0  0  0  0  0  0  0  0
  149.6665  140.2564  157.6587 O   0  0  0  0  0  0  0  0  0  0  0  0
  149.2967  141.3027  155.4046 O   0  0  0  0  0  0  0  0  0  0  0  0
  151.7960  140.7708  156.1286 C   0  0  0  0  0  0  0  0  0  0  0  0
  151.7875  139.4653  155.3803 C   0  0  0  0  0  0  0  0  0  0  0  0
  150.6696  138.7306  154.8955 C   0  0  0  0  0  0  0  0  0  0  0  0
  151.2359  137.6389  154.3042 C   0  0  0  0  0  0  0  0  0  0  0  0
  152.5870  137.6825  154.4215 O   0  0  0  0  0  0  0  0  0  0  0  0
  152.9297  138.8497  155.1137 N   0  0  0  0  0  0  0  0  0  0  0  0
  150.7892  141.8605  159.1538 H   0  0  0  0  0  0  0  0  0  0  0  0
  152.5607  143.2992  160.8868 H   0  0  0  0  0  0  0  0  0  0  0  0
  154.0520  143.2599  159.9640 H   0  0  0  0  0  0  0  0  0  0  0  0
  153.0794  141.8163  160.0870 H   0  0  0  0  0  0  0  0  0  0  0  0
  152.7985  142.8978  157.8550 H   0  0  0  0  0  0  0  0  0  0  0  0
  151.8771  145.4117  159.3450 H   0  0  0  0  0  0  0  0  0  0  0  0
  152.0322  145.2347  157.5938 H   0  0  0  0  0  0  0  0  0  0  0  0
  153.4496  145.1733  158.6058 H   0  0  0  0  0  0  0  0  0  0  0  0
  150.2249  144.0589  160.3723 H   0  0  0  0  0  0  0  0  0  0  0  0
  149.5421  144.6139  158.8707 H   0  0  0  0  0  0  0  0  0  0  0  0
  147.8569  143.5733  159.4881 H   0  0  0  0  0  0  0  0  0  0  0  0
  152.1778  141.5736  155.4975 H   0  0  0  0  0  0  0  0  0  0  0  0
  152.4293  140.7240  157.0141 H   0  0  0  0  0  0  0  0  0  0  0  0
  149.6196  138.9749  154.9637 H   0  0  0  0  0  0  0  0  0  0  0  0
  150.8314  136.7826  153.7854 H   0  0  0  0  0  0  0  0  0  0  0  0
  1  2  1  0  0  0  0
  1 18  1  0  0  0  0
  1 19  1  0  0  0  0
  1 20  1  0  0  0  0
  2  3  1  0  0  0  0
  2  4  1  0  0  0  0
  2 21  1  0  0  0  0
  3 22  1  0  0  0  0
  3 23  1  0  0  0  0
  3 24  1  0  0  0  0
  4 17  1  0  0  0  0
  4  5  1  0  0  0  0
  4  7  1  0  0  0  0
  5  6  1  0  0  0  0
  5 25  1  0  0  0  0
  5 26  1  0  0  0  0
  6 27  1  0  0  0  0
  7  8  1  0  0  0  0
  8  9  2  0  0  0  0
  8 10  2  0  0  0  0
  8 11  1  0  0  0  0
 11 12  1  0  0  0  0
 11 28  1  0  0  0  0
 11 29  1  0  0  0  0
 12 16  2  0  0  0  0
 12 13  1  0  0  0  0
 13 14  2  0  0  0  0
 13 30  1  0  0  0  0
 14 15  1  0  0  0  0
 14 31  1  0  0  0  0
 15 16  1  0  0  0  0
M  CHG  1   7  -1
M  END
> <s_m_source_file>
AV-unprocessed.smi

> <i_m_source_file_index>
2926

> <i_lp_mmshare_version>
43012

> <i_f3d_flags>
0

> <s_epik_input>
W0NIM11bQ0hdKFtDSDNdKVtDQEBIXShbQ0gyXVtPSF0pW05IXVMoPU8pKD1PKVtDSDJdYzFbY0hdW2NIXW9uMQ==

> <s_epik_cmdline>
J2VwaWtfcHl0aG9uJywgJy1waCcsICc3LjAnLCAnLXRuJywgJzgnLCAnLW1hJywgJzIwMCcsICctbWV0YWxfYmluZGluZycsICctaW1hZScsICc8aW5maWxlLm1hZT4nLCAnLW9tYWUnLCAnPG91dGZpbGUubWFlPic=

> <r_lp_tautomer_probability>
1

> <r_epik_Ionization_Penalty>
4.75719

> <r_epik_Ionization_Penalty_Charging>
4.75718

> <r_epik_Ionization_Penalty_Neutral>
1.48962e-06

> <r_epik_State_Penalty>
4.75699

> <r_epik_Charging_Adjusted_Penalty>
9.51417

> <i_epik_Tot_Q>
-1

> <i_epik_Tot_abs_Q>
1

> <r_epik_Metal_State_Penalty>
0.961449

> <b_epik_Metal_Only>
1

> <s_lp_Force_Field>
OPLS_2005

> <r_lp_Energy>
4.17098

> <b_lp_Chiralities_Consistent>
1

> <s_lp_Variant>
AV-unprocessed.smi:2926-3

> <Gold.Version>
5.8.1

> <Gold.Id.Protein>
6NUR|6NUR_protein|mol2

> <Gold.PLP.Fitness>
38.2050

> <Gold.PLP.PLP>
-30.9098

> <Gold.PLP.part.hbond>
-3.0000

> <Gold.PLP.part.metal>
0.0000

> <Gold.PLP.part.buried>
-6.3709

> <Gold.PLP.part.nonpolar>
-24.8626

> <Gold.PLP.part.repulsive>
1.9652

> <Gold.PLP.ligand.clash>
0.0000

> <Gold.PLP.ligand.torsion>
1.2955

> <Gold.PLP.Chemscore.Hbond>
1.8740

> <Gold.PLP.Chemscore.CHOScore>
1.0644

> <Gold.PLP.Chemscore.Metal>
0.0000

> <Gold.Chemscore.Hbonds>
donor molecule, donor type, donor heavy atom, donor atom, acceptor molecule, acceptor atom, score
      P1  H  6933  6944       L1     6  0.50
      P1  H  7997  8009       L1    16  0.67
      P1  H 10752 10764       L1    15  0.47
      L1  C    14    31       P1  7948  0.19
      L1  C    14    31       P1  7949  0.85

> <Gold.PLP.Chemscore.Internal.Correction>
1.0710

> <Gold.Rescore>
     Score         DG    S(hbond)    S(metal)    S(lipo)     H(rot)  DE(clash)    DE(int)     intcor
     10.75     -12.40       1.42        0.00      74.91       2.58       0.09       1.57       ----

> <Gold.Chemscore.Fitness>
10.7472

> <Gold.Chemscore.DG>
-12.3995

> <Gold.Chemscore.ZeroCoef>
-5.4800

> <Gold.Chemscore.Hbond>
1.4233

> <Gold.Chemscore.Metal>
0.0000

> <Gold.Chemscore.Lipo>
74.9096

> <Gold.Chemscore.Internal_Hbond>
0.0000

> <Gold.Chemscore.DEClash>
0.0859

> <Gold.Chemscore.DEInternal>
1.5664

> <Gold.Chemscore.Rot>
2.5776

> <Gold.Chemscore.Internal.Correction>
   9.000000E+99

> <Gold.Chemscore.Hbonds>
donor molecule, donor type, donor heavy atom, donor atom, acceptor molecule, acceptor atom, score
      P1  H  6933  6944       L1     6  0.39
      P1  H  7997  8009       L1    16  0.26
      P1  H 10752 10764       L1    15  0.10

> <Gold.Chemscore.Hbond.Weighted>
-4.7538

> <Gold.Chemscore.Metal.Weighted>
-0.0000

> <Gold.Chemscore.Lipo.Weighted>
-8.7644

> <Gold.Chemscore.Internal_Hbond.Weighted>
0.0000

> <Gold.Chemscore.DEClash.Weighted>
0.0859

> <Gold.Chemscore.DEInternal.Weighted>
1.5664

> <Gold.Chemscore.Rot.Weighted>
6.5987

> <Gold.Chemscore.Internal.Correction.Weighted>
   9.000000E+99

> <Gold.Protein.RotatedTorsions>
[ 6907 6896 6895 6894 ] final  130.75 input  -60.11 | X-H torsion
[ 7974 7965 7964 7962 ] final    7.59 input  175.53 | X-H torsion
[ 8008 7997 7996 7995 ] final -141.31 input   59.86 | X-H torsion
[ 10167 10162 10161 10158 ] final  156.82 input  -65.29 | X-H torsion
[ 10718 10713 10712 10709 ] final  129.18 input   66.30 | X-H torsion
[ 10763 10752 10751 10750 ] final  -72.08 input  -60.55 | X-H torsion
[ 11005 11000 10999 10996 ] final -102.16 input  -57.11 | X-H torsion

> <Gold.Protein.ActiveResidues>
 VAL166  LYS551  ARG553  GLY616  TRP617  ASP618  TYR619  PRO620  LYS621  CYS622 
 ASP623  PHE694  ASN695  SER759  ASP760  ASP761  ALA762  ILE779  LEU786  VAL792 
 PHE793  MET794  SER795  GLU796  ALA797  LYS798  CYS799  TRP800  GLU811  SER814 

> <Gold.Protein.RotatedAtoms>
  152.3495  133.6162  159.5934 H   0  0  0  0  0  0  0  0  0  0  0  0  # atno 6907 bound_to 6896
  150.7529  133.9596  159.3520 H   0  0  0  0  0  0  0  0  0  0  0  0  # atno 6908 bound_to 6896
  151.7450  135.0846  160.0373 H   0  0  0  0  0  0  0  0  0  0  0  0  # atno 6909 bound_to 6896
  146.2425  140.0061  142.8411 H   0  0  0  0  0  0  0  0  0  0  0  0  # atno 7974 bound_to 7965
  155.4757  140.0556  157.2974 H   0  0  0  0  0  0  0  0  0  0  0  0  # atno 8008 bound_to 7997
  154.4680  140.2027  156.0020 H   0  0  0  0  0  0  0  0  0  0  0  0  # atno 8009 bound_to 7997
  156.1008  140.3219  155.7944 H   0  0  0  0  0  0  0  0  0  0  0  0  # atno 8010 bound_to 7997
  139.4822  144.4974  151.8219 H   0  0  0  0  0  0  0  0  0  0  0  0  # atno 10167 bound_to 10162
  157.5177  131.1098  150.9200 H   0  0  0  0  0  0  0  0  0  0  0  0  # atno 10718 bound_to 10713
  154.4408  135.5941  153.6128 H   0  0  0  0  0  0  0  0  0  0  0  0  # atno 10763 bound_to 10752
  152.9805  135.5997  154.3725 H   0  0  0  0  0  0  0  0  0  0  0  0  # atno 10764 bound_to 10752
  154.3575  135.2841  155.2317 H   0  0  0  0  0  0  0  0  0  0  0  0  # atno 10765 bound_to 10752
  141.1201  133.8536  157.1324 H   0  0  0  0  0  0  0  0  0  0  0  0  # atno 11005 bound_to 11000
  145.1371  140.9550  143.4510 LP  0  0  0  0  0  0  0  0  0  0  0  0  # atno 17320 bound_to 7965
  145.0332  139.3323  143.6014 LP  0  0  0  0  0  0  0  0  0  0  0  0  # atno 17321 bound_to 7965
  140.4464  144.1916  150.5894 LP  0  0  0  0  0  0  0  0  0  0  0  0  # atno 17342 bound_to 10162
  140.4631  143.2441  151.9193 LP  0  0  0  0  0  0  0  0  0  0  0  0  # atno 17343 bound_to 10162
  156.9820  130.5530  149.5297 LP  0  0  0  0  0  0  0  0  0  0  0  0  # atno 17370 bound_to 10713
  156.0332  130.5421  150.8587 LP  0  0  0  0  0  0  0  0  0  0  0  0  # atno 17371 bound_to 10713
  140.0152  134.9971  157.0477 LP  0  0  0  0  0  0  0  0  0  0  0  0  # atno 17394 bound_to 11000
  140.4533  134.1560  155.7183 LP  0  0  0  0  0  0  0  0  0  0  0  0  # atno 17395 bound_to 11000

$$$$
