AV-unprocessed.smi:3170|AV-procd|sdf|12110|dock10
  -GOLD-   2272017553D 1   1.00000     0.00000
 Structure written by MMmdl.
 35 36  0  0  0  0  0  0  0  0  1 V2000
  144.8304  137.6879  153.0767 O   0  0  0  0  0  0  0  0  0  0  0  0
  145.9620  137.3968  152.6890 C   0  0  0  0  0  0  0  0  0  0  0  0
  146.2194  136.5001  151.7271 N   0  0  0  0  0  0  0  0  0  0  0  0
  145.2092  135.7464  150.9905 C   0  0  0  0  0  0  0  0  0  0  0  0
  145.1364  134.2704  151.4266 C   0  0  0  0  0  0  0  0  0  0  0  0
  144.4446  133.4426  150.4566 N   0  0  0  0  0  0  0  0  0  0  0  0
  144.0894  133.7894  149.1601 C   0  0  0  0  0  0  0  0  0  0  0  0
  143.4511  132.6949  148.6217 C   0  0  0  0  0  0  0  0  0  0  0  0
  143.4018  131.6702  149.5638 N   0  0  0  0  0  0  0  0  0  0  0  0
  144.0117  132.1854  150.6234 C   0  0  0  0  0  0  0  0  0  0  0  0
  147.0840  137.9435  153.1733 N   0  0  0  0  0  0  0  0  0  0  0  0
  147.1185  138.9578  154.2186 C   0  0  0  0  0  0  0  0  0  0  0  0
  148.3420  139.8745  154.0578 C   0  0  1  0  0  0  0  0  0  0  0  0
  148.4377  140.9625  155.1072 C   0  0  0  0  0  0  0  0  0  0  0  0
  149.9032  141.3732  155.0030 C   0  0  0  0  0  0  0  0  0  0  0  0
  150.6100  140.1987  154.6135 O   0  0  0  0  0  0  0  0  0  0  0  0
  149.6918  139.1770  154.2357 C   0  0  0  0  0  0  0  0  0  0  0  0
  147.1831  136.3320  151.4780 H   0  0  0  0  0  0  0  0  0  0  0  0
  144.2429  136.2280  151.1433 H   0  0  0  0  0  0  0  0  0  0  0  0
  145.4174  135.8091  149.9213 H   0  0  0  0  0  0  0  0  0  0  0  0
  146.1440  133.8736  151.5551 H   0  0  0  0  0  0  0  0  0  0  0  0
  144.6402  134.1721  152.3930 H   0  0  0  0  0  0  0  0  0  0  0  0
  144.3131  134.7590  148.7403 H   0  0  0  0  0  0  0  0  0  0  0  0
  143.0263  132.5672  147.6370 H   0  0  0  0  0  0  0  0  0  0  0  0
  144.1411  131.6376  151.5454 H   0  0  0  0  0  0  0  0  0  0  0  0
  147.9696  137.6442  152.7921 H   0  0  0  0  0  0  0  0  0  0  0  0
  146.2025  139.5479  154.1678 H   0  0  0  0  0  0  0  0  0  0  0  0
  147.1354  138.4777  155.1986 H   0  0  0  0  0  0  0  0  0  0  0  0
  148.3173  140.3460  153.0736 H   0  0  0  0  0  0  0  0  0  0  0  0
  147.7510  141.7909  154.9310 H   0  0  0  0  0  0  0  0  0  0  0  0
  148.2351  140.5552  156.0988 H   0  0  0  0  0  0  0  0  0  0  0  0
  150.0325  142.1282  154.2266 H   0  0  0  0  0  0  0  0  0  0  0  0
  150.2888  141.7798  155.9381 H   0  0  0  0  0  0  0  0  0  0  0  0
  149.6451  138.4429  155.0412 H   0  0  0  0  0  0  0  0  0  0  0  0
  150.0195  138.6640  153.3312 H   0  0  0  0  0  0  0  0  0  0  0  0
  1  2  2  0  0  0  0
  2  3  1  0  0  0  0
  2 11  1  0  0  0  0
  3  4  1  0  0  0  0
  3 18  1  0  0  0  0
  4  5  1  0  0  0  0
  4 19  1  0  0  0  0
  4 20  1  0  0  0  0
  5  6  1  0  0  0  0
  5 21  1  0  0  0  0
  5 22  1  0  0  0  0
  6 10  1  0  0  0  0
  6  7  1  0  0  0  0
  7  8  2  0  0  0  0
  7 23  1  0  0  0  0
  8  9  1  0  0  0  0
  8 24  1  0  0  0  0
  9 10  2  0  0  0  0
 10 25  1  0  0  0  0
 11 12  1  0  0  0  0
 11 26  1  0  0  0  0
 12 13  1  0  0  0  0
 12 27  1  0  0  0  0
 12 28  1  0  0  0  0
 13 17  1  0  0  0  0
 13 14  1  0  0  0  0
 13 29  1  0  0  0  0
 14 15  1  0  0  0  0
 14 30  1  0  0  0  0
 14 31  1  0  0  0  0
 15 16  1  0  0  0  0
 15 32  1  0  0  0  0
 15 33  1  0  0  0  0
 16 17  1  0  0  0  0
 17 34  1  0  0  0  0
 17 35  1  0  0  0  0
M  END
> <s_m_source_file>
AV-unprocessed.smi

> <i_m_source_file_index>
3170

> <i_lp_mmshare_version>
43012

> <i_f3d_flags>
0

> <s_epik_input>
W0NIMl0xT1tDSDJdW0NIMl1bQ0BIXTFbQ0gyXVtOSF1DKD1PKVtOSF1bQ0gyXVtDSDJdbjJbY0hdW2NIXW5bY0hdMg==

> <s_epik_cmdline>
J2VwaWtfcHl0aG9uJywgJy1waCcsICc3LjAnLCAnLXRuJywgJzgnLCAnLW1hJywgJzIwMCcsICctbWV0YWxfYmluZGluZycsICctaW1hZScsICc8aW5maWxlLm1hZT4nLCAnLW9tYWUnLCAnPG91dGZpbGUubWFlPic=

> <r_lp_tautomer_probability>
1

> <r_epik_Ionization_Penalty>
0.621287

> <r_epik_Ionization_Penalty_Charging>
0.621234

> <r_epik_Ionization_Penalty_Neutral>
5.30999e-05

> <r_epik_State_Penalty>
0.637278

> <r_epik_Charging_Adjusted_Penalty>
1.25851

> <i_epik_Tot_Q>
0

> <i_epik_Tot_abs_Q>
0

> <r_epik_Metal_State_Penalty>
0.306756

> <b_epik_Metal_Only>
0

> <s_lp_Force_Field>
OPLS_2005

> <r_lp_Energy>
18.1747

> <b_lp_Chiralities_Consistent>
1

> <s_lp_Variant>
AV-unprocessed.smi:3170-4

> <Gold.Version>
5.8.1

> <Gold.Id.Protein>
6NUR|6NUR_protein|mol2

> <Gold.PLP.Fitness>
44.8661

> <Gold.PLP.PLP>
-29.0302

> <Gold.PLP.part.hbond>
-4.0000

> <Gold.PLP.part.metal>
0.0000

> <Gold.PLP.part.buried>
-1.3398

> <Gold.PLP.part.nonpolar>
-27.2281

> <Gold.PLP.part.repulsive>
1.9794

> <Gold.PLP.ligand.clash>
0.0000

> <Gold.PLP.ligand.torsion>
0.4786

> <Gold.PLP.Chemscore.Hbond>
3.9200

> <Gold.PLP.Chemscore.CHOScore>
1.6655

> <Gold.PLP.Chemscore.Metal>
0.0000

> <Gold.Chemscore.Hbonds>
donor molecule, donor type, donor heavy atom, donor atom, acceptor molecule, acceptor atom, score
      L1  H     3    18       P1  7948  1.00
      L1  H    11    26       P1  7948  0.94
      P1  H  7989  7998       L1    16  0.95
      P1  H 10785 10796       L1     9  1.00
      L1  C     7    23       P1  7921  0.68
      L1  C     8    24       P1 10195  1.00

> <Gold.PLP.Chemscore.Internal.Correction>
0.0364

> <Gold.Rescore>
     Score         DG    S(hbond)    S(metal)    S(lipo)     H(rot)  DE(clash)    DE(int)     intcor
     16.28     -18.30       3.38        0.00      62.09       2.25       1.58       0.43       ----

> <Gold.Chemscore.Fitness>
16.2826

> <Gold.Chemscore.DG>
-18.2956

> <Gold.Chemscore.ZeroCoef>
-5.4800

> <Gold.Chemscore.Hbond>
3.3846

> <Gold.Chemscore.Metal>
0.0000

> <Gold.Chemscore.Lipo>
62.0887

> <Gold.Chemscore.Internal_Hbond>
0.0000

> <Gold.Chemscore.DEClash>
1.5812

> <Gold.Chemscore.DEInternal>
0.4318

> <Gold.Chemscore.Rot>
2.2474

> <Gold.Chemscore.Internal.Correction>
   9.000000E+99

> <Gold.Chemscore.Hbonds>
donor molecule, donor type, donor heavy atom, donor atom, acceptor molecule, acceptor atom, score
      L1  H     3    18       P1  7948  0.98
      L1  H    11    26       P1  7948  0.90
      P1  H  7989  7998       L1    16  0.21
      P1  H 10785 10796       L1     9  0.68

> <Gold.Chemscore.Hbond.Weighted>
-11.3045

> <Gold.Chemscore.Metal.Weighted>
-0.0000

> <Gold.Chemscore.Lipo.Weighted>
-7.2644

> <Gold.Chemscore.Internal_Hbond.Weighted>
0.0000

> <Gold.Chemscore.DEClash.Weighted>
1.5812

> <Gold.Chemscore.DEInternal.Weighted>
0.4318

> <Gold.Chemscore.Rot.Weighted>
5.7532

> <Gold.Chemscore.Internal.Correction.Weighted>
   9.000000E+99

> <Gold.Protein.RotatedTorsions>
[ 6907 6896 6895 6894 ] final -148.05 input  -60.11 | X-H torsion
[ 7974 7965 7964 7962 ] final -177.21 input  175.53 | X-H torsion
[ 8008 7997 7996 7995 ] final  128.71 input   59.86 | X-H torsion
[ 10167 10162 10161 10158 ] final   31.21 input  -65.29 | X-H torsion
[ 10718 10713 10712 10709 ] final   -9.93 input   66.30 | X-H torsion
[ 10763 10752 10751 10750 ] final    3.69 input  -60.55 | X-H torsion
[ 11005 11000 10999 10996 ] final -136.79 input  -57.11 | X-H torsion

> <Gold.Protein.ActiveResidues>
 VAL166  LYS551  ARG553  GLY616  TRP617  ASP618  TYR619  PRO620  LYS621  CYS622 
 ASP623  PHE694  ASN695  SER759  ASP760  ASP761  ALA762  ILE779  LEU786  VAL792 
 PHE793  MET794  SER795  GLU796  ALA797  LYS798  CYS799  TRP800  GLU811  SER814 

> <Gold.Protein.RotatedAtoms>
  151.1643  133.4825  159.2593 H   0  0  0  0  0  0  0  0  0  0  0  0  # atno 6907 bound_to 6896
  151.1422  135.0185  159.8641 H   0  0  0  0  0  0  0  0  0  0  0  0  # atno 6908 bound_to 6896
  152.5462  134.1535  159.8581 H   0  0  0  0  0  0  0  0  0  0  0  0  # atno 6909 bound_to 6896
  144.7127  140.1054  143.6414 H   0  0  0  0  0  0  0  0  0  0  0  0  # atno 7974 bound_to 7965
  156.2921  140.2638  156.2480 H   0  0  0  0  0  0  0  0  0  0  0  0  # atno 8008 bound_to 7997
  154.9911  140.0388  157.2338 H   0  0  0  0  0  0  0  0  0  0  0  0  # atno 8009 bound_to 7997
  154.7685  140.2774  155.6162 H   0  0  0  0  0  0  0  0  0  0  0  0  # atno 8010 bound_to 7997
  140.4609  144.0908  150.6212 H   0  0  0  0  0  0  0  0  0  0  0  0  # atno 10167 bound_to 10162
  156.6809  130.5036  149.5971 H   0  0  0  0  0  0  0  0  0  0  0  0  # atno 10718 bound_to 10713
  153.2802  135.6940  153.7393 H   0  0  0  0  0  0  0  0  0  0  0  0  # atno 10763 bound_to 10752
  153.6383  135.3398  155.3064 H   0  0  0  0  0  0  0  0  0  0  0  0  # atno 10764 bound_to 10752
  154.8493  135.4425  154.1853 H   0  0  0  0  0  0  0  0  0  0  0  0  # atno 10765 bound_to 10752
  140.8772  134.1978  157.4614 H   0  0  0  0  0  0  0  0  0  0  0  0  # atno 11005 bound_to 11000
  145.9501  139.2728  143.1217 LP  0  0  0  0  0  0  0  0  0  0  0  0  # atno 17320 bound_to 7965
  145.9332  140.9033  143.0345 LP  0  0  0  0  0  0  0  0  0  0  0  0  # atno 17321 bound_to 7965
  140.4094  143.2664  151.9851 LP  0  0  0  0  0  0  0  0  0  0  0  0  # atno 17342 bound_to 10162
  139.4806  144.5928  151.7742 LP  0  0  0  0  0  0  0  0  0  0  0  0  # atno 17343 bound_to 10162
  156.1868  130.6534  151.1016 LP  0  0  0  0  0  0  0  0  0  0  0  0  # atno 17370 bound_to 10713
  157.7044  131.0762  150.6716 LP  0  0  0  0  0  0  0  0  0  0  0  0  # atno 17371 bound_to 10713
  139.8716  134.9801  156.5062 LP  0  0  0  0  0  0  0  0  0  0  0  0  # atno 17394 bound_to 11000
  140.8504  133.8136  155.9163 LP  0  0  0  0  0  0  0  0  0  0  0  0  # atno 17395 bound_to 11000

$$$$
