AV-unprocessed.smi:561|AV-procd|sdf|2939|dock9
  -GOLD-   2262023433D 1   1.00000     0.00000
 Structure written by MMmdl.
 36 37  0  0  0  0  0  0  0  0  1 V2000
  145.6077  135.5216  151.8384 C   0  0  0  0  0  0  0  0  0  0  0  0
  146.2824  134.2319  152.3284 C   0  0  1  0  0  0  0  0  0  0  0  0
  146.6861  133.3215  151.1530 C   0  0  0  0  0  0  0  0  0  0  0  0
  145.5366  132.8645  150.3935 N   0  0  0  0  0  0  0  0  0  0  0  0
  144.1972  133.0680  150.6976 C   0  0  0  0  0  0  0  0  0  0  0  0
  143.4708  132.4473  149.7067 C   0  0  0  0  0  0  0  0  0  0  0  0
  144.3372  131.8608  148.7868 N   0  0  0  0  0  0  0  0  0  0  0  0
  145.5426  132.1512  149.2586 C   0  0  0  0  0  0  0  0  0  0  0  0
  147.4603  134.5585  153.1282 N   0  0  0  0  0  0  0  0  0  0  0  0
  147.6981  134.1478  154.3870 C   0  0  0  0  0  0  0  0  0  0  0  0
  146.8927  133.4861  155.0424 O   0  0  0  0  0  0  0  0  0  0  0  0
  149.0186  134.5334  154.9521 C   0  0  0  0  0  0  0  0  0  0  0  0
  149.3869  135.7764  154.9455 N   0  0  0  0  0  0  0  0  0  0  0  0
  150.6093  136.1848  155.4369 N   0  0  0  0  0  0  0  0  0  0  0  0
  150.9509  137.5620  155.0819 C   0  0  0  0  0  0  0  0  0  0  0  0
  151.4294  135.4116  156.1947 C   0  0  0  0  0  0  0  0  0  0  0  0
  152.5316  135.7712  156.6078 O   0  0  0  0  0  0  0  0  0  0  0  0
  150.9047  134.0205  156.5630 C   0  0  0  0  0  0  0  0  0  0  0  0
  149.9379  133.4616  155.5009 C   0  0  0  0  0  0  0  0  0  0  0  0
  144.7139  135.2982  151.2550 H   0  0  0  0  0  0  0  0  0  0  0  0
  146.2789  136.1063  151.2086 H   0  0  0  0  0  0  0  0  0  0  0  0
  145.3034  136.1504  152.6758 H   0  0  0  0  0  0  0  0  0  0  0  0
  145.5655  133.6868  152.9457 H   0  0  0  0  0  0  0  0  0  0  0  0
  147.3482  133.8575  150.4718 H   0  0  0  0  0  0  0  0  0  0  0  0
  147.2408  132.4523  151.5098 H   0  0  0  0  0  0  0  0  0  0  0  0
  143.8813  133.6192  151.5712 H   0  0  0  0  0  0  0  0  0  0  0  0
  142.3997  132.3778  149.5864 H   0  0  0  0  0  0  0  0  0  0  0  0
  146.4520  131.8308  148.7709 H   0  0  0  0  0  0  0  0  0  0  0  0
  148.1783  135.1045  152.6741 H   0  0  0  0  0  0  0  0  0  0  0  0
  151.8780  137.9174  155.5333 H   0  0  0  0  0  0  0  0  0  0  0  0
  150.1569  138.2396  155.3984 H   0  0  0  0  0  0  0  0  0  0  0  0
  151.0564  137.6520  154.0001 H   0  0  0  0  0  0  0  0  0  0  0  0
  151.7371  133.3332  156.7174 H   0  0  0  0  0  0  0  0  0  0  0  0
  150.3883  134.1080  157.5196 H   0  0  0  0  0  0  0  0  0  0  0  0
  149.3604  132.6528  155.9502 H   0  0  0  0  0  0  0  0  0  0  0  0
  150.5028  133.0177  154.6804 H   0  0  0  0  0  0  0  0  0  0  0  0
  1  2  1  0  0  0  0
  1 20  1  0  0  0  0
  1 21  1  0  0  0  0
  1 22  1  0  0  0  0
  2  3  1  0  0  0  0
  2  9  1  0  0  0  0
  2 23  1  0  0  0  0
  3  4  1  0  0  0  0
  3 24  1  0  0  0  0
  3 25  1  0  0  0  0
  4  8  1  0  0  0  0
  4  5  1  0  0  0  0
  5  6  2  0  0  0  0
  5 26  1  0  0  0  0
  6  7  1  0  0  0  0
  6 27  1  0  0  0  0
  7  8  2  0  0  0  0
  8 28  1  0  0  0  0
  9 10  1  0  0  0  0
  9 29  1  0  0  0  0
 10 11  2  0  0  0  0
 10 12  1  0  0  0  0
 12 19  1  0  0  0  0
 12 13  2  0  0  0  0
 13 14  1  0  0  0  0
 14 15  1  0  0  0  0
 14 16  1  0  0  0  0
 15 30  1  0  0  0  0
 15 31  1  0  0  0  0
 15 32  1  0  0  0  0
 16 17  2  0  0  0  0
 16 18  1  0  0  0  0
 18 19  1  0  0  0  0
 18 33  1  0  0  0  0
 18 34  1  0  0  0  0
 19 35  1  0  0  0  0
 19 36  1  0  0  0  0
M  END
> <s_m_source_file>
AV-unprocessed.smi

> <i_m_source_file_index>
561

> <i_lp_mmshare_version>
43012

> <i_f3d_flags>
0

> <s_epik_input>
W2NIXTFuW2NIXVtjSF1uMVtDSDJdW0NAQEhdKFtDSDNdKVtOSF1DKD1PKUMyPU5OKFtDSDNdKUMoPU8pW0NIMl1bQ0gyXTI=

> <s_epik_cmdline>
J2VwaWtfcHl0aG9uJywgJy1waCcsICc3LjAnLCAnLXRuJywgJzgnLCAnLW1hJywgJzIwMCcsICctbWV0YWxfYmluZGluZycsICctaW1hZScsICc8aW5maWxlLm1hZT4nLCAnLW9tYWUnLCAnPG91dGZpbGUubWFlPic=

> <r_lp_tautomer_probability>
1

> <r_epik_Ionization_Penalty>
0.46798

> <r_epik_Ionization_Penalty_Charging>
0.467902

> <r_epik_Ionization_Penalty_Neutral>
7.78263e-05

> <r_epik_State_Penalty>
0.47192

> <r_epik_Charging_Adjusted_Penalty>
0.939822

> <i_epik_Tot_Q>
0

> <i_epik_Tot_abs_Q>
0

> <r_epik_Metal_State_Penalty>
0.280825

> <b_epik_Metal_Only>
0

> <s_epik_Chemistry_Notes>
This compound has an imine and may undergo hydrolysis.

> <s_lp_Force_Field>
OPLS_2005

> <r_lp_Energy>
18.7987

> <b_lp_Chiralities_Consistent>
1

> <s_lp_Variant>
AV-unprocessed.smi:561-4

> <Gold.Version>
5.8.1

> <Gold.Id.Protein>
6NUR|6NUR_protein|mol2

> <Gold.PLP.Fitness>
40.1559

> <Gold.PLP.PLP>
-29.9321

> <Gold.PLP.part.hbond>
-3.0000

> <Gold.PLP.part.metal>
0.0000

> <Gold.PLP.part.buried>
-2.4931

> <Gold.PLP.part.nonpolar>
-26.3221

> <Gold.PLP.part.repulsive>
0.6090

> <Gold.PLP.ligand.clash>
0.0000

> <Gold.PLP.ligand.torsion>
1.0662

> <Gold.PLP.Chemscore.Hbond>
2.3024

> <Gold.PLP.Chemscore.CHOScore>
1.8100

> <Gold.PLP.Chemscore.Metal>
0.0000

> <Gold.Chemscore.Hbonds>
donor molecule, donor type, donor heavy atom, donor atom, acceptor molecule, acceptor atom, score
      L1  H     9    29       P1  7948  1.00
      P1  H 10752 10764       L1    17  1.00
      P1  H 10785 10796       L1     7  0.25
      L1  C     6    27       P1 10186  0.82
      L1  C     6    27       P1 10952  0.92

> <Gold.PLP.Chemscore.Internal.Correction>
0.0191

> <Gold.Rescore>
     Score         DG    S(hbond)    S(metal)    S(lipo)     H(rot)  DE(clash)    DE(int)     intcor
     10.92     -11.86       1.33        0.00      53.94       1.71       0.08       0.86       ----

> <Gold.Chemscore.Fitness>
10.9182

> <Gold.Chemscore.DG>
-11.8587

> <Gold.Chemscore.ZeroCoef>
-5.4800

> <Gold.Chemscore.Hbond>
1.3297

> <Gold.Chemscore.Metal>
0.0000

> <Gold.Chemscore.Lipo>
53.9434

> <Gold.Chemscore.Internal_Hbond>
0.0000

> <Gold.Chemscore.DEClash>
0.0765

> <Gold.Chemscore.DEInternal>
0.8641

> <Gold.Chemscore.Rot>
1.7086

> <Gold.Chemscore.Internal.Correction>
   9.000000E+99

> <Gold.Chemscore.Hbonds>
donor molecule, donor type, donor heavy atom, donor atom, acceptor molecule, acceptor atom, score
      L1  H     9    29       P1  7948  0.87
      P1  H 10752 10764       L1    17  0.25
      P1  H 10785 10796       L1     7  0.02

> <Gold.Chemscore.Hbond.Weighted>
-4.4413

> <Gold.Chemscore.Metal.Weighted>
-0.0000

> <Gold.Chemscore.Lipo.Weighted>
-6.3114

> <Gold.Chemscore.Internal_Hbond.Weighted>
0.0000

> <Gold.Chemscore.DEClash.Weighted>
0.0765

> <Gold.Chemscore.DEInternal.Weighted>
0.8641

> <Gold.Chemscore.Rot.Weighted>
4.3739

> <Gold.Chemscore.Internal.Correction.Weighted>
   9.000000E+99

> <Gold.Protein.RotatedTorsions>
[ 6907 6896 6895 6894 ] final  -20.70 input  -60.11 | X-H torsion
[ 7974 7965 7964 7962 ] final  -49.78 input  175.53 | X-H torsion
[ 8008 7997 7996 7995 ] final   68.42 input   59.86 | X-H torsion
[ 10167 10162 10161 10158 ] final    7.68 input  -65.29 | X-H torsion
[ 10718 10713 10712 10709 ] final  -32.77 input   66.30 | X-H torsion
[ 10763 10752 10751 10750 ] final   -5.99 input  -60.55 | X-H torsion
[ 11005 11000 10999 10996 ] final  174.19 input  -57.11 | X-H torsion

> <Gold.Protein.ActiveResidues>
 VAL166  LYS551  ARG553  GLY616  TRP617  ASP618  TYR619  PRO620  LYS621  CYS622 
 ASP623  PHE694  ASN695  SER759  ASP760  ASP761  ALA762  ILE779  LEU786  VAL792 
 PHE793  MET794  SER795  GLU796  ALA797  LYS798  CYS799  TRP800  GLU811  SER814 

> <Gold.Protein.RotatedAtoms>
  151.2443  135.0600  159.9036 H   0  0  0  0  0  0  0  0  0  0  0  0  # atno 6907 bound_to 6896
  152.5389  134.0400  159.8073 H   0  0  0  0  0  0  0  0  0  0  0  0  # atno 6908 bound_to 6896
  151.0599  133.5504  159.2666 H   0  0  0  0  0  0  0  0  0  0  0  0  # atno 6909 bound_to 6896
  145.9368  140.7699  142.9572 H   0  0  0  0  0  0  0  0  0  0  0  0  # atno 7974 bound_to 7965
  155.7080  140.3494  155.4961 H   0  0  0  0  0  0  0  0  0  0  0  0  # atno 8008 bound_to 7997
  155.9381  140.1096  157.1100 H   0  0  0  0  0  0  0  0  0  0  0  0  # atno 8009 bound_to 7997
  154.4097  140.1218  156.4878 H   0  0  0  0  0  0  0  0  0  0  0  0  # atno 8010 bound_to 7997
  140.6358  143.7890  150.7357 H   0  0  0  0  0  0  0  0  0  0  0  0  # atno 10167 bound_to 10162
  156.3708  130.4339  149.7547 H   0  0  0  0  0  0  0  0  0  0  0  0  # atno 10718 bound_to 10713
  153.4061  135.7006  153.6391 H   0  0  0  0  0  0  0  0  0  0  0  0  # atno 10763 bound_to 10752
  153.4905  135.3674  155.2489 H   0  0  0  0  0  0  0  0  0  0  0  0  # atno 10764 bound_to 10752
  154.8714  135.4088  154.3405 H   0  0  0  0  0  0  0  0  0  0  0  0  # atno 10765 bound_to 10752
  140.3486  134.7215  157.4252 H   0  0  0  0  0  0  0  0  0  0  0  0  # atno 11005 bound_to 11000
  144.6773  140.2216  143.7365 LP  0  0  0  0  0  0  0  0  0  0  0  0  # atno 17320 bound_to 7965
  145.8352  139.2104  143.1859 LP  0  0  0  0  0  0  0  0  0  0  0  0  # atno 17321 bound_to 7965
  140.1511  143.4357  152.2130 LP  0  0  0  0  0  0  0  0  0  0  0  0  # atno 17342 bound_to 10162
  139.5568  144.7378  151.4270 LP  0  0  0  0  0  0  0  0  0  0  0  0  # atno 17343 bound_to 10162
  156.4675  130.7981  151.3000 LP  0  0  0  0  0  0  0  0  0  0  0  0  # atno 17370 bound_to 10713
  157.7483  131.0046  150.3083 LP  0  0  0  0  0  0  0  0  0  0  0  0  # atno 17371 bound_to 10713
  140.0722  134.5847  155.8630 LP  0  0  0  0  0  0  0  0  0  0  0  0  # atno 17394 bound_to 11000
  141.2018  133.6621  156.5973 LP  0  0  0  0  0  0  0  0  0  0  0  0  # atno 17395 bound_to 11000

$$$$
