AV-unprocessed.smi:2226|AV-procd|sdf|9008|dock6
  -GOLD-   2272012213D 1   1.00000     0.00000
 Structure written by MMmdl.
 41 43  0  0  0  0  0  0  0  0  3 V2000
  147.7306  142.4917  157.7560 C   0  0  0  0  0  0  0  0  0  0  0  0
  147.3992  142.4704  156.3111 N   0  3  2  0  0  0  0  0  0  0  0  0
  145.9626  142.6604  155.9987 C   0  0  1  0  0  0  0  0  0  0  0  0
  145.8153  143.0424  154.5081 C   0  0  0  0  0  0  0  0  0  0  0  0
  146.5053  142.0598  153.5432 C   0  0  0  0  0  0  0  0  0  0  0  0
  147.8890  141.6103  154.0509 C   0  0  0  0  0  0  0  0  0  0  0  0
  147.9320  141.3046  155.5664 C   0  0  2  0  0  0  0  0  0  0  0  0
  147.2314  139.9900  155.9938 C   0  0  0  0  0  0  0  0  0  0  0  0
  145.6858  140.0445  156.0865 C   0  0  2  0  0  0  0  0  0  0  0  0
  145.0549  139.4511  154.9081 N   0  0  0  0  0  0  0  0  0  0  0  0
  144.9507  138.1371  154.6543 C   0  0  0  0  0  0  0  0  0  0  0  0
  145.3686  137.2612  155.4120 O   0  0  0  0  0  0  0  0  0  0  0  0
  144.3387  137.9046  153.4830 N   0  0  0  0  0  0  0  0  0  0  0  0
  144.0635  136.6300  152.9363 C   0  0  0  0  0  0  0  0  0  0  0  0
  144.0487  136.3662  151.6308 N   0  3  0  0  0  0  0  0  0  0  0  0
  143.7434  135.0396  151.4527 C   0  0  0  0  0  0  0  0  0  0  0  0
  143.5763  134.5223  152.7149 C   0  0  0  0  0  0  0  0  0  0  0  0
  143.7747  135.5103  153.6586 O   0  0  0  0  0  0  0  0  0  0  0  0
  145.1167  141.4433  156.4501 C   0  0  0  0  0  0  0  0  0  0  0  0
  147.2738  141.6640  158.2980 H   0  0  0  0  0  0  0  0  0  0  0  0
  147.3880  143.4217  158.2101 H   0  0  0  0  0  0  0  0  0  0  0  0
  148.8098  142.4340  157.8990 H   0  0  0  0  0  0  0  0  0  0  0  0
  145.6125  143.5227  156.5681 H   0  0  0  0  0  0  0  0  0  0  0  0
  144.7628  143.1506  154.2434 H   0  0  0  0  0  0  0  0  0  0  0  0
  146.2606  144.0280  154.3644 H   0  0  0  0  0  0  0  0  0  0  0  0
  145.8696  141.1996  153.3641 H   0  0  0  0  0  0  0  0  0  0  0  0
  146.6123  142.5276  152.5640 H   0  0  0  0  0  0  0  0  0  0  0  0
  148.2380  140.7513  153.4770 H   0  0  0  0  0  0  0  0  0  0  0  0
  148.6004  142.4117  153.8467 H   0  0  0  0  0  0  0  0  0  0  0  0
  148.9872  141.2030  155.8241 H   0  0  0  0  0  0  0  0  0  0  0  0
  147.5525  139.1662  155.3548 H   0  0  0  0  0  0  0  0  0  0  0  0
  147.6073  139.7284  156.9837 H   0  0  0  0  0  0  0  0  0  0  0  0
  145.4161  139.3748  156.9061 H   0  0  0  0  0  0  0  0  0  0  0  0
  144.6838  140.0958  154.2252 H   0  0  0  0  0  0  0  0  0  0  0  0
  144.2269  137.0053  150.8662 H   0  0  0  0  0  0  0  0  0  0  0  0
  143.6761  134.6043  150.4659 H   0  0  0  0  0  0  0  0  0  0  0  0
  143.3315  133.5402  153.0930 H   0  0  0  0  0  0  0  0  0  0  0  0
  145.0405  141.4866  157.5371 H   0  0  0  0  0  0  0  0  0  0  0  0
  144.0887  141.5557  156.1036 H   0  0  0  0  0  0  0  0  0  0  0  0
  147.8708  143.2777  155.9283 H   0  0  0  0  0  0  0  0  0  0  0  0
  144.0425  138.7016  152.9394 H   0  0  0  0  0  0  0  0  0  0  0  0
  1  2  1  0  0  0  0
  1 20  1  0  0  0  0
  1 21  1  0  0  0  0
  1 22  1  0  0  0  0
  2  7  1  0  0  0  0
  2  3  1  0  0  0  0
  2 40  1  0  0  0  0
  3 19  1  0  0  0  0
  3  4  1  0  0  0  0
  3 23  1  0  0  0  0
  4  5  1  0  0  0  0
  4 24  1  0  0  0  0
  4 25  1  0  0  0  0
  5  6  1  0  0  0  0
  5 26  1  0  0  0  0
  5 27  1  0  0  0  0
  6  7  1  0  0  0  0
  6 28  1  0  0  0  0
  6 29  1  0  0  0  0
  7  8  1  0  0  0  0
  7 30  1  0  0  0  0
  8  9  1  0  0  0  0
  8 31  1  0  0  0  0
  8 32  1  0  0  0  0
  9 10  1  0  0  0  0
  9 19  1  0  0  0  0
  9 33  1  0  0  0  0
 10 34  1  0  0  0  0
 10 11  1  0  0  0  0
 11 13  1  0  0  0  0
 11 12  2  0  0  0  0
 13 14  1  0  0  0  0
 13 41  1  0  0  0  0
 14 18  1  0  0  0  0
 14 15  2  0  0  0  0
 15 35  1  0  0  0  0
 15 16  1  0  0  0  0
 16 36  1  0  0  0  0
 16 17  2  0  0  0  0
 17 37  1  0  0  0  0
 17 18  1  0  0  0  0
 19 38  1  0  0  0  0
 19 39  1  0  0  0  0
M  CHG  1   2   1
M  CHG  1  15   1
M  END
> <s_m_source_file>
AV-unprocessed.smi

> <i_m_source_file_index>
2226

> <i_lp_mmshare_version>
43012

> <i_f3d_flags>
0

> <s_epik_input>
W0NIMl0xW0NIMl1bQ0gyXVtDQEhdKE4oW0NIM10pW0NIXTEyKVtDSDJdW0NASF0oW0NIMl0yKVtOSF1DKD1PKVtOSF1jM25bY0hdW2NIXW8z

> <s_epik_cmdline>
J2VwaWtfcHl0aG9uJywgJy1waCcsICc3LjAnLCAnLXRuJywgJzgnLCAnLW1hJywgJzIwMCcsICctbWV0YWxfYmluZGluZycsICctaW1hZScsICc8aW5maWxlLm1hZT4nLCAnLW9tYWUnLCAnPG91dGZpbGUubWFlPic=

> <r_epik_Ionization_Penalty>
6.92532

> <r_epik_Ionization_Penalty_Charging>
6.82059

> <r_epik_Ionization_Penalty_Neutral>
0.104727

> <r_epik_State_Penalty>
2.17671

> <r_epik_Charging_Adjusted_Penalty>
8.99731

> <i_epik_Tot_Q>
2

> <i_epik_Tot_abs_Q>
2

> <r_epik_Metal_State_Penalty>
2.20618

> <b_epik_Metal_Only>
0

> <s_lp_Force_Field>
OPLS_2005

> <r_lp_Energy>
48.5107

> <b_lp_Chiralities_Consistent>
1

> <s_lp_Variant>
AV-unprocessed.smi:2226-8

> <Gold.Version>
5.8.1

> <Gold.Id.Protein>
6NUR|6NUR_protein|mol2

> <Gold.PLP.Fitness>
40.7131

> <Gold.PLP.PLP>
-23.6820

> <Gold.PLP.part.hbond>
-4.0000

> <Gold.PLP.part.metal>
0.0000

> <Gold.PLP.part.buried>
-4.2270

> <Gold.PLP.part.nonpolar>
-16.1739

> <Gold.PLP.part.repulsive>
0.1194

> <Gold.PLP.ligand.clash>
0.0000

> <Gold.PLP.ligand.torsion>
0.5014

> <Gold.PLP.Chemscore.Hbond>
5.0000

> <Gold.PLP.Chemscore.CHOScore>
0.9921

> <Gold.PLP.Chemscore.Metal>
0.0000

> <Gold.Chemscore.Hbonds>
donor molecule, donor type, donor heavy atom, donor atom, acceptor molecule, acceptor atom, score
      L1  H     2    40       P1  8028  2.00
      L1  H    10    34       P1 10175  0.98
      L1  H    13    41       P1 10175  1.00
      L1  H    15    35       P1 10171  1.00
      L1  C    17    37       P1 10957  0.99

> <Gold.PLP.Chemscore.Internal.Correction>
0.0575

> <Gold.Rescore>
     Score         DG    S(hbond)    S(metal)    S(lipo)     H(rot)  DE(clash)    DE(int)     intcor
     18.51     -20.24       3.67        0.00      43.16       1.00       0.08       1.65       ----

> <Gold.Chemscore.Fitness>
18.5054

> <Gold.Chemscore.DG>
-20.2394

> <Gold.Chemscore.ZeroCoef>
-5.4800

> <Gold.Chemscore.Hbond>
3.6736

> <Gold.Chemscore.Metal>
0.0000

> <Gold.Chemscore.Lipo>
43.1589

> <Gold.Chemscore.Internal_Hbond>
0.0000

> <Gold.Chemscore.DEClash>
0.0825

> <Gold.Chemscore.DEInternal>
1.6515

> <Gold.Chemscore.Rot>
1.0000

> <Gold.Chemscore.Internal.Correction>
   9.000000E+99

> <Gold.Chemscore.Hbonds>
donor molecule, donor type, donor heavy atom, donor atom, acceptor molecule, acceptor atom, score
      L1  H     2    40       P1  8028  0.26
      L1  H    10    34       P1 10175  0.87
      L1  H    13    41       P1 10175  1.00
      L1  H    15    35       P1 10171  0.96

> <Gold.Chemscore.Hbond.Weighted>
-12.2698

> <Gold.Chemscore.Metal.Weighted>
-0.0000

> <Gold.Chemscore.Lipo.Weighted>
-5.0496

> <Gold.Chemscore.Internal_Hbond.Weighted>
0.0000

> <Gold.Chemscore.DEClash.Weighted>
0.0825

> <Gold.Chemscore.DEInternal.Weighted>
1.6515

> <Gold.Chemscore.Rot.Weighted>
2.5600

> <Gold.Chemscore.Internal.Correction.Weighted>
   9.000000E+99

> <Gold.Protein.RotatedTorsions>
[ 6907 6896 6895 6894 ] final -157.60 input  -60.11 | X-H torsion
[ 7974 7965 7964 7962 ] final -118.13 input  175.53 | X-H torsion
[ 8008 7997 7996 7995 ] final   55.79 input   59.86 | X-H torsion
[ 10167 10162 10161 10158 ] final  -72.34 input  -65.29 | X-H torsion
[ 10718 10713 10712 10709 ] final  109.67 input   66.30 | X-H torsion
[ 10763 10752 10751 10750 ] final  -42.00 input  -60.55 | X-H torsion
[ 11005 11000 10999 10996 ] final -104.83 input  -57.11 | X-H torsion

> <Gold.Protein.ActiveResidues>
 VAL166  LYS551  ARG553  GLY616  TRP617  ASP618  TYR619  PRO620  LYS621  CYS622 
 ASP623  PHE694  ASN695  SER759  ASP760  ASP761  ALA762  ILE779  LEU786  VAL792 
 PHE793  MET794  SER795  GLU796  ALA797  LYS798  CYS799  TRP800  GLU811  SER814 

> <Gold.Protein.RotatedAtoms>
  151.3053  133.4104  159.2642 H   0  0  0  0  0  0  0  0  0  0  0  0  # atno 6907 bound_to 6896
  151.0160  134.9434  159.8044 H   0  0  0  0  0  0  0  0  0  0  0  0  # atno 6908 bound_to 6896
  152.5313  134.3017  159.9133 H   0  0  0  0  0  0  0  0  0  0  0  0  # atno 6909 bound_to 6896
  145.0773  140.8401  143.4060 H   0  0  0  0  0  0  0  0  0  0  0  0  # atno 7974 bound_to 7965
  155.5069  140.3476  155.4381 H   0  0  0  0  0  0  0  0  0  0  0  0  # atno 8008 bound_to 7997
  156.0876  140.1402  156.9661 H   0  0  0  0  0  0  0  0  0  0  0  0  # atno 8009 bound_to 7997
  154.4616  140.0933  156.6884 H   0  0  0  0  0  0  0  0  0  0  0  0  # atno 8010 bound_to 7997
  140.5200  143.2333  151.7446 H   0  0  0  0  0  0  0  0  0  0  0  0  # atno 10167 bound_to 10162
  157.6530  131.0918  150.6488 H   0  0  0  0  0  0  0  0  0  0  0  0  # atno 10718 bound_to 10713
  153.9717  135.6727  153.4747 H   0  0  0  0  0  0  0  0  0  0  0  0  # atno 10763 bound_to 10752
  153.0789  135.4933  154.8459 H   0  0  0  0  0  0  0  0  0  0  0  0  # atno 10764 bound_to 10752
  154.7215  135.3118  154.9001 H   0  0  0  0  0  0  0  0  0  0  0  0  # atno 10765 bound_to 10752
  141.1082  133.8756  157.1659 H   0  0  0  0  0  0  0  0  0  0  0  0  # atno 11005 bound_to 11000
  145.1220  139.2687  143.5583 LP  0  0  0  0  0  0  0  0  0  0  0  0  # atno 17320 bound_to 7965
  146.3530  140.0847  142.8616 LP  0  0  0  0  0  0  0  0  0  0  0  0  # atno 17321 bound_to 7965
  139.4920  144.4268  151.9917 LP  0  0  0  0  0  0  0  0  0  0  0  0  # atno 17342 bound_to 10162
  140.3364  144.3255  150.5976 LP  0  0  0  0  0  0  0  0  0  0  0  0  # atno 17343 bound_to 10162
  156.6798  130.4564  149.5631 LP  0  0  0  0  0  0  0  0  0  0  0  0  # atno 17370 bound_to 10713
  156.1937  130.6576  151.1091 LP  0  0  0  0  0  0  0  0  0  0  0  0  # atno 17371 bound_to 10713
  139.9963  135.0045  157.0089 LP  0  0  0  0  0  0  0  0  0  0  0  0  # atno 17394 bound_to 11000
  140.4845  134.1255  155.7222 LP  0  0  0  0  0  0  0  0  0  0  0  0  # atno 17395 bound_to 11000

$$$$
