AV-unprocessed.smi:1813|AV-procd|sdf|7341|dock3
  -GOLD-   22720 9 03D 1   1.00000     0.00000
 Structure written by MMmdl.
 40 41  0  0  0  0  0  0  0  0  2 V2000
  143.1249  137.4547  153.7807 C   0  0  0  0  0  0  0  0  0  0  0  0
  144.2838  138.1316  153.2184 N   0  0  0  0  0  0  0  0  0  0  0  0
  145.4306  137.5180  152.8940 C   0  0  0  0  0  0  0  0  0  0  0  0
  145.6182  136.3108  153.0510 O   0  0  0  0  0  0  0  0  0  0  0  0
  146.5380  138.4097  152.3228 C   0  0  0  0  0  0  0  0  0  0  0  0
  147.1011  139.3506  153.3251 N   0  3  2  0  0  0  0  0  0  0  0  0
  147.1356  140.7512  152.8317 C   0  0  0  0  0  0  0  0  0  0  0  0
  147.5844  141.7191  153.9394 C   0  0  0  0  0  0  0  0  0  0  0  0
  148.9529  141.3144  154.5094 C   0  0  1  0  0  0  0  0  0  0  0  0
  149.3164  142.2042  155.6085 N   0  0  0  0  0  0  0  0  0  0  0  0
  150.2457  141.9388  156.5385 C   0  0  0  0  0  0  0  0  0  0  0  0
  150.8897  140.8897  156.5712 O   0  0  0  0  0  0  0  0  0  0  0  0
  150.3713  142.9567  157.4082 N   0  0  0  0  0  0  0  0  0  0  0  0
  151.2514  143.0587  158.5175 C   0  0  0  0  0  0  0  0  0  0  0  0
  151.6791  142.0165  159.2396 N   0  0  0  0  0  0  0  0  0  0  0  0
  152.5367  142.4092  160.2703 C   0  0  0  0  0  0  0  0  0  0  0  0
  152.7528  143.7639  160.3186 C   0  0  0  0  0  0  0  0  0  0  0  0
  151.8820  144.6056  159.0643 S   0  0  0  0  0  0  0  0  0  0  0  0
  148.9023  139.8488  154.9788 C   0  0  0  0  0  0  0  0  0  0  0  0
  148.4267  138.9225  153.8473 C   0  0  0  0  0  0  0  0  0  0  0  0
  142.3331  138.1767  153.9801 H   0  0  0  0  0  0  0  0  0  0  0  0
  143.3789  136.9613  154.7197 H   0  0  0  0  0  0  0  0  0  0  0  0
  142.7374  136.7072  153.0874 H   0  0  0  0  0  0  0  0  0  0  0  0
  144.2080  139.1277  153.0699 H   0  0  0  0  0  0  0  0  0  0  0  0
  147.3350  137.8029  151.8893 H   0  0  0  0  0  0  0  0  0  0  0  0
  146.0907  138.9715  151.5016 H   0  0  0  0  0  0  0  0  0  0  0  0
  147.8072  140.8202  151.9744 H   0  0  0  0  0  0  0  0  0  0  0  0
  146.1446  141.0441  152.4835 H   0  0  0  0  0  0  0  0  0  0  0  0
  147.6295  142.7345  153.5440 H   0  0  0  0  0  0  0  0  0  0  0  0
  146.8379  141.7297  154.7353 H   0  0  0  0  0  0  0  0  0  0  0  0
  149.6947  141.4080  153.7135 H   0  0  0  0  0  0  0  0  0  0  0  0
  148.8342  143.0898  155.6579 H   0  0  0  0  0  0  0  0  0  0  0  0
  149.7729  143.7551  157.2564 H   0  0  0  0  0  0  0  0  0  0  0  0
  152.9502  141.6560  160.9248 H   0  0  0  0  0  0  0  0  0  0  0  0
  153.3693  144.3152  161.0129 H   0  0  0  0  0  0  0  0  0  0  0  0
  149.8862  139.5279  155.3233 H   0  0  0  0  0  0  0  0  0  0  0  0
  148.2295  139.7537  155.8323 H   0  0  0  0  0  0  0  0  0  0  0  0
  148.3714  137.9000  154.2223 H   0  0  0  0  0  0  0  0  0  0  0  0
  149.1557  138.9204  153.0353 H   0  0  0  0  0  0  0  0  0  0  0  0
  146.4606  139.3408  154.1063 H   0  0  0  0  0  0  0  0  0  0  0  0
  1  2  1  0  0  0  0
  1 21  1  0  0  0  0
  1 22  1  0  0  0  0
  1 23  1  0  0  0  0
  2  3  1  0  0  0  0
  2 24  1  0  0  0  0
  3  4  2  0  0  0  0
  3  5  1  0  0  0  0
  5  6  1  0  0  0  0
  5 25  1  0  0  0  0
  5 26  1  0  0  0  0
  6 20  1  0  0  0  0
  6  7  1  0  0  0  0
  6 40  1  0  0  0  0
  7  8  1  0  0  0  0
  7 27  1  0  0  0  0
  7 28  1  0  0  0  0
  8  9  1  0  0  0  0
  8 29  1  0  0  0  0
  8 30  1  0  0  0  0
  9 10  1  0  0  0  0
  9 19  1  0  0  0  0
  9 31  1  0  0  0  0
 10 11  1  0  0  0  0
 10 32  1  0  0  0  0
 11 12  2  0  0  0  0
 11 13  1  0  0  0  0
 13 14  1  0  0  0  0
 13 33  1  0  0  0  0
 14 18  1  0  0  0  0
 14 15  2  0  0  0  0
 15 16  1  0  0  0  0
 16 17  2  0  0  0  0
 16 34  1  0  0  0  0
 17 18  1  0  0  0  0
 17 35  1  0  0  0  0
 19 20  1  0  0  0  0
 19 36  1  0  0  0  0
 19 37  1  0  0  0  0
 20 38  1  0  0  0  0
 20 39  1  0  0  0  0
M  CHG  1   6   1
M  END
> <s_m_source_file>
AV-unprocessed.smi

> <i_m_source_file_index>
1813

> <i_lp_mmshare_version>
43012

> <i_f3d_flags>
0

> <s_epik_input>
W0NIM11bTkhdQyg9TylbQ0gyXU4xW0NIMl1bQ0gyXVtDSF0oW0NIMl1bQ0gyXTEpW05IXUMoPU8pW05IXWMybltjSF1bY0hdczI=

> <s_epik_cmdline>
J2VwaWtfcHl0aG9uJywgJy1waCcsICc3LjAnLCAnLXRuJywgJzgnLCAnLW1hJywgJzIwMCcsICctbWV0YWxfYmluZGluZycsICctaW1hZScsICc8aW5maWxlLm1hZT4nLCAnLW9tYWUnLCAnPG91dGZpbGUubWFlPic=

> <r_lp_tautomer_probability>
0.999

> <r_epik_Ionization_Penalty>
0.862509

> <r_epik_Ionization_Penalty_Charging>
0.862349

> <r_epik_Ionization_Penalty_Neutral>
0.000159522

> <r_epik_State_Penalty>
0.898939

> <r_epik_Charging_Adjusted_Penalty>
1.76129

> <i_epik_Tot_Q>
1

> <i_epik_Tot_abs_Q>
1

> <r_epik_Metal_State_Penalty>
0.936827

> <b_epik_Metal_Only>
0

> <s_lp_Force_Field>
OPLS_2005

> <r_lp_Energy>
11.8372

> <b_lp_Chiralities_Consistent>
1

> <s_lp_Variant>
AV-unprocessed.smi:1813-2

> <Gold.Version>
5.8.1

> <Gold.Id.Protein>
6NUR|6NUR_protein|mol2

> <Gold.PLP.Fitness>
43.9876

> <Gold.PLP.PLP>
-37.9543

> <Gold.PLP.part.hbond>
-2.9674

> <Gold.PLP.part.metal>
0.0000

> <Gold.PLP.part.buried>
-3.4188

> <Gold.PLP.part.nonpolar>
-31.4249

> <Gold.PLP.part.repulsive>
0.3470

> <Gold.PLP.ligand.clash>
0.0000

> <Gold.PLP.ligand.torsion>
1.1976

> <Gold.PLP.Chemscore.Hbond>
2.7920

> <Gold.PLP.Chemscore.CHOScore>
0.0000

> <Gold.PLP.Chemscore.Metal>
0.0000

> <Gold.Chemscore.Hbonds>
donor molecule, donor type, donor heavy atom, donor atom, acceptor molecule, acceptor atom, score
      L1  H     2    24       P1 10175  1.00
      L1  H    10    32       P1  8028  1.00
      L1  H    13    33       P1  8028  0.75

> <Gold.PLP.Chemscore.Internal.Correction>
0.0525

> <Gold.Rescore>
     Score         DG    S(hbond)    S(metal)    S(lipo)     H(rot)  DE(clash)    DE(int)     intcor
     17.65     -20.58       2.94        0.00      84.24       1.79       0.15       2.79       ----

> <Gold.Chemscore.Fitness>
17.6461

> <Gold.Chemscore.DG>
-20.5800

> <Gold.Chemscore.ZeroCoef>
-5.4800

> <Gold.Chemscore.Hbond>
2.9392

> <Gold.Chemscore.Metal>
0.0000

> <Gold.Chemscore.Lipo>
84.2361

> <Gold.Chemscore.Internal_Hbond>
0.0000

> <Gold.Chemscore.DEClash>
0.1476

> <Gold.Chemscore.DEInternal>
2.7863

> <Gold.Chemscore.Rot>
1.7862

> <Gold.Chemscore.Internal.Correction>
   9.000000E+99

> <Gold.Chemscore.Hbonds>
donor molecule, donor type, donor heavy atom, donor atom, acceptor molecule, acceptor atom, score
      L1  H     2    24       P1 10175  0.94
      L1  H    10    32       P1  8028  0.94
      L1  H    13    33       P1  8028  0.57

> <Gold.Chemscore.Hbond.Weighted>
-9.8170

> <Gold.Chemscore.Metal.Weighted>
-0.0000

> <Gold.Chemscore.Lipo.Weighted>
-9.8556

> <Gold.Chemscore.Internal_Hbond.Weighted>
0.0000

> <Gold.Chemscore.DEClash.Weighted>
0.1476

> <Gold.Chemscore.DEInternal.Weighted>
2.7863

> <Gold.Chemscore.Rot.Weighted>
4.5726

> <Gold.Chemscore.Internal.Correction.Weighted>
   9.000000E+99

> <Gold.Protein.RotatedTorsions>
[ 6907 6896 6895 6894 ] final  -55.36 input  -60.11 | X-H torsion
[ 7974 7965 7964 7962 ] final -142.39 input  175.53 | X-H torsion
[ 8008 7997 7996 7995 ] final  104.45 input   59.86 | X-H torsion
[ 10167 10162 10161 10158 ] final   15.99 input  -65.29 | X-H torsion
[ 10718 10713 10712 10709 ] final -142.04 input   66.30 | X-H torsion
[ 10763 10752 10751 10750 ] final -119.97 input  -60.55 | X-H torsion
[ 11005 11000 10999 10996 ] final -122.34 input  -57.11 | X-H torsion

> <Gold.Protein.ActiveResidues>
 VAL166  LYS551  ARG553  GLY616  TRP617  ASP618  TYR619  PRO620  LYS621  CYS622 
 ASP623  PHE694  ASN695  SER759  ASP760  ASP761  ALA762  ILE779  LEU786  VAL792 
 PHE793  MET794  SER795  GLU796  ALA797  LYS798  CYS799  TRP800  GLU811  SER814 

> <Gold.Protein.RotatedAtoms>
  150.8258  134.7489  159.6811 H   0  0  0  0  0  0  0  0  0  0  0  0  # atno 6907 bound_to 6896
  152.4369  134.5665  159.9919 H   0  0  0  0  0  0  0  0  0  0  0  0  # atno 6908 bound_to 6896
  151.5837  133.3337  159.3049 H   0  0  0  0  0  0  0  0  0  0  0  0  # atno 6909 bound_to 6896
  144.8447  140.5963  143.5429 H   0  0  0  0  0  0  0  0  0  0  0  0  # atno 7974 bound_to 7965
  156.1574  140.3147  155.8749 H   0  0  0  0  0  0  0  0  0  0  0  0  # atno 8008 bound_to 7997
  155.3851  140.0490  157.3059 H   0  0  0  0  0  0  0  0  0  0  0  0  # atno 8009 bound_to 7997
  154.5114  140.2166  155.9160 H   0  0  0  0  0  0  0  0  0  0  0  0  # atno 8010 bound_to 7997
  140.5828  143.8947  150.6804 H   0  0  0  0  0  0  0  0  0  0  0  0  # atno 10167 bound_to 10162
  156.3411  130.7638  151.1774 H   0  0  0  0  0  0  0  0  0  0  0  0  # atno 10718 bound_to 10713
  154.8632  135.4219  154.2384 H   0  0  0  0  0  0  0  0  0  0  0  0  # atno 10763 bound_to 10752
  153.3354  135.6990  153.6917 H   0  0  0  0  0  0  0  0  0  0  0  0  # atno 10764 bound_to 10752
  153.5917  135.3553  155.2886 H   0  0  0  0  0  0  0  0  0  0  0  0  # atno 10765 bound_to 10752
  141.0002  134.0413  157.3546 H   0  0  0  0  0  0  0  0  0  0  0  0  # atno 11005 bound_to 11000
  145.4622  139.1511  143.3860 LP  0  0  0  0  0  0  0  0  0  0  0  0  # atno 17320 bound_to 7965
  146.2733  140.4752  142.8805 LP  0  0  0  0  0  0  0  0  0  0  0  0  # atno 17321 bound_to 7965
  140.2451  143.3635  152.1454 LP  0  0  0  0  0  0  0  0  0  0  0  0  # atno 17342 bound_to 10162
  139.5180  144.6999  151.5522 LP  0  0  0  0  0  0  0  0  0  0  0  0  # atno 17343 bound_to 10162
  157.7447  131.0454  150.4842 LP  0  0  0  0  0  0  0  0  0  0  0  0  # atno 17370 bound_to 10713
  156.5022  130.4120  149.6347 LP  0  0  0  0  0  0  0  0  0  0  0  0  # atno 17371 bound_to 10713
  139.9035  135.0172  156.7379 LP  0  0  0  0  0  0  0  0  0  0  0  0  # atno 17394 bound_to 11000
  140.6901  133.9398  155.7961 LP  0  0  0  0  0  0  0  0  0  0  0  0  # atno 17395 bound_to 11000

$$$$
