AV-unprocessed.smi:1645|AV-procd|sdf|6620|dock8
  -GOLD-   22720 7323D 1   1.00000     0.00000
 Structure written by MMmdl.
 55 58  0  0  0  0  0  0  0  0  4 V2000
  148.2312  136.6013  157.5158 O   0  0  0  0  0  0  0  0  0  0  0  0
  149.2340  135.9457  157.8157 C   0  0  0  0  0  0  0  0  0  0  0  0
  150.3606  136.5539  158.2288 N   0  0  0  0  0  0  0  0  0  0  0  0
  150.6630  137.9347  158.3947 C   0  0  0  0  0  0  0  0  0  0  0  0
  149.7881  138.8582  157.7864 C   0  0  0  0  0  0  0  0  0  0  0  0
  150.0239  140.2424  157.9107 C   0  0  0  0  0  0  0  0  0  0  0  0
  151.1423  140.7037  158.6488 C   0  0  0  0  0  0  0  0  0  0  0  0
  151.4628  142.0687  158.8264 N   0  0  0  0  0  0  0  0  0  0  0  0
  151.6723  142.8484  157.6021 C   0  0  0  0  0  0  0  0  0  0  0  0
  151.5966  144.3599  157.8759 C   0  0  0  0  0  0  0  0  0  0  0  0
  152.5480  144.7652  159.0101 C   0  0  0  0  0  0  0  0  0  0  0  0
  152.2440  143.9355  160.2646 C   0  0  0  0  0  0  0  0  0  0  0  0
  152.3111  142.4283  159.9647 C   0  0  0  0  0  0  0  0  0  0  0  0
  151.9570  139.7786  159.2107 N   0  3  0  0  0  0  0  0  0  0  0  0
  151.7693  138.4445  159.1158 C   0  0  0  0  0  0  0  0  0  0  0  0
  149.3776  134.5937  157.7754 N   0  5  0  0  0  0  0  0  0  0  0  0
  148.2700  133.6295  157.7579 C   0  0  2  0  0  0  0  0  0  0  0  0
  148.5029  132.5651  158.8364 C   0  0  0  0  0  0  0  0  0  0  0  0
  149.3953  131.4945  158.1796 C   0  0  0  0  0  0  0  0  0  0  0  0
  149.2981  131.6810  156.7090 N   0  3  2  0  0  0  0  0  0  0  0  0
  150.6277  131.8954  156.0686 C   0  0  0  0  0  0  0  0  0  0  0  0
  150.5066  132.3132  154.5987 C   0  0  0  0  0  0  0  0  0  0  0  0
  149.7097  133.6146  154.4919 C   0  0  0  0  0  0  0  0  0  0  0  0
  148.3056  133.4075  155.0754 C   0  0  0  0  0  0  0  0  0  0  0  0
  148.2878  132.7527  156.4857 C   0  0  2  0  0  0  0  0  0  0  0  0
  151.1203  135.9243  158.4423 H   0  0  0  0  0  0  0  0  0  0  0  0
  148.9325  138.5100  157.2264 H   0  0  0  0  0  0  0  0  0  0  0  0
  149.3303  140.9242  157.4430 H   0  0  0  0  0  0  0  0  0  0  0  0
  152.6505  142.5935  157.1924 H   0  0  0  0  0  0  0  0  0  0  0  0
  150.9382  142.6012  156.8356 H   0  0  0  0  0  0  0  0  0  0  0  0
  151.8376  144.9151  156.9689 H   0  0  0  0  0  0  0  0  0  0  0  0
  150.5744  144.6317  158.1428 H   0  0  0  0  0  0  0  0  0  0  0  0
  153.5821  144.6059  158.7017 H   0  0  0  0  0  0  0  0  0  0  0  0
  152.4451  145.8288  159.2273 H   0  0  0  0  0  0  0  0  0  0  0  0
  152.9450  144.1885  161.0602 H   0  0  0  0  0  0  0  0  0  0  0  0
  151.2500  144.1891  160.6365 H   0  0  0  0  0  0  0  0  0  0  0  0
  151.9954  141.8876  160.8573 H   0  0  0  0  0  0  0  0  0  0  0  0
  153.3392  142.1338  159.7505 H   0  0  0  0  0  0  0  0  0  0  0  0
  152.5182  137.8567  159.6222 H   0  0  0  0  0  0  0  0  0  0  0  0
  147.2967  134.1029  157.8939 H   0  0  0  0  0  0  0  0  0  0  0  0
  148.9329  132.9655  159.7557 H   0  0  0  0  0  0  0  0  0  0  0  0
  147.5456  132.1157  159.1034 H   0  0  0  0  0  0  0  0  0  0  0  0
  150.4256  131.5961  158.5263 H   0  0  0  0  0  0  0  0  0  0  0  0
  149.0675  130.4910  158.4525 H   0  0  0  0  0  0  0  0  0  0  0  0
  151.1837  132.6630  156.6093 H   0  0  0  0  0  0  0  0  0  0  0  0
  151.2085  130.9760  156.1485 H   0  0  0  0  0  0  0  0  0  0  0  0
  151.4998  132.4517  154.1706 H   0  0  0  0  0  0  0  0  0  0  0  0
  150.0229  131.5248  154.0208 H   0  0  0  0  0  0  0  0  0  0  0  0
  150.2293  134.4151  155.0185 H   0  0  0  0  0  0  0  0  0  0  0  0
  149.6371  133.9272  153.4500 H   0  0  0  0  0  0  0  0  0  0  0  0
  147.7444  134.3437  155.0577 H   0  0  0  0  0  0  0  0  0  0  0  0
  147.7704  132.7442  154.3946 H   0  0  0  0  0  0  0  0  0  0  0  0
  147.3344  132.2222  156.5226 H   0  0  0  0  0  0  0  0  0  0  0  0
  148.9184  130.8370  156.3059 H   0  0  0  0  0  0  0  0  0  0  0  0
  152.7660  140.1081  159.7370 H   0  0  0  0  0  0  0  0  0  0  0  0
  1  2  2  0  0  0  0
  2  3  1  0  0  0  0
  2 16  1  0  0  0  0
  3  4  1  0  0  0  0
  3 26  1  0  0  0  0
  4 15  1  0  0  0  0
  4  5  2  0  0  0  0
  5  6  1  0  0  0  0
  5 27  1  0  0  0  0
  6  7  2  0  0  0  0
  6 28  1  0  0  0  0
  7  8  1  0  0  0  0
  7 14  1  0  0  0  0
  8 13  1  0  0  0  0
  8  9  1  0  0  0  0
  9 10  1  0  0  0  0
  9 29  1  0  0  0  0
  9 30  1  0  0  0  0
 10 11  1  0  0  0  0
 10 31  1  0  0  0  0
 10 32  1  0  0  0  0
 11 12  1  0  0  0  0
 11 33  1  0  0  0  0
 11 34  1  0  0  0  0
 12 13  1  0  0  0  0
 12 35  1  0  0  0  0
 12 36  1  0  0  0  0
 13 37  1  0  0  0  0
 13 38  1  0  0  0  0
 14 15  2  0  0  0  0
 14 55  1  0  0  0  0
 15 39  1  0  0  0  0
 16 17  1  0  0  0  0
 17 25  1  0  0  0  0
 17 18  1  0  0  0  0
 17 40  1  0  0  0  0
 18 19  1  0  0  0  0
 18 41  1  0  0  0  0
 18 42  1  0  0  0  0
 19 20  1  0  0  0  0
 19 43  1  0  0  0  0
 19 44  1  0  0  0  0
 20 25  1  0  0  0  0
 20 21  1  0  0  0  0
 20 54  1  0  0  0  0
 21 22  1  0  0  0  0
 21 45  1  0  0  0  0
 21 46  1  0  0  0  0
 22 23  1  0  0  0  0
 22 47  1  0  0  0  0
 22 48  1  0  0  0  0
 23 24  1  0  0  0  0
 23 49  1  0  0  0  0
 23 50  1  0  0  0  0
 24 25  1  0  0  0  0
 24 51  1  0  0  0  0
 24 52  1  0  0  0  0
 25 53  1  0  0  0  0
M  CHG  1  14   1
M  CHG  1  16  -1
M  CHG  1  20   1
M  END
> <s_m_source_file>
AV-unprocessed.smi

> <i_m_source_file_index>
1645

> <i_lp_mmshare_version>
43012

> <i_f3d_flags>
0

> <s_epik_input>
W0NIMl0xW0NIMl1bQ0gyXVtDSDJdW0NASF0oTjEyKVtDQEBIXShbQ0gyXVtDSDJdMilbTkhdQyg9TylbTkhdYzNbY0hdW2NIXWMobltjSF0zKU40W0NIMl1bQ0gyXVtDSDJdW0NIMl1bQ0gyXTQ=

> <s_epik_cmdline>
J2VwaWtfcHl0aG9uJywgJy1waCcsICc3LjAnLCAnLXRuJywgJzgnLCAnLW1hJywgJzIwMCcsICctbWV0YWxfYmluZGluZycsICctaW1hZScsICc8aW5maWxlLm1hZT4nLCAnLW9tYWUnLCAnPG91dGZpbGUubWFlPic=

> <r_lp_tautomer_probability>
0.999994

> <r_epik_Ionization_Penalty>
8.55589

> <r_epik_Ionization_Penalty_Charging>
8.55589

> <r_epik_Ionization_Penalty_Neutral>
3.8092e-06

> <r_epik_State_Penalty>
8.15703

> <r_epik_Charging_Adjusted_Penalty>
16.7129

> <i_epik_Tot_Q>
1

> <i_epik_Tot_abs_Q>
3

> <r_epik_Metal_State_Penalty>
4.13781

> <b_epik_Metal_Only>
1

> <s_lp_Force_Field>
OPLS_2005

> <r_lp_Energy>
58.0783

> <b_lp_Chiralities_Consistent>
1

> <s_lp_Variant>
AV-unprocessed.smi:1645-21

> <Gold.Version>
5.8.1

> <Gold.Id.Protein>
6NUR|6NUR_protein|mol2

> <Gold.PLP.Fitness>
41.1858

> <Gold.PLP.PLP>
-35.6190

> <Gold.PLP.part.hbond>
-1.0000

> <Gold.PLP.part.metal>
0.0000

> <Gold.PLP.part.buried>
-5.4183

> <Gold.PLP.part.nonpolar>
-29.9945

> <Gold.PLP.part.repulsive>
0.2564

> <Gold.PLP.ligand.clash>
0.0000

> <Gold.PLP.ligand.torsion>
0.4960

> <Gold.PLP.Chemscore.Hbond>
2.0000

> <Gold.PLP.Chemscore.CHOScore>
0.0000

> <Gold.PLP.Chemscore.Metal>
0.0000

> <Gold.Chemscore.Hbonds>
donor molecule, donor type, donor heavy atom, donor atom, acceptor molecule, acceptor atom, score
      P1  H  6896  6908       L1    16  1.72

> <Gold.PLP.Chemscore.Internal.Correction>
0.5589

> <Gold.Rescore>
     Score         DG    S(hbond)    S(metal)    S(lipo)     H(rot)  DE(clash)    DE(int)     intcor
     14.79     -16.79       0.71        0.00     101.91       1.17       0.10       1.90       ----

> <Gold.Chemscore.Fitness>
14.7858

> <Gold.Chemscore.DG>
-16.7871

> <Gold.Chemscore.ZeroCoef>
-5.4800

> <Gold.Chemscore.Hbond>
0.7147

> <Gold.Chemscore.Metal>
0.0000

> <Gold.Chemscore.Lipo>
101.9088

> <Gold.Chemscore.Internal_Hbond>
0.0000

> <Gold.Chemscore.DEClash>
0.1004

> <Gold.Chemscore.DEInternal>
1.9009

> <Gold.Chemscore.Rot>
1.1731

> <Gold.Chemscore.Internal.Correction>
   9.000000E+99

> <Gold.Chemscore.Hbonds>
donor molecule, donor type, donor heavy atom, donor atom, acceptor molecule, acceptor atom, score
      P1  H  6896  6908       L1    16  0.29

> <Gold.Chemscore.Hbond.Weighted>
-2.3870

> <Gold.Chemscore.Metal.Weighted>
-0.0000

> <Gold.Chemscore.Lipo.Weighted>
-11.9233

> <Gold.Chemscore.Internal_Hbond.Weighted>
0.0000

> <Gold.Chemscore.DEClash.Weighted>
0.1004

> <Gold.Chemscore.DEInternal.Weighted>
1.9009

> <Gold.Chemscore.Rot.Weighted>
3.0032

> <Gold.Chemscore.Internal.Correction.Weighted>
   9.000000E+99

> <Gold.Protein.RotatedTorsions>
[ 6907 6896 6895 6894 ] final  141.48 input  -60.11 | X-H torsion
[ 7974 7965 7964 7962 ] final   66.58 input  175.53 | X-H torsion
[ 8008 7997 7996 7995 ] final  -70.79 input   59.86 | X-H torsion
[ 10167 10162 10161 10158 ] final -109.35 input  -65.29 | X-H torsion
[ 10718 10713 10712 10709 ] final  143.35 input   66.30 | X-H torsion
[ 10763 10752 10751 10750 ] final   86.52 input  -60.55 | X-H torsion
[ 11005 11000 10999 10996 ] final  105.14 input  -57.11 | X-H torsion

> <Gold.Protein.ActiveResidues>
 VAL166  LYS551  ARG553  GLY616  TRP617  ASP618  TYR619  PRO620  LYS621  CYS622 
 ASP623  PHE694  ASN695  SER759  ASP760  ASP761  ALA762  ILE779  LEU786  VAL792 
 PHE793  MET794  SER795  GLU796  ALA797  LYS798  CYS799  TRP800  GLU811  SER814 

> <Gold.Protein.RotatedAtoms>
  152.2305  133.5054  159.5212 H   0  0  0  0  0  0  0  0  0  0  0  0  # atno 6907 bound_to 6896
  150.7036  134.1223  159.4048 H   0  0  0  0  0  0  0  0  0  0  0  0  # atno 6908 bound_to 6896
  151.9144  135.0325  160.0568 H   0  0  0  0  0  0  0  0  0  0  0  0  # atno 6909 bound_to 6896
  145.8248  139.3105  143.1022 H   0  0  0  0  0  0  0  0  0  0  0  0  # atno 7974 bound_to 7965
  154.5038  140.0828  156.7853 H   0  0  0  0  0  0  0  0  0  0  0  0  # atno 8008 bound_to 7997
  155.3940  140.3434  155.4235 H   0  0  0  0  0  0  0  0  0  0  0  0  # atno 8009 bound_to 7997
  156.1490  140.1552  156.8787 H   0  0  0  0  0  0  0  0  0  0  0  0  # atno 8010 bound_to 7997
  140.1562  143.4158  152.1459 H   0  0  0  0  0  0  0  0  0  0  0  0  # atno 10167 bound_to 10162
  157.3699  131.0977  151.0838 H   0  0  0  0  0  0  0  0  0  0  0  0  # atno 10718 bound_to 10713
  153.1579  135.4577  154.9730 H   0  0  0  0  0  0  0  0  0  0  0  0  # atno 10763 bound_to 10752
  154.7875  135.3209  154.7855 H   0  0  0  0  0  0  0  0  0  0  0  0  # atno 10764 bound_to 10752
  153.8350  135.6935  153.4864 H   0  0  0  0  0  0  0  0  0  0  0  0  # atno 10765 bound_to 10752
  139.8799  134.9325  156.5468 H   0  0  0  0  0  0  0  0  0  0  0  0  # atno 11005 bound_to 11000
  145.9635  140.8817  143.0199 LP  0  0  0  0  0  0  0  0  0  0  0  0  # atno 17320 bound_to 7965
  144.6744  140.1845  143.7402 LP  0  0  0  0  0  0  0  0  0  0  0  0  # atno 17321 bound_to 7965
  139.5402  144.7249  151.4758 LP  0  0  0  0  0  0  0  0  0  0  0  0  # atno 17342 bound_to 10162
  140.6671  143.8373  150.6955 LP  0  0  0  0  0  0  0  0  0  0  0  0  # atno 17343 bound_to 10162
  157.1946  130.6367  149.5716 LP  0  0  0  0  0  0  0  0  0  0  0  0  # atno 17370 bound_to 10713
  155.9753  130.4711  150.6452 LP  0  0  0  0  0  0  0  0  0  0  0  0  # atno 17371 bound_to 10713
  140.8269  133.8309  155.8948 LP  0  0  0  0  0  0  0  0  0  0  0  0  # atno 17394 bound_to 11000
  140.9365  134.1955  157.4828 LP  0  0  0  0  0  0  0  0  0  0  0  0  # atno 17395 bound_to 11000

$$$$
