AV-unprocessed.smi:89|AV-procd|sdf|825|dock1
  -GOLD-   2262017233D 1   1.00000     0.00000
 Structure written by MMmdl.
 54 56  0  0  0  0  0  0  0  0  1 V2000
  144.5414  143.9618  154.9970 C   0  0  0  0  0  0  0  0  0  0  0  0
  144.8519  142.5159  155.4170 C   0  0  0  0  0  0  0  0  0  0  0  0
  146.0796  142.3911  156.2076 N   0  0  0  0  0  0  0  0  0  0  0  0
  147.1815  141.8885  155.6001 C   0  0  0  0  0  0  0  0  0  0  0  0
  147.1123  141.6913  154.2594 N   0  0  0  0  0  0  0  0  0  0  0  0
  148.1620  141.1959  153.5986 C   0  0  0  0  0  0  0  0  0  0  0  0
  149.3577  140.8448  154.0755 N   0  0  0  0  0  0  0  0  0  0  0  0
  149.4382  141.0578  155.4203 C   0  0  0  0  0  0  0  0  0  0  0  0
  148.4045  141.5680  156.2563 C   0  0  0  0  0  0  0  0  0  0  0  0
  148.8551  141.6445  157.5689 N   0  0  0  0  0  0  0  0  0  0  0  0
  150.0791  141.1968  157.5136 C   0  0  0  0  0  0  0  0  0  0  0  0
  150.5172  140.8375  156.2592 N   0  0  0  0  0  0  0  0  0  0  0  0
  151.8314  140.3177  155.9114 C   0  0  0  0  0  0  0  0  0  0  0  0
  152.2245  139.0218  156.6671 C   0  0  1  0  0  0  0  0  0  0  0  0
  152.9373  139.3633  157.8411 O   0  0  0  0  0  0  0  0  0  0  0  0
  151.0402  138.1282  157.0449 C   0  0  0  0  0  0  0  0  0  0  0  0
  151.0512  137.0642  155.9570 C   0  0  0  0  0  0  0  0  0  0  0  0
  152.4366  136.8342  155.7749 O   0  0  0  0  0  0  0  0  0  0  0  0
  153.0924  138.0962  155.7896 C   0  0  0  0  0  0  0  0  0  0  0  0
  146.0051  142.0930  157.6425 C   0  0  2  0  0  0  0  0  0  0  0  0
  145.4762  140.6716  157.9018 C   0  0  0  0  0  0  0  0  0  0  0  0
  145.2011  143.1530  158.4203 C   0  0  0  0  0  0  0  0  0  0  0  0
  145.3275  142.9002  160.2471 S   0  0  0  0  0  0  0  0  0  0  0  0
  144.1882  142.0767  160.6795 O   0  0  0  0  0  0  0  0  0  0  0  0
  146.6984  142.4670  160.5582 O   0  0  0  0  0  0  0  0  0  0  0  0
  145.0920  144.6100  160.9005 C   0  0  0  0  0  0  0  0  0  0  0  0
  146.2800  145.5215  160.5713 C   0  0  0  0  0  0  0  0  0  0  0  0
  143.5869  144.0123  154.4734 H   0  0  0  0  0  0  0  0  0  0  0  0
  145.3009  144.3667  154.3282 H   0  0  0  0  0  0  0  0  0  0  0  0
  144.4769  144.6155  155.8673 H   0  0  0  0  0  0  0  0  0  0  0  0
  144.0119  142.1441  156.0013 H   0  0  0  0  0  0  0  0  0  0  0  0
  144.9078  141.8740  154.5386 H   0  0  0  0  0  0  0  0  0  0  0  0
  148.0245  141.0635  152.5355 H   0  0  0  0  0  0  0  0  0  0  0  0
  150.7039  141.1244  158.3920 H   0  0  0  0  0  0  0  0  0  0  0  0
  151.8491  140.1424  154.8349 H   0  0  0  0  0  0  0  0  0  0  0  0
  152.5666  141.1006  156.1031 H   0  0  0  0  0  0  0  0  0  0  0  0
  153.0883  138.5756  158.3405 H   0  0  0  0  0  0  0  0  0  0  0  0
  151.2140  137.6432  158.0072 H   0  0  0  0  0  0  0  0  0  0  0  0
  150.0843  138.6447  157.1132 H   0  0  0  0  0  0  0  0  0  0  0  0
  150.5249  136.1551  156.2487 H   0  0  0  0  0  0  0  0  0  0  0  0
  150.6116  137.4409  155.0322 H   0  0  0  0  0  0  0  0  0  0  0  0
  153.1516  138.4642  154.7642 H   0  0  0  0  0  0  0  0  0  0  0  0
  154.1145  137.9875  156.1548 H   0  0  0  0  0  0  0  0  0  0  0  0
  147.0165  142.1178  158.0515 H   0  0  0  0  0  0  0  0  0  0  0  0
  145.5064  140.4328  158.9650 H   0  0  0  0  0  0  0  0  0  0  0  0
  146.0779  139.9252  157.3826 H   0  0  0  0  0  0  0  0  0  0  0  0
  144.4441  140.5594  157.5686 H   0  0  0  0  0  0  0  0  0  0  0  0
  145.5218  144.1653  158.1803 H   0  0  0  0  0  0  0  0  0  0  0  0
  144.1459  143.0806  158.1573 H   0  0  0  0  0  0  0  0  0  0  0  0
  144.1653  145.0105  160.4902 H   0  0  0  0  0  0  0  0  0  0  0  0
  144.9661  144.5360  161.9808 H   0  0  0  0  0  0  0  0  0  0  0  0
  146.1320  146.5144  160.9964 H   0  0  0  0  0  0  0  0  0  0  0  0
  146.4076  145.6408  159.4960 H   0  0  0  0  0  0  0  0  0  0  0  0
  147.2090  145.1227  160.9785 H   0  0  0  0  0  0  0  0  0  0  0  0
  1  2  1  0  0  0  0
  1 28  1  0  0  0  0
  1 29  1  0  0  0  0
  1 30  1  0  0  0  0
  2  3  1  0  0  0  0
  2 31  1  0  0  0  0
  2 32  1  0  0  0  0
  3  4  1  0  0  0  0
  3 20  1  0  0  0  0
  4  9  1  0  0  0  0
  4  5  2  0  0  0  0
  5  6  1  0  0  0  0
  6  7  2  0  0  0  0
  6 33  1  0  0  0  0
  7  8  1  0  0  0  0
  8 12  1  0  0  0  0
  8  9  2  0  0  0  0
  9 10  1  0  0  0  0
 10 11  2  0  0  0  0
 11 12  1  0  0  0  0
 11 34  1  0  0  0  0
 12 13  1  0  0  0  0
 13 14  1  0  0  0  0
 13 35  1  0  0  0  0
 13 36  1  0  0  0  0
 14 19  1  0  0  0  0
 14 15  1  0  0  0  0
 14 16  1  0  0  0  0
 15 37  1  0  0  0  0
 16 17  1  0  0  0  0
 16 38  1  0  0  0  0
 16 39  1  0  0  0  0
 17 18  1  0  0  0  0
 17 40  1  0  0  0  0
 17 41  1  0  0  0  0
 18 19  1  0  0  0  0
 19 42  1  0  0  0  0
 19 43  1  0  0  0  0
 20 21  1  0  0  0  0
 20 22  1  0  0  0  0
 20 44  1  0  0  0  0
 21 45  1  0  0  0  0
 21 46  1  0  0  0  0
 21 47  1  0  0  0  0
 22 23  1  0  0  0  0
 22 48  1  0  0  0  0
 22 49  1  0  0  0  0
 23 24  2  0  0  0  0
 23 25  2  0  0  0  0
 23 26  1  0  0  0  0
 26 27  1  0  0  0  0
 26 50  1  0  0  0  0
 26 51  1  0  0  0  0
 27 52  1  0  0  0  0
 27 53  1  0  0  0  0
 27 54  1  0  0  0  0
M  END
> <s_m_source_file>
AV-unprocessed.smi

> <i_m_source_file_index>
89

> <i_lp_mmshare_version>
43012

> <i_f3d_flags>
0

> <s_epik_input>
W0NIM11bQ0gyXVMoPU8pKD1PKVtDSDJdW0NAQEhdKFtDSDNdKU4oW0NIMl1bQ0gzXSljKG5bY0hdbjEpYyhjMTIpbltjSF1uMltDSDJdW0NAQF0zKFtPSF0pW0NIMl1bQ0gyXU9bQ0gyXTM=

> <s_epik_cmdline>
J2VwaWtfcHl0aG9uJywgJy1waCcsICc3LjAnLCAnLXRuJywgJzgnLCAnLW1hJywgJzIwMCcsICctbWV0YWxfYmluZGluZycsICctaW1hZScsICc8aW5maWxlLm1hZT4nLCAnLW9tYWUnLCAnPG91dGZpbGUubWFlPic=

> <r_lp_tautomer_probability>
1

> <r_epik_Ionization_Penalty>
0.00103773

> <r_epik_Ionization_Penalty_Charging>
0

> <r_epik_Ionization_Penalty_Neutral>
0.00103773

> <r_epik_State_Penalty>
0.000558914

> <r_epik_Charging_Adjusted_Penalty>
0.000558914

> <i_epik_Tot_Q>
0

> <i_epik_Tot_abs_Q>
0

> <r_epik_Metal_State_Penalty>
-0

> <b_epik_Metal_Only>
0

> <s_lp_Force_Field>
OPLS_2005

> <r_lp_Energy>
26.0666

> <b_lp_Chiralities_Consistent>
1

> <s_lp_Variant>
AV-unprocessed.smi:89-1

> <Gold.Version>
5.8.1

> <Gold.Id.Protein>
6NUR|6NUR_protein|mol2

> <Gold.PLP.Fitness>
45.3040

> <Gold.PLP.PLP>
-32.9938

> <Gold.PLP.part.hbond>
-5.0256

> <Gold.PLP.part.metal>
0.0000

> <Gold.PLP.part.buried>
-2.1809

> <Gold.PLP.part.nonpolar>
-26.2635

> <Gold.PLP.part.repulsive>
0.9292

> <Gold.PLP.ligand.clash>
0.0000

> <Gold.PLP.ligand.torsion>
1.9562

> <Gold.PLP.Chemscore.Hbond>
3.9396

> <Gold.PLP.Chemscore.CHOScore>
0.9041

> <Gold.PLP.Chemscore.Metal>
0.0000

> <Gold.Chemscore.Hbonds>
donor molecule, donor type, donor heavy atom, donor atom, acceptor molecule, acceptor atom, score
      P1  H  6933  6944       L1    25  0.69
      P1  H  6934  6946       L1    25  0.99
      P1  H  7989  7998       L1     7  0.14
      P1  H  7997  8008       L1    15  1.00
      P1  H 10752 10765       L1    18  0.90
      L1  C     6    33       P1  7957  0.89

> <Gold.PLP.Chemscore.Internal.Correction>
1.6913

> <Gold.Rescore>
     Score         DG    S(hbond)    S(metal)    S(lipo)     H(rot)  DE(clash)    DE(int)     intcor
      9.89     -13.25       2.86        0.00      53.42       3.14       0.27       3.09       ----

> <Gold.Chemscore.Fitness>
9.8925

> <Gold.Chemscore.DG>
-13.2500

> <Gold.Chemscore.ZeroCoef>
-5.4800

> <Gold.Chemscore.Hbond>
2.8607

> <Gold.Chemscore.Metal>
0.0000

> <Gold.Chemscore.Lipo>
53.4205

> <Gold.Chemscore.Internal_Hbond>
0.0000

> <Gold.Chemscore.DEClash>
0.2675

> <Gold.Chemscore.DEInternal>
3.0901

> <Gold.Chemscore.Rot>
3.1386

> <Gold.Chemscore.Internal.Correction>
   9.000000E+99

> <Gold.Chemscore.Hbonds>
donor molecule, donor type, donor heavy atom, donor atom, acceptor molecule, acceptor atom, score
      P1  H  6933  6944       L1    25  0.66
      P1  H  6934  6946       L1    25  0.87
      P1  H  7989  7998       L1     7  0.04
      P1  H  7997  8008       L1    15  0.20
      P1  H 10752 10765       L1    18  0.86

> <Gold.Chemscore.Hbond.Weighted>
-9.5548

> <Gold.Chemscore.Metal.Weighted>
-0.0000

> <Gold.Chemscore.Lipo.Weighted>
-6.2502

> <Gold.Chemscore.Internal_Hbond.Weighted>
0.0000

> <Gold.Chemscore.DEClash.Weighted>
0.2675

> <Gold.Chemscore.DEInternal.Weighted>
3.0901

> <Gold.Chemscore.Rot.Weighted>
8.0349

> <Gold.Chemscore.Internal.Correction.Weighted>
   9.000000E+99

> <Gold.Protein.RotatedTorsions>
[ 6907 6896 6895 6894 ] final  166.97 input  -60.11 | X-H torsion
[ 7974 7965 7964 7962 ] final   53.00 input  175.53 | X-H torsion
[ 8008 7997 7996 7995 ] final  -88.09 input   59.86 | X-H torsion
[ 10167 10162 10161 10158 ] final  145.50 input  -65.29 | X-H torsion
[ 10718 10713 10712 10709 ] final    7.29 input   66.30 | X-H torsion
[ 10763 10752 10751 10750 ] final -150.31 input  -60.55 | X-H torsion
[ 11005 11000 10999 10996 ] final -147.27 input  -57.11 | X-H torsion

> <Gold.Protein.ActiveResidues>
 VAL166  LYS551  ARG553  GLY616  TRP617  ASP618  TYR619  PRO620  LYS621  CYS622 
 ASP623  PHE694  ASN695  SER759  ASP760  ASP761  ALA762  ILE779  LEU786  VAL792 
 PHE793  MET794  SER795  GLU796  ALA797  LYS798  CYS799  TRP800  GLU811  SER814 

> <Gold.Protein.RotatedAtoms>
  151.8705  133.3475  159.3733 H   0  0  0  0  0  0  0  0  0  0  0  0  # atno 6907 bound_to 6896
  150.7154  134.5117  159.5620 H   0  0  0  0  0  0  0  0  0  0  0  0  # atno 6908 bound_to 6896
  152.2649  134.7995  160.0475 H   0  0  0  0  0  0  0  0  0  0  0  0  # atno 6909 bound_to 6896
  145.9756  139.4191  143.0163 H   0  0  0  0  0  0  0  0  0  0  0  0  # atno 7974 bound_to 7965
  154.6707  140.0558  157.0163 H   0  0  0  0  0  0  0  0  0  0  0  0  # atno 8008 bound_to 7997
  155.1092  140.3236  155.4507 H   0  0  0  0  0  0  0  0  0  0  0  0  # atno 8009 bound_to 7997
  156.2656  140.2017  156.6217 H   0  0  0  0  0  0  0  0  0  0  0  0  # atno 8010 bound_to 7997
  139.4925  144.5897  151.6706 H   0  0  0  0  0  0  0  0  0  0  0  0  # atno 10167 bound_to 10162
  156.9347  130.5839  149.5650 H   0  0  0  0  0  0  0  0  0  0  0  0  # atno 10718 bound_to 10713
  154.8126  135.3287  154.7263 H   0  0  0  0  0  0  0  0  0  0  0  0  # atno 10763 bound_to 10752
  153.7910  135.6911  153.4876 H   0  0  0  0  0  0  0  0  0  0  0  0  # atno 10764 bound_to 10752
  153.1917  135.4548  155.0104 H   0  0  0  0  0  0  0  0  0  0  0  0  # atno 10765 bound_to 10752
  140.7734  134.3163  157.5068 H   0  0  0  0  0  0  0  0  0  0  0  0  # atno 11005 bound_to 11000
  145.7844  140.9842  143.1082 LP  0  0  0  0  0  0  0  0  0  0  0  0  # atno 17320 bound_to 7965
  144.6848  139.9604  143.7480 LP  0  0  0  0  0  0  0  0  0  0  0  0  # atno 17321 bound_to 7965
  140.5521  144.0408  150.6131 LP  0  0  0  0  0  0  0  0  0  0  0  0  # atno 17342 bound_to 10162
  140.3466  143.2988  152.0532 LP  0  0  0  0  0  0  0  0  0  0  0  0  # atno 17343 bound_to 10162
  156.0431  130.5511  150.8818 LP  0  0  0  0  0  0  0  0  0  0  0  0  # atno 17370 bound_to 10713
  157.5824  131.0946  150.9250 LP  0  0  0  0  0  0  0  0  0  0  0  0  # atno 17371 bound_to 10713
  139.8752  134.9274  156.3425 LP  0  0  0  0  0  0  0  0  0  0  0  0  # atno 17394 bound_to 11000
  140.9552  133.7424  156.0326 LP  0  0  0  0  0  0  0  0  0  0  0  0  # atno 17395 bound_to 11000

$$$$
