AV-unprocessed.smi:3164|AV-procd|sdf|12083|dock8
  -GOLD-   2272017513D 1   1.00000     0.00000
 Structure written by MMmdl.
 39 40  0  0  0  0  0  0  0  0  2 V2000
  150.3835  140.0710  155.0532 C   0  0  0  0  0  0  0  0  0  0  0  0
  148.9798  140.1699  154.6813 N   0  0  0  0  0  0  0  0  0  0  0  0
  148.5887  141.5493  154.4235 C   0  0  0  0  0  0  0  0  0  0  0  0
  147.1091  141.6523  154.0164 C   0  0  0  0  0  0  0  0  0  0  0  0
  146.8651  140.8160  152.8887 O   0  0  0  0  0  0  0  0  0  0  0  0
  147.1824  139.4460  153.1274 C   0  0  1  0  0  0  0  0  0  0  0  0
  146.8669  138.6486  151.8546 C   0  0  0  0  0  0  0  0  0  0  0  0
  145.4345  138.2989  151.7913 N   0  3  0  0  0  0  0  0  0  0  0  0
  145.1272  136.9233  152.2328 C   0  0  0  0  0  0  0  0  0  0  0  0
  146.2151  135.9317  151.7907 C   0  0  0  0  0  0  0  0  0  0  0  0
  145.6738  134.5375  151.5268 C   0  0  0  0  0  0  0  0  0  0  0  0
  146.5488  133.4575  151.2809 C   0  0  0  0  0  0  0  0  0  0  0  0
  145.9933  132.1871  151.0326 C   0  0  0  0  0  0  0  0  0  0  0  0
  144.5923  132.0472  151.0381 C   0  0  0  0  0  0  0  0  0  0  0  0
  143.8053  133.1879  151.2931 C   0  0  0  0  0  0  0  0  0  0  0  0
  144.3281  134.4105  151.5310 N   0  0  0  0  0  0  0  0  0  0  0  0
  148.6708  139.3473  153.5189 C   0  0  0  0  0  0  0  0  0  0  0  0
  150.5914  140.6706  155.9402 H   0  0  0  0  0  0  0  0  0  0  0  0
  151.0310  140.4207  154.2479 H   0  0  0  0  0  0  0  0  0  0  0  0
  150.6515  139.0388  155.2808 H   0  0  0  0  0  0  0  0  0  0  0  0
  148.7653  142.1570  155.3118 H   0  0  0  0  0  0  0  0  0  0  0  0
  149.2099  141.9684  153.6303 H   0  0  0  0  0  0  0  0  0  0  0  0
  146.4594  141.3596  154.8428 H   0  0  0  0  0  0  0  0  0  0  0  0
  146.8566  142.6811  153.7592 H   0  0  0  0  0  0  0  0  0  0  0  0
  146.5682  139.0712  153.9488 H   0  0  0  0  0  0  0  0  0  0  0  0
  147.1464  139.2196  150.9681 H   0  0  0  0  0  0  0  0  0  0  0  0
  147.4516  137.7279  151.8437 H   0  0  0  0  0  0  0  0  0  0  0  0
  144.9205  138.9423  152.3764 H   0  0  0  0  0  0  0  0  0  0  0  0
  145.0385  136.9087  153.3196 H   0  0  0  0  0  0  0  0  0  0  0  0
  144.1595  136.6219  151.8293 H   0  0  0  0  0  0  0  0  0  0  0  0
  146.7152  136.3035  150.8954 H   0  0  0  0  0  0  0  0  0  0  0  0
  146.9847  135.8667  152.5610 H   0  0  0  0  0  0  0  0  0  0  0  0
  147.6202  133.5949  151.2831 H   0  0  0  0  0  0  0  0  0  0  0  0
  146.6300  131.3358  150.8415 H   0  0  0  0  0  0  0  0  0  0  0  0
  144.1308  131.0882  150.8535 H   0  0  0  0  0  0  0  0  0  0  0  0
  142.7280  133.1167  151.3052 H   0  0  0  0  0  0  0  0  0  0  0  0
  149.2898  139.6557  152.6745 H   0  0  0  0  0  0  0  0  0  0  0  0
  148.9244  138.3073  153.7277 H   0  0  0  0  0  0  0  0  0  0  0  0
  145.1215  138.4105  150.8372 H   0  0  0  0  0  0  0  0  0  0  0  0
  1  2  1  0  0  0  0
  1 18  1  0  0  0  0
  1 19  1  0  0  0  0
  1 20  1  0  0  0  0
  2 17  1  0  0  0  0
  2  3  1  0  0  0  0
  3  4  1  0  0  0  0
  3 21  1  0  0  0  0
  3 22  1  0  0  0  0
  4  5  1  0  0  0  0
  4 23  1  0  0  0  0
  4 24  1  0  0  0  0
  5  6  1  0  0  0  0
  6  7  1  0  0  0  0
  6 17  1  0  0  0  0
  6 25  1  0  0  0  0
  7  8  1  0  0  0  0
  7 26  1  0  0  0  0
  7 27  1  0  0  0  0
  8  9  1  0  0  0  0
  8 28  1  0  0  0  0
  8 39  1  0  0  0  0
  9 10  1  0  0  0  0
  9 29  1  0  0  0  0
  9 30  1  0  0  0  0
 10 11  1  0  0  0  0
 10 31  1  0  0  0  0
 10 32  1  0  0  0  0
 11 16  1  0  0  0  0
 11 12  2  0  0  0  0
 12 13  1  0  0  0  0
 12 33  1  0  0  0  0
 13 14  2  0  0  0  0
 13 34  1  0  0  0  0
 14 15  1  0  0  0  0
 14 35  1  0  0  0  0
 15 16  2  0  0  0  0
 15 36  1  0  0  0  0
 17 37  1  0  0  0  0
 17 38  1  0  0  0  0
M  CHG  1   8   1
M  END
> <s_m_source_file>
AV-unprocessed.smi

> <i_m_source_file_index>
3164

> <i_lp_mmshare_version>
43012

> <i_f3d_flags>
0

> <s_epik_input>
W0NIM11OMVtDSDJdW0NIMl1PW0NASF0oW0NIMl0xKVtDSDJdW05IXVtDSDJdW0NIMl1jMltjSF1bY0hdW2NIXVtjSF1uMg==

> <s_epik_cmdline>
J2VwaWtfcHl0aG9uJywgJy1waCcsICc3LjAnLCAnLXRuJywgJzgnLCAnLW1hJywgJzIwMCcsICctbWV0YWxfYmluZGluZycsICctaW1hZScsICc8aW5maWxlLm1hZT4nLCAnLW9tYWUnLCAnPG91dGZpbGUubWFlPic=

> <r_epik_Ionization_Penalty>
0.584284

> <r_epik_Ionization_Penalty_Charging>
0.00270218

> <r_epik_Ionization_Penalty_Neutral>
0.581582

> <r_epik_State_Penalty>
0.593163

> <r_epik_Charging_Adjusted_Penalty>
0.595865

> <i_epik_Tot_Q>
1

> <i_epik_Tot_abs_Q>
1

> <r_epik_Metal_State_Penalty>
0.593163

> <b_epik_Metal_Only>
0

> <s_lp_Force_Field>
OPLS_2005

> <r_lp_Energy>
22.7337

> <b_lp_Chiralities_Consistent>
1

> <s_lp_Variant>
AV-unprocessed.smi:3164-5

> <Gold.Version>
5.8.1

> <Gold.Id.Protein>
6NUR|6NUR_protein|mol2

> <Gold.PLP.Fitness>
41.0185

> <Gold.PLP.PLP>
-31.4465

> <Gold.PLP.part.hbond>
-1.6385

> <Gold.PLP.part.metal>
0.0000

> <Gold.PLP.part.buried>
4.6650

> <Gold.PLP.part.nonpolar>
-33.5282

> <Gold.PLP.part.repulsive>
0.5270

> <Gold.PLP.ligand.clash>
0.0000

> <Gold.PLP.ligand.torsion>
0.8921

> <Gold.PLP.Chemscore.Hbond>
2.7931

> <Gold.PLP.Chemscore.CHOScore>
0.9794

> <Gold.PLP.Chemscore.Metal>
0.0000

> <Gold.Chemscore.Hbonds>
donor molecule, donor type, donor heavy atom, donor atom, acceptor molecule, acceptor atom, score
      L1  H     8    28       P1 10175  1.86
      L1  H     8    39       P1 10171  0.96
      L1  C    15    36       P1 10186  0.36

> <Gold.PLP.Chemscore.Internal.Correction>
0.0389

> <Gold.Rescore>
     Score         DG    S(hbond)    S(metal)    S(lipo)     H(rot)  DE(clash)    DE(int)     intcor
     15.83     -18.01       1.79        0.00      90.45       1.57       1.20       0.97       ----

> <Gold.Chemscore.Fitness>
15.8311

> <Gold.Chemscore.DG>
-18.0080

> <Gold.Chemscore.ZeroCoef>
-5.4800

> <Gold.Chemscore.Hbond>
1.7880

> <Gold.Chemscore.Metal>
0.0000

> <Gold.Chemscore.Lipo>
90.4451

> <Gold.Chemscore.Internal_Hbond>
0.0000

> <Gold.Chemscore.DEClash>
1.2030

> <Gold.Chemscore.DEInternal>
0.9739

> <Gold.Chemscore.Rot>
1.5726

> <Gold.Chemscore.Internal.Correction>
   9.000000E+99

> <Gold.Chemscore.Hbonds>
donor molecule, donor type, donor heavy atom, donor atom, acceptor molecule, acceptor atom, score
      L1  H     8    28       P1 10175  0.88
      L1  H     8    39       P1 10171  0.91

> <Gold.Chemscore.Hbond.Weighted>
-5.9718

> <Gold.Chemscore.Metal.Weighted>
-0.0000

> <Gold.Chemscore.Lipo.Weighted>
-10.5821

> <Gold.Chemscore.Internal_Hbond.Weighted>
0.0000

> <Gold.Chemscore.DEClash.Weighted>
1.2030

> <Gold.Chemscore.DEInternal.Weighted>
0.9739

> <Gold.Chemscore.Rot.Weighted>
4.0259

> <Gold.Chemscore.Internal.Correction.Weighted>
   9.000000E+99

> <Gold.Protein.RotatedTorsions>
[ 6907 6896 6895 6894 ] final  163.51 input  -60.11 | X-H torsion
[ 7974 7965 7964 7962 ] final  126.04 input  175.53 | X-H torsion
[ 8008 7997 7996 7995 ] final   64.11 input   59.86 | X-H torsion
[ 10167 10162 10161 10158 ] final    2.92 input  -65.29 | X-H torsion
[ 10718 10713 10712 10709 ] final  -27.46 input   66.30 | X-H torsion
[ 10763 10752 10751 10750 ] final  -34.19 input  -60.55 | X-H torsion
[ 11005 11000 10999 10996 ] final  -72.61 input  -57.11 | X-H torsion

> <Gold.Protein.ActiveResidues>
 VAL166  LYS551  ARG553  GLY616  TRP617  ASP618  TYR619  PRO620  LYS621  CYS622 
 ASP623  PHE694  ASN695  SER759  ASP760  ASP761  ALA762  ILE779  LEU786  VAL792 
 PHE793  MET794  SER795  GLU796  ALA797  LYS798  CYS799  TRP800  GLU811  SER814 

> <Gold.Protein.RotatedAtoms>
  151.9240  133.3593  159.3906 H   0  0  0  0  0  0  0  0  0  0  0  0  # atno 6907 bound_to 6896
  150.7031  134.4606  159.5388 H   0  0  0  0  0  0  0  0  0  0  0  0  # atno 6908 bound_to 6896
  152.2234  134.8391  160.0534 H   0  0  0  0  0  0  0  0  0  0  0  0  # atno 6909 bound_to 6896
  145.0662  139.3765  143.4980 H   0  0  0  0  0  0  0  0  0  0  0  0  # atno 7974 bound_to 7965
  155.6408  140.3497  155.4714 H   0  0  0  0  0  0  0  0  0  0  0  0  # atno 8008 bound_to 7997
  155.9927  140.1197  157.0646 H   0  0  0  0  0  0  0  0  0  0  0  0  # atno 8009 bound_to 7997
  154.4224  140.1116  156.5574 H   0  0  0  0  0  0  0  0  0  0  0  0  # atno 8010 bound_to 7997
  140.6611  143.7301  150.7741 H   0  0  0  0  0  0  0  0  0  0  0  0  # atno 10167 bound_to 10162
  156.4378  130.4458  149.7073 H   0  0  0  0  0  0  0  0  0  0  0  0  # atno 10718 bound_to 10713
  153.8426  135.6856  153.4801 H   0  0  0  0  0  0  0  0  0  0  0  0  # atno 10763 bound_to 10752
  153.1444  135.4644  154.9543 H   0  0  0  0  0  0  0  0  0  0  0  0  # atno 10764 bound_to 10752
  154.7838  135.3278  154.7878 H   0  0  0  0  0  0  0  0  0  0  0  0  # atno 10765 bound_to 10752
  141.1611  133.6852  156.7085 H   0  0  0  0  0  0  0  0  0  0  0  0  # atno 11005 bound_to 11000
  146.3527  140.0385  142.8645 LP  0  0  0  0  0  0  0  0  0  0  0  0  # atno 17320 bound_to 7965
  145.1348  140.9538  143.4523 LP  0  0  0  0  0  0  0  0  0  0  0  0  # atno 17321 bound_to 7965
  140.0970  143.4824  152.2447 LP  0  0  0  0  0  0  0  0  0  0  0  0  # atno 17342 bound_to 10162
  139.5845  144.7525  151.3554 LP  0  0  0  0  0  0  0  0  0  0  0  0  # atno 17343 bound_to 10162
  156.3950  130.7646  151.2650 LP  0  0  0  0  0  0  0  0  0  0  0  0  # atno 17370 bound_to 10713
  157.7507  131.0256  150.3929 LP  0  0  0  0  0  0  0  0  0  0  0  0  # atno 17371 bound_to 10713
  140.2905  134.8244  157.4012 LP  0  0  0  0  0  0  0  0  0  0  0  0  # atno 17394 bound_to 11000
  140.1351  134.5044  155.8075 LP  0  0  0  0  0  0  0  0  0  0  0  0  # atno 17395 bound_to 11000

$$$$
