AV-unprocessed.smi:958|AV-procd|sdf|4267|dock2
  -GOLD-   22720 2173D 1   1.00000     0.00000
 Structure written by MMmdl.
 31 33  0  0  0  0  0  0  0  0  2 V2000
  153.1961  142.7336  160.0686 C   0  0  0  0  0  0  0  0  0  0  0  0
  153.0551  141.4134  160.1731 N   0  0  0  0  0  0  0  0  0  0  0  0
  152.0269  141.1056  159.3070 N   0  0  0  0  0  0  0  0  0  0  0  0
  151.6448  142.2704  158.7667 C   0  0  0  0  0  0  0  0  0  0  0  0
  150.5192  142.3897  157.7776 C   0  0  2  0  0  0  0  0  0  0  0  0
  149.2675  141.6141  158.2314 C   0  0  0  0  0  0  0  0  0  0  0  0
  148.1473  141.7386  157.1873 C   0  0  0  0  0  0  0  0  0  0  0  0
  148.6414  141.3042  155.7976 C   0  0  0  0  0  0  0  0  0  0  0  0
  149.8345  142.0831  155.4015 N   0  3  0  0  0  0  0  0  0  0  0  0
  150.9524  141.9550  156.3622 C   0  0  0  0  0  0  0  0  0  0  0  0
  152.3691  143.3276  159.1937 N   0  0  0  0  0  0  0  0  0  0  0  0
  152.2494  144.7419  158.8800 C   0  0  0  0  0  0  0  0  0  0  0  0
  151.9171  145.6197  160.0649 C   0  0  0  0  0  0  0  0  0  0  0  0
  150.8568  145.3124  159.0309 C   0  0  0  0  0  0  0  0  0  0  0  0
  153.9261  143.2818  160.6459 H   0  0  0  0  0  0  0  0  0  0  0  0
  150.2310  143.4389  157.7159 H   0  0  0  0  0  0  0  0  0  0  0  0
  149.5112  140.5605  158.3752 H   0  0  0  0  0  0  0  0  0  0  0  0
  148.9210  141.9880  159.1956 H   0  0  0  0  0  0  0  0  0  0  0  0
  147.2910  141.1328  157.4851 H   0  0  0  0  0  0  0  0  0  0  0  0
  147.7971  142.7710  157.1465 H   0  0  0  0  0  0  0  0  0  0  0  0
  148.8892  140.2417  155.7969 H   0  0  0  0  0  0  0  0  0  0  0  0
  147.8576  141.4495  155.0538 H   0  0  0  0  0  0  0  0  0  0  0  0
  150.1449  141.7680  154.4933 H   0  0  0  0  0  0  0  0  0  0  0  0
  151.7854  142.5671  156.0154 H   0  0  0  0  0  0  0  0  0  0  0  0
  151.2975  140.9200  156.3658 H   0  0  0  0  0  0  0  0  0  0  0  0
  152.9200  145.0815  158.0932 H   0  0  0  0  0  0  0  0  0  0  0  0
  151.8165  145.1501  161.0417 H   0  0  0  0  0  0  0  0  0  0  0  0
  152.3296  146.6266  160.0731 H   0  0  0  0  0  0  0  0  0  0  0  0
  150.5698  146.1154  158.3552 H   0  0  0  0  0  0  0  0  0  0  0  0
  150.0478  144.6495  159.3321 H   0  0  0  0  0  0  0  0  0  0  0  0
  149.5753  143.0572  155.3369 H   0  0  0  0  0  0  0  0  0  0  0  0
  1 11  1  0  0  0  0
  1  2  2  0  0  0  0
  1 15  1  0  0  0  0
  2  3  1  0  0  0  0
  3  4  2  0  0  0  0
  4  5  1  0  0  0  0
  4 11  1  0  0  0  0
  5 10  1  0  0  0  0
  5  6  1  0  0  0  0
  5 16  1  0  0  0  0
  6  7  1  0  0  0  0
  6 17  1  0  0  0  0
  6 18  1  0  0  0  0
  7  8  1  0  0  0  0
  7 19  1  0  0  0  0
  7 20  1  0  0  0  0
  8  9  1  0  0  0  0
  8 21  1  0  0  0  0
  8 22  1  0  0  0  0
  9 10  1  0  0  0  0
  9 23  1  0  0  0  0
  9 31  1  0  0  0  0
 10 24  1  0  0  0  0
 10 25  1  0  0  0  0
 11 12  1  0  0  0  0
 12 14  1  0  0  0  0
 12 13  1  0  0  0  0
 12 26  1  0  0  0  0
 13 14  1  0  0  0  0
 13 27  1  0  0  0  0
 13 28  1  0  0  0  0
 14 29  1  0  0  0  0
 14 30  1  0  0  0  0
M  CHG  1   9   1
M  END
> <s_m_source_file>
AV-unprocessed.smi

> <i_m_source_file_index>
958

> <i_lp_mmshare_version>
43012

> <i_f3d_flags>
0

> <s_epik_input>
W0NIMl0xW0NIMl1bQ0hdMW4yW2NIXW5uYzJbQ0BASF0zW0NIMl1bQ0gyXVtDSDJdW05IXVtDSDJdMw==

> <s_epik_cmdline>
J2VwaWtfcHl0aG9uJywgJy1waCcsICc3LjAnLCAnLXRuJywgJzgnLCAnLW1hJywgJzIwMCcsICctbWV0YWxfYmluZGluZycsICctaW1hZScsICc8aW5maWxlLm1hZT4nLCAnLW9tYWUnLCAnPG91dGZpbGUubWFlPic=

> <r_lp_tautomer_probability>
1

> <r_epik_Ionization_Penalty>
0.000442722

> <r_epik_Ionization_Penalty_Charging>
0.000426856

> <r_epik_Ionization_Penalty_Neutral>
1.58656e-05

> <r_epik_State_Penalty>
-0

> <r_epik_Charging_Adjusted_Penalty>
0.000426856

> <i_epik_Tot_Q>
1

> <i_epik_Tot_abs_Q>
1

> <r_epik_Metal_State_Penalty>
-0

> <b_epik_Metal_Only>
0

> <s_lp_Force_Field>
OPLS_2005

> <r_lp_Energy>
27.25

> <b_lp_Chiralities_Consistent>
1

> <s_lp_Variant>
AV-unprocessed.smi:958-1

> <Gold.Version>
5.8.1

> <Gold.Id.Protein>
6NUR|6NUR_protein|mol2

> <Gold.PLP.Fitness>
38.8381

> <Gold.PLP.PLP>
-33.6688

> <Gold.PLP.part.hbond>
-1.0000

> <Gold.PLP.part.metal>
0.0000

> <Gold.PLP.part.buried>
-5.4101

> <Gold.PLP.part.nonpolar>
-26.8954

> <Gold.PLP.part.repulsive>
0.1902

> <Gold.PLP.ligand.clash>
0.0000

> <Gold.PLP.ligand.torsion>
0.4631

> <Gold.PLP.Chemscore.Hbond>
2.0000

> <Gold.PLP.Chemscore.CHOScore>
0.0000

> <Gold.PLP.Chemscore.Metal>
0.0000

> <Gold.Chemscore.Hbonds>
donor molecule, donor type, donor heavy atom, donor atom, acceptor molecule, acceptor atom, score
      L1  H     9    31       P1  8028  2.00

> <Gold.PLP.Chemscore.Internal.Correction>
0.0955

> <Gold.Rescore>
     Score         DG    S(hbond)    S(metal)    S(lipo)     H(rot)  DE(clash)    DE(int)     intcor
     12.60     -12.93       1.00        0.00      62.50       1.25       0.02       0.31       ----

> <Gold.Chemscore.Fitness>
12.6026

> <Gold.Chemscore.DG>
-12.9320

> <Gold.Chemscore.ZeroCoef>
-5.4800

> <Gold.Chemscore.Hbond>
0.9990

> <Gold.Chemscore.Metal>
0.0000

> <Gold.Chemscore.Lipo>
62.5039

> <Gold.Chemscore.Internal_Hbond>
0.0000

> <Gold.Chemscore.DEClash>
0.0156

> <Gold.Chemscore.DEInternal>
0.3139

> <Gold.Chemscore.Rot>
1.2491

> <Gold.Chemscore.Internal.Correction>
   9.000000E+99

> <Gold.Chemscore.Hbonds>
donor molecule, donor type, donor heavy atom, donor atom, acceptor molecule, acceptor atom, score
      L1  H     9    31       P1  8028  1.00

> <Gold.Chemscore.Hbond.Weighted>
-3.3367

> <Gold.Chemscore.Metal.Weighted>
-0.0000

> <Gold.Chemscore.Lipo.Weighted>
-7.3130

> <Gold.Chemscore.Internal_Hbond.Weighted>
0.0000

> <Gold.Chemscore.DEClash.Weighted>
0.0156

> <Gold.Chemscore.DEInternal.Weighted>
0.3139

> <Gold.Chemscore.Rot.Weighted>
3.1977

> <Gold.Chemscore.Internal.Correction.Weighted>
   9.000000E+99

> <Gold.Protein.RotatedTorsions>
[ 6907 6896 6895 6894 ] final  -58.03 input  -60.11 | X-H torsion
[ 7974 7965 7964 7962 ] final  -31.48 input  175.53 | X-H torsion
[ 8008 7997 7996 7995 ] final   98.10 input   59.86 | X-H torsion
[ 10167 10162 10161 10158 ] final  162.12 input  -65.29 | X-H torsion
[ 10718 10713 10712 10709 ] final   61.73 input   66.30 | X-H torsion
[ 10763 10752 10751 10750 ] final   15.85 input  -60.55 | X-H torsion
[ 11005 11000 10999 10996 ] final -172.78 input  -57.11 | X-H torsion

> <Gold.Protein.ActiveResidues>
 VAL166  LYS551  ARG553  GLY616  TRP617  ASP618  TYR619  PRO620  LYS621  CYS622 
 ASP623  PHE694  ASN695  SER759  ASP760  ASP761  ALA762  ILE779  LEU786  VAL792 
 PHE793  MET794  SER795  GLU796  ALA797  LYS798  CYS799  TRP800  GLU811  SER814 

> <Gold.Protein.RotatedAtoms>
  150.8039  134.7151  159.6625 H   0  0  0  0  0  0  0  0  0  0  0  0  # atno 6907 bound_to 6896
  152.4157  134.6042  160.0018 H   0  0  0  0  0  0  0  0  0  0  0  0  # atno 6908 bound_to 6896
  151.6272  133.3297  159.3137 H   0  0  0  0  0  0  0  0  0  0  0  0  # atno 6909 bound_to 6896
  146.1064  140.5672  142.8797 H   0  0  0  0  0  0  0  0  0  0  0  0  # atno 7974 bound_to 7965
  156.0969  140.3249  155.7890 H   0  0  0  0  0  0  0  0  0  0  0  0  # atno 8008 bound_to 7997
  155.4902  140.0561  157.2972 H   0  0  0  0  0  0  0  0  0  0  0  0  # atno 8009 bound_to 7997
  154.4672  140.1995  156.0103 H   0  0  0  0  0  0  0  0  0  0  0  0  # atno 8010 bound_to 7997
  139.4857  144.4469  151.8880 H   0  0  0  0  0  0  0  0  0  0  0  0  # atno 10167 bound_to 10162
  157.5849  130.9011  149.9497 H   0  0  0  0  0  0  0  0  0  0  0  0  # atno 10718 bound_to 10713
  153.1486  135.6774  153.8916 H   0  0  0  0  0  0  0  0  0  0  0  0  # atno 10763 bound_to 10752
  153.8350  135.3112  155.3423 H   0  0  0  0  0  0  0  0  0  0  0  0  # atno 10764 bound_to 10752
  154.7845  135.4870  154.0001 H   0  0  0  0  0  0  0  0  0  0  0  0  # atno 10765 bound_to 10752
  140.4932  134.5965  157.4962 H   0  0  0  0  0  0  0  0  0  0  0  0  # atno 11005 bound_to 11000
  144.7475  140.5105  143.6825 LP  0  0  0  0  0  0  0  0  0  0  0  0  # atno 17320 bound_to 7965
  145.5752  139.1485  143.3266 LP  0  0  0  0  0  0  0  0  0  0  0  0  # atno 17321 bound_to 7965
  140.3924  144.2599  150.5898 LP  0  0  0  0  0  0  0  0  0  0  0  0  # atno 17342 bound_to 10162
  140.5134  143.2284  151.8500 LP  0  0  0  0  0  0  0  0  0  0  0  0  # atno 17343 bound_to 10162
  156.0897  130.3664  150.0418 LP  0  0  0  0  0  0  0  0  0  0  0  0  # atno 17370 bound_to 10713
  156.8551  130.9472  151.3622 LP  0  0  0  0  0  0  0  0  0  0  0  0  # atno 17371 bound_to 10713
  139.9757  134.7219  155.9955 LP  0  0  0  0  0  0  0  0  0  0  0  0  # atno 17394 bound_to 11000
  141.1474  133.6554  156.3908 LP  0  0  0  0  0  0  0  0  0  0  0  0  # atno 17395 bound_to 11000

$$$$
