AV-unprocessed.smi:2171|AV-procd|sdf|8827|dock6
  -GOLD-   2272012 23D 1   1.00000     0.00000
 Structure written by MMmdl.
 39 41  0  0  0  0  0  0  0  0  2 V2000
  152.7701  139.6805  156.6818 O   0  0  0  0  0  0  0  0  0  0  0  0
  151.9991  140.4911  157.1946 C   0  0  0  0  0  0  0  0  0  0  0  0
  152.3414  141.1358  158.5370 C   0  0  0  0  0  0  0  0  0  0  0  0
  152.2165  142.5803  158.4541 N   0  0  0  0  0  0  0  0  0  0  0  0
  153.1093  143.5417  158.8795 C   0  0  0  0  0  0  0  0  0  0  0  0
  152.5725  144.7590  158.5720 C   0  0  0  0  0  0  0  0  0  0  0  0
  151.3336  144.4357  157.9511 C   0  0  0  0  0  0  0  0  0  0  0  0
  151.1239  143.1312  157.8795 N   0  0  0  0  0  0  0  0  0  0  0  0
  150.8530  140.8872  156.6207 N   0  0  0  0  0  0  0  0  0  0  0  0
  150.4117  140.4990  155.2855 C   0  0  1  0  0  0  0  0  0  0  0  0
  149.9670  139.0327  155.1958 C   0  0  0  0  0  0  0  0  0  0  0  0
  148.8452  139.0168  154.1417 C   0  0  0  0  0  0  0  0  0  0  0  0
  148.6750  140.4189  153.6996 N   0  3  1  0  0  0  0  0  0  0  0  0
  147.3443  140.7835  153.1496 C   0  0  0  0  0  0  0  0  0  0  0  0
  146.2911  141.0146  154.2463 C   0  0  0  0  0  0  0  0  0  0  0  0
  146.7928  142.0362  155.2718 C   0  0  0  0  0  0  0  0  0  0  0  0
  148.1150  141.5524  155.8764 C   0  0  0  0  0  0  0  0  0  0  0  0
  149.1858  141.2838  154.7862 C   0  0  1  0  0  0  0  0  0  0  0  0
  151.6832  140.7559  159.3201 H   0  0  0  0  0  0  0  0  0  0  0  0
  153.3635  140.8853  158.8240 H   0  0  0  0  0  0  0  0  0  0  0  0
  154.0427  143.2814  159.3568 H   0  0  0  0  0  0  0  0  0  0  0  0
  152.9999  145.7324  158.7616 H   0  0  0  0  0  0  0  0  0  0  0  0
  150.5865  145.1058  157.5518 H   0  0  0  0  0  0  0  0  0  0  0  0
  150.2832  141.5572  157.1179 H   0  0  0  0  0  0  0  0  0  0  0  0
  151.2316  140.6442  154.5787 H   0  0  0  0  0  0  0  0  0  0  0  0
  150.7960  138.3784  154.9236 H   0  0  0  0  0  0  0  0  0  0  0  0
  149.5755  138.6838  156.1526 H   0  0  0  0  0  0  0  0  0  0  0  0
  149.0944  138.3845  153.2891 H   0  0  0  0  0  0  0  0  0  0  0  0
  147.9257  138.6321  154.5840 H   0  0  0  0  0  0  0  0  0  0  0  0
  147.4630  141.7003  152.5709 H   0  0  0  0  0  0  0  0  0  0  0  0
  147.0113  140.0170  152.4490 H   0  0  0  0  0  0  0  0  0  0  0  0
  145.3614  141.3655  153.7973 H   0  0  0  0  0  0  0  0  0  0  0  0
  146.0537  140.0749  154.7460 H   0  0  0  0  0  0  0  0  0  0  0  0
  146.9327  143.0075  154.7955 H   0  0  0  0  0  0  0  0  0  0  0  0
  146.0502  142.1760  156.0578 H   0  0  0  0  0  0  0  0  0  0  0  0
  148.4789  142.2959  156.5865 H   0  0  0  0  0  0  0  0  0  0  0  0
  147.9286  140.6462  156.4541 H   0  0  0  0  0  0  0  0  0  0  0  0
  149.4957  142.2384  154.3587 H   0  0  0  0  0  0  0  0  0  0  0  0
  149.3321  140.5291  152.9402 H   0  0  0  0  0  0  0  0  0  0  0  0
  1  2  2  0  0  0  0
  2  3  1  0  0  0  0
  2  9  1  0  0  0  0
  3  4  1  0  0  0  0
  3 19  1  0  0  0  0
  3 20  1  0  0  0  0
  4  8  1  0  0  0  0
  4  5  1  0  0  0  0
  5  6  2  0  0  0  0
  5 21  1  0  0  0  0
  6  7  1  0  0  0  0
  6 22  1  0  0  0  0
  7  8  2  0  0  0  0
  7 23  1  0  0  0  0
  9 10  1  0  0  0  0
  9 24  1  0  0  0  0
 10 18  1  0  0  0  0
 10 11  1  0  0  0  0
 10 25  1  0  0  0  0
 11 12  1  0  0  0  0
 11 26  1  0  0  0  0
 11 27  1  0  0  0  0
 12 13  1  0  0  0  0
 12 28  1  0  0  0  0
 12 29  1  0  0  0  0
 13 18  1  0  0  0  0
 13 14  1  0  0  0  0
 13 39  1  0  0  0  0
 14 15  1  0  0  0  0
 14 30  1  0  0  0  0
 14 31  1  0  0  0  0
 15 16  1  0  0  0  0
 15 32  1  0  0  0  0
 15 33  1  0  0  0  0
 16 17  1  0  0  0  0
 16 34  1  0  0  0  0
 16 35  1  0  0  0  0
 17 18  1  0  0  0  0
 17 36  1  0  0  0  0
 17 37  1  0  0  0  0
 18 38  1  0  0  0  0
M  CHG  1  13   1
M  END
> <s_m_source_file>
AV-unprocessed.smi

> <i_m_source_file_index>
2171

> <i_lp_mmshare_version>
43012

> <i_f3d_flags>
0

> <s_epik_input>
bjFbY0hdW2NIXVtjSF1uMVtDSDJdQyg9TylbTkhdW0NASF0oW0NIMl1bQ0gyXTIpW0NAQEhdKE4yMylbQ0gyXVtDSDJdW0NIMl1bQ0gyXTM=

> <s_epik_cmdline>
J2VwaWtfcHl0aG9uJywgJy1waCcsICc3LjAnLCAnLXRuJywgJzgnLCAnLW1hJywgJzIwMCcsICctbWV0YWxfYmluZGluZycsICctaW1hZScsICc8aW5maWxlLm1hZT4nLCAnLW9tYWUnLCAnPG91dGZpbGUubWFlPic=

> <r_lp_tautomer_probability>
1

> <r_epik_Ionization_Penalty>
0.00204179

> <r_epik_Ionization_Penalty_Charging>
0.00203239

> <r_epik_Ionization_Penalty_Neutral>
9.40205e-06

> <r_epik_State_Penalty>
0.00138983

> <r_epik_Charging_Adjusted_Penalty>
0.00342221

> <i_epik_Tot_Q>
1

> <i_epik_Tot_abs_Q>
1

> <r_epik_Metal_State_Penalty>
-0

> <b_epik_Metal_Only>
0

> <s_lp_Force_Field>
OPLS_2005

> <r_lp_Energy>
35.3096

> <b_lp_Chiralities_Consistent>
1

> <s_lp_Variant>
AV-unprocessed.smi:2171-2

> <Gold.Version>
5.8.1

> <Gold.Id.Protein>
6NUR|6NUR_protein|mol2

> <Gold.PLP.Fitness>
43.7680

> <Gold.PLP.PLP>
-36.3223

> <Gold.PLP.part.hbond>
-2.0000

> <Gold.PLP.part.metal>
0.0000

> <Gold.PLP.part.buried>
-2.3083

> <Gold.PLP.part.nonpolar>
-32.4276

> <Gold.PLP.part.repulsive>
0.3337

> <Gold.PLP.ligand.clash>
0.0000

> <Gold.PLP.ligand.torsion>
0.3438

> <Gold.PLP.Chemscore.Hbond>
1.8320

> <Gold.PLP.Chemscore.CHOScore>
0.8776

> <Gold.PLP.Chemscore.Metal>
0.0000

> <Gold.Chemscore.Hbonds>
donor molecule, donor type, donor heavy atom, donor atom, acceptor molecule, acceptor atom, score
      L1  H    13    39       P1  7957  0.85
      P1  H  7997  8008       L1     1  1.00
      L1  C     7    23       P1  8028  0.82
      L1  C     7    23       P1  8029  0.06

> <Gold.PLP.Chemscore.Internal.Correction>
0.0047

> <Gold.Rescore>
     Score         DG    S(hbond)    S(metal)    S(lipo)     H(rot)  DE(clash)    DE(int)     intcor
     18.73     -19.24       1.81        0.00      97.56       1.44       0.35       0.15       ----

> <Gold.Chemscore.Fitness>
18.7346

> <Gold.Chemscore.DG>
-19.2431

> <Gold.Chemscore.ZeroCoef>
-5.4800

> <Gold.Chemscore.Hbond>
1.8077

> <Gold.Chemscore.Metal>
0.0000

> <Gold.Chemscore.Lipo>
97.5596

> <Gold.Chemscore.Internal_Hbond>
0.0000

> <Gold.Chemscore.DEClash>
0.3550

> <Gold.Chemscore.DEInternal>
0.1535

> <Gold.Chemscore.Rot>
1.4410

> <Gold.Chemscore.Internal.Correction>
   9.000000E+99

> <Gold.Chemscore.Hbonds>
donor molecule, donor type, donor heavy atom, donor atom, acceptor molecule, acceptor atom, score
      L1  H    13    39       P1  7957  0.83
      P1  H  7997  8008       L1     1  0.95

> <Gold.Chemscore.Hbond.Weighted>
-6.0376

> <Gold.Chemscore.Metal.Weighted>
-0.0000

> <Gold.Chemscore.Lipo.Weighted>
-11.4145

> <Gold.Chemscore.Internal_Hbond.Weighted>
0.0000

> <Gold.Chemscore.DEClash.Weighted>
0.3550

> <Gold.Chemscore.DEInternal.Weighted>
0.1535

> <Gold.Chemscore.Rot.Weighted>
3.6889

> <Gold.Chemscore.Internal.Correction.Weighted>
   9.000000E+99

> <Gold.Protein.RotatedTorsions>
[ 6907 6896 6895 6894 ] final  132.95 input  -60.11 | X-H torsion
[ 7974 7965 7964 7962 ] final  -98.19 input  175.53 | X-H torsion
[ 8008 7997 7996 7995 ] final  -52.43 input   59.86 | X-H torsion
[ 10167 10162 10161 10158 ] final  -17.50 input  -65.29 | X-H torsion
[ 10718 10713 10712 10709 ] final -132.92 input   66.30 | X-H torsion
[ 10763 10752 10751 10750 ] final  -29.46 input  -60.55 | X-H torsion
[ 11005 11000 10999 10996 ] final  137.59 input  -57.11 | X-H torsion

> <Gold.Protein.ActiveResidues>
 VAL166  LYS551  ARG553  GLY616  TRP617  ASP618  TYR619  PRO620  LYS621  CYS622 
 ASP623  PHE694  ASN695  SER759  ASP760  ASP761  ALA762  ILE779  LEU786  VAL792 
 PHE793  MET794  SER795  GLU796  ALA797  LYS798  CYS799  TRP800  GLU811  SER814 

> <Gold.Protein.RotatedAtoms>
  152.3270  133.5916  159.5783 H   0  0  0  0  0  0  0  0  0  0  0  0  # atno 6907 bound_to 6896
  150.7402  133.9925  159.3620 H   0  0  0  0  0  0  0  0  0  0  0  0  # atno 6908 bound_to 6896
  151.7803  135.0764  160.0424 H   0  0  0  0  0  0  0  0  0  0  0  0  # atno 6909 bound_to 6896
  145.3239  140.9427  143.2700 H   0  0  0  0  0  0  0  0  0  0  0  0  # atno 7974 bound_to 7965
  154.4106  140.1224  156.4991 H   0  0  0  0  0  0  0  0  0  0  0  0  # atno 8008 bound_to 7997
  155.6913  140.3495  155.4875 H   0  0  0  0  0  0  0  0  0  0  0  0  # atno 8009 bound_to 7997
  155.9466  140.1097  157.1002 H   0  0  0  0  0  0  0  0  0  0  0  0  # atno 8010 bound_to 7997
  140.7248  143.5009  150.9871 H   0  0  0  0  0  0  0  0  0  0  0  0  # atno 10167 bound_to 10162
  156.2395  130.7087  151.0942 H   0  0  0  0  0  0  0  0  0  0  0  0  # atno 10718 bound_to 10713
  153.7650  135.6916  153.4918 H   0  0  0  0  0  0  0  0  0  0  0  0  # atno 10763 bound_to 10752
  153.1913  135.4470  155.0151 H   0  0  0  0  0  0  0  0  0  0  0  0  # atno 10764 bound_to 10752
  154.8139  135.3390  154.7162 H   0  0  0  0  0  0  0  0  0  0  0  0  # atno 10765 bound_to 10752
  140.0125  134.9433  157.0307 H   0  0  0  0  0  0  0  0  0  0  0  0  # atno 11005 bound_to 11000
  144.8917  139.4765  143.6674 LP  0  0  0  0  0  0  0  0  0  0  0  0  # atno 17320 bound_to 7965
  146.3072  139.7619  142.9047 LP  0  0  0  0  0  0  0  0  0  0  0  0  # atno 17321 bound_to 7965
  139.8718  143.7182  152.3165 LP  0  0  0  0  0  0  0  0  0  0  0  0  # atno 17342 bound_to 10162
  139.7434  144.7553  151.0617 LP  0  0  0  0  0  0  0  0  0  0  0  0  # atno 17343 bound_to 10162
  157.7169  131.0704  150.6291 LP  0  0  0  0  0  0  0  0  0  0  0  0  # atno 17370 bound_to 10713
  156.6364  130.4446  149.5768 LP  0  0  0  0  0  0  0  0  0  0  0  0  # atno 17371 bound_to 10713
  140.4530  134.1563  155.7183 LP  0  0  0  0  0  0  0  0  0  0  0  0  # atno 17394 bound_to 11000
  141.1720  133.8589  157.1540 LP  0  0  0  0  0  0  0  0  0  0  0  0  # atno 17395 bound_to 11000

$$$$
