#       Name:                AV-unprocessed.smi:3089
#       Creating user name   scv26
#       Creation time:       Fri Mar 27 17:15:27 2020


#       File generated by GOLD software.
#

@<TRIPOS>MOLECULE
AV-unprocessed.smi:3089
    28    28     1
SMALL
NO_CHARGES


@<TRIPOS>ATOM
      1 ****        -3.6144  -0.9527   0.2544 C.3            1 S1                 0.0000
      2 ****        -2.3724  -0.2101   0.2550 N.pl3          1 S1                 0.0000
      3 ****        -1.0818  -0.6923   0.2433 C.2            1 S1                 0.0000
      4 ****        -0.2364   0.3830   0.2546 C.2            1 S1                 0.0000
      5 ****         1.2780   0.3925   0.2522 C.3            1 S1                 0.0000
      6 ****         1.8045  -0.3301   1.5046 C.3            1 S1                 0.0000
      7 ****         1.8079   1.7025   0.3250 O.3            1 S1                 0.0000
      8 ****         1.8593  -0.2637  -1.0200 C.3            1 S1                 0.0000
      9 ****         1.2849   0.2598  -2.2712 N.3            1 S1                 0.0000
     10 ****        -1.1296   1.4948   0.2676 C.2            1 S1                 0.0000
     11 ****        -2.4036   1.1374   0.2693 N.2            1 S1                 0.0000
     12 ****        -3.4098  -2.0235   0.2545 H              1 S1                 0.0000
     13 ****        -4.1942  -0.7027  -0.6345 H              1 S1                 0.0000
     14 ****        -4.1939  -0.7032   1.1438 H              1 S1                 0.0000
     15 ****        -0.8707  -1.7514   0.2296 H              1 S1                 0.0000
     16 ****         1.4817  -1.3716   1.5282 H              1 S1                 0.0000
     17 ****         1.4440   0.1448   2.4182 H              1 S1                 0.0000
     18 ****         2.8947  -0.3273   1.5397 H              1 S1                 0.0000
     19 ****         2.7510   1.6443   0.3324 H              1 S1                 0.0000
     20 ****         2.9440  -0.1507  -1.0333 H              1 S1                 0.0000
     21 ****         1.6735  -1.3375  -0.9803 H              1 S1                 0.0000
     22 ****         1.4272   1.2672  -2.3313 H              1 S1                 0.0000
     23 ****         1.7467  -0.1569  -3.0782 H              1 S1                 0.0000
     24 ****        -0.8895   2.5479   0.2769 H              1 S1                 0.0000
     25 ****         1.4908   2.1486   1.1619 LP             1 S1                 0.0000
     26 ****         1.5087   2.2320  -0.4688 LP             1 S1                 0.0000
     27 ****         0.3099   0.0375  -2.2697 LP             1 S1                 0.0000
     28 ****        -3.2075   1.7322   0.2790 LP             1 S1                 0.0000
@<TRIPOS>BOND
    1    1    2 1     
    2    1   12 1     
    3    1   13 1     
    4    1   14 1     
    5    2   11 1     
    6    2    3 1     
    7    3    4 2     
    8    3   15 1     
    9    4    5 1     
   10    4   10 1     
   11    5    6 1     
   12    5    7 1     
   13    5    8 1     
   14    6   16 1     
   15    6   17 1     
   16    6   18 1     
   17    7   19 1     
   18    8    9 1     
   19    8   20 1     
   20    8   21 1     
   21    9   22 1     
   22    9   23 1     
   23   10   11 2     
   24   10   24 1     
   25    7   25 1     
   26    7   26 1     
   27    9   27 1     
   28   11   28 1     
@<TRIPOS>SUBSTRUCTURE
      1 S1             1
@<TRIPOS>SET
LONE_PAIRS      STATIC     ATOMS    <user>   **** ""
4 25 26 27 28
DONOR_HYDROGENS      STATIC     ATOMS    <user>   **** ""
3 19 22 23
ATOM$BLUE        STATIC     ATOMS    COLORGROUP SYSTEM
4 25 26 27 28
ATOM$RED        STATIC     ATOMS    COLORGROUP SYSTEM
3 19 22 23
