AV-unprocessed.smi:350|AV-procd|sdf|2398|dock4
  -GOLD-   2262022333D 1   1.00000     0.00000
 Structure written by MMmdl.
 35 36  0  0  0  0  0  0  0  0  1 V2000
  148.0665  141.4129  153.9788 C   0  0  0  0  0  0  0  0  0  0  0  0
  149.2630  140.9863  154.7856 C   0  0  0  0  0  0  0  0  0  0  0  0
  149.8376  141.8980  155.4992 N   0  0  0  0  0  0  0  0  0  0  0  0
  150.9442  141.6133  156.2760 N   0  0  0  0  0  0  0  0  0  0  0  0
  151.4776  142.7726  157.0032 C   0  0  0  0  0  0  0  0  0  0  0  0
  150.6148  143.1347  158.2320 C   0  0  2  0  0  0  0  0  0  0  0  0
  150.2064  144.4846  158.1294 O   0  0  0  0  0  0  0  0  0  0  0  0
  151.3779  142.8918  159.5255 C   0  0  0  0  0  0  0  0  0  0  0  0
  152.1633  141.7283  159.6738 C   0  0  0  0  0  0  0  0  0  0  0  0
  152.8762  141.4998  160.8671 C   0  0  0  0  0  0  0  0  0  0  0  0
  152.8098  142.4345  161.9185 C   0  0  0  0  0  0  0  0  0  0  0  0
  153.6828  142.1542  163.3800 Cl  0  0  0  0  0  0  0  0  0  0  0  0
  152.0310  143.5991  161.7750 C   0  0  0  0  0  0  0  0  0  0  0  0
  151.3182  143.8278  160.5820 C   0  0  0  0  0  0  0  0  0  0  0  0
  151.5281  140.3850  156.3747 C   0  0  0  0  0  0  0  0  0  0  0  0
  152.5143  140.1724  157.0816 O   0  0  0  0  0  0  0  0  0  0  0  0
  150.8725  139.3570  155.5628 C   0  0  0  0  0  0  0  0  0  0  0  0
  151.4541  138.0554  155.6347 C   0  0  0  0  0  0  0  0  0  0  0  0
  151.9275  137.0019  155.7142 N   0  0  0  0  0  0  0  0  0  0  0  0
  149.7874  139.6246  154.7940 C   0  0  0  0  0  0  0  0  0  0  0  0
  149.0710  138.5934  153.9325 C   0  0  0  0  0  0  0  0  0  0  0  0
  147.1918  140.8150  154.2358 H   0  0  0  0  0  0  0  0  0  0  0  0
  148.2575  141.2927  152.9125 H   0  0  0  0  0  0  0  0  0  0  0  0
  147.8106  142.4594  154.1523 H   0  0  0  0  0  0  0  0  0  0  0  0
  152.4804  142.5058  157.3435 H   0  0  0  0  0  0  0  0  0  0  0  0
  151.6263  143.6397  156.3569 H   0  0  0  0  0  0  0  0  0  0  0  0
  149.7147  142.5184  158.2449 H   0  0  0  0  0  0  0  0  0  0  0  0
  149.9645  144.6573  157.2324 H   0  0  0  0  0  0  0  0  0  0  0  0
  152.2232  141.0062  158.8728 H   0  0  0  0  0  0  0  0  0  0  0  0
  153.4742  140.6067  160.9739 H   0  0  0  0  0  0  0  0  0  0  0  0
  151.9795  144.3187  162.5787 H   0  0  0  0  0  0  0  0  0  0  0  0
  150.7260  144.7255  160.4800 H   0  0  0  0  0  0  0  0  0  0  0  0
  149.5496  137.6154  153.9748 H   0  0  0  0  0  0  0  0  0  0  0  0
  149.0612  138.9064  152.8879 H   0  0  0  0  0  0  0  0  0  0  0  0
  148.0398  138.4683  154.2643 H   0  0  0  0  0  0  0  0  0  0  0  0
  1  2  1  0  0  0  0
  1 22  1  0  0  0  0
  1 23  1  0  0  0  0
  1 24  1  0  0  0  0
  2 20  1  0  0  0  0
  2  3  2  0  0  0  0
  3  4  1  0  0  0  0
  4  5  1  0  0  0  0
  4 15  1  0  0  0  0
  5  6  1  0  0  0  0
  5 25  1  0  0  0  0
  5 26  1  0  0  0  0
  6  7  1  0  0  0  0
  6  8  1  0  0  0  0
  6 27  1  0  0  0  0
  7 28  1  0  0  0  0
  8 14  1  0  0  0  0
  8  9  2  0  0  0  0
  9 10  1  0  0  0  0
  9 29  1  0  0  0  0
 10 11  2  0  0  0  0
 10 30  1  0  0  0  0
 11 12  1  0  0  0  0
 11 13  1  0  0  0  0
 13 14  2  0  0  0  0
 13 31  1  0  0  0  0
 14 32  1  0  0  0  0
 15 16  2  0  0  0  0
 15 17  1  0  0  0  0
 17 18  1  0  0  0  0
 17 20  2  0  0  0  0
 18 19  3  0  0  0  0
 20 21  1  0  0  0  0
 21 33  1  0  0  0  0
 21 34  1  0  0  0  0
 21 35  1  0  0  0  0
M  END
> <s_m_source_file>
AV-unprocessed.smi

> <i_m_source_file_index>
350

> <i_lp_mmshare_version>
43012

> <i_f3d_flags>
0

> <s_epik_input>
TiNDYyhjMVtDSDNdKWMoPU8pbihuYzFbQ0gzXSlbQ0gyXVtDQEhdKFtPSF0pYzJbY0hdW2NIXWMoQ2wpW2NIXVtjSF0y

> <s_epik_cmdline>
J2VwaWtfcHl0aG9uJywgJy1waCcsICc3LjAnLCAnLXRuJywgJzgnLCAnLW1hJywgJzIwMCcsICctbWV0YWxfYmluZGluZycsICctaW1hZScsICc8aW5maWxlLm1hZT4nLCAnLW9tYWUnLCAnPG91dGZpbGUubWFlPic=

> <r_lp_tautomer_probability>
1

> <r_epik_Ionization_Penalty>
1.17315e-07

> <r_epik_Ionization_Penalty_Charging>
1.40848e-10

> <r_epik_Ionization_Penalty_Neutral>
1.17174e-07

> <r_epik_State_Penalty>
-0

> <r_epik_Charging_Adjusted_Penalty>
1.40848e-10

> <i_epik_Tot_Q>
0

> <i_epik_Tot_abs_Q>
0

> <r_epik_Metal_State_Penalty>
-0

> <b_epik_Metal_Only>
0

> <s_lp_Force_Field>
OPLS_2005

> <r_lp_Energy>
28.0073

> <b_lp_Chiralities_Consistent>
1

> <s_lp_Variant>
AV-unprocessed.smi:350-1

> <Gold.Version>
5.8.1

> <Gold.Id.Protein>
6NUR|6NUR_protein|mol2

> <Gold.PLP.Fitness>
52.0699

> <Gold.PLP.PLP>
-45.8362

> <Gold.PLP.part.hbond>
-4.0000

> <Gold.PLP.part.metal>
0.0000

> <Gold.PLP.part.buried>
-1.1525

> <Gold.PLP.part.nonpolar>
-40.0243

> <Gold.PLP.part.repulsive>
1.0783

> <Gold.PLP.ligand.clash>
0.0000

> <Gold.PLP.ligand.torsion>
1.3864

> <Gold.PLP.Chemscore.Hbond>
3.0000

> <Gold.PLP.Chemscore.CHOScore>
0.0000

> <Gold.PLP.Chemscore.Metal>
0.0000

> <Gold.Chemscore.Hbonds>
donor molecule, donor type, donor heavy atom, donor atom, acceptor molecule, acceptor atom, score
      L1  H     7    28       P1  8028  0.95
      P1  H  7997  8010       L1    16  1.00
      P1  H 10752 10765       L1    19  1.00

> <Gold.PLP.Chemscore.Internal.Correction>
0.0065

> <Gold.Rescore>
     Score         DG    S(hbond)    S(metal)    S(lipo)     H(rot)  DE(clash)    DE(int)     intcor
     20.28     -23.81       2.38        0.00     130.41       1.90       2.07       1.47       ----

> <Gold.Chemscore.Fitness>
20.2770

> <Gold.Chemscore.DG>
-23.8118

> <Gold.Chemscore.ZeroCoef>
-5.4800

> <Gold.Chemscore.Hbond>
2.3801

> <Gold.Chemscore.Metal>
0.0000

> <Gold.Chemscore.Lipo>
130.4131

> <Gold.Chemscore.Internal_Hbond>
0.0000

> <Gold.Chemscore.DEClash>
2.0674

> <Gold.Chemscore.DEInternal>
1.4673

> <Gold.Chemscore.Rot>
1.9047

> <Gold.Chemscore.Internal.Correction>
   9.000000E+99

> <Gold.Chemscore.Hbonds>
donor molecule, donor type, donor heavy atom, donor atom, acceptor molecule, acceptor atom, score
      L1  H     7    28       P1  8028  0.21
      P1  H  7997  8010       L1    16  0.95
      P1  H 10752 10765       L1    19  0.89

> <Gold.Chemscore.Hbond.Weighted>
-7.9495

> <Gold.Chemscore.Metal.Weighted>
-0.0000

> <Gold.Chemscore.Lipo.Weighted>
-15.2583

> <Gold.Chemscore.Internal_Hbond.Weighted>
0.0000

> <Gold.Chemscore.DEClash.Weighted>
2.0674

> <Gold.Chemscore.DEInternal.Weighted>
1.4673

> <Gold.Chemscore.Rot.Weighted>
4.8760

> <Gold.Chemscore.Internal.Correction.Weighted>
   9.000000E+99

> <Gold.Protein.RotatedTorsions>
[ 6907 6896 6895 6894 ] final  166.53 input  -60.11 | X-H torsion
[ 7974 7965 7964 7962 ] final   25.70 input  175.53 | X-H torsion
[ 8008 7997 7996 7995 ] final   70.53 input   59.86 | X-H torsion
[ 10167 10162 10161 10158 ] final  -98.73 input  -65.29 | X-H torsion
[ 10718 10713 10712 10709 ] final -103.37 input   66.30 | X-H torsion
[ 10763 10752 10751 10750 ] final -173.29 input  -60.55 | X-H torsion
[ 11005 11000 10999 10996 ] final -126.22 input  -57.11 | X-H torsion

> <Gold.Protein.ActiveResidues>
 VAL166  LYS551  ARG553  GLY616  TRP617  ASP618  TYR619  PRO620  LYS621  CYS622 
 ASP623  PHE694  ASN695  SER759  ASP760  ASP761  ALA762  ILE779  LEU786  VAL792 
 PHE793  MET794  SER795  GLU796  ALA797  LYS798  CYS799  TRP800  GLU811  SER814 

> <Gold.Protein.RotatedAtoms>
  151.8774  133.3488  159.3754 H   0  0  0  0  0  0  0  0  0  0  0  0  # atno 6907 bound_to 6896
  150.7136  134.5052  159.5590 H   0  0  0  0  0  0  0  0  0  0  0  0  # atno 6908 bound_to 6896
  152.2597  134.8047  160.0483 H   0  0  0  0  0  0  0  0  0  0  0  0  # atno 6909 bound_to 6896
  146.1875  139.7429  142.8856 H   0  0  0  0  0  0  0  0  0  0  0  0  # atno 7974 bound_to 7965
  155.7401  140.3490  155.5100 H   0  0  0  0  0  0  0  0  0  0  0  0  # atno 8008 bound_to 7997
  155.9102  140.1049  157.1306 H   0  0  0  0  0  0  0  0  0  0  0  0  # atno 8009 bound_to 7997
  154.4055  140.1269  156.4534 H   0  0  0  0  0  0  0  0  0  0  0  0  # atno 8010 bound_to 7997
  140.2699  143.3351  152.0545 H   0  0  0  0  0  0  0  0  0  0  0  0  # atno 10167 bound_to 10162
  156.0263  130.5464  150.7244 H   0  0  0  0  0  0  0  0  0  0  0  0  # atno 10718 bound_to 10713
  154.6095  135.2863  155.0448 H   0  0  0  0  0  0  0  0  0  0  0  0  # atno 10763 bound_to 10752
  154.1683  135.6477  153.5007 H   0  0  0  0  0  0  0  0  0  0  0  0  # atno 10764 bound_to 10752
  153.0189  135.5394  154.6843 H   0  0  0  0  0  0  0  0  0  0  0  0  # atno 10765 bound_to 10752
  140.9699  134.0821  157.3881 H   0  0  0  0  0  0  0  0  0  0  0  0  # atno 11005 bound_to 11000
  145.3894  141.0370  143.3133 LP  0  0  0  0  0  0  0  0  0  0  0  0  # atno 17320 bound_to 7965
  144.8424  139.5450  143.6894 LP  0  0  0  0  0  0  0  0  0  0  0  0  # atno 17321 bound_to 7965
  139.4992  144.6663  151.6348 LP  0  0  0  0  0  0  0  0  0  0  0  0  # atno 17342 bound_to 10162
  140.5898  143.9799  150.6318 LP  0  0  0  0  0  0  0  0  0  0  0  0  # atno 17343 bound_to 10162
  157.4851  131.0906  151.0491 LP  0  0  0  0  0  0  0  0  0  0  0  0  # atno 17370 bound_to 10713
  157.0913  130.5943  149.5440 LP  0  0  0  0  0  0  0  0  0  0  0  0  # atno 17371 bound_to 10713
  139.8908  135.0114  156.6757 LP  0  0  0  0  0  0  0  0  0  0  0  0  # atno 17394 bound_to 11000
  140.7345  133.9030  155.8234 LP  0  0  0  0  0  0  0  0  0  0  0  0  # atno 17395 bound_to 11000

$$$$
