AV-unprocessed.smi:2473|AV-procd|sdf|9744|dock3
  -GOLD-   2272013383D 1   1.00000     0.00000
 Structure written by MMmdl.
 48 49  0  0  0  0  0  0  0  0  2 V2000
  147.5467  135.2188  162.0528 C   0  0  0  0  0  0  0  0  0  0  0  0
  147.6247  135.5968  160.5667 C   0  0  1  0  0  0  0  0  0  0  0  0
  148.7663  136.5941  160.3052 C   0  0  0  0  0  0  0  0  0  0  0  0
  148.8479  136.9834  158.8168 C   0  0  1  0  0  0  0  0  0  0  0  0
  149.9953  137.9758  158.5882 C   0  0  0  0  0  0  0  0  0  0  0  0
  151.1406  137.7008  158.9470 O   0  0  0  0  0  0  0  0  0  0  0  0
  149.6691  139.1414  158.0099 N   0  0  0  0  0  0  0  0  0  0  0  0
  150.5918  140.2464  157.7689 C   0  0  0  0  0  0  0  0  0  0  0  0
  150.0654  141.5947  158.3018 C   0  0  0  0  0  0  0  0  0  0  0  0
  151.0721  142.7078  158.2488 C   0  0  0  0  0  0  0  0  0  0  0  0
  150.9425  143.8283  157.5282 N   0  3  0  0  0  0  0  0  0  0  0  0
  152.0271  144.6419  157.7091 C   0  0  0  0  0  0  0  0  0  0  0  0
  152.8602  143.9881  158.5781 C   0  0  0  0  0  0  0  0  0  0  0  0
  152.2502  142.8004  158.8908 N   0  0  0  0  0  0  0  0  0  0  0  0
  152.7783  141.7655  159.7823 C   0  0  0  0  0  0  0  0  0  0  0  0
  149.0114  135.7214  157.9395 C   0  0  0  0  0  0  0  0  0  0  0  0
  147.9002  134.6657  158.1642 C   0  0  0  0  0  0  0  0  0  0  0  0
  146.5485  135.1543  157.5991 C   0  0  0  0  0  0  0  0  0  0  0  0
  148.2832  133.3756  157.4125 C   0  0  0  0  0  0  0  0  0  0  0  0
  147.7880  134.3469  159.6767 C   0  0  0  0  0  0  0  0  0  0  0  0
  148.4614  134.7280  162.3867 H   0  0  0  0  0  0  0  0  0  0  0  0
  146.7161  134.5382  162.2415 H   0  0  0  0  0  0  0  0  0  0  0  0
  147.3962  136.1012  162.6754 H   0  0  0  0  0  0  0  0  0  0  0  0
  146.6834  136.0843  160.3128 H   0  0  0  0  0  0  0  0  0  0  0  0
  148.6156  137.4875  160.9133 H   0  0  0  0  0  0  0  0  0  0  0  0
  149.7123  136.1567  160.6295 H   0  0  0  0  0  0  0  0  0  0  0  0
  147.9180  137.4818  158.5408 H   0  0  0  0  0  0  0  0  0  0  0  0
  148.7068  139.2802  157.7369 H   0  0  0  0  0  0  0  0  0  0  0  0
  151.5704  140.0228  158.1965 H   0  0  0  0  0  0  0  0  0  0  0  0
  150.7360  140.3151  156.6903 H   0  0  0  0  0  0  0  0  0  0  0  0
  149.1839  141.9077  157.7435 H   0  0  0  0  0  0  0  0  0  0  0  0
  149.7582  141.4980  159.3434 H   0  0  0  0  0  0  0  0  0  0  0  0
  152.1228  145.5994  157.2182 H   0  0  0  0  0  0  0  0  0  0  0  0
  153.8201  144.2724  158.9848 H   0  0  0  0  0  0  0  0  0  0  0  0
  153.7121  142.1087  160.2282 H   0  0  0  0  0  0  0  0  0  0  0  0
  152.9644  140.8572  159.2088 H   0  0  0  0  0  0  0  0  0  0  0  0
  152.0589  141.5619  160.5743 H   0  0  0  0  0  0  0  0  0  0  0  0
  149.0441  136.0044  156.8862 H   0  0  0  0  0  0  0  0  0  0  0  0
  149.9782  135.2626  158.1543 H   0  0  0  0  0  0  0  0  0  0  0  0
  145.7715  134.4006  157.7309 H   0  0  0  0  0  0  0  0  0  0  0  0
  146.6210  135.3626  156.5309 H   0  0  0  0  0  0  0  0  0  0  0  0
  146.1946  136.0650  158.0800 H   0  0  0  0  0  0  0  0  0  0  0  0
  147.5284  132.5994  157.5442 H   0  0  0  0  0  0  0  0  0  0  0  0
  149.2319  132.9714  157.7675 H   0  0  0  0  0  0  0  0  0  0  0  0
  148.3858  133.5553  156.3418 H   0  0  0  0  0  0  0  0  0  0  0  0
  148.6839  133.8121  159.9965 H   0  0  0  0  0  0  0  0  0  0  0  0
  146.9563  133.6622  159.8488 H   0  0  0  0  0  0  0  0  0  0  0  0
  150.1512  144.0413  156.9341 H   0  0  0  0  0  0  0  0  0  0  0  0
  1  2  1  0  0  0  0
  1 21  1  0  0  0  0
  1 22  1  0  0  0  0
  1 23  1  0  0  0  0
  2 20  1  0  0  0  0
  2  3  1  0  0  0  0
  2 24  1  0  0  0  0
  3  4  1  0  0  0  0
  3 25  1  0  0  0  0
  3 26  1  0  0  0  0
  4  5  1  0  0  0  0
  4 16  1  0  0  0  0
  4 27  1  0  0  0  0
  5  6  2  0  0  0  0
  5  7  1  0  0  0  0
  7  8  1  0  0  0  0
  7 28  1  0  0  0  0
  8  9  1  0  0  0  0
  8 29  1  0  0  0  0
  8 30  1  0  0  0  0
  9 10  1  0  0  0  0
  9 31  1  0  0  0  0
  9 32  1  0  0  0  0
 10 14  1  0  0  0  0
 10 11  2  0  0  0  0
 11 12  1  0  0  0  0
 11 48  1  0  0  0  0
 12 13  2  0  0  0  0
 12 33  1  0  0  0  0
 13 14  1  0  0  0  0
 13 34  1  0  0  0  0
 14 15  1  0  0  0  0
 15 35  1  0  0  0  0
 15 36  1  0  0  0  0
 15 37  1  0  0  0  0
 16 17  1  0  0  0  0
 16 38  1  0  0  0  0
 16 39  1  0  0  0  0
 17 18  1  0  0  0  0
 17 19  1  0  0  0  0
 17 20  1  0  0  0  0
 18 40  1  0  0  0  0
 18 41  1  0  0  0  0
 18 42  1  0  0  0  0
 19 43  1  0  0  0  0
 19 44  1  0  0  0  0
 19 45  1  0  0  0  0
 20 46  1  0  0  0  0
 20 47  1  0  0  0  0
M  CHG  1  11   1
M  END
> <s_m_source_file>
AV-unprocessed.smi

> <i_m_source_file_index>
2473

> <i_lp_mmshare_version>
43012

> <i_f3d_flags>
0

> <s_epik_input>
W0NIM11bQ0BASF0oW0NIMl0xKVtDSDJdW0NASF0oW0NIMl1DMShbQ0gzXSlbQ0gzXSlDKD1PKVtOSF1bQ0gyXVtDSDJdYzJuW2NIXVtjSF1uMltDSDNd

> <s_epik_cmdline>
J2VwaWtfcHl0aG9uJywgJy1waCcsICc3LjAnLCAnLXRuJywgJzgnLCAnLW1hJywgJzIwMCcsICctbWV0YWxfYmluZGluZycsICctaW1hZScsICc8aW5maWxlLm1hZT4nLCAnLW9tYWUnLCAnPG91dGZpbGUubWFlPic=

> <r_lp_tautomer_probability>
1

> <r_epik_Ionization_Penalty>
0.0796112

> <r_epik_Ionization_Penalty_Charging>
0

> <r_epik_Ionization_Penalty_Neutral>
0.0796112

> <r_epik_State_Penalty>
0.0704541

> <r_epik_Charging_Adjusted_Penalty>
0.0704541

> <i_epik_Tot_Q>
1

> <i_epik_Tot_abs_Q>
1

> <r_epik_Metal_State_Penalty>
0.409899

> <b_epik_Metal_Only>
0

> <s_lp_Force_Field>
OPLS_2005

> <r_lp_Energy>
16.0975

> <b_lp_Chiralities_Consistent>
1

> <s_lp_Variant>
AV-unprocessed.smi:2473-2

> <Gold.Version>
5.8.1

> <Gold.Id.Protein>
6NUR|6NUR_protein|mol2

> <Gold.PLP.Fitness>
40.9237

> <Gold.PLP.PLP>
-35.1730

> <Gold.PLP.part.hbond>
-1.0000

> <Gold.PLP.part.metal>
0.0000

> <Gold.PLP.part.buried>
-4.6428

> <Gold.PLP.part.nonpolar>
-30.0010

> <Gold.PLP.part.repulsive>
0.1529

> <Gold.PLP.ligand.clash>
0.0000

> <Gold.PLP.ligand.torsion>
0.1370

> <Gold.PLP.Chemscore.Hbond>
2.0000

> <Gold.PLP.Chemscore.CHOScore>
0.0000

> <Gold.PLP.Chemscore.Metal>
0.0000

> <Gold.Chemscore.Hbonds>
donor molecule, donor type, donor heavy atom, donor atom, acceptor molecule, acceptor atom, score
      L1  H    11    48       P1  8028  2.00

> <Gold.PLP.Chemscore.Internal.Correction>
0.0246

> <Gold.Rescore>
     Score         DG    S(hbond)    S(metal)    S(lipo)     H(rot)  DE(clash)    DE(int)     intcor
     14.13     -14.35       0.98        0.00      82.34       1.58       0.04       0.19       ----

> <Gold.Chemscore.Fitness>
14.1251

> <Gold.Chemscore.DG>
-14.3481

> <Gold.Chemscore.ZeroCoef>
-5.4800

> <Gold.Chemscore.Hbond>
0.9831

> <Gold.Chemscore.Metal>
0.0000

> <Gold.Chemscore.Lipo>
82.3416

> <Gold.Chemscore.Internal_Hbond>
0.0000

> <Gold.Chemscore.DEClash>
0.0378

> <Gold.Chemscore.DEInternal>
0.1852

> <Gold.Chemscore.Rot>
1.5818

> <Gold.Chemscore.Internal.Correction>
   9.000000E+99

> <Gold.Chemscore.Hbonds>
donor molecule, donor type, donor heavy atom, donor atom, acceptor molecule, acceptor atom, score
      L1  H    11    48       P1  8028  0.97

> <Gold.Chemscore.Hbond.Weighted>
-3.2836

> <Gold.Chemscore.Metal.Weighted>
-0.0000

> <Gold.Chemscore.Lipo.Weighted>
-9.6340

> <Gold.Chemscore.Internal_Hbond.Weighted>
0.0000

> <Gold.Chemscore.DEClash.Weighted>
0.0378

> <Gold.Chemscore.DEInternal.Weighted>
0.1852

> <Gold.Chemscore.Rot.Weighted>
4.0495

> <Gold.Chemscore.Internal.Correction.Weighted>
   9.000000E+99

> <Gold.Protein.RotatedTorsions>
[ 6907 6896 6895 6894 ] final  152.47 input  -60.11 | X-H torsion
[ 7974 7965 7964 7962 ] final -150.27 input  175.53 | X-H torsion
[ 8008 7997 7996 7995 ] final  165.46 input   59.86 | X-H torsion
[ 10167 10162 10161 10158 ] final  -48.43 input  -65.29 | X-H torsion
[ 10718 10713 10712 10709 ] final  145.57 input   66.30 | X-H torsion
[ 10763 10752 10751 10750 ] final -167.32 input  -60.55 | X-H torsion
[ 11005 11000 10999 10996 ] final   99.64 input  -57.11 | X-H torsion

> <Gold.Protein.ActiveResidues>
 VAL166  LYS551  ARG553  GLY616  TRP617  ASP618  TYR619  PRO620  LYS621  CYS622 
 ASP623  PHE694  ASN695  SER759  ASP760  ASP761  ALA762  ILE779  LEU786  VAL792 
 PHE793  MET794  SER795  GLU796  ALA797  LYS798  CYS799  TRP800  GLU811  SER814 

> <Gold.Protein.RotatedAtoms>
  152.0862  133.4177  159.4523 H   0  0  0  0  0  0  0  0  0  0  0  0  # atno 6907 bound_to 6896
  150.6862  134.2924  159.4681 H   0  0  0  0  0  0  0  0  0  0  0  0  # atno 6908 bound_to 6896
  152.0771  134.9495  160.0624 H   0  0  0  0  0  0  0  0  0  0  0  0  # atno 6909 bound_to 6896
  144.7917  140.4954  143.5768 H   0  0  0  0  0  0  0  0  0  0  0  0  # atno 7974 bound_to 7965
  156.1799  140.1669  156.8294 H   0  0  0  0  0  0  0  0  0  0  0  0  # atno 8008 bound_to 7997
  154.5348  140.0749  156.8441 H   0  0  0  0  0  0  0  0  0  0  0  0  # atno 8009 bound_to 7997
  155.3333  140.3380  155.4241 H   0  0  0  0  0  0  0  0  0  0  0  0  # atno 8010 bound_to 7997
  140.6731  143.2740  151.4070 H   0  0  0  0  0  0  0  0  0  0  0  0  # atno 10167 bound_to 10162
  157.3436  131.0939  151.1061 H   0  0  0  0  0  0  0  0  0  0  0  0  # atno 10718 bound_to 10713
  154.6744  135.2944  154.9699 H   0  0  0  0  0  0  0  0  0  0  0  0  # atno 10763 bound_to 10752
  154.0715  135.6617  153.4829 H   0  0  0  0  0  0  0  0  0  0  0  0  # atno 10764 bound_to 10752
  153.0507  135.5176  154.7755 H   0  0  0  0  0  0  0  0  0  0  0  0  # atno 10765 bound_to 10752
  139.8770  134.9105  156.4636 H   0  0  0  0  0  0  0  0  0  0  0  0  # atno 11005 bound_to 11000
  145.5776  139.1487  143.3253 LP  0  0  0  0  0  0  0  0  0  0  0  0  # atno 17320 bound_to 7965
  146.2172  140.5907  142.9033 LP  0  0  0  0  0  0  0  0  0  0  0  0  # atno 17321 bound_to 7965
  139.6009  144.1298  152.2197 LP  0  0  0  0  0  0  0  0  0  0  0  0  # atno 17342 bound_to 10162
  140.0681  144.5801  150.7212 LP  0  0  0  0  0  0  0  0  0  0  0  0  # atno 17343 bound_to 10162
  157.2263  130.6504  149.5831 LP  0  0  0  0  0  0  0  0  0  0  0  0  # atno 17370 bound_to 10713
  155.9711  130.4613  150.6104 LP  0  0  0  0  0  0  0  0  0  0  0  0  # atno 17371 bound_to 10713
  140.8846  133.7893  155.9504 LP  0  0  0  0  0  0  0  0  0  0  0  0  # atno 17394 bound_to 11000
  140.8818  134.2602  157.5140 LP  0  0  0  0  0  0  0  0  0  0  0  0  # atno 17395 bound_to 11000

$$$$
