#       Name:                AV-unprocessed.smi:196
#       Creating user name   scv26
#       Creation time:       Thu Mar 26 19:38:00 2020


#       File generated by GOLD software.
#

@<TRIPOS>MOLECULE
AV-unprocessed.smi:196
    56    59     1
SMALL
NO_CHARGES


@<TRIPOS>ATOM
      1 ****        -3.1514  -0.1928  -1.1346 C.3            1 S1                 0.0000
      2 ****        -2.5827  -1.2514  -2.0936 C.3            1 S1                 0.0000
      3 ****        -3.6296  -2.0147  -2.6747 O.3            1 S1                 0.0000
      4 ****        -3.0815  -2.6784  -3.7991 C.3            1 S1                 0.0000
      5 ****        -2.2543  -1.5857  -4.4656 C.3            1 S1                 0.0000
      6 ****        -1.7421  -0.7411  -3.2944 C.3            1 S1                 0.0000
      7 ****        -2.0121   0.6215  -3.5816 O.3            1 S1                 0.0000
      8 ****        -0.2154  -0.8986  -3.0844 C.3            1 S1                 0.0000
      9 ****         0.2836  -0.1946  -1.9125 N.pl3          1 S1                 0.0000
     10 ****         0.5772   1.1470  -1.8203 C.2            1 S1                 0.0000
     11 ****         0.9950   1.5460  -0.6508 N.2            1 S1                 0.0000
     12 ****         1.0085   0.3899   0.1212 C.ar           1 S1                 0.0000
     13 ****         1.3434   0.1031   1.4764 C.ar           1 S1                 0.0000
     14 ****         1.7692   1.0491   2.3570 N.pl3          1 S1                 0.0000
     15 ****         2.7219   2.0553   1.8996 C.3            1 S1                 0.0000
     16 ****         3.6612   2.3030   3.0792 C.3            1 S1                 0.0000
     17 ****         4.7005   1.4702   3.0012 F              1 S1                 0.0000
     18 ****         2.8059   1.9391   4.2880 C.3            1 S1                 0.0000
     19 ****         1.9405   0.7701   3.7897 C.3            1 S1                 0.0000
     20 ****         0.6295   0.6731   4.5947 C.2            1 S1                 0.0000
     21 ****        -0.5257   0.9582   3.9843 N.am           1 S1                 0.0000
     22 ****         0.6655   0.3340   5.7753 O.2            1 S1                 0.0000
     23 ****         1.2037  -1.1842   1.8906 N.ar           1 S1                 0.0000
     24 ****         0.7839  -2.1285   1.0445 C.ar           1 S1                 0.0000
     25 ****         0.4448  -2.0058  -0.2394 N.ar           1 S1                 0.0000
     26 ****         0.5669  -0.7151  -0.6615 C.ar           1 S1                 0.0000
     27 ****         4.0553   3.3191   3.1134 H              1 S1                 0.0000
     28 ****         2.5031  -0.1569   3.9130 H              1 S1                 0.0000
     29 ****        -2.3558   0.4111  -0.6979 H              1 S1                 0.0000
     30 ****        -3.6926  -0.6667  -0.3159 H              1 S1                 0.0000
     31 ****        -3.8459   0.4773  -1.6418 H              1 S1                 0.0000
     32 ****        -1.9891  -1.9581  -1.5130 H              1 S1                 0.0000
     33 ****        -2.4485  -3.5035  -3.4685 H              1 S1                 0.0000
     34 ****        -3.8582  -3.0773  -4.4518 H              1 S1                 0.0000
     35 ****        -1.4585  -1.9946  -5.0891 H              1 S1                 0.0000
     36 ****        -2.9070  -1.0005  -5.1158 H              1 S1                 0.0000
     37 ****        -1.5613   0.8554  -4.3783 H              1 S1                 0.0000
     38 ****         0.0414  -1.9541  -2.9850 H              1 S1                 0.0000
     39 ****         0.3286  -0.5356  -3.9575 H              1 S1                 0.0000
     40 ****         0.4592   1.8283  -2.6503 H              1 S1                 0.0000
     41 ****         3.2788   1.7496   1.0123 H              1 S1                 0.0000
     42 ****         2.1704   2.9638   1.6554 H              1 S1                 0.0000
     43 ****         3.4041   1.6783   5.1618 H              1 S1                 0.0000
     44 ****         2.1838   2.7954   4.5562 H              1 S1                 0.0000
     45 ****        -1.3928   0.9038   4.4988 H              1 S1                 0.0000
     46 ****        -0.5254   1.2310   3.0123 H              1 S1                 0.0000
     47 ****         0.7073  -3.1241   1.4561 H              1 S1                 0.0000
     48 ****        -4.3756  -1.4132  -2.9607 LP             1 S1                 0.0000
     49 ****        -3.9744  -2.6830  -2.0155 LP             1 S1                 0.0000
     50 ****        -1.6877   1.1953  -2.8297 LP             1 S1                 0.0000
     51 ****        -2.9964   0.7525  -3.7002 LP             1 S1                 0.0000
     52 ****         1.2480   2.4726  -0.3728 LP             1 S1                 0.0000
     53 ****         1.5417   0.1228   6.2083 LP             1 S1                 0.0000
     54 ****        -0.1815   0.2691   6.3029 LP             1 S1                 0.0000
     55 ****         1.4171  -1.4262   2.8371 LP             1 S1                 0.0000
     56 ****         0.1403  -2.7626  -0.8178 LP             1 S1                 0.0000
@<TRIPOS>BOND
    1    1    2 1     
    2    1   29 1     
    3    1   30 1     
    4    1   31 1     
    5    2    6 1     
    6    2    3 1     
    7    2   32 1     
    8    3    4 1     
    9    4    5 1     
   10    4   33 1     
   11    4   34 1     
   12    5    6 1     
   13    5   35 1     
   14    5   36 1     
   15    6    7 1     
   16    6    8 1     
   17    7   37 1     
   18    8    9 1     
   19    8   38 1     
   20    8   39 1     
   21    9   26 1     
   22    9   10 1     
   23   10   11 2     
   24   10   40 1     
   25   11   12 1     
   26   12   26 ar    
   27   12   13 ar    
   28   13   14 1     
   29   13   23 ar    
   30   14   19 1     
   31   14   15 1     
   32   15   16 1     
   33   15   41 1     
   34   15   42 1     
   35   16   27 1     
   36   16   17 1     
   37   16   18 1     
   38   18   19 1     
   39   18   43 1     
   40   18   44 1     
   41   19   28 1     
   42   19   20 1     
   43   20   21 am    
   44   20   22 2     
   45   21   45 1     
   46   21   46 1     
   47   23   24 ar    
   48   24   25 ar    
   49   24   47 1     
   50   25   26 ar    
   51    3   48 1     
   52    3   49 1     
   53    7   50 1     
   54    7   51 1     
   55   11   52 1     
   56   22   53 1     
   57   22   54 1     
   58   23   55 1     
   59   25   56 1     
@<TRIPOS>SUBSTRUCTURE
      1 S1             1
@<TRIPOS>SET
LONE_PAIRS      STATIC     ATOMS    <user>   **** ""
9 48 49 50 51 52 53 54 55 56
DONOR_HYDROGENS      STATIC     ATOMS    <user>   **** ""
3 37 45 46
ATOM$BLUE        STATIC     ATOMS    COLORGROUP SYSTEM
9 48 49 50 51 52 53 54 55 56
ATOM$RED        STATIC     ATOMS    COLORGROUP SYSTEM
3 37 45 46
