AV-unprocessed.smi:3281|AV-procd|sdf|12556|dock4
  -GOLD-   2272018473D 1   1.00000     0.00000
 Structure written by MMmdl.
 37 38  0  0  0  0  0  0  0  0  2 V2000
  143.9346  133.4020  151.0607 C   0  0  0  0  0  0  0  0  0  0  0  0
  143.7419  134.5901  152.0090 C   0  0  0  0  0  0  0  0  0  0  0  0
  144.6959  135.7095  151.7514 C   0  0  0  0  0  0  0  0  0  0  0  0
  145.5391  135.8614  150.6785 C   0  0  0  0  0  0  0  0  0  0  0  0
  146.3091  137.0260  150.7257 N   0  0  0  0  0  0  0  0  0  0  0  0
  146.0753  137.7471  151.8242 C   0  0  0  0  0  0  0  0  0  0  0  0
  146.7364  139.0542  152.1062 C   0  0  0  0  0  0  0  0  0  0  0  0
  147.5611  139.0226  153.3990 C   0  0  0  0  0  0  0  0  0  0  0  0
  149.0052  138.9204  153.1020 N   0  3  0  0  0  0  0  0  0  0  0  0
  149.8991  138.9290  154.2819 C   0  0  2  0  0  0  0  0  0  0  0  0
  150.0296  140.3504  154.8739 C   0  0  0  0  0  0  0  0  0  0  0  0
  150.9154  140.3961  156.1305 C   0  0  0  0  0  0  0  0  0  0  0  0
  152.3513  139.9294  155.8575 C   0  0  0  0  0  0  0  0  0  0  0  0
  152.3796  138.2038  155.3048 S   0  0  0  0  0  0  0  0  0  0  0  0
  151.2731  138.3645  153.8773 C   0  0  0  0  0  0  0  0  0  0  0  0
  144.8501  137.0400  152.8701 S   0  0  0  0  0  0  0  0  0  0  0  0
  143.2186  132.6099  151.2807 H   0  0  0  0  0  0  0  0  0  0  0  0
  144.9356  132.9800  151.1537 H   0  0  0  0  0  0  0  0  0  0  0  0
  143.7917  133.7016  150.0221 H   0  0  0  0  0  0  0  0  0  0  0  0
  142.7183  134.9561  151.9227 H   0  0  0  0  0  0  0  0  0  0  0  0
  143.8539  134.2507  153.0392 H   0  0  0  0  0  0  0  0  0  0  0  0
  145.6525  135.1935  149.8372 H   0  0  0  0  0  0  0  0  0  0  0  0
  147.3734  139.3097  151.2587 H   0  0  0  0  0  0  0  0  0  0  0  0
  145.9699  139.8283  152.1665 H   0  0  0  0  0  0  0  0  0  0  0  0
  147.3643  139.9241  153.9792 H   0  0  0  0  0  0  0  0  0  0  0  0
  147.2566  138.1715  154.0099 H   0  0  0  0  0  0  0  0  0  0  0  0
  149.1477  138.0435  152.6213 H   0  0  0  0  0  0  0  0  0  0  0  0
  149.4707  138.2641  155.0339 H   0  0  0  0  0  0  0  0  0  0  0  0
  150.4313  141.0298  154.1208 H   0  0  0  0  0  0  0  0  0  0  0  0
  149.0474  140.7395  155.1406 H   0  0  0  0  0  0  0  0  0  0  0  0
  150.9383  141.4157  156.5161 H   0  0  0  0  0  0  0  0  0  0  0  0
  150.4728  139.7834  156.9171 H   0  0  0  0  0  0  0  0  0  0  0  0
  152.8184  140.5562  155.0970 H   0  0  0  0  0  0  0  0  0  0  0  0
  152.9558  140.0174  156.7605 H   0  0  0  0  0  0  0  0  0  0  0  0
  151.1609  137.3785  153.4250 H   0  0  0  0  0  0  0  0  0  0  0  0
  151.7485  139.0045  153.1329 H   0  0  0  0  0  0  0  0  0  0  0  0
  149.2734  139.6713  152.4820 H   0  0  0  0  0  0  0  0  0  0  0  0
  1  2  1  0  0  0  0
  1 17  1  0  0  0  0
  1 18  1  0  0  0  0
  1 19  1  0  0  0  0
  2  3  1  0  0  0  0
  2 20  1  0  0  0  0
  2 21  1  0  0  0  0
  3 16  1  0  0  0  0
  3  4  2  0  0  0  0
  4  5  1  0  0  0  0
  4 22  1  0  0  0  0
  5  6  2  0  0  0  0
  6  7  1  0  0  0  0
  6 16  1  0  0  0  0
  7  8  1  0  0  0  0
  7 23  1  0  0  0  0
  7 24  1  0  0  0  0
  8  9  1  0  0  0  0
  8 25  1  0  0  0  0
  8 26  1  0  0  0  0
  9 10  1  0  0  0  0
  9 27  1  0  0  0  0
  9 37  1  0  0  0  0
 10 15  1  0  0  0  0
 10 11  1  0  0  0  0
 10 28  1  0  0  0  0
 11 12  1  0  0  0  0
 11 29  1  0  0  0  0
 11 30  1  0  0  0  0
 12 13  1  0  0  0  0
 12 31  1  0  0  0  0
 12 32  1  0  0  0  0
 13 14  1  0  0  0  0
 13 33  1  0  0  0  0
 13 34  1  0  0  0  0
 14 15  1  0  0  0  0
 15 35  1  0  0  0  0
 15 36  1  0  0  0  0
M  CHG  1   9   1
M  END
> <s_m_source_file>
AV-unprocessed.smi

> <i_m_source_file_index>
3281

> <i_lp_mmshare_version>
43012

> <i_f3d_flags>
0

> <s_epik_input>
W0NIM11bQ0gyXWMxW2NIXW5jKHMxKVtDSDJdW0NIMl1bTkhdW0NAQEhdMltDSDJdW0NIMl1bQ0gyXVNbQ0gyXTI=

> <s_epik_cmdline>
J2VwaWtfcHl0aG9uJywgJy1waCcsICc3LjAnLCAnLXRuJywgJzgnLCAnLW1hJywgJzIwMCcsICctbWV0YWxfYmluZGluZycsICctaW1hZScsICc8aW5maWxlLm1hZT4nLCAnLW9tYWUnLCAnPG91dGZpbGUubWFlPic=

> <r_epik_Ionization_Penalty>
0.00827702

> <r_epik_Ionization_Penalty_Charging>
0.00826679

> <r_epik_Ionization_Penalty_Neutral>
1.02314e-05

> <r_epik_State_Penalty>
0.00622064

> <r_epik_Charging_Adjusted_Penalty>
0.0144874

> <i_epik_Tot_Q>
1

> <i_epik_Tot_abs_Q>
1

> <r_epik_Metal_State_Penalty>
0.0062521

> <b_epik_Metal_Only>
0

> <s_lp_Force_Field>
OPLS_2005

> <r_lp_Energy>
-1.10641

> <b_lp_Chiralities_Consistent>
1

> <s_lp_Variant>
AV-unprocessed.smi:3281-1

> <Gold.Version>
5.8.1

> <Gold.Id.Protein>
6NUR|6NUR_protein|mol2

> <Gold.PLP.Fitness>
45.7364

> <Gold.PLP.PLP>
-33.0735

> <Gold.PLP.part.hbond>
-2.5311

> <Gold.PLP.part.metal>
0.0000

> <Gold.PLP.part.buried>
0.1841

> <Gold.PLP.part.nonpolar>
-32.1536

> <Gold.PLP.part.repulsive>
2.2018

> <Gold.PLP.ligand.clash>
0.0000

> <Gold.PLP.ligand.torsion>
0.5618

> <Gold.PLP.Chemscore.Hbond>
3.5759

> <Gold.PLP.Chemscore.CHOScore>
1.0000

> <Gold.PLP.Chemscore.Metal>
0.0000

> <Gold.Chemscore.Hbonds>
donor molecule, donor type, donor heavy atom, donor atom, acceptor molecule, acceptor atom, score
      L1  H     9    27       P1  7948  2.00
      L1  H     9    37       P1  7957  0.64
      P1  H  7954  7966       L1     5  0.57
      L1  C     4    22       P1  7921  1.00

> <Gold.PLP.Chemscore.Internal.Correction>
0.0588

> <Gold.Rescore>
     Score         DG    S(hbond)    S(metal)    S(lipo)     H(rot)  DE(clash)    DE(int)     intcor
     19.61     -21.63       2.54        0.00      95.59       1.38       1.59       0.44       ----

> <Gold.Chemscore.Fitness>
19.6061

> <Gold.Chemscore.DG>
-21.6319

> <Gold.Chemscore.ZeroCoef>
-5.4800

> <Gold.Chemscore.Hbond>
2.5424

> <Gold.Chemscore.Metal>
0.0000

> <Gold.Chemscore.Lipo>
95.5940

> <Gold.Chemscore.Internal_Hbond>
0.0000

> <Gold.Chemscore.DEClash>
1.5870

> <Gold.Chemscore.DEInternal>
0.4388

> <Gold.Chemscore.Rot>
1.3767

> <Gold.Chemscore.Internal.Correction>
   9.000000E+99

> <Gold.Chemscore.Hbonds>
donor molecule, donor type, donor heavy atom, donor atom, acceptor molecule, acceptor atom, score
      L1  H     9    27       P1  7948  0.96
      L1  H     9    37       P1  7957  0.62
      P1  H  7954  7966       L1     5  0.30

> <Gold.Chemscore.Hbond.Weighted>
-8.4918

> <Gold.Chemscore.Metal.Weighted>
-0.0000

> <Gold.Chemscore.Lipo.Weighted>
-11.1845

> <Gold.Chemscore.Internal_Hbond.Weighted>
0.0000

> <Gold.Chemscore.DEClash.Weighted>
1.5870

> <Gold.Chemscore.DEInternal.Weighted>
0.4388

> <Gold.Chemscore.Rot.Weighted>
3.5243

> <Gold.Chemscore.Internal.Correction.Weighted>
   9.000000E+99

> <Gold.Protein.RotatedTorsions>
[ 6907 6896 6895 6894 ] final  162.45 input  -60.11 | X-H torsion
[ 7974 7965 7964 7962 ] final   79.02 input  175.53 | X-H torsion
[ 8008 7997 7996 7995 ] final  154.75 input   59.86 | X-H torsion
[ 10167 10162 10161 10158 ] final  149.17 input  -65.29 | X-H torsion
[ 10718 10713 10712 10709 ] final   64.95 input   66.30 | X-H torsion
[ 10763 10752 10751 10750 ] final  135.69 input  -60.55 | X-H torsion
[ 11005 11000 10999 10996 ] final -174.53 input  -57.11 | X-H torsion

> <Gold.Protein.ActiveResidues>
 VAL166  LYS551  ARG553  GLY616  TRP617  ASP618  TYR619  PRO620  LYS621  CYS622 
 ASP623  PHE694  ASN695  SER759  ASP760  ASP761  ALA762  ILE779  LEU786  VAL792 
 PHE793  MET794  SER795  GLU796  ALA797  LYS798  CYS799  TRP800  GLU811  SER814 

> <Gold.Protein.RotatedAtoms>
  151.9403  133.3636  159.3962 H   0  0  0  0  0  0  0  0  0  0  0  0  # atno 6907 bound_to 6896
  150.6999  134.4446  159.5317 H   0  0  0  0  0  0  0  0  0  0  0  0  # atno 6908 bound_to 6896
  152.2102  134.8509  160.0549 H   0  0  0  0  0  0  0  0  0  0  0  0  # atno 6909 bound_to 6896
  145.6696  139.2493  143.1876 H   0  0  0  0  0  0  0  0  0  0  0  0  # atno 7974 bound_to 7965
  156.2515  140.1958  156.6695 H   0  0  0  0  0  0  0  0  0  0  0  0  # atno 8008 bound_to 7997
  154.6404  140.0584  156.9864 H   0  0  0  0  0  0  0  0  0  0  0  0  # atno 8009 bound_to 7997
  155.1572  140.3256  155.4421 H   0  0  0  0  0  0  0  0  0  0  0  0  # atno 8010 bound_to 7997
  139.4865  144.5623  151.7209 H   0  0  0  0  0  0  0  0  0  0  0  0  # atno 10167 bound_to 10162
  157.6073  130.9188  149.9913 H   0  0  0  0  0  0  0  0  0  0  0  0  # atno 10718 bound_to 10713
  153.8441  135.3087  155.3428 H   0  0  0  0  0  0  0  0  0  0  0  0  # atno 10763 bound_to 10752
  154.7920  135.4777  154.0077 H   0  0  0  0  0  0  0  0  0  0  0  0  # atno 10764 bound_to 10752
  153.1558  135.6851  153.8907 H   0  0  0  0  0  0  0  0  0  0  0  0  # atno 10765 bound_to 10752
  140.4735  134.6143  157.4891 H   0  0  0  0  0  0  0  0  0  0  0  0  # atno 11005 bound_to 11000
  146.1057  140.7490  142.9528 LP  0  0  0  0  0  0  0  0  0  0  0  0  # atno 17320 bound_to 7965
  144.7061  140.3858  143.7117 LP  0  0  0  0  0  0  0  0  0  0  0  0  # atno 17321 bound_to 7965
  140.5195  144.0901  150.6018 LP  0  0  0  0  0  0  0  0  0  0  0  0  # atno 17342 bound_to 10162
  140.3854  143.2780  152.0122 LP  0  0  0  0  0  0  0  0  0  0  0  0  # atno 17343 bound_to 10162
  156.1164  130.3647  149.9961 LP  0  0  0  0  0  0  0  0  0  0  0  0  # atno 17370 bound_to 10713
  156.8049  130.9304  151.3645 LP  0  0  0  0  0  0  0  0  0  0  0  0  # atno 17371 bound_to 10713
  139.9870  134.7045  155.9756 LP  0  0  0  0  0  0  0  0  0  0  0  0  # atno 17394 bound_to 11000
  141.1566  133.6542  156.4180 LP  0  0  0  0  0  0  0  0  0  0  0  0  # atno 17395 bound_to 11000

$$$$
