AV-unprocessed.smi:3345|AV-procd|sdf|12900|dock3
  -GOLD-   2272019313D 1   1.00000     0.00000
 Structure written by MMmdl.
 40 41  0  0  0  0  0  0  0  0  1 V2000
  149.8068  141.7436  154.6103 C   0  0  0  0  0  0  0  0  0  0  0  0
  150.5590  141.4531  155.9182 C   0  0  1  0  0  0  0  0  0  0  0  0
  149.8416  142.0771  157.1353 C   0  0  0  0  0  0  0  0  0  0  0  0
  150.7221  142.6881  158.1316 N   0  0  0  0  0  0  0  0  0  0  0  0
  151.6499  143.6549  157.5484 C   0  0  0  0  0  0  0  0  0  0  0  0
  152.5867  144.2647  158.6059 C   0  0  0  0  0  0  0  0  0  0  0  0
  153.2885  143.2265  159.2815 O   0  0  0  0  0  0  0  0  0  0  0  0
  152.4153  142.2924  159.9074 C   0  0  0  0  0  0  0  0  0  0  0  0
  151.4843  141.6729  158.8508 C   0  0  0  0  0  0  0  0  0  0  0  0
  150.6576  140.0050  156.0876 N   0  0  0  0  0  0  0  0  0  0  0  0
  151.7270  139.2535  155.7805 C   0  0  0  0  0  0  0  0  0  0  0  0
  152.7718  139.7189  155.3242 O   0  0  0  0  0  0  0  0  0  0  0  0
  151.5874  137.7431  156.0165 C   0  0  2  0  0  0  0  0  0  0  0  0
  150.6488  137.0844  154.9855 C   0  0  0  0  0  0  0  0  0  0  0  0
  151.1774  137.4923  157.3935 N   0  0  0  0  0  0  0  0  0  0  0  0
  150.1017  136.8557  157.8623 C   0  0  0  0  0  0  0  0  0  0  0  0
  150.0647  136.7589  159.1839 N   0  0  0  0  0  0  0  0  0  0  0  0
  151.2382  137.3868  159.4908 C   0  0  0  0  0  0  0  0  0  0  0  0
  151.9487  137.8346  158.4560 N   0  0  0  0  0  0  0  0  0  0  0  0
  149.7314  142.8166  154.4311 H   0  0  0  0  0  0  0  0  0  0  0  0
  148.7947  141.3379  154.6346 H   0  0  0  0  0  0  0  0  0  0  0  0
  150.3212  141.3057  153.7541 H   0  0  0  0  0  0  0  0  0  0  0  0
  151.5520  141.8984  155.8310 H   0  0  0  0  0  0  0  0  0  0  0  0
  149.1797  142.8588  156.7603 H   0  0  0  0  0  0  0  0  0  0  0  0
  149.1823  141.3466  157.6073 H   0  0  0  0  0  0  0  0  0  0  0  0
  152.2459  143.1738  156.7714 H   0  0  0  0  0  0  0  0  0  0  0  0
  151.0996  144.4626  157.0670 H   0  0  0  0  0  0  0  0  0  0  0  0
  153.3061  144.9341  158.1343 H   0  0  0  0  0  0  0  0  0  0  0  0
  152.0209  144.8583  159.3257 H   0  0  0  0  0  0  0  0  0  0  0  0
  153.0090  141.5172  160.3919 H   0  0  0  0  0  0  0  0  0  0  0  0
  151.8377  142.7896  160.6885 H   0  0  0  0  0  0  0  0  0  0  0  0
  150.8032  140.9748  159.3388 H   0  0  0  0  0  0  0  0  0  0  0  0
  152.0783  141.0881  158.1465 H   0  0  0  0  0  0  0  0  0  0  0  0
  149.8445  139.5373  156.4609 H   0  0  0  0  0  0  0  0  0  0  0  0
  152.5717  137.2877  155.8925 H   0  0  0  0  0  0  0  0  0  0  0  0
  151.0151  137.2383  153.9698 H   0  0  0  0  0  0  0  0  0  0  0  0
  149.6357  137.4863  155.0330 H   0  0  0  0  0  0  0  0  0  0  0  0
  150.5857  136.0083  155.1498 H   0  0  0  0  0  0  0  0  0  0  0  0
  149.3318  136.4496  157.2228 H   0  0  0  0  0  0  0  0  0  0  0  0
  151.5823  137.5121  160.5070 H   0  0  0  0  0  0  0  0  0  0  0  0
  1  2  1  0  0  0  0
  1 20  1  0  0  0  0
  1 21  1  0  0  0  0
  1 22  1  0  0  0  0
  2  3  1  0  0  0  0
  2 10  1  0  0  0  0
  2 23  1  0  0  0  0
  3  4  1  0  0  0  0
  3 24  1  0  0  0  0
  3 25  1  0  0  0  0
  4  9  1  0  0  0  0
  4  5  1  0  0  0  0
  5  6  1  0  0  0  0
  5 26  1  0  0  0  0
  5 27  1  0  0  0  0
  6  7  1  0  0  0  0
  6 28  1  0  0  0  0
  6 29  1  0  0  0  0
  7  8  1  0  0  0  0
  8  9  1  0  0  0  0
  8 30  1  0  0  0  0
  8 31  1  0  0  0  0
  9 32  1  0  0  0  0
  9 33  1  0  0  0  0
 10 11  1  0  0  0  0
 10 34  1  0  0  0  0
 11 12  2  0  0  0  0
 11 13  1  0  0  0  0
 13 14  1  0  0  0  0
 13 15  1  0  0  0  0
 13 35  1  0  0  0  0
 14 36  1  0  0  0  0
 14 37  1  0  0  0  0
 14 38  1  0  0  0  0
 15 19  1  0  0  0  0
 15 16  1  0  0  0  0
 16 17  2  0  0  0  0
 16 39  1  0  0  0  0
 17 18  1  0  0  0  0
 18 19  2  0  0  0  0
 18 40  1  0  0  0  0
M  END
> <s_m_source_file>
AV-unprocessed.smi

> <i_m_source_file_index>
3345

> <i_lp_mmshare_version>
43012

> <i_f3d_flags>
0

> <s_epik_input>
W0NIMl0xW0NIMl1PW0NIMl1bQ0gyXU4xW0NIMl1bQ0BASF0oW0NIM10pW05IXUMoPU8pW0NASF0oW0NIM10pbjJbY0hdbltjSF1uMg==

> <s_epik_cmdline>
J2VwaWtfcHl0aG9uJywgJy1waCcsICc3LjAnLCAnLXRuJywgJzgnLCAnLW1hJywgJzIwMCcsICctbWV0YWxfYmluZGluZycsICctaW1hZScsICc8aW5maWxlLm1hZT4nLCAnLW9tYWUnLCAnPG91dGZpbGUubWFlPic=

> <r_lp_tautomer_probability>
1

> <r_epik_Ionization_Penalty>
0.211373

> <r_epik_Ionization_Penalty_Charging>
0

> <r_epik_Ionization_Penalty_Neutral>
0.211373

> <r_epik_State_Penalty>
0.201459

> <r_epik_Charging_Adjusted_Penalty>
0.201459

> <i_epik_Tot_Q>
0

> <i_epik_Tot_abs_Q>
0

> <r_epik_Metal_State_Penalty>
0.201458

> <b_epik_Metal_Only>
0

> <s_lp_Force_Field>
OPLS_2005

> <r_lp_Energy>
31.9378

> <b_lp_Chiralities_Consistent>
1

> <s_lp_Variant>
AV-unprocessed.smi:3345-2

> <Gold.Version>
5.8.1

> <Gold.Id.Protein>
6NUR|6NUR_protein|mol2

> <Gold.PLP.Fitness>
38.7525

> <Gold.PLP.PLP>
-33.4373

> <Gold.PLP.part.hbond>
-3.0000

> <Gold.PLP.part.metal>
0.0000

> <Gold.PLP.part.buried>
-1.5483

> <Gold.PLP.part.nonpolar>
-27.8255

> <Gold.PLP.part.repulsive>
0.1907

> <Gold.PLP.ligand.clash>
0.0000

> <Gold.PLP.ligand.torsion>
1.1105

> <Gold.PLP.Chemscore.Hbond>
2.4306

> <Gold.PLP.Chemscore.CHOScore>
0.0000

> <Gold.PLP.Chemscore.Metal>
0.0000

> <Gold.Chemscore.Hbonds>
donor molecule, donor type, donor heavy atom, donor atom, acceptor molecule, acceptor atom, score
      P1  H  6896  6907       L1    17  0.46
      P1  H  7989  7998       L1    12  0.02
      P1  H  7997  8009       L1    12  1.00

> <Gold.PLP.Chemscore.Internal.Correction>
0.2445

> <Gold.Rescore>
     Score         DG    S(hbond)    S(metal)    S(lipo)     H(rot)  DE(clash)    DE(int)     intcor
     12.90     -14.12       2.01        0.00      71.80       2.54       0.04       1.18       ----

> <Gold.Chemscore.Fitness>
12.9022

> <Gold.Chemscore.DG>
-14.1153

> <Gold.Chemscore.ZeroCoef>
-5.4800

> <Gold.Chemscore.Hbond>
2.0135

> <Gold.Chemscore.Metal>
0.0000

> <Gold.Chemscore.Lipo>
71.8011

> <Gold.Chemscore.Internal_Hbond>
0.0000

> <Gold.Chemscore.DEClash>
0.0377

> <Gold.Chemscore.DEInternal>
1.1754

> <Gold.Chemscore.Rot>
2.5353

> <Gold.Chemscore.Internal.Correction>
   9.000000E+99

> <Gold.Chemscore.Hbonds>
donor molecule, donor type, donor heavy atom, donor atom, acceptor molecule, acceptor atom, score
      P1  H  6896  6907       L1    17  0.02
      P1  H  7989  7998       L1    12  0.01
      P1  H  7997  8009       L1    12  1.00

> <Gold.Chemscore.Hbond.Weighted>
-6.7251

> <Gold.Chemscore.Metal.Weighted>
-0.0000

> <Gold.Chemscore.Lipo.Weighted>
-8.4007

> <Gold.Chemscore.Internal_Hbond.Weighted>
0.0000

> <Gold.Chemscore.DEClash.Weighted>
0.0377

> <Gold.Chemscore.DEInternal.Weighted>
1.1754

> <Gold.Chemscore.Rot.Weighted>
6.4905

> <Gold.Chemscore.Internal.Correction.Weighted>
   9.000000E+99

> <Gold.Protein.RotatedTorsions>
[ 6907 6896 6895 6894 ] final  -47.83 input  -60.11 | X-H torsion
[ 7974 7965 7964 7962 ] final  -67.86 input  175.53 | X-H torsion
[ 8008 7997 7996 7995 ] final -147.41 input   59.86 | X-H torsion
[ 10167 10162 10161 10158 ] final  -60.57 input  -65.29 | X-H torsion
[ 10718 10713 10712 10709 ] final   12.24 input   66.30 | X-H torsion
[ 10763 10752 10751 10750 ] final  -45.68 input  -60.55 | X-H torsion
[ 11005 11000 10999 10996 ] final  -35.63 input  -57.11 | X-H torsion

> <Gold.Protein.ActiveResidues>
 VAL166  LYS551  ARG553  GLY616  TRP617  ASP618  TYR619  PRO620  LYS621  CYS622 
 ASP623  PHE694  ASN695  SER759  ASP760  ASP761  ALA762  ILE779  LEU786  VAL792 
 PHE793  MET794  SER795  GLU796  ALA797  LYS798  CYS799  TRP800  GLU811  SER814 

> <Gold.Protein.RotatedAtoms>
  150.8968  134.8377  159.7331 H   0  0  0  0  0  0  0  0  0  0  0  0  # atno 6907 bound_to 6896
  152.4869  134.4564  159.9601 H   0  0  0  0  0  0  0  0  0  0  0  0  # atno 6908 bound_to 6896
  151.4620  133.3551  159.2846 H   0  0  0  0  0  0  0  0  0  0  0  0  # atno 6909 bound_to 6896
  145.7238  140.9027  143.0616 H   0  0  0  0  0  0  0  0  0  0  0  0  # atno 7974 bound_to 7965
  155.5751  140.0638  157.2797 H   0  0  0  0  0  0  0  0  0  0  0  0  # atno 8008 bound_to 7997
  154.4349  140.1862  156.0965 H   0  0  0  0  0  0  0  0  0  0  0  0  # atno 8009 bound_to 7997
  156.0347  140.3302  155.7182 H   0  0  0  0  0  0  0  0  0  0  0  0  # atno 8010 bound_to 7997
  140.6063  143.2374  151.5814 H   0  0  0  0  0  0  0  0  0  0  0  0  # atno 10167 bound_to 10162
  157.0072  130.6103  149.5703 H   0  0  0  0  0  0  0  0  0  0  0  0  # atno 10718 bound_to 10713
  154.0325  135.6655  153.4782 H   0  0  0  0  0  0  0  0  0  0  0  0  # atno 10763 bound_to 10752
  153.0534  135.5070  154.7919 H   0  0  0  0  0  0  0  0  0  0  0  0  # atno 10764 bound_to 10752
  154.6869  135.3054  154.9500 H   0  0  0  0  0  0  0  0  0  0  0  0  # atno 10765 bound_to 10752
  140.9811  133.7056  156.1685 H   0  0  0  0  0  0  0  0  0  0  0  0  # atno 11005 bound_to 11000
  144.6910  139.9238  143.7469 LP  0  0  0  0  0  0  0  0  0  0  0  0  # atno 17320 bound_to 7965
  146.0601  139.3595  143.0586 LP  0  0  0  0  0  0  0  0  0  0  0  0  # atno 17321 bound_to 7965
  139.5327  144.2869  152.1184 LP  0  0  0  0  0  0  0  0  0  0  0  0  # atno 17342 bound_to 10162
  140.2059  144.4611  150.6409 LP  0  0  0  0  0  0  0  0  0  0  0  0  # atno 17343 bound_to 10162
  156.0149  130.5243  150.8104 LP  0  0  0  0  0  0  0  0  0  0  0  0  # atno 17370 bound_to 10713
  157.5347  131.0938  150.9908 LP  0  0  0  0  0  0  0  0  0  0  0  0  # atno 17371 bound_to 10713
  140.7185  134.4384  157.5576 LP  0  0  0  0  0  0  0  0  0  0  0  0  # atno 17394 bound_to 11000
  139.8950  134.8692  156.2149 LP  0  0  0  0  0  0  0  0  0  0  0  0  # atno 17395 bound_to 11000

$$$$
