AV-unprocessed.smi:1322|AV-procd|sdf|5464|dock1
  -GOLD-   22720 5 33D 1   1.00000     0.00000
 Structure written by MMmdl.
 32 33  0  0  0  0  0  0  0  0  1 V2000
  149.1994  141.3912  155.3939 C   0  0  0  0  0  0  0  0  0  0  0  0
  150.1577  141.3654  156.5990 C   0  0  1  0  0  0  0  0  0  0  0  0
  151.5590  140.8257  156.2502 C   0  0  0  0  0  0  0  0  0  0  0  0
  151.5178  139.5099  155.6374 N   0  0  0  0  0  0  0  0  0  0  0  0
  152.0346  138.3264  156.1208 C   0  0  0  0  0  0  0  0  0  0  0  0
  151.7542  137.3553  155.2028 C   0  0  0  0  0  0  0  0  0  0  0  0
  151.0562  138.0519  154.1770 C   0  0  0  0  0  0  0  0  0  0  0  0
  150.9182  139.3417  154.4387 N   0  0  0  0  0  0  0  0  0  0  0  0
  150.2901  142.7054  157.1649 N   0  0  0  0  0  0  0  0  0  0  0  0
  150.9606  143.0160  158.2850 C   0  0  0  0  0  0  0  0  0  0  0  0
  151.5470  142.1810  158.9750 O   0  0  0  0  0  0  0  0  0  0  0  0
  150.9628  144.4995  158.6767 C   0  0  0  0  0  0  0  0  0  0  0  0
  152.3605  145.1373  158.7687 C   0  0  0  0  0  0  0  0  0  0  0  0
  151.9232  145.8088  160.0739 C   0  0  0  0  0  0  0  0  0  0  0  0
  150.8107  144.7622  160.1853 C   0  0  0  0  0  0  0  0  0  0  0  0
  149.0291  140.3904  154.9971 H   0  0  0  0  0  0  0  0  0  0  0  0
  149.5966  142.0065  154.5859 H   0  0  0  0  0  0  0  0  0  0  0  0
  148.2255  141.7953  155.6720 H   0  0  0  0  0  0  0  0  0  0  0  0
  149.7308  140.7071  157.3583 H   0  0  0  0  0  0  0  0  0  0  0  0
  152.0746  141.5137  155.5776 H   0  0  0  0  0  0  0  0  0  0  0  0
  152.1699  140.7567  157.1515 H   0  0  0  0  0  0  0  0  0  0  0  0
  152.5510  138.2751  157.0681 H   0  0  0  0  0  0  0  0  0  0  0  0
  152.0091  136.3073  155.2558 H   0  0  0  0  0  0  0  0  0  0  0  0
  150.6488  137.6615  153.2560 H   0  0  0  0  0  0  0  0  0  0  0  0
  149.8370  143.4560  156.6640 H   0  0  0  0  0  0  0  0  0  0  0  0
  150.2754  145.1078  158.0851 H   0  0  0  0  0  0  0  0  0  0  0  0
  153.1731  144.4235  158.9150 H   0  0  0  0  0  0  0  0  0  0  0  0
  152.5886  145.8379  157.9650 H   0  0  0  0  0  0  0  0  0  0  0  0
  152.6632  145.7736  160.8740 H   0  0  0  0  0  0  0  0  0  0  0  0
  151.5391  146.8184  159.9203 H   0  0  0  0  0  0  0  0  0  0  0  0
  149.8432  145.1734  160.4741 H   0  0  0  0  0  0  0  0  0  0  0  0
  151.0887  143.9183  160.8194 H   0  0  0  0  0  0  0  0  0  0  0  0
  1  2  1  0  0  0  0
  1 16  1  0  0  0  0
  1 17  1  0  0  0  0
  1 18  1  0  0  0  0
  2  3  1  0  0  0  0
  2  9  1  0  0  0  0
  2 19  1  0  0  0  0
  3  4  1  0  0  0  0
  3 20  1  0  0  0  0
  3 21  1  0  0  0  0
  4  8  1  0  0  0  0
  4  5  1  0  0  0  0
  5  6  2  0  0  0  0
  5 22  1  0  0  0  0
  6  7  1  0  0  0  0
  6 23  1  0  0  0  0
  7  8  2  0  0  0  0
  7 24  1  0  0  0  0
  9 10  1  0  0  0  0
  9 25  1  0  0  0  0
 10 11  2  0  0  0  0
 10 12  1  0  0  0  0
 12 15  1  0  0  0  0
 12 13  1  0  0  0  0
 12 26  1  0  0  0  0
 13 14  1  0  0  0  0
 13 27  1  0  0  0  0
 13 28  1  0  0  0  0
 14 15  1  0  0  0  0
 14 29  1  0  0  0  0
 14 30  1  0  0  0  0
 15 31  1  0  0  0  0
 15 32  1  0  0  0  0
M  END
> <s_m_source_file>
AV-unprocessed.smi

> <i_m_source_file_index>
1322

> <i_lp_mmshare_version>
43012

> <i_f3d_flags>
0

> <s_epik_input>
W0NIMl0xW0NIMl1bQ0gyXVtDSF0xQyg9TylbTkhdW0NASF0oW0NIM10pW0NIMl1uMltjSF1bY0hdW2NIXW4y

> <s_epik_cmdline>
J2VwaWtfcHl0aG9uJywgJy1waCcsICc3LjAnLCAnLXRuJywgJzgnLCAnLW1hJywgJzIwMCcsICctbWV0YWxfYmluZGluZycsICctaW1hZScsICc8aW5maWxlLm1hZT4nLCAnLW9tYWUnLCAnPG91dGZpbGUubWFlPic=

> <r_lp_tautomer_probability>
1

> <r_epik_Ionization_Penalty>
0.000326653

> <r_epik_Ionization_Penalty_Charging>
0

> <r_epik_Ionization_Penalty_Neutral>
0.000326653

> <r_epik_State_Penalty>
-0

> <r_epik_Charging_Adjusted_Penalty>
0

> <i_epik_Tot_Q>
0

> <i_epik_Tot_abs_Q>
0

> <r_epik_Metal_State_Penalty>
-0

> <b_epik_Metal_Only>
0

> <s_lp_Force_Field>
OPLS_2005

> <r_lp_Energy>
10.775

> <b_lp_Chiralities_Consistent>
1

> <s_lp_Variant>
AV-unprocessed.smi:1322-2

> <Gold.Version>
5.8.1

> <Gold.Id.Protein>
6NUR|6NUR_protein|mol2

> <Gold.PLP.Fitness>
44.1883

> <Gold.PLP.PLP>
-35.0545

> <Gold.PLP.part.hbond>
-2.0000

> <Gold.PLP.part.metal>
0.0000

> <Gold.PLP.part.buried>
-4.6702

> <Gold.PLP.part.nonpolar>
-28.7890

> <Gold.PLP.part.repulsive>
0.1521

> <Gold.PLP.ligand.clash>
0.0000

> <Gold.PLP.ligand.torsion>
0.3175

> <Gold.PLP.Chemscore.Hbond>
2.0000

> <Gold.PLP.Chemscore.CHOScore>
1.1161

> <Gold.PLP.Chemscore.Metal>
0.0000

> <Gold.Chemscore.Hbonds>
donor molecule, donor type, donor heavy atom, donor atom, acceptor molecule, acceptor atom, score
      L1  H     9    25       P1  8028  1.00
      P1  H  7989  7998       L1     8  1.00
      L1  C     7    24       P1  7948  0.46
      L1  C     7    24       P1  7949  0.67

> <Gold.PLP.Chemscore.Internal.Correction>
0.4207

> <Gold.Rescore>
     Score         DG    S(hbond)    S(metal)    S(lipo)     H(rot)  DE(clash)    DE(int)     intcor
     17.06     -17.78       1.95        0.00      83.31       1.55       0.07       0.66       ----

> <Gold.Chemscore.Fitness>
17.0562

> <Gold.Chemscore.DG>
-17.7844

> <Gold.Chemscore.ZeroCoef>
-5.4800

> <Gold.Chemscore.Hbond>
1.9516

> <Gold.Chemscore.Metal>
0.0000

> <Gold.Chemscore.Lipo>
83.3063

> <Gold.Chemscore.Internal_Hbond>
0.0000

> <Gold.Chemscore.DEClash>
0.0693

> <Gold.Chemscore.DEInternal>
0.6590

> <Gold.Chemscore.Rot>
1.5471

> <Gold.Chemscore.Internal.Correction>
   9.000000E+99

> <Gold.Chemscore.Hbonds>
donor molecule, donor type, donor heavy atom, donor atom, acceptor molecule, acceptor atom, score
      L1  H     9    25       P1  8028  1.00
      P1  H  7989  7998       L1     8  0.25

> <Gold.Chemscore.Hbond.Weighted>
-6.5182

> <Gold.Chemscore.Metal.Weighted>
-0.0000

> <Gold.Chemscore.Lipo.Weighted>
-9.7468

> <Gold.Chemscore.Internal_Hbond.Weighted>
0.0000

> <Gold.Chemscore.DEClash.Weighted>
0.0693

> <Gold.Chemscore.DEInternal.Weighted>
0.6590

> <Gold.Chemscore.Rot.Weighted>
3.9606

> <Gold.Chemscore.Internal.Correction.Weighted>
   9.000000E+99

> <Gold.Protein.RotatedTorsions>
[ 6907 6896 6895 6894 ] final -106.24 input  -60.11 | X-H torsion
[ 7974 7965 7964 7962 ] final  -31.05 input  175.53 | X-H torsion
[ 8008 7997 7996 7995 ] final  156.98 input   59.86 | X-H torsion
[ 10167 10162 10161 10158 ] final -162.39 input  -65.29 | X-H torsion
[ 10718 10713 10712 10709 ] final  -97.97 input   66.30 | X-H torsion
[ 10763 10752 10751 10750 ] final  169.27 input  -60.55 | X-H torsion
[ 11005 11000 10999 10996 ] final   10.73 input  -57.11 | X-H torsion

> <Gold.Protein.ActiveResidues>
 VAL166  LYS551  ARG553  GLY616  TRP617  ASP618  TYR619  PRO620  LYS621  CYS622 
 ASP623  PHE694  ASN695  SER759  ASP760  ASP761  ALA762  ILE779  LEU786  VAL792 
 PHE793  MET794  SER795  GLU796  ALA797  LYS798  CYS799  TRP800  GLU811  SER814 

> <Gold.Protein.RotatedAtoms>
  150.7379  134.0005  159.3636 H   0  0  0  0  0  0  0  0  0  0  0  0  # atno 6907 bound_to 6896
  151.7959  135.0720  160.0403 H   0  0  0  0  0  0  0  0  0  0  0  0  # atno 6908 bound_to 6896
  152.3175  133.5781  159.5758 H   0  0  0  0  0  0  0  0  0  0  0  0  # atno 6909 bound_to 6896
  146.1097  140.5618  142.8783 H   0  0  0  0  0  0  0  0  0  0  0  0  # atno 7974 bound_to 7965
  156.2391  140.1898  156.7038 H   0  0  0  0  0  0  0  0  0  0  0  0  # atno 8008 bound_to 7997
  154.6162  140.0615  156.9584 H   0  0  0  0  0  0  0  0  0  0  0  0  # atno 8009 bound_to 7997
  155.1935  140.3286  155.4357 H   0  0  0  0  0  0  0  0  0  0  0  0  # atno 8010 bound_to 7997
  139.6395  144.0286  152.2081 H   0  0  0  0  0  0  0  0  0  0  0  0  # atno 10167 bound_to 10162
  156.0096  130.5218  150.6454 H   0  0  0  0  0  0  0  0  0  0  0  0  # atno 10718 bound_to 10713
  154.3807  135.2753  155.2213 H   0  0  0  0  0  0  0  0  0  0  0  0  # atno 10763 bound_to 10752
  154.4320  135.5975  153.6078 H   0  0  0  0  0  0  0  0  0  0  0  0  # atno 10764 bound_to 10752
  152.9834  135.5998  154.4050 H   0  0  0  0  0  0  0  0  0  0  0  0  # atno 10765 bound_to 10752
  140.5112  134.0650  155.7819 H   0  0  0  0  0  0  0  0  0  0  0  0  # atno 11005 bound_to 11000
  144.7501  140.5168  143.6808 LP  0  0  0  0  0  0  0  0  0  0  0  0  # atno 17320 bound_to 7965
  145.5689  139.1482  143.3299 LP  0  0  0  0  0  0  0  0  0  0  0  0  # atno 17321 bound_to 7965
  139.9972  144.6319  150.7762 LP  0  0  0  0  0  0  0  0  0  0  0  0  # atno 17342 bound_to 10162
  140.7483  143.2921  151.3304 LP  0  0  0  0  0  0  0  0  0  0  0  0  # atno 17343 bound_to 10162
  157.4226  131.0839  151.1116 LP  0  0  0  0  0  0  0  0  0  0  0  0  # atno 17370 bound_to 10713
  157.1714  130.6269  149.5642 LP  0  0  0  0  0  0  0  0  0  0  0  0  # atno 17371 bound_to 10713
  141.1384  133.9181  157.2381 LP  0  0  0  0  0  0  0  0  0  0  0  0  # atno 17394 bound_to 11000
  139.9658  135.0142  156.9382 LP  0  0  0  0  0  0  0  0  0  0  0  0  # atno 17395 bound_to 11000

$$$$
