#       Name:                AV-unprocessed.smi:41
#       Creating user name   scv26
#       Creation time:       Thu Mar 26 16:24:25 2020


#       File generated by GOLD software.
#

@<TRIPOS>MOLECULE
AV-unprocessed.smi:41
    33    34     1
SMALL
NO_CHARGES


@<TRIPOS>ATOM
      1 ****        -4.7990   0.5132  -0.0452 N.pl3          1 S1                 0.0000
      2 ****        -3.4642   0.4186  -0.1331 C.2            1 S1                 0.0000
      3 ****        -2.7238   1.4490   0.2254 N.2            1 S1                 0.0000
      4 ****        -1.3544   1.4476   0.1701 C.2            1 S1                 0.0000
      5 ****        -0.7176   2.4315   0.5445 O.2            1 S1                 0.0000
      6 ****        -0.7175   0.2840  -0.3330 N.am           1 S1                 0.0000
      7 ****         0.7415   0.1937  -0.3642 C.3            1 S1                 0.0000
      8 ****         1.3259  -0.3506  -1.6809 C.3            1 S1                 0.0000
      9 ****         2.9697  -0.9559  -1.2748 S.3            1 S1                 0.0000
     10 ****         2.5673  -0.9070   0.4893 C.3            1 S1                 0.0000
     11 ****         3.4251   0.1387   1.2277 C.3            1 S1                 0.0000
     12 ****         3.5017  -0.1784   2.6011 O.3            1 S1                 0.0000
     13 ****         1.1826  -0.6302   0.6684 O.3            1 S1                 0.0000
     14 ****        -1.4916  -0.8190  -0.6747 C.2            1 S1                 0.0000
     15 ****        -2.8398  -0.7961  -0.6034 C.2            1 S1                 0.0000
     16 ****        -3.5706  -1.8695  -0.9511 F              1 S1                 0.0000
     17 ****         1.1699   1.1814  -0.1922 H              1 S1                 0.0000
     18 ****         2.7782  -1.8977   0.8936 H              1 S1                 0.0000
     19 ****        -5.3777  -0.2710  -0.3097 H              1 S1                 0.0000
     20 ****        -5.2227   1.3690   0.2826 H              1 S1                 0.0000
     21 ****         0.7547  -1.1896  -2.0704 H              1 S1                 0.0000
     22 ****         1.3544   0.4322  -2.4391 H              1 S1                 0.0000
     23 ****         4.4448   0.1257   0.8417 H              1 S1                 0.0000
     24 ****         3.0485   1.1527   1.0959 H              1 S1                 0.0000
     25 ****         4.0430   0.4672   3.0292 H              1 S1                 0.0000
     26 ****        -1.0295  -1.7392  -0.9972 H              1 S1                 0.0000
     27 ****        -3.1847   2.2732   0.5543 LP             1 S1                 0.0000
     28 ****        -1.1991   3.2366   0.8909 LP             1 S1                 0.0000
     29 ****         0.2815   2.4261   0.5024 LP             1 S1                 0.0000
     30 ****         3.9055  -1.0861   2.7154 LP             1 S1                 0.0000
     31 ****         2.5852  -0.1685   3.0009 LP             1 S1                 0.0000
     32 ****         0.6664  -1.4866   0.6564 LP             1 S1                 0.0000
     33 ****         1.0445  -0.1700   1.5454 LP             1 S1                 0.0000
@<TRIPOS>BOND
    1    1    2 1     
    2    1   19 1     
    3    1   20 1     
    4    2   15 1     
    5    2    3 2     
    6    3    4 1     
    7    4    5 2     
    8    4    6 am    
    9    6    7 1     
   10    6   14 1     
   11    7   17 1     
   12    7   13 1     
   13    7    8 1     
   14    8    9 1     
   15    8   21 1     
   16    8   22 1     
   17    9   10 1     
   18   10   18 1     
   19   10   11 1     
   20   10   13 1     
   21   11   12 1     
   22   11   23 1     
   23   11   24 1     
   24   12   25 1     
   25   14   15 2     
   26   14   26 1     
   27   15   16 1     
   28    3   27 1     
   29    5   28 1     
   30    5   29 1     
   31   12   30 1     
   32   12   31 1     
   33   13   32 1     
   34   13   33 1     
@<TRIPOS>SUBSTRUCTURE
      1 S1             1
@<TRIPOS>SET
LONE_PAIRS      STATIC     ATOMS    <user>   **** ""
7 27 28 29 30 31 32 33
DONOR_HYDROGENS      STATIC     ATOMS    <user>   **** ""
3 19 20 25
ATOM$BLUE        STATIC     ATOMS    COLORGROUP SYSTEM
7 27 28 29 30 31 32 33
ATOM$RED        STATIC     ATOMS    COLORGROUP SYSTEM
3 19 20 25
