AV-unprocessed.smi:910|AV-procd|sdf|4133|dock1
  -GOLD-   22720 2 33D 1   1.00000     0.00000
 Structure written by MMmdl.
 45 46  0  0  0  0  0  0  0  0  2 V2000
  155.0899  129.1446  154.4879 C   0  0  0  0  0  0  0  0  0  0  0  0
  153.6695  129.5903  154.6349 C   0  0  0  0  0  0  0  0  0  0  0  0
  152.6461  129.0557  153.8685 N   0  0  0  0  0  0  0  0  0  0  0  0
  151.5317  129.6713  154.2692 C   0  0  0  0  0  0  0  0  0  0  0  0
  150.2924  129.4491  153.8032 N   0  5  0  0  0  0  0  0  0  0  0  0
  149.3125  130.3405  154.0739 C   0  0  0  0  0  0  0  0  0  0  0  0
  149.0267  130.7925  155.1854 O   0  0  0  0  0  0  0  0  0  0  0  0
  148.6040  130.7110  152.9972 N   0  0  0  0  0  0  0  0  0  0  0  0
  147.4076  131.5484  153.0094 C   0  0  0  0  0  0  0  0  0  0  0  0
  147.7476  133.0015  152.6425 C   0  0  0  0  0  0  0  0  0  0  0  0
  146.5387  133.7044  152.3984 O   0  0  0  0  0  0  0  0  0  0  0  0
  146.1264  133.7791  151.0398 C   0  0  1  0  0  0  0  0  0  0  0  0
  145.8133  132.3731  150.4804 C   0  0  0  0  0  0  0  0  0  0  0  0
  144.6349  131.7150  151.2176 C   0  0  0  0  0  0  0  0  0  0  0  0
  143.3859  132.6077  151.1839 C   0  0  0  0  0  0  0  0  0  0  0  0
  143.6865  134.0146  151.7249 C   0  0  0  0  0  0  0  0  0  0  0  0
  144.8666  134.6723  150.9789 C   0  0  1  0  0  0  0  0  0  0  0  0
  145.1422  136.0953  151.4894 C   0  0  0  0  0  0  0  0  0  0  0  0
  151.7765  130.5926  155.2437 O   0  0  0  0  0  0  0  0  0  0  0  0
  153.1248  130.5302  155.4680 C   0  0  0  0  0  0  0  0  0  0  0  0
  153.7031  131.4313  156.5053 C   0  0  0  0  0  0  0  0  0  0  0  0
  155.6009  129.7171  153.7138 H   0  0  0  0  0  0  0  0  0  0  0  0
  155.1480  128.0907  154.2147 H   0  0  0  0  0  0  0  0  0  0  0  0
  155.6443  129.2748  155.4174 H   0  0  0  0  0  0  0  0  0  0  0  0
  148.8790  130.3220  152.1074 H   0  0  0  0  0  0  0  0  0  0  0  0
  146.6406  131.1491  152.3438 H   0  0  0  0  0  0  0  0  0  0  0  0
  146.9906  131.5152  154.0158 H   0  0  0  0  0  0  0  0  0  0  0  0
  148.2824  133.4819  153.4627 H   0  0  0  0  0  0  0  0  0  0  0  0
  148.4062  133.0145  151.7746 H   0  0  0  0  0  0  0  0  0  0  0  0
  146.9164  134.2425  150.4463 H   0  0  0  0  0  0  0  0  0  0  0  0
  145.5665  132.4581  149.4215 H   0  0  0  0  0  0  0  0  0  0  0  0
  146.6875  131.7253  150.5282 H   0  0  0  0  0  0  0  0  0  0  0  0
  144.4102  130.7465  150.7708 H   0  0  0  0  0  0  0  0  0  0  0  0
  144.9139  131.5168  152.2523 H   0  0  0  0  0  0  0  0  0  0  0  0
  143.0184  132.6818  150.1597 H   0  0  0  0  0  0  0  0  0  0  0  0
  142.5877  132.1482  151.7677 H   0  0  0  0  0  0  0  0  0  0  0  0
  142.7952  134.6359  151.6345 H   0  0  0  0  0  0  0  0  0  0  0  0
  143.9087  133.9525  152.7912 H   0  0  0  0  0  0  0  0  0  0  0  0
  144.5807  134.7635  149.9300 H   0  0  0  0  0  0  0  0  0  0  0  0
  145.4093  136.0956  152.5467 H   0  0  0  0  0  0  0  0  0  0  0  0
  144.2642  136.7305  151.3704 H   0  0  0  0  0  0  0  0  0  0  0  0
  145.9611  136.5579  150.9383 H   0  0  0  0  0  0  0  0  0  0  0  0
  154.0603  130.8558  157.3592 H   0  0  0  0  0  0  0  0  0  0  0  0
  152.9599  132.1437  156.8640 H   0  0  0  0  0  0  0  0  0  0  0  0
  154.5439  131.9948  156.1006 H   0  0  0  0  0  0  0  0  0  0  0  0
  1 22  1  0  0  0  0
  1 23  1  0  0  0  0
  1 24  1  0  0  0  0
  1  2  1  0  0  0  0
  2  3  1  0  0  0  0
  2 20  2  0  0  0  0
  3  4  2  0  0  0  0
  4 19  1  0  0  0  0
  4  5  1  0  0  0  0
  5  6  1  0  0  0  0
  6  8  1  0  0  0  0
  6  7  2  0  0  0  0
  8  9  1  0  0  0  0
  8 25  1  0  0  0  0
  9 10  1  0  0  0  0
  9 26  1  0  0  0  0
  9 27  1  0  0  0  0
 10 11  1  0  0  0  0
 10 28  1  0  0  0  0
 10 29  1  0  0  0  0
 11 12  1  0  0  0  0
 12 17  1  0  0  0  0
 12 13  1  0  0  0  0
 12 30  1  0  0  0  0
 13 14  1  0  0  0  0
 13 31  1  0  0  0  0
 13 32  1  0  0  0  0
 14 15  1  0  0  0  0
 14 33  1  0  0  0  0
 14 34  1  0  0  0  0
 15 16  1  0  0  0  0
 15 35  1  0  0  0  0
 15 36  1  0  0  0  0
 16 17  1  0  0  0  0
 16 37  1  0  0  0  0
 16 38  1  0  0  0  0
 17 18  1  0  0  0  0
 17 39  1  0  0  0  0
 18 40  1  0  0  0  0
 18 41  1  0  0  0  0
 18 42  1  0  0  0  0
 19 20  1  0  0  0  0
 20 21  1  0  0  0  0
 21 43  1  0  0  0  0
 21 44  1  0  0  0  0
 21 45  1  0  0  0  0
M  CHG  1   5  -1
M  END
> <s_m_source_file>
AV-unprocessed.smi

> <i_m_source_file_index>
910

> <i_lp_mmshare_version>
43012

> <i_f3d_flags>
0

> <s_epik_input>
W0NIM11jMW5jKG9jMVtDSDNdKVtOSF1DKD1PKVtOSF1bQ0gyXVtDSDJdT1tDQEBIXTJbQ0gyXVtDSDJdW0NIMl1bQ0gyXVtDQEhdMltDSDNd

> <s_epik_cmdline>
J2VwaWtfcHl0aG9uJywgJy1waCcsICc3LjAnLCAnLXRuJywgJzgnLCAnLW1hJywgJzIwMCcsICctbWV0YWxfYmluZGluZycsICctaW1hZScsICc8aW5maWxlLm1hZT4nLCAnLW9tYWUnLCAnPG91dGZpbGUubWFlPic=

> <r_lp_tautomer_probability>
0.107061

> <r_epik_Ionization_Penalty>
10.1763

> <r_epik_Ionization_Penalty_Charging>
7.13067

> <r_epik_Ionization_Penalty_Neutral>
3.04564

> <r_epik_State_Penalty>
5.57927

> <r_epik_Charging_Adjusted_Penalty>
12.7099

> <i_epik_Tot_Q>
-1

> <i_epik_Tot_abs_Q>
1

> <r_epik_Metal_State_Penalty>
1.52303

> <b_epik_Metal_Only>
1

> <s_lp_Force_Field>
OPLS_2005

> <r_lp_Energy>
4.58121

> <b_lp_Chiralities_Consistent>
1

> <s_lp_Variant>
AV-unprocessed.smi:910-18

> <Gold.Version>
5.8.1

> <Gold.Id.Protein>
6NUR|6NUR_protein|mol2

> <Gold.PLP.Fitness>
37.8456

> <Gold.PLP.PLP>
-37.6832

> <Gold.PLP.part.hbond>
-1.0000

> <Gold.PLP.part.metal>
0.0000

> <Gold.PLP.part.buried>
-5.4045

> <Gold.PLP.part.nonpolar>
-32.1660

> <Gold.PLP.part.repulsive>
0.7601

> <Gold.PLP.ligand.clash>
0.0000

> <Gold.PLP.ligand.torsion>
0.9090

> <Gold.PLP.Chemscore.Hbond>
0.6135

> <Gold.PLP.Chemscore.CHOScore>
0.0000

> <Gold.PLP.Chemscore.Metal>
0.0000

> <Gold.Chemscore.Hbonds>
donor molecule, donor type, donor heavy atom, donor atom, acceptor molecule, acceptor atom, score
      L1  H     8    25       P1 10747  0.80

> <Gold.PLP.Chemscore.Internal.Correction>
0.1398

> <Gold.Rescore>
     Score         DG    S(hbond)    S(metal)    S(lipo)     H(rot)  DE(clash)    DE(int)     intcor
      9.41     -11.90       0.05        0.00      88.97       1.62       0.03       2.46       ----

> <Gold.Chemscore.Fitness>
9.4119

> <Gold.Chemscore.DG>
-11.9037

> <Gold.Chemscore.ZeroCoef>
-5.4800

> <Gold.Chemscore.Hbond>
0.0461

> <Gold.Chemscore.Metal>
0.0000

> <Gold.Chemscore.Lipo>
88.9652

> <Gold.Chemscore.Internal_Hbond>
0.0000

> <Gold.Chemscore.DEClash>
0.0329

> <Gold.Chemscore.DEInternal>
2.4589

> <Gold.Chemscore.Rot>
1.6169

> <Gold.Chemscore.Internal.Correction>
   9.000000E+99

> <Gold.Chemscore.Hbonds>
donor molecule, donor type, donor heavy atom, donor atom, acceptor molecule, acceptor atom, score
      L1  H     8    25       P1 10747  0.20

> <Gold.Chemscore.Hbond.Weighted>
-0.1540

> <Gold.Chemscore.Metal.Weighted>
-0.0000

> <Gold.Chemscore.Lipo.Weighted>
-10.4089

> <Gold.Chemscore.Internal_Hbond.Weighted>
0.0000

> <Gold.Chemscore.DEClash.Weighted>
0.0329

> <Gold.Chemscore.DEInternal.Weighted>
2.4589

> <Gold.Chemscore.Rot.Weighted>
4.1393

> <Gold.Chemscore.Internal.Correction.Weighted>
   9.000000E+99

> <Gold.Protein.RotatedTorsions>
[ 6907 6896 6895 6894 ] final   63.27 input  -60.11 | X-H torsion
[ 7974 7965 7964 7962 ] final -111.09 input  175.53 | X-H torsion
[ 8008 7997 7996 7995 ] final  -34.69 input   59.86 | X-H torsion
[ 10167 10162 10161 10158 ] final  160.05 input  -65.29 | X-H torsion
[ 10718 10713 10712 10709 ] final   15.62 input   66.30 | X-H torsion
[ 10763 10752 10751 10750 ] final -143.67 input  -60.55 | X-H torsion
[ 11005 11000 10999 10996 ] final  174.85 input  -57.11 | X-H torsion

> <Gold.Protein.ActiveResidues>
 VAL166  LYS551  ARG553  GLY616  TRP617  ASP618  TYR619  PRO620  LYS621  CYS622 
 ASP623  PHE694  ASN695  SER759  ASP760  ASP761  ALA762  ILE779  LEU786  VAL792 
 PHE793  MET794  SER795  GLU796  ALA797  LYS798  CYS799  TRP800  GLU811  SER814 

> <Gold.Protein.RotatedAtoms>
  152.4239  134.5904  159.9972 H   0  0  0  0  0  0  0  0  0  0  0  0  # atno 6907 bound_to 6896
  151.6046  133.3347  159.3062 H   0  0  0  0  0  0  0  0  0  0  0  0  # atno 6908 bound_to 6896
  150.8128  134.7330  159.6769 H   0  0  0  0  0  0  0  0  0  0  0  0  # atno 6909 bound_to 6896
  145.1603  140.8875  143.3595 H   0  0  0  0  0  0  0  0  0  0  0  0  # atno 7974 bound_to 7965
  154.4114  140.1677  156.2090 H   0  0  0  0  0  0  0  0  0  0  0  0  # atno 8008 bound_to 7997
  155.9460  140.3404  155.6344 H   0  0  0  0  0  0  0  0  0  0  0  0  # atno 8009 bound_to 7997
  155.6929  140.0736  157.2431 H   0  0  0  0  0  0  0  0  0  0  0  0  # atno 8010 bound_to 7997
  139.4837  144.4672  151.8626 H   0  0  0  0  0  0  0  0  0  0  0  0  # atno 10167 bound_to 10162
  157.0561  130.6290  149.5777 H   0  0  0  0  0  0  0  0  0  0  0  0  # atno 10718 bound_to 10713
  154.8460  135.3461  154.6224 H   0  0  0  0  0  0  0  0  0  0  0  0  # atno 10763 bound_to 10752
  153.6833  135.6979  153.5116 H   0  0  0  0  0  0  0  0  0  0  0  0  # atno 10764 bound_to 10752
  153.2652  135.4310  155.0889 H   0  0  0  0  0  0  0  0  0  0  0  0  # atno 10765 bound_to 10752
  140.3558  134.7156  157.4298 H   0  0  0  0  0  0  0  0  0  0  0  0  # atno 11005 bound_to 11000
  145.0338  139.3318  143.6011 LP  0  0  0  0  0  0  0  0  0  0  0  0  # atno 17320 bound_to 7965
  146.3483  139.9686  142.8709 LP  0  0  0  0  0  0  0  0  0  0  0  0  # atno 17321 bound_to 7965
  140.4138  144.2334  150.5888 LP  0  0  0  0  0  0  0  0  0  0  0  0  # atno 17342 bound_to 10162
  140.4941  143.2338  151.8776 LP  0  0  0  0  0  0  0  0  0  0  0  0  # atno 17343 bound_to 10162
  155.9992  130.5068  150.7600 LP  0  0  0  0  0  0  0  0  0  0  0  0  # atno 17370 bound_to 10713
  157.4991  131.0917  151.0335 LP  0  0  0  0  0  0  0  0  0  0  0  0  # atno 17371 bound_to 10713
  140.0666  134.5920  155.8688 LP  0  0  0  0  0  0  0  0  0  0  0  0  # atno 17394 bound_to 11000
  141.1999  133.6609  156.5867 LP  0  0  0  0  0  0  0  0  0  0  0  0  # atno 17395 bound_to 11000

$$$$
