AV-unprocessed.smi:1565|AV-procd|sdf|6298|dock1
  -GOLD-   22720 6493D 1   1.00000     0.00000
 Structure written by MMmdl.
 40 41  0  0  0  0  0  0  0  0  1 V2000
  153.3606  142.2336  162.2078 C   0  0  0  0  0  0  0  0  0  0  0  0
  153.2492  142.4148  160.6904 C   0  0  1  0  0  0  0  0  0  0  0  0
  152.5321  141.2290  160.0178 C   0  0  0  0  0  0  0  0  0  0  0  0
  152.3366  141.4912  158.5945 N   0  0  0  0  0  0  0  0  0  0  0  0
  151.9454  140.3788  157.8188 C   0  0  0  0  0  0  0  0  0  0  0  0
  150.6727  139.7910  158.0096 C   0  0  0  0  0  0  0  0  0  0  0  0
  150.3013  138.6838  157.2233 C   0  0  0  0  0  0  0  0  0  0  0  0
  151.2133  138.1803  156.2700 C   0  0  0  0  0  0  0  0  0  0  0  0
  150.8692  137.0194  155.3825 C   0  0  0  0  0  0  0  0  0  0  0  0
  151.6084  136.6949  154.4533 O   0  0  0  0  0  0  0  0  0  0  0  0
  149.7521  136.3507  155.7103 N   0  0  0  0  0  0  0  0  0  0  0  0
  149.2283  135.1893  154.9993 C   0  0  0  0  0  0  0  0  0  0  0  0
  149.7086  133.8675  155.6224 C   0  0  0  0  0  0  0  0  0  0  0  0
  151.0020  133.9719  155.9245 F   0  0  0  0  0  0  0  0  0  0  0  0
  149.0290  133.6103  156.7401 F   0  0  0  0  0  0  0  0  0  0  0  0
  149.5519  132.8545  154.7705 F   0  0  0  0  0  0  0  0  0  0  0  0
  152.4565  138.8363  156.1461 C   0  0  0  0  0  0  0  0  0  0  0  0
  152.8175  139.8966  156.8993 N   0  0  0  0  0  0  0  0  0  0  0  0
  151.6867  142.7728  158.3293 C   0  0  0  0  0  0  0  0  0  0  0  0
  152.4323  143.9131  159.0470 C   0  0  1  0  0  0  0  0  0  0  0  0
  151.7153  145.2580  158.8895 C   0  0  0  0  0  0  0  0  0  0  0  0
  152.5182  143.6116  160.4368 O   0  0  0  0  0  0  0  0  0  0  0  0
  153.9236  141.3333  162.4557 H   0  0  0  0  0  0  0  0  0  0  0  0
  152.3759  142.1508  162.6688 H   0  0  0  0  0  0  0  0  0  0  0  0
  153.8716  143.0815  162.6643 H   0  0  0  0  0  0  0  0  0  0  0  0
  154.2552  142.5162  160.2791 H   0  0  0  0  0  0  0  0  0  0  0  0
  153.1132  140.3228  160.1834 H   0  0  0  0  0  0  0  0  0  0  0  0
  151.5569  141.0683  160.4798 H   0  0  0  0  0  0  0  0  0  0  0  0
  149.9854  140.1672  158.7524 H   0  0  0  0  0  0  0  0  0  0  0  0
  149.3275  138.2365  157.3592 H   0  0  0  0  0  0  0  0  0  0  0  0
  149.2183  136.6773  156.5025 H   0  0  0  0  0  0  0  0  0  0  0  0
  148.1377  135.2199  154.9651 H   0  0  0  0  0  0  0  0  0  0  0  0
  149.5682  135.2516  153.9651 H   0  0  0  0  0  0  0  0  0  0  0  0
  153.1910  138.5033  155.4270 H   0  0  0  0  0  0  0  0  0  0  0  0
  151.6705  142.9701  157.2566 H   0  0  0  0  0  0  0  0  0  0  0  0
  150.6509  142.7277  158.6689 H   0  0  0  0  0  0  0  0  0  0  0  0
  153.4398  144.0076  158.6381 H   0  0  0  0  0  0  0  0  0  0  0  0
  151.6341  145.5388  157.8392 H   0  0  0  0  0  0  0  0  0  0  0  0
  152.2579  146.0512  159.4045 H   0  0  0  0  0  0  0  0  0  0  0  0
  150.7079  145.2192  159.3049 H   0  0  0  0  0  0  0  0  0  0  0  0
  1  2  1  0  0  0  0
  1 23  1  0  0  0  0
  1 24  1  0  0  0  0
  1 25  1  0  0  0  0
  2 22  1  0  0  0  0
  2  3  1  0  0  0  0
  2 26  1  0  0  0  0
  3  4  1  0  0  0  0
  3 27  1  0  0  0  0
  3 28  1  0  0  0  0
  4  5  1  0  0  0  0
  4 19  1  0  0  0  0
  5 18  1  0  0  0  0
  5  6  2  0  0  0  0
  6  7  1  0  0  0  0
  6 29  1  0  0  0  0
  7  8  2  0  0  0  0
  7 30  1  0  0  0  0
  8  9  1  0  0  0  0
  8 17  1  0  0  0  0
  9 10  2  0  0  0  0
  9 11  1  0  0  0  0
 11 12  1  0  0  0  0
 11 31  1  0  0  0  0
 12 13  1  0  0  0  0
 12 32  1  0  0  0  0
 12 33  1  0  0  0  0
 13 14  1  0  0  0  0
 13 15  1  0  0  0  0
 13 16  1  0  0  0  0
 17 18  2  0  0  0  0
 17 34  1  0  0  0  0
 19 20  1  0  0  0  0
 19 35  1  0  0  0  0
 19 36  1  0  0  0  0
 20 21  1  0  0  0  0
 20 22  1  0  0  0  0
 20 37  1  0  0  0  0
 21 38  1  0  0  0  0
 21 39  1  0  0  0  0
 21 40  1  0  0  0  0
M  END
> <s_m_source_file>
AV-unprocessed.smi

> <i_m_source_file_index>
1565

> <i_lp_mmshare_version>
43012

> <i_f3d_flags>
0

> <s_epik_input>
W0NIM11bQ0BASF0xW0NIMl1OKFtDSDJdW0NASF0oTzEpW0NIM10pYzJbY0hdW2NIXWMoW2NIXW4yKUMoPU8pW05IXVtDSDJdQyhGKShGKUY=

> <s_epik_cmdline>
J2VwaWtfcHl0aG9uJywgJy1waCcsICc3LjAnLCAnLXRuJywgJzgnLCAnLW1hJywgJzIwMCcsICctbWV0YWxfYmluZGluZycsICctaW1hZScsICc8aW5maWxlLm1hZT4nLCAnLW9tYWUnLCAnPG91dGZpbGUubWFlPic=

> <r_lp_tautomer_probability>
1

> <r_epik_Ionization_Penalty>
1.48031e-05

> <r_epik_Ionization_Penalty_Charging>
0

> <r_epik_Ionization_Penalty_Neutral>
1.48031e-05

> <r_epik_State_Penalty>
-0

> <r_epik_Charging_Adjusted_Penalty>
0

> <i_epik_Tot_Q>
0

> <i_epik_Tot_abs_Q>
0

> <r_epik_Metal_State_Penalty>
0.00620302

> <b_epik_Metal_Only>
0

> <s_lp_Force_Field>
OPLS_2005

> <r_lp_Energy>
16.2805

> <b_lp_Chiralities_Consistent>
1

> <s_lp_Variant>
AV-unprocessed.smi:1565-2

> <Gold.Version>
5.8.1

> <Gold.Id.Protein>
6NUR|6NUR_protein|mol2

> <Gold.PLP.Fitness>
44.7744

> <Gold.PLP.PLP>
-39.6286

> <Gold.PLP.part.hbond>
-2.0000

> <Gold.PLP.part.metal>
0.0000

> <Gold.PLP.part.buried>
-4.7248

> <Gold.PLP.part.nonpolar>
-32.5605

> <Gold.PLP.part.repulsive>
0.6681

> <Gold.PLP.ligand.clash>
0.0000

> <Gold.PLP.ligand.torsion>
0.5952

> <Gold.PLP.Chemscore.Hbond>
2.0000

> <Gold.PLP.Chemscore.CHOScore>
0.0000

> <Gold.PLP.Chemscore.Metal>
0.0000

> <Gold.Chemscore.Hbonds>
donor molecule, donor type, donor heavy atom, donor atom, acceptor molecule, acceptor atom, score
      P1  H  7997  8008       L1    18  1.00
      P1  H 10752 10763       L1    10  1.00

> <Gold.PLP.Chemscore.Internal.Correction>
0.3362

> <Gold.Rescore>
     Score         DG    S(hbond)    S(metal)    S(lipo)     H(rot)  DE(clash)    DE(int)     intcor
     19.15     -19.66       1.92        0.00      94.80       1.31       0.02       0.48       ----

> <Gold.Chemscore.Fitness>
19.1517

> <Gold.Chemscore.DG>
-19.6562

> <Gold.Chemscore.ZeroCoef>
-5.4800

> <Gold.Chemscore.Hbond>
1.9241

> <Gold.Chemscore.Metal>
0.0000

> <Gold.Chemscore.Lipo>
94.7965

> <Gold.Chemscore.Internal_Hbond>
0.0000

> <Gold.Chemscore.DEClash>
0.0221

> <Gold.Chemscore.DEInternal>
0.4824

> <Gold.Chemscore.Rot>
1.3052

> <Gold.Chemscore.Internal.Correction>
   9.000000E+99

> <Gold.Chemscore.Hbonds>
donor molecule, donor type, donor heavy atom, donor atom, acceptor molecule, acceptor atom, score
      P1  H  7997  8008       L1    18  0.63
      P1  H 10752 10763       L1    10  1.00

> <Gold.Chemscore.Hbond.Weighted>
-6.4264

> <Gold.Chemscore.Metal.Weighted>
-0.0000

> <Gold.Chemscore.Lipo.Weighted>
-11.0912

> <Gold.Chemscore.Internal_Hbond.Weighted>
0.0000

> <Gold.Chemscore.DEClash.Weighted>
0.0221

> <Gold.Chemscore.DEInternal.Weighted>
0.4824

> <Gold.Chemscore.Rot.Weighted>
3.3414

> <Gold.Chemscore.Internal.Correction.Weighted>
   9.000000E+99

> <Gold.Protein.RotatedTorsions>
[ 6907 6896 6895 6894 ] final  -56.56 input  -60.11 | X-H torsion
[ 7974 7965 7964 7962 ] final  -58.31 input  175.53 | X-H torsion
[ 8008 7997 7996 7995 ] final  -71.18 input   59.86 | X-H torsion
[ 10167 10162 10161 10158 ] final   55.61 input  -65.29 | X-H torsion
[ 10718 10713 10712 10709 ] final  102.44 input   66.30 | X-H torsion
[ 10763 10752 10751 10750 ] final   35.46 input  -60.55 | X-H torsion
[ 11005 11000 10999 10996 ] final   51.53 input  -57.11 | X-H torsion

> <Gold.Protein.ActiveResidues>
 VAL166  LYS551  ARG553  GLY616  TRP617  ASP618  TYR619  PRO620  LYS621  CYS622 
 ASP623  PHE694  ASN695  SER759  ASP760  ASP761  ALA762  ILE779  LEU786  VAL792 
 PHE793  MET794  SER795  GLU796  ALA797  LYS798  CYS799  TRP800  GLU811  SER814 

> <Gold.Protein.RotatedAtoms>
  150.8157  134.7338  159.6727 H   0  0  0  0  0  0  0  0  0  0  0  0  # atno 6907 bound_to 6896
  152.4276  134.5835  159.9964 H   0  0  0  0  0  0  0  0  0  0  0  0  # atno 6908 bound_to 6896
  151.6033  133.3317  159.3088 H   0  0  0  0  0  0  0  0  0  0  0  0  # atno 6909 bound_to 6896
  145.8408  140.8418  143.0035 H   0  0  0  0  0  0  0  0  0  0  0  0  # atno 7974 bound_to 7965
  154.5068  140.0820  156.7910 H   0  0  0  0  0  0  0  0  0  0  0  0  # atno 8008 bound_to 7997
  155.3875  140.3431  155.4231 H   0  0  0  0  0  0  0  0  0  0  0  0  # atno 8009 bound_to 7997
  156.1525  140.1563  156.8734 H   0  0  0  0  0  0  0  0  0  0  0  0  # atno 8010 bound_to 7997
  140.2176  144.3823  150.6463 H   0  0  0  0  0  0  0  0  0  0  0  0  # atno 10167 bound_to 10162
  157.6802  131.0753  150.5404 H   0  0  0  0  0  0  0  0  0  0  0  0  # atno 10718 bound_to 10713
  153.0118  135.6333  154.1830 H   0  0  0  0  0  0  0  0  0  0  0  0  # atno 10763 bound_to 10752
  154.1571  135.2825  155.3121 H   0  0  0  0  0  0  0  0  0  0  0  0  # atno 10764 bound_to 10752
  154.6009  135.5587  153.7434 H   0  0  0  0  0  0  0  0  0  0  0  0  # atno 10765 bound_to 10752
  140.0925  134.5190  155.8838 H   0  0  0  0  0  0  0  0  0  0  0  0  # atno 11005 bound_to 11000
  144.6733  140.0809  143.7469 LP  0  0  0  0  0  0  0  0  0  0  0  0  # atno 17320 bound_to 7965
  145.9467  139.2706  143.1236 LP  0  0  0  0  0  0  0  0  0  0  0  0  # atno 17321 bound_to 7965
  140.6279  143.2183  151.6559 LP  0  0  0  0  0  0  0  0  0  0  0  0  # atno 17342 bound_to 10162
  139.5156  144.3373  152.0773 LP  0  0  0  0  0  0  0  0  0  0  0  0  # atno 17343 bound_to 10162
  156.5711  130.4280  149.6019 LP  0  0  0  0  0  0  0  0  0  0  0  0  # atno 17370 bound_to 10713
  156.2740  130.7033  151.1838 LP  0  0  0  0  0  0  0  0  0  0  0  0  # atno 17371 bound_to 10713
  141.2082  133.6671  156.6357 LP  0  0  0  0  0  0  0  0  0  0  0  0  # atno 17394 bound_to 11000
  140.3332  134.7911  157.4342 LP  0  0  0  0  0  0  0  0  0  0  0  0  # atno 17395 bound_to 11000

$$$$
