AV-unprocessed.smi:2427|AV-procd|sdf|9578|dock7
  -GOLD-   2272013213D 1   1.00000     0.00000
 Structure written by MMmdl.
 35 36  0  0  0  0  0  0  0  0  3 V2000
  153.1416  139.6933  157.8738 O   0  0  0  0  0  0  0  0  0  0  0  0
  152.1002  140.1743  158.3227 C   0  0  0  0  0  0  0  0  0  0  0  0
  150.7347  139.7104  157.7969 C   0  0  0  0  0  0  0  0  0  0  0  0
  150.8426  138.6563  156.7744 N   0  0  0  0  0  0  0  0  0  0  0  0
  150.5444  137.3392  157.1760 C   0  0  0  0  0  0  0  0  0  0  0  0
  150.6172  136.2973  156.3245 C   0  0  0  0  0  0  0  0  0  0  0  0
  150.3146  134.9502  156.7559 N   0  3  0  0  0  0  0  0  0  0  0  0
  150.6949  134.0117  156.0638 O   0  0  0  0  0  0  0  0  0  0  0  0
  149.6875  134.7847  157.7979 O   0  5  0  0  0  0  0  0  0  0  0  0
  151.0148  136.5709  154.9570 C   0  0  0  0  0  0  0  0  0  0  0  0
  151.3059  137.8277  154.5679 C   0  0  0  0  0  0  0  0  0  0  0  0
  151.2326  138.9590  155.4981 C   0  0  0  0  0  0  0  0  0  0  0  0
  151.5054  140.1086  155.1514 O   0  0  0  0  0  0  0  0  0  0  0  0
  152.0744  141.1065  159.2871 N   0  0  0  0  0  0  0  0  0  0  0  0
  153.2463  141.7122  159.9108 C   0  0  0  0  0  0  0  0  0  0  0  0
  153.1722  143.2489  159.8903 C   0  0  2  0  0  0  0  0  0  0  0  0
  152.2068  143.8689  160.9014 C   0  0  0  0  0  0  0  0  0  0  0  0
  151.9237  145.2096  160.2642 C   0  0  0  0  0  0  0  0  0  0  0  0
  151.8758  144.8501  158.7812 C   0  0  0  0  0  0  0  0  0  0  0  0
  152.7073  143.7022  158.6224 O   0  0  0  0  0  0  0  0  0  0  0  0
  150.1433  139.3660  158.6464 H   0  0  0  0  0  0  0  0  0  0  0  0
  150.1860  140.5647  157.3953 H   0  0  0  0  0  0  0  0  0  0  0  0
  150.2660  137.2393  158.2152 H   0  0  0  0  0  0  0  0  0  0  0  0
  151.0829  135.7700  154.2354 H   0  0  0  0  0  0  0  0  0  0  0  0
  151.6008  138.0087  153.5446 H   0  0  0  0  0  0  0  0  0  0  0  0
  151.1734  141.4378  159.5999 H   0  0  0  0  0  0  0  0  0  0  0  0
  153.2857  141.3661  160.9437 H   0  0  0  0  0  0  0  0  0  0  0  0
  154.1672  141.3658  159.4388 H   0  0  0  0  0  0  0  0  0  0  0  0
  154.1674  143.6709  160.0408 H   0  0  0  0  0  0  0  0  0  0  0  0
  151.2872  143.2855  160.9646 H   0  0  0  0  0  0  0  0  0  0  0  0
  152.6309  143.9512  161.9026 H   0  0  0  0  0  0  0  0  0  0  0  0
  151.0025  145.6705  160.6216 H   0  0  0  0  0  0  0  0  0  0  0  0
  152.7485  145.8965  160.4586 H   0  0  0  0  0  0  0  0  0  0  0  0
  150.8605  144.5840  158.4848 H   0  0  0  0  0  0  0  0  0  0  0  0
  152.2085  145.6721  158.1469 H   0  0  0  0  0  0  0  0  0  0  0  0
  1  2  2  0  0  0  0
  2  3  1  0  0  0  0
  2 14  1  0  0  0  0
  3  4  1  0  0  0  0
  3 21  1  0  0  0  0
  3 22  1  0  0  0  0
  4 12  1  0  0  0  0
  4  5  1  0  0  0  0
  5  6  2  0  0  0  0
  5 23  1  0  0  0  0
  6  7  1  0  0  0  0
  6 10  1  0  0  0  0
  7  8  2  0  0  0  0
  7  9  1  0  0  0  0
 10 11  2  0  0  0  0
 10 24  1  0  0  0  0
 11 12  1  0  0  0  0
 11 25  1  0  0  0  0
 12 13  2  0  0  0  0
 14 15  1  0  0  0  0
 14 26  1  0  0  0  0
 15 16  1  0  0  0  0
 15 27  1  0  0  0  0
 15 28  1  0  0  0  0
 16 20  1  0  0  0  0
 16 17  1  0  0  0  0
 16 29  1  0  0  0  0
 17 18  1  0  0  0  0
 17 30  1  0  0  0  0
 17 31  1  0  0  0  0
 18 19  1  0  0  0  0
 18 32  1  0  0  0  0
 18 33  1  0  0  0  0
 19 20  1  0  0  0  0
 19 34  1  0  0  0  0
 19 35  1  0  0  0  0
M  CHG  1   7   1
M  CHG  1   9  -1
M  END
> <s_m_source_file>
AV-unprocessed.smi

> <i_m_source_file_index>
2427

> <i_lp_mmshare_version>
43012

> <i_f3d_flags>
0

> <s_epik_input>
TzFbQ0gyXVtDSDJdW0NIMl1bQ0BIXTFbQ0gyXVtOSF1DKD1PKVtDSDJdbjJbY0hdYyhbTitdKD1PKVtPLV0pW2NIXVtjSF1jMj1P

> <s_epik_cmdline>
J2VwaWtfcHl0aG9uJywgJy1waCcsICc3LjAnLCAnLXRuJywgJzgnLCAnLW1hJywgJzIwMCcsICctbWV0YWxfYmluZGluZycsICctaW1hZScsICc8aW5maWxlLm1hZT4nLCAnLW9tYWUnLCAnPG91dGZpbGUubWFlPic=

> <r_lp_tautomer_probability>
1

> <r_epik_Ionization_Penalty>
2.69366e-08

> <r_epik_Ionization_Penalty_Charging>
7.76344e-11

> <r_epik_Ionization_Penalty_Neutral>
2.6859e-08

> <r_epik_State_Penalty>
-0

> <r_epik_Charging_Adjusted_Penalty>
7.76344e-11

> <i_epik_Tot_Q>
0

> <i_epik_Tot_abs_Q>
2

> <r_epik_Metal_State_Penalty>
-0

> <b_epik_Metal_Only>
0

> <s_lp_Force_Field>
OPLS_2005

> <r_lp_Energy>
28.4558

> <b_lp_Chiralities_Consistent>
1

> <s_lp_Variant>
AV-unprocessed.smi:2427-1

> <Gold.Version>
5.8.1

> <Gold.Id.Protein>
6NUR|6NUR_protein|mol2

> <Gold.PLP.Fitness>
46.3500

> <Gold.PLP.PLP>
-38.5129

> <Gold.PLP.part.hbond>
-3.0000

> <Gold.PLP.part.metal>
0.0000

> <Gold.PLP.part.buried>
-6.6334

> <Gold.PLP.part.nonpolar>
-29.7035

> <Gold.PLP.part.repulsive>
0.1872

> <Gold.PLP.ligand.clash>
0.0000

> <Gold.PLP.ligand.torsion>
0.4970

> <Gold.PLP.Chemscore.Hbond>
2.9280

> <Gold.PLP.Chemscore.CHOScore>
0.0000

> <Gold.PLP.Chemscore.Metal>
0.0000

> <Gold.Chemscore.Hbonds>
donor molecule, donor type, donor heavy atom, donor atom, acceptor molecule, acceptor atom, score
      P1  H  6896  6908       L1     9  0.96
      P1  H  7989  7998       L1    13  1.00
      P1  H  7997  8008       L1     1  1.00

> <Gold.PLP.Chemscore.Internal.Correction>
0.0471

> <Gold.Rescore>
     Score         DG    S(hbond)    S(metal)    S(lipo)     H(rot)  DE(clash)    DE(int)     intcor
     19.81     -20.23       2.95        0.00      83.51       1.90       0.02       0.39       ----

> <Gold.Chemscore.Fitness>
19.8101

> <Gold.Chemscore.DG>
-20.2269

> <Gold.Chemscore.ZeroCoef>
-5.4800

> <Gold.Chemscore.Hbond>
2.9496

> <Gold.Chemscore.Metal>
0.0000

> <Gold.Chemscore.Lipo>
83.5080

> <Gold.Chemscore.Internal_Hbond>
0.0000

> <Gold.Chemscore.DEClash>
0.0234

> <Gold.Chemscore.DEInternal>
0.3933

> <Gold.Chemscore.Rot>
1.9044

> <Gold.Chemscore.Internal.Correction>
   9.000000E+99

> <Gold.Chemscore.Hbonds>
donor molecule, donor type, donor heavy atom, donor atom, acceptor molecule, acceptor atom, score
      P1  H  6896  6908       L1     9  0.86
      P1  H  7989  7998       L1    13  0.96
      P1  H  7997  8008       L1     1  0.98

> <Gold.Chemscore.Hbond.Weighted>
-9.8517

> <Gold.Chemscore.Metal.Weighted>
-0.0000

> <Gold.Chemscore.Lipo.Weighted>
-9.7704

> <Gold.Chemscore.Internal_Hbond.Weighted>
0.0000

> <Gold.Chemscore.DEClash.Weighted>
0.0234

> <Gold.Chemscore.DEInternal.Weighted>
0.3933

> <Gold.Chemscore.Rot.Weighted>
4.8753

> <Gold.Chemscore.Internal.Correction.Weighted>
   9.000000E+99

> <Gold.Protein.RotatedTorsions>
[ 6907 6896 6895 6894 ] final  135.91 input  -60.11 | X-H torsion
[ 7974 7965 7964 7962 ] final   23.91 input  175.53 | X-H torsion
[ 8008 7997 7996 7995 ] final  -65.26 input   59.86 | X-H torsion
[ 10167 10162 10161 10158 ] final    0.56 input  -65.29 | X-H torsion
[ 10718 10713 10712 10709 ] final  -64.70 input   66.30 | X-H torsion
[ 10763 10752 10751 10750 ] final   47.76 input  -60.55 | X-H torsion
[ 11005 11000 10999 10996 ] final -159.68 input  -57.11 | X-H torsion

> <Gold.Protein.ActiveResidues>
 VAL166  LYS551  ARG553  GLY616  TRP617  ASP618  TYR619  PRO620  LYS621  CYS622 
 ASP623  PHE694  ASN695  SER759  ASP760  ASP761  ALA762  ILE779  LEU786  VAL792 
 PHE793  MET794  SER795  GLU796  ALA797  LYS798  CYS799  TRP800  GLU811  SER814 

> <Gold.Protein.RotatedAtoms>
  152.2952  133.5600  159.5582 H   0  0  0  0  0  0  0  0  0  0  0  0  # atno 6907 bound_to 6896
  150.7253  134.0371  159.3762 H   0  0  0  0  0  0  0  0  0  0  0  0  # atno 6908 bound_to 6896
  151.8274  135.0632  160.0483 H   0  0  0  0  0  0  0  0  0  0  0  0  # atno 6909 bound_to 6896
  146.1962  139.7678  142.8795 H   0  0  0  0  0  0  0  0  0  0  0  0  # atno 7974 bound_to 7965
  154.4661  140.0937  156.7024 H   0  0  0  0  0  0  0  0  0  0  0  0  # atno 8008 bound_to 7997
  155.4854  140.3469  155.4328 H   0  0  0  0  0  0  0  0  0  0  0  0  # atno 8009 bound_to 7997
  156.0958  140.1409  156.9521 H   0  0  0  0  0  0  0  0  0  0  0  0  # atno 8010 bound_to 7997
  140.6723  143.7015  150.7948 H   0  0  0  0  0  0  0  0  0  0  0  0  # atno 10167 bound_to 10162
  156.0713  130.4237  150.1458 H   0  0  0  0  0  0  0  0  0  0  0  0  # atno 10718 bound_to 10713
  152.9797  135.5966  154.3815 H   0  0  0  0  0  0  0  0  0  0  0  0  # atno 10763 bound_to 10752
  154.3479  135.2767  155.2390 H   0  0  0  0  0  0  0  0  0  0  0  0  # atno 10764 bound_to 10752
  154.4442  135.6005  153.6204 H   0  0  0  0  0  0  0  0  0  0  0  0  # atno 10765 bound_to 10752
  140.6398  134.4563  157.5233 H   0  0  0  0  0  0  0  0  0  0  0  0  # atno 11005 bound_to 11000
  145.3635  141.0330  143.3271 LP  0  0  0  0  0  0  0  0  0  0  0  0  # atno 17320 bound_to 7965
  144.8586  139.5212  143.6823 LP  0  0  0  0  0  0  0  0  0  0  0  0  # atno 17321 bound_to 7965
  140.0702  143.5069  152.2584 LP  0  0  0  0  0  0  0  0  0  0  0  0  # atno 17342 bound_to 10162
  139.5997  144.7578  151.3201 LP  0  0  0  0  0  0  0  0  0  0  0  0  # atno 17343 bound_to 10162
  156.9508  130.9774  151.3498 LP  0  0  0  0  0  0  0  0  0  0  0  0  # atno 17370 bound_to 10713
  157.5785  130.8360  149.8490 LP  0  0  0  0  0  0  0  0  0  0  0  0  # atno 17371 bound_to 10713
  139.9084  134.8398  156.1618 LP  0  0  0  0  0  0  0  0  0  0  0  0  # atno 17394 bound_to 11000
  141.0615  133.6839  156.1961 LP  0  0  0  0  0  0  0  0  0  0  0  0  # atno 17395 bound_to 11000

$$$$
