AV-unprocessed.smi:104|AV-procd|sdf|1006|dock9
  -GOLD-   2262018 03D 1   1.00000     0.00000
 Structure written by MMmdl.
 47 49  0  0  0  0  0  0  0  0  1 V2000
  147.0309  135.0034  161.4469 C   0  0  0  0  0  0  0  0  0  0  0  0
  147.2447  136.0253  160.3381 C   0  0  0  0  0  0  0  0  0  0  0  0
  147.5815  137.1830  160.5861 O   0  0  0  0  0  0  0  0  0  0  0  0
  147.0256  135.5120  159.1203 O   0  0  0  0  0  0  0  0  0  0  0  0
  147.3761  136.2591  157.9656 C   0  0  0  0  0  0  0  0  0  0  0  0
  148.8785  136.5810  157.9588 C   0  0  1  0  0  0  0  0  0  0  0  0
  149.6627  135.3905  158.0397 O   0  0  0  0  0  0  0  0  0  0  0  0
  150.4920  135.2741  156.9225 C   0  0  1  0  0  0  0  0  0  0  0  0
  149.7608  134.4041  155.9270 N   0  0  0  0  0  0  0  0  0  0  0  0
  150.1593  133.1554  155.5022 C   0  0  0  0  0  0  0  0  0  0  0  0
  151.7482  132.3257  156.1459 Br  0  0  0  0  0  0  0  0  0  0  0  0
  149.4071  132.5395  154.6372 N   0  0  0  0  0  0  0  0  0  0  0  0
  148.3845  133.4505  154.4242 C   0  0  0  0  0  0  0  0  0  0  0  0
  147.2213  133.4354  153.6141 C   0  0  0  0  0  0  0  0  0  0  0  0
  146.8911  132.4002  152.8301 N   0  0  0  0  0  0  0  0  0  0  0  0
  146.4024  134.5109  153.6334 N   0  0  0  0  0  0  0  0  0  0  0  0
  146.7101  135.5544  154.4072 C   0  0  0  0  0  0  0  0  0  0  0  0
  147.7603  135.7105  155.2156 N   0  0  0  0  0  0  0  0  0  0  0  0
  148.5910  134.6256  155.2094 C   0  0  0  0  0  0  0  0  0  0  0  0
  150.7392  136.7176  156.4677 C   0  0  2  0  0  0  0  0  0  0  0  0
  151.7467  137.3006  157.2897 O   0  0  0  0  0  0  0  0  0  0  0  0
  152.9479  136.7110  157.4163 C   0  0  0  0  0  0  0  0  0  0  0  0
  153.8911  137.5048  158.3102 C   0  0  0  0  0  0  0  0  0  0  0  0
  153.2937  135.6505  156.8957 O   0  0  0  0  0  0  0  0  0  0  0  0
  149.3776  137.3556  156.7316 C   0  0  2  0  0  0  0  0  0  0  0  0
  149.4634  138.7557  156.9687 O   0  0  0  0  0  0  0  0  0  0  0  0
  150.0437  139.5575  156.0584 C   0  0  0  0  0  0  0  0  0  0  0  0
  150.0532  141.0170  156.4926 C   0  0  0  0  0  0  0  0  0  0  0  0
  150.5325  139.2016  154.9860 O   0  0  0  0  0  0  0  0  0  0  0  0
  146.1441  134.4018  161.2456 H   0  0  0  0  0  0  0  0  0  0  0  0
  146.8980  135.5021  162.4071 H   0  0  0  0  0  0  0  0  0  0  0  0
  147.8919  134.3390  161.5185 H   0  0  0  0  0  0  0  0  0  0  0  0
  147.1211  135.6812  157.0765 H   0  0  0  0  0  0  0  0  0  0  0  0
  146.7990  137.1841  157.9296 H   0  0  0  0  0  0  0  0  0  0  0  0
  149.1139  137.1485  158.8599 H   0  0  0  0  0  0  0  0  0  0  0  0
  151.3995  134.7106  157.1427 H   0  0  0  0  0  0  0  0  0  0  0  0
  147.4836  131.5830  152.7993 H   0  0  0  0  0  0  0  0  0  0  0  0
  146.0528  132.4411  152.2689 H   0  0  0  0  0  0  0  0  0  0  0  0
  146.0165  136.3819  154.3764 H   0  0  0  0  0  0  0  0  0  0  0  0
  151.0453  136.7772  155.4254 H   0  0  0  0  0  0  0  0  0  0  0  0
  154.1111  138.4735  157.8612 H   0  0  0  0  0  0  0  0  0  0  0  0
  154.8294  136.9678  158.4509 H   0  0  0  0  0  0  0  0  0  0  0  0
  153.4380  137.6705  159.2875 H   0  0  0  0  0  0  0  0  0  0  0  0
  148.7098  137.1610  155.8931 H   0  0  0  0  0  0  0  0  0  0  0  0
  149.0338  141.3828  156.6148 H   0  0  0  0  0  0  0  0  0  0  0  0
  150.5557  141.6351  155.7482 H   0  0  0  0  0  0  0  0  0  0  0  0
  150.5776  141.1258  157.4421 H   0  0  0  0  0  0  0  0  0  0  0  0
  1  2  1  0  0  0  0
  1 30  1  0  0  0  0
  1 31  1  0  0  0  0
  1 32  1  0  0  0  0
  2  3  2  0  0  0  0
  2  4  1  0  0  0  0
  4  5  1  0  0  0  0
  5  6  1  0  0  0  0
  5 33  1  0  0  0  0
  5 34  1  0  0  0  0
  6 25  1  0  0  0  0
  6  7  1  0  0  0  0
  6 35  1  0  0  0  0
  7  8  1  0  0  0  0
  8  9  1  0  0  0  0
  8 20  1  0  0  0  0
  8 36  1  0  0  0  0
  9 19  1  0  0  0  0
  9 10  1  0  0  0  0
 10 11  1  0  0  0  0
 10 12  2  0  0  0  0
 12 13  1  0  0  0  0
 13 19  2  0  0  0  0
 13 14  1  0  0  0  0
 14 15  1  0  0  0  0
 14 16  2  0  0  0  0
 15 37  1  0  0  0  0
 15 38  1  0  0  0  0
 16 17  1  0  0  0  0
 17 18  2  0  0  0  0
 17 39  1  0  0  0  0
 18 19  1  0  0  0  0
 20 21  1  0  0  0  0
 20 25  1  0  0  0  0
 20 40  1  0  0  0  0
 21 22  1  0  0  0  0
 22 23  1  0  0  0  0
 22 24  2  0  0  0  0
 23 41  1  0  0  0  0
 23 42  1  0  0  0  0
 23 43  1  0  0  0  0
 25 26  1  0  0  0  0
 25 44  1  0  0  0  0
 26 27  1  0  0  0  0
 27 28  1  0  0  0  0
 27 29  2  0  0  0  0
 28 45  1  0  0  0  0
 28 46  1  0  0  0  0
 28 47  1  0  0  0  0
M  END
> <s_m_source_file>
AV-unprocessed.smi

> <i_m_source_file_index>
104

> <i_lp_mmshare_version>
43012

> <i_f3d_flags>
0

> <s_epik_input>
W0NIM11DKD1PKU9bQ0gyXVtDQEBIXTFPW0NASF0oW0NAQEhdKE9DKD1PKVtDSDNdKVtDQEhdMU9DKD1PKVtDSDNdKW4oYyhCciluMiljKGMyMyluW2NIXW5jM1tOSDJd

> <s_epik_cmdline>
J2VwaWtfcHl0aG9uJywgJy1waCcsICc3LjAnLCAnLXRuJywgJzgnLCAnLW1hJywgJzIwMCcsICctbWV0YWxfYmluZGluZycsICctaW1hZScsICc8aW5maWxlLm1hZT4nLCAnLW9tYWUnLCAnPG91dGZpbGUubWFlPic=

> <r_lp_tautomer_probability>
1

> <r_epik_Ionization_Penalty>
7.36622e-05

> <r_epik_Ionization_Penalty_Charging>
0

> <r_epik_Ionization_Penalty_Neutral>
7.36622e-05

> <r_epik_State_Penalty>
-0

> <r_epik_Charging_Adjusted_Penalty>
0

> <i_epik_Tot_Q>
0

> <i_epik_Tot_abs_Q>
0

> <r_epik_Metal_State_Penalty>
-0

> <b_epik_Metal_Only>
0

> <s_epik_Chemistry_Notes>
This compound has an ester and may undergo hydrolysis at high or low pH. This compound contains an acetal/aminal-like group ( X-CH(R)-Y where X, Y are N, S, or O) that may be acid/base labile, releasing an aldehyde.

> <s_lp_Force_Field>
OPLS_2005

> <r_lp_Energy>
17.7308

> <b_lp_Chiralities_Consistent>
1

> <s_lp_Variant>
AV-unprocessed.smi:104-14

> <Gold.Version>
5.8.1

> <Gold.Id.Protein>
6NUR|6NUR_protein|mol2

> <Gold.PLP.Fitness>
35.9373

> <Gold.PLP.PLP>
-25.4562

> <Gold.PLP.part.hbond>
-4.0000

> <Gold.PLP.part.metal>
0.0000

> <Gold.PLP.part.buried>
-4.5430

> <Gold.PLP.part.nonpolar>
-17.5439

> <Gold.PLP.part.repulsive>
0.4881

> <Gold.PLP.ligand.clash>
0.0000

> <Gold.PLP.ligand.torsion>
0.2965

> <Gold.PLP.Chemscore.Hbond>
3.6560

> <Gold.PLP.Chemscore.CHOScore>
0.0000

> <Gold.PLP.Chemscore.Metal>
0.0000

> <Gold.Chemscore.Hbonds>
donor molecule, donor type, donor heavy atom, donor atom, acceptor molecule, acceptor atom, score
      P1  H  6896  6908       L1     7  1.00
      P1  H  6931  6943       L1     3  0.39
      P1  H  6934  6947       L1     3  0.99
      P1  H 10752 10764       L1    24  1.00

> <Gold.PLP.Chemscore.Internal.Correction>
0.1060

> <Gold.Rescore>
     Score         DG    S(hbond)    S(metal)    S(lipo)     H(rot)  DE(clash)    DE(int)     intcor
      5.46      -9.98       3.37        0.00      36.52       4.31       0.02       4.50       ----

> <Gold.Chemscore.Fitness>
5.4650

> <Gold.Chemscore.DG>
-9.9780

> <Gold.Chemscore.ZeroCoef>
-5.4800

> <Gold.Chemscore.Hbond>
3.3687

> <Gold.Chemscore.Metal>
0.0000

> <Gold.Chemscore.Lipo>
36.5161

> <Gold.Chemscore.Internal_Hbond>
0.0000

> <Gold.Chemscore.DEClash>
0.0174

> <Gold.Chemscore.DEInternal>
4.4956

> <Gold.Chemscore.Rot>
4.3070

> <Gold.Chemscore.Internal.Correction>
   9.000000E+99

> <Gold.Chemscore.Hbonds>
donor molecule, donor type, donor heavy atom, donor atom, acceptor molecule, acceptor atom, score
      P1  H  6896  6908       L1     7  0.42
      P1  H  6931  6943       L1     3  0.38
      P1  H  6934  6947       L1     3  0.93
      P1  H  7989  7998       L1    29  0.02
      P1  H 10752 10764       L1    24  0.99

> <Gold.Chemscore.Hbond.Weighted>
-11.2515

> <Gold.Chemscore.Metal.Weighted>
-0.0000

> <Gold.Chemscore.Lipo.Weighted>
-4.2724

> <Gold.Chemscore.Internal_Hbond.Weighted>
0.0000

> <Gold.Chemscore.DEClash.Weighted>
0.0174

> <Gold.Chemscore.DEInternal.Weighted>
4.4956

> <Gold.Chemscore.Rot.Weighted>
11.0259

> <Gold.Chemscore.Internal.Correction.Weighted>
   9.000000E+99

> <Gold.Protein.RotatedTorsions>
[ 6907 6896 6895 6894 ] final  162.25 input  -60.11 | X-H torsion
[ 7974 7965 7964 7962 ] final   14.23 input  175.53 | X-H torsion
[ 8008 7997 7996 7995 ] final -157.03 input   59.86 | X-H torsion
[ 10167 10162 10161 10158 ] final  -47.47 input  -65.29 | X-H torsion
[ 10718 10713 10712 10709 ] final   48.84 input   66.30 | X-H torsion
[ 10763 10752 10751 10750 ] final   20.10 input  -60.55 | X-H torsion
[ 11005 11000 10999 10996 ] final   89.67 input  -57.11 | X-H torsion

> <Gold.Protein.ActiveResidues>
 VAL166  LYS551  ARG553  GLY616  TRP617  ASP618  TYR619  PRO620  LYS621  CYS622 
 ASP623  PHE694  ASN695  SER759  ASP760  ASP761  ALA762  ILE779  LEU786  VAL792 
 PHE793  MET794  SER795  GLU796  ALA797  LYS798  CYS799  TRP800  GLU811  SER814 

> <Gold.Protein.RotatedAtoms>
  151.9433  133.3644  159.3973 H   0  0  0  0  0  0  0  0  0  0  0  0  # atno 6907 bound_to 6896
  150.6994  134.4416  159.5304 H   0  0  0  0  0  0  0  0  0  0  0  0  # atno 6908 bound_to 6896
  152.2077  134.8530  160.0552 H   0  0  0  0  0  0  0  0  0  0  0  0  # atno 6909 bound_to 6896
  146.2310  139.9071  142.8530 H   0  0  0  0  0  0  0  0  0  0  0  0  # atno 7974 bound_to 7965
  155.7262  140.0796  157.2309 H   0  0  0  0  0  0  0  0  0  0  0  0  # atno 8008 bound_to 7997
  154.4038  140.1603  156.2512 H   0  0  0  0  0  0  0  0  0  0  0  0  # atno 8009 bound_to 7997
  155.9151  140.3401  155.6131 H   0  0  0  0  0  0  0  0  0  0  0  0  # atno 8010 bound_to 7997
  140.6773  143.2783  151.3931 H   0  0  0  0  0  0  0  0  0  0  0  0  # atno 10167 bound_to 10162
  157.4727  130.8265  149.8006 H   0  0  0  0  0  0  0  0  0  0  0  0  # atno 10718 bound_to 10713
  153.1106  135.6695  153.9508 H   0  0  0  0  0  0  0  0  0  0  0  0  # atno 10763 bound_to 10752
  153.9052  135.3031  155.3450 H   0  0  0  0  0  0  0  0  0  0  0  0  # atno 10764 bound_to 10752
  154.7525  135.5027  153.9392 H   0  0  0  0  0  0  0  0  0  0  0  0  # atno 10765 bound_to 10752
  139.8871  134.8566  156.3175 H   0  0  0  0  0  0  0  0  0  0  0  0  # atno 11005 bound_to 11000
  145.2266  140.9956  143.4015 LP  0  0  0  0  0  0  0  0  0  0  0  0  # atno 17320 bound_to 7965
  144.9565  139.4026  143.6377 LP  0  0  0  0  0  0  0  0  0  0  0  0  # atno 17321 bound_to 7965
  139.6074  144.1169  152.2263 LP  0  0  0  0  0  0  0  0  0  0  0  0  # atno 17342 bound_to 10162
  140.0572  144.5885  150.7290 LP  0  0  0  0  0  0  0  0  0  0  0  0  # atno 17343 bound_to 10162
  156.0081  130.3846  150.2358 LP  0  0  0  0  0  0  0  0  0  0  0  0  # atno 17370 bound_to 10713
  157.0541  131.0071  151.3244 LP  0  0  0  0  0  0  0  0  0  0  0  0  # atno 17371 bound_to 10713
  140.9809  133.7268  156.0670 LP  0  0  0  0  0  0  0  0  0  0  0  0  # atno 17394 bound_to 11000
  140.7751  134.3789  157.5499 LP  0  0  0  0  0  0  0  0  0  0  0  0  # atno 17395 bound_to 11000

$$$$
