AV-unprocessed.smi:976|AV-procd|sdf|4303|dock2
  -GOLD-   22720 2213D 1   1.00000     0.00000
 Structure written by MMmdl.
 41 42  0  0  0  0  0  0  0  0  1 V2000
  152.2079  140.9795  158.1264 C   0  0  0  0  0  0  0  0  0  0  0  0
  150.8140  141.5475  157.8201 C   0  0  1  0  0  0  0  0  0  0  0  0
  150.9052  142.9685  157.8862 O   0  0  0  0  0  0  0  0  0  0  0  0
  150.8562  143.5276  159.1952 C   0  0  0  0  0  0  0  0  0  0  0  0
  152.1780  144.2468  159.4895 C   0  0  0  0  0  0  0  0  0  0  0  0
  152.0358  144.9988  160.5801 F   0  0  0  0  0  0  0  0  0  0  0  0
  153.1477  143.3587  159.7058 F   0  0  0  0  0  0  0  0  0  0  0  0
  152.5112  145.0346  158.4675 F   0  0  0  0  0  0  0  0  0  0  0  0
  150.3228  141.1062  156.4318 C   0  0  0  0  0  0  0  0  0  0  0  0
  151.1231  140.6477  155.6166 O   0  0  0  0  0  0  0  0  0  0  0  0
  149.0058  141.2564  156.2042 N   0  0  0  0  0  0  0  0  0  0  0  0
  148.2717  140.9383  155.0263 C   0  0  0  0  0  0  0  0  0  0  0  0
  147.2327  141.7660  154.5357 C   0  0  0  0  0  0  0  0  0  0  0  0
  146.5156  141.3644  153.3945 C   0  0  0  0  0  0  0  0  0  0  0  0
  146.8545  140.1414  152.7897 C   0  0  0  0  0  0  0  0  0  0  0  0
  147.8309  139.3349  153.2529 N   0  0  0  0  0  0  0  0  0  0  0  0
  148.5304  139.7155  154.3499 C   0  0  0  0  0  0  0  0  0  0  0  0
  149.5565  138.8576  154.7945 N   0  0  0  0  0  0  0  0  0  0  0  0
  149.1539  137.6279  155.4702 C   0  0  0  0  0  0  0  0  0  0  0  0
  150.3867  136.9370  156.0779 C   0  0  0  0  0  0  0  0  0  0  0  0
  151.3568  136.7065  155.0599 O   0  0  0  0  0  0  0  0  0  0  0  0
  151.7989  137.9184  154.4548 C   0  0  0  0  0  0  0  0  0  0  0  0
  150.6049  138.6381  153.8046 C   0  0  0  0  0  0  0  0  0  0  0  0
  152.2111  139.8899  158.0811 H   0  0  0  0  0  0  0  0  0  0  0  0
  152.5308  141.2679  159.1270 H   0  0  0  0  0  0  0  0  0  0  0  0
  152.9558  141.3470  157.4224 H   0  0  0  0  0  0  0  0  0  0  0  0
  150.1243  141.1934  158.5889 H   0  0  0  0  0  0  0  0  0  0  0  0
  150.0312  144.2348  159.2882 H   0  0  0  0  0  0  0  0  0  0  0  0
  150.6935  142.7385  159.9309 H   0  0  0  0  0  0  0  0  0  0  0  0
  148.4492  141.5488  156.9946 H   0  0  0  0  0  0  0  0  0  0  0  0
  146.9615  142.6888  155.0251 H   0  0  0  0  0  0  0  0  0  0  0  0
  145.7188  141.9757  152.9978 H   0  0  0  0  0  0  0  0  0  0  0  0
  146.3238  139.7977  151.9141 H   0  0  0  0  0  0  0  0  0  0  0  0
  148.4280  137.8539  156.2521 H   0  0  0  0  0  0  0  0  0  0  0  0
  148.6697  136.9569  154.7592 H   0  0  0  0  0  0  0  0  0  0  0  0
  150.8187  137.5436  156.8755 H   0  0  0  0  0  0  0  0  0  0  0  0
  150.1021  135.9825  156.5209 H   0  0  0  0  0  0  0  0  0  0  0  0
  152.2782  138.5561  155.1994 H   0  0  0  0  0  0  0  0  0  0  0  0
  152.5523  137.6857  153.7022 H   0  0  0  0  0  0  0  0  0  0  0  0
  150.2034  138.0342  152.9895 H   0  0  0  0  0  0  0  0  0  0  0  0
  150.9342  139.5814  153.3688 H   0  0  0  0  0  0  0  0  0  0  0  0
  1  2  1  0  0  0  0
  1 24  1  0  0  0  0
  1 25  1  0  0  0  0
  1 26  1  0  0  0  0
  2  3  1  0  0  0  0
  2  9  1  0  0  0  0
  2 27  1  0  0  0  0
  3  4  1  0  0  0  0
  4  5  1  0  0  0  0
  4 28  1  0  0  0  0
  4 29  1  0  0  0  0
  5  6  1  0  0  0  0
  5  7  1  0  0  0  0
  5  8  1  0  0  0  0
  9 10  2  0  0  0  0
  9 11  1  0  0  0  0
 11 12  1  0  0  0  0
 11 30  1  0  0  0  0
 12 17  1  0  0  0  0
 12 13  2  0  0  0  0
 13 14  1  0  0  0  0
 13 31  1  0  0  0  0
 14 15  2  0  0  0  0
 14 32  1  0  0  0  0
 15 16  1  0  0  0  0
 15 33  1  0  0  0  0
 16 17  2  0  0  0  0
 17 18  1  0  0  0  0
 18 23  1  0  0  0  0
 18 19  1  0  0  0  0
 19 20  1  0  0  0  0
 19 34  1  0  0  0  0
 19 35  1  0  0  0  0
 20 21  1  0  0  0  0
 20 36  1  0  0  0  0
 20 37  1  0  0  0  0
 21 22  1  0  0  0  0
 22 23  1  0  0  0  0
 22 38  1  0  0  0  0
 22 39  1  0  0  0  0
 23 40  1  0  0  0  0
 23 41  1  0  0  0  0
M  END
> <s_m_source_file>
AV-unprocessed.smi

> <i_m_source_file_index>
976

> <i_lp_mmshare_version>
43012

> <i_f3d_flags>
0

> <s_epik_input>
RkMoRikoRilbQ0gyXU9bQ0BASF0oW0NIM10pQyg9TylbTkhdYzFbY0hdW2NIXVtjSF1uYzFOMltDSDJdW0NIMl1PW0NIMl1bQ0gyXTI=

> <s_epik_cmdline>
J2VwaWtfcHl0aG9uJywgJy1waCcsICc3LjAnLCAnLXRuJywgJzgnLCAnLW1hJywgJzIwMCcsICctbWV0YWxfYmluZGluZycsICctaW1hZScsICc8aW5maWxlLm1hZT4nLCAnLW9tYWUnLCAnPG91dGZpbGUubWFlPic=

> <r_lp_tautomer_probability>
1

> <r_epik_Ionization_Penalty>
0.000443367

> <r_epik_Ionization_Penalty_Charging>
0

> <r_epik_Ionization_Penalty_Neutral>
0.000443367

> <r_epik_State_Penalty>
0.00027288

> <r_epik_Charging_Adjusted_Penalty>
0.00027288

> <i_epik_Tot_Q>
0

> <i_epik_Tot_abs_Q>
0

> <r_epik_Metal_State_Penalty>
-0

> <b_epik_Metal_Only>
0

> <s_lp_Force_Field>
OPLS_2005

> <r_lp_Energy>
26.1197

> <b_lp_Chiralities_Consistent>
1

> <s_lp_Variant>
AV-unprocessed.smi:976-2

> <Gold.Version>
5.8.1

> <Gold.Id.Protein>
6NUR|6NUR_protein|mol2

> <Gold.PLP.Fitness>
42.1765

> <Gold.PLP.PLP>
-39.7272

> <Gold.PLP.part.hbond>
-2.0000

> <Gold.PLP.part.metal>
0.0000

> <Gold.PLP.part.buried>
-5.1210

> <Gold.PLP.part.nonpolar>
-35.8709

> <Gold.PLP.part.repulsive>
2.6876

> <Gold.PLP.ligand.clash>
0.0000

> <Gold.PLP.ligand.torsion>
1.6378

> <Gold.PLP.Chemscore.Hbond>
1.5814

> <Gold.PLP.Chemscore.CHOScore>
0.2130

> <Gold.PLP.Chemscore.Metal>
0.0000

> <Gold.Chemscore.Hbonds>
donor molecule, donor type, donor heavy atom, donor atom, acceptor molecule, acceptor atom, score
      P1  H  7989  7998       L1    10  0.51
      P1  H 10752 10764       L1    21  0.90
      L1  C    15    33       P1 10175  0.19

> <Gold.PLP.Chemscore.Internal.Correction>
0.3417

> <Gold.Rescore>
     Score         DG    S(hbond)    S(metal)    S(lipo)     H(rot)  DE(clash)    DE(int)     intcor
      5.06     -14.63       1.36        0.00      81.96       1.95       1.89       7.68       ----

> <Gold.Chemscore.Fitness>
5.0606

> <Gold.Chemscore.DG>
-14.6336

> <Gold.Chemscore.ZeroCoef>
-5.4800

> <Gold.Chemscore.Hbond>
1.3635

> <Gold.Chemscore.Metal>
0.0000

> <Gold.Chemscore.Lipo>
81.9584

> <Gold.Chemscore.Internal_Hbond>
0.0000

> <Gold.Chemscore.DEClash>
1.8924

> <Gold.Chemscore.DEInternal>
7.6807

> <Gold.Chemscore.Rot>
1.9491

> <Gold.Chemscore.Internal.Correction>
   9.000000E+99

> <Gold.Chemscore.Hbonds>
donor molecule, donor type, donor heavy atom, donor atom, acceptor molecule, acceptor atom, score
      P1  H  7989  7998       L1    10  0.52
      P1  H 10752 10764       L1    21  0.17

> <Gold.Chemscore.Hbond.Weighted>
-4.5542

> <Gold.Chemscore.Metal.Weighted>
-0.0000

> <Gold.Chemscore.Lipo.Weighted>
-9.5891

> <Gold.Chemscore.Internal_Hbond.Weighted>
0.0000

> <Gold.Chemscore.DEClash.Weighted>
1.8924

> <Gold.Chemscore.DEInternal.Weighted>
7.6807

> <Gold.Chemscore.Rot.Weighted>
4.9897

> <Gold.Chemscore.Internal.Correction.Weighted>
   9.000000E+99

> <Gold.Protein.RotatedTorsions>
[ 6907 6896 6895 6894 ] final  -94.85 input  -60.11 | X-H torsion
[ 7974 7965 7964 7962 ] final -139.35 input  175.53 | X-H torsion
[ 8008 7997 7996 7995 ] final -172.17 input   59.86 | X-H torsion
[ 10167 10162 10161 10158 ] final  -36.54 input  -65.29 | X-H torsion
[ 10718 10713 10712 10709 ] final  -30.73 input   66.30 | X-H torsion
[ 10763 10752 10751 10750 ] final  -58.97 input  -60.55 | X-H torsion
[ 11005 11000 10999 10996 ] final   34.75 input  -57.11 | X-H torsion

> <Gold.Protein.ActiveResidues>
 VAL166  LYS551  ARG553  GLY616  TRP617  ASP618  TYR619  PRO620  LYS621  CYS622 
 ASP623  PHE694  ASN695  SER759  ASP760  ASP761  ALA762  ILE779  LEU786  VAL792 
 PHE793  MET794  SER795  GLU796  ALA797  LYS798  CYS799  TRP800  GLU811  SER814 

> <Gold.Protein.RotatedAtoms>
  150.6950  134.1749  159.4226 H   0  0  0  0  0  0  0  0  0  0  0  0  # atno 6907 bound_to 6896
  151.9725  135.0067  160.0563 H   0  0  0  0  0  0  0  0  0  0  0  0  # atno 6908 bound_to 6896
  152.1828  133.4684  159.5004 H   0  0  0  0  0  0  0  0  0  0  0  0  # atno 6909 bound_to 6896
  144.8684  140.6329  143.5283 H   0  0  0  0  0  0  0  0  0  0  0  0  # atno 7974 bound_to 7965
  155.9411  140.1109  157.1055 H   0  0  0  0  0  0  0  0  0  0  0  0  # atno 8008 bound_to 7997
  154.4089  140.1219  156.4994 H   0  0  0  0  0  0  0  0  0  0  0  0  # atno 8009 bound_to 7997
  155.6961  140.3472  155.4915 H   0  0  0  0  0  0  0  0  0  0  0  0  # atno 8010 bound_to 7997
  140.7140  143.3402  151.2375 H   0  0  0  0  0  0  0  0  0  0  0  0  # atno 10167 bound_to 10162
  156.3961  130.4381  149.7358 H   0  0  0  0  0  0  0  0  0  0  0  0  # atno 10718 bound_to 10713
  154.2464  135.6334  153.5225 H   0  0  0  0  0  0  0  0  0  0  0  0  # atno 10763 bound_to 10752
  152.9920  135.5554  154.5855 H   0  0  0  0  0  0  0  0  0  0  0  0  # atno 10764 bound_to 10752
  154.5372  135.2892  155.1102 H   0  0  0  0  0  0  0  0  0  0  0  0  # atno 10765 bound_to 10752
  140.2497  134.3318  155.7895 H   0  0  0  0  0  0  0  0  0  0  0  0  # atno 11005 bound_to 11000
  145.4177  139.1569  143.4091 LP  0  0  0  0  0  0  0  0  0  0  0  0  # atno 17320 bound_to 7965
  146.2912  140.4286  142.8738 LP  0  0  0  0  0  0  0  0  0  0  0  0  # atno 17321 bound_to 7965
  139.6907  143.9697  152.2858 LP  0  0  0  0  0  0  0  0  0  0  0  0  # atno 17342 bound_to 10162
  139.9357  144.6713  150.8317 LP  0  0  0  0  0  0  0  0  0  0  0  0  # atno 17343 bound_to 10162
  156.4392  130.7853  151.2874 LP  0  0  0  0  0  0  0  0  0  0  0  0  # atno 17370 bound_to 10713
  157.7501  131.0130  150.3407 LP  0  0  0  0  0  0  0  0  0  0  0  0  # atno 17371 bound_to 10713
  141.2202  133.7346  156.9017 LP  0  0  0  0  0  0  0  0  0  0  0  0  # atno 17394 bound_to 11000
  140.1571  134.9191  157.2667 LP  0  0  0  0  0  0  0  0  0  0  0  0  # atno 17395 bound_to 11000

$$$$
