AV-unprocessed.smi:2198|AV-procd|sdf|8921|dock4
  -GOLD-   2272012133D 1   1.00000     0.00000
 Structure written by MMmdl.
 42 43  0  0  0  0  0  0  0  0  2 V2000
  148.0690  136.2668  161.1376 C   0  0  0  0  0  0  0  0  0  0  0  0
  148.5478  136.9441  159.8712 C   0  0  0  0  0  0  0  0  0  0  0  0
  149.6971  136.6445  159.3978 N   0  0  0  0  0  0  0  0  0  0  0  0
  150.1427  137.2661  158.2190 C   0  0  0  0  0  0  0  0  0  0  0  0
  151.5170  136.8446  157.7283 C   0  0  0  0  0  0  0  0  0  0  0  0
  149.3722  138.1865  157.5709 C   0  0  0  0  0  0  0  0  0  0  0  0
  149.8073  138.8833  156.2823 C   0  0  0  0  0  0  0  0  0  0  0  0
  150.8138  140.0211  156.4604 C   0  0  0  0  0  0  0  0  0  0  0  0
  151.4408  140.4481  155.4912 O   0  0  0  0  0  0  0  0  0  0  0  0
  150.9571  140.5040  157.7043 N   0  0  0  0  0  0  0  0  0  0  0  0
  151.8491  141.5918  158.0918 C   0  0  2  0  0  0  0  0  0  0  0  0
  152.7682  141.1550  159.2502 C   0  0  0  0  0  0  0  0  0  0  0  0
  153.6609  142.3129  159.7207 C   0  0  0  0  0  0  0  0  0  0  0  0
  152.8224  143.5390  160.1143 C   0  0  0  0  0  0  0  0  0  0  0  0
  151.9060  143.9909  158.9609 C   0  0  2  0  0  0  0  0  0  0  0  0
  151.0669  145.2136  159.3587 C   0  0  0  0  0  0  0  0  0  0  0  0
  151.0151  142.8243  158.4902 C   0  0  0  0  0  0  0  0  0  0  0  0
  148.0571  138.5088  158.1537 C   0  0  0  0  0  0  0  0  0  0  0  0
  147.3264  139.3411  157.6178 O   0  0  0  0  0  0  0  0  0  0  0  0
  147.6938  137.8572  159.2951 N   0  5  0  0  0  0  0  0  0  0  0  0
  148.8755  135.7069  161.6132 H   0  0  0  0  0  0  0  0  0  0  0  0
  147.2581  135.5744  160.9100 H   0  0  0  0  0  0  0  0  0  0  0  0
  147.7032  137.0067  161.8503 H   0  0  0  0  0  0  0  0  0  0  0  0
  151.4578  136.4319  156.7212 H   0  0  0  0  0  0  0  0  0  0  0  0
  151.9499  136.0809  158.3756 H   0  0  0  0  0  0  0  0  0  0  0  0
  152.1965  137.6966  157.7176 H   0  0  0  0  0  0  0  0  0  0  0  0
  150.2266  138.1341  155.6102 H   0  0  0  0  0  0  0  0  0  0  0  0
  148.9445  139.2749  155.7432 H   0  0  0  0  0  0  0  0  0  0  0  0
  150.3975  140.0916  158.4365 H   0  0  0  0  0  0  0  0  0  0  0  0
  152.4670  141.8653  157.2341 H   0  0  0  0  0  0  0  0  0  0  0  0
  152.1653  140.7999  160.0872 H   0  0  0  0  0  0  0  0  0  0  0  0
  153.3929  140.3161  158.9415 H   0  0  0  0  0  0  0  0  0  0  0  0
  154.2699  141.9924  160.5665 H   0  0  0  0  0  0  0  0  0  0  0  0
  154.3560  142.5847  158.9252 H   0  0  0  0  0  0  0  0  0  0  0  0
  152.2208  143.3001  160.9924 H   0  0  0  0  0  0  0  0  0  0  0  0
  153.4846  144.3544  160.4069 H   0  0  0  0  0  0  0  0  0  0  0  0
  152.5403  144.2870  158.1241 H   0  0  0  0  0  0  0  0  0  0  0  0
  150.4076  144.9864  160.1971 H   0  0  0  0  0  0  0  0  0  0  0  0
  150.4460  145.5516  158.5287 H   0  0  0  0  0  0  0  0  0  0  0  0
  151.7045  146.0477  159.6531 H   0  0  0  0  0  0  0  0  0  0  0  0
  150.4068  143.1442  157.6429 H   0  0  0  0  0  0  0  0  0  0  0  0
  150.3177  142.5547  159.2850 H   0  0  0  0  0  0  0  0  0  0  0  0
  1  2  1  0  0  0  0
  1 21  1  0  0  0  0
  1 22  1  0  0  0  0
  1 23  1  0  0  0  0
  2 20  1  0  0  0  0
  2  3  2  0  0  0  0
  3  4  1  0  0  0  0
  4  5  1  0  0  0  0
  4  6  2  0  0  0  0
  5 24  1  0  0  0  0
  5 25  1  0  0  0  0
  5 26  1  0  0  0  0
  6  7  1  0  0  0  0
  6 18  1  0  0  0  0
  7  8  1  0  0  0  0
  7 27  1  0  0  0  0
  7 28  1  0  0  0  0
  8  9  2  0  0  0  0
  8 10  1  0  0  0  0
 10 11  1  0  0  0  0
 10 29  1  0  0  0  0
 11 17  1  0  0  0  0
 11 12  1  0  0  0  0
 11 30  1  0  0  0  0
 12 13  1  0  0  0  0
 12 31  1  0  0  0  0
 12 32  1  0  0  0  0
 13 14  1  0  0  0  0
 13 33  1  0  0  0  0
 13 34  1  0  0  0  0
 14 15  1  0  0  0  0
 14 35  1  0  0  0  0
 14 36  1  0  0  0  0
 15 16  1  0  0  0  0
 15 17  1  0  0  0  0
 15 37  1  0  0  0  0
 16 38  1  0  0  0  0
 16 39  1  0  0  0  0
 16 40  1  0  0  0  0
 17 41  1  0  0  0  0
 17 42  1  0  0  0  0
 18 19  2  0  0  0  0
 18 20  1  0  0  0  0
M  CHG  1  20  -1
M  END
> <s_m_source_file>
AV-unprocessed.smi

> <i_m_source_file_index>
2198

> <i_lp_mmshare_version>
43012

> <i_f3d_flags>
0

> <s_epik_input>
W0NIM11jMW5jKFtDSDNdKWMoYyg9TylbbkhdMSlbQ0gyXUMoPU8pW05IXVtDQEBIXTJbQ0gyXVtDSDJdW0NIMl1bQ0BASF0oW0NIM10pW0NIMl0y

> <s_epik_cmdline>
J2VwaWtfcHl0aG9uJywgJy1waCcsICc3LjAnLCAnLXRuJywgJzgnLCAnLW1hJywgJzIwMCcsICctbWV0YWxfYmluZGluZycsICctaW1hZScsICc8aW5maWxlLm1hZT4nLCAnLW9tYWUnLCAnPG91dGZpbGUubWFlPic=

> <r_lp_tautomer_probability>
0.839158

> <r_epik_Ionization_Penalty>
6.67193

> <r_epik_Ionization_Penalty_Charging>
7.66837e-08

> <r_epik_Ionization_Penalty_Neutral>
6.67193

> <r_epik_State_Penalty>
4.51643

> <r_epik_Charging_Adjusted_Penalty>
4.51643

> <i_epik_Tot_Q>
-1

> <i_epik_Tot_abs_Q>
1

> <r_epik_Metal_State_Penalty>
0.851582

> <b_epik_Metal_Only>
1

> <s_lp_Force_Field>
OPLS_2005

> <r_lp_Energy>
13.6631

> <b_lp_Chiralities_Consistent>
1

> <s_lp_Variant>
AV-unprocessed.smi:2198-11

> <Gold.Version>
5.8.1

> <Gold.Id.Protein>
6NUR|6NUR_protein|mol2

> <Gold.PLP.Fitness>
40.7527

> <Gold.PLP.PLP>
-33.9386

> <Gold.PLP.part.hbond>
-2.9497

> <Gold.PLP.part.metal>
0.0000

> <Gold.PLP.part.buried>
-5.6862

> <Gold.PLP.part.nonpolar>
-26.4764

> <Gold.PLP.part.repulsive>
0.0804

> <Gold.PLP.ligand.clash>
0.0000

> <Gold.PLP.ligand.torsion>
0.5014

> <Gold.PLP.Chemscore.Hbond>
2.6044

> <Gold.PLP.Chemscore.CHOScore>
0.0000

> <Gold.PLP.Chemscore.Metal>
0.0000

> <Gold.Chemscore.Hbonds>
donor molecule, donor type, donor heavy atom, donor atom, acceptor molecule, acceptor atom, score
      P1  H  6896  6909       L1     3  0.76
      P1  H  6934  6947       L1    20  0.95
      P1  H  7989  7998       L1     9  0.86

> <Gold.PLP.Chemscore.Internal.Correction>
0.0036

> <Gold.Rescore>
     Score         DG    S(hbond)    S(metal)    S(lipo)     H(rot)  DE(clash)    DE(int)     intcor
     18.85     -19.40       2.10        0.00      90.65       1.45       0.07       0.47       ----

> <Gold.Chemscore.Fitness>
18.8529

> <Gold.Chemscore.DG>
-19.3971

> <Gold.Chemscore.ZeroCoef>
-5.4800

> <Gold.Chemscore.Hbond>
2.0989

> <Gold.Chemscore.Metal>
0.0000

> <Gold.Chemscore.Lipo>
90.6506

> <Gold.Chemscore.Internal_Hbond>
0.0000

> <Gold.Chemscore.DEClash>
0.0707

> <Gold.Chemscore.DEInternal>
0.4735

> <Gold.Chemscore.Rot>
1.4450

> <Gold.Chemscore.Internal.Correction>
   9.000000E+99

> <Gold.Chemscore.Hbonds>
donor molecule, donor type, donor heavy atom, donor atom, acceptor molecule, acceptor atom, score
      P1  H  6896  6909       L1     3  0.52
      P1  H  6934  6947       L1    20  0.15
      P1  H  7989  7998       L1     9  0.78

> <Gold.Chemscore.Hbond.Weighted>
-7.0102

> <Gold.Chemscore.Metal.Weighted>
-0.0000

> <Gold.Chemscore.Lipo.Weighted>
-10.6061

> <Gold.Chemscore.Internal_Hbond.Weighted>
0.0000

> <Gold.Chemscore.DEClash.Weighted>
0.0707

> <Gold.Chemscore.DEInternal.Weighted>
0.4735

> <Gold.Chemscore.Rot.Weighted>
3.6992

> <Gold.Chemscore.Internal.Correction.Weighted>
   9.000000E+99

> <Gold.Protein.RotatedTorsions>
[ 6907 6896 6895 6894 ] final   71.72 input  -60.11 | X-H torsion
[ 7974 7965 7964 7962 ] final -170.06 input  175.53 | X-H torsion
[ 8008 7997 7996 7995 ] final -148.11 input   59.86 | X-H torsion
[ 10167 10162 10161 10158 ] final   16.70 input  -65.29 | X-H torsion
[ 10718 10713 10712 10709 ] final  156.02 input   66.30 | X-H torsion
[ 10763 10752 10751 10750 ] final   10.61 input  -60.55 | X-H torsion
[ 11005 11000 10999 10996 ] final  132.99 input  -57.11 | X-H torsion

> <Gold.Protein.ActiveResidues>
 VAL166  LYS551  ARG553  GLY616  TRP617  ASP618  TYR619  PRO620  LYS621  CYS622 
 ASP623  PHE694  ASN695  SER759  ASP760  ASP761  ALA762  ILE779  LEU786  VAL792 
 PHE793  MET794  SER795  GLU796  ALA797  LYS798  CYS799  TRP800  GLU811  SER814 

> <Gold.Protein.RotatedAtoms>
  152.4826  134.4678  159.9625 H   0  0  0  0  0  0  0  0  0  0  0  0  # atno 6907 bound_to 6896
  151.4681  133.3570  159.2827 H   0  0  0  0  0  0  0  0  0  0  0  0  # atno 6908 bound_to 6896
  150.8911  134.8340  159.7354 H   0  0  0  0  0  0  0  0  0  0  0  0  # atno 6909 bound_to 6896
  144.7175  140.2128  143.6325 H   0  0  0  0  0  0  0  0  0  0  0  0  # atno 7974 bound_to 7965
  155.5864  140.0648  157.2770 H   0  0  0  0  0  0  0  0  0  0  0  0  # atno 8008 bound_to 7997
  154.4318  140.1843  156.1076 H   0  0  0  0  0  0  0  0  0  0  0  0  # atno 8009 bound_to 7997
  156.0266  140.3311  155.7098 H   0  0  0  0  0  0  0  0  0  0  0  0  # atno 8010 bound_to 7997
  140.5778  143.9038  150.6765 H   0  0  0  0  0  0  0  0  0  0  0  0  # atno 10167 bound_to 10162
  157.2105  131.0696  151.1972 H   0  0  0  0  0  0  0  0  0  0  0  0  # atno 10718 bound_to 10713
  153.2014  135.6856  153.8227 H   0  0  0  0  0  0  0  0  0  0  0  0  # atno 10763 bound_to 10752
  153.7492  135.3226  155.3319 H   0  0  0  0  0  0  0  0  0  0  0  0  # atno 10764 bound_to 10752
  154.8173  135.4677  154.0781 H   0  0  0  0  0  0  0  0  0  0  0  0  # atno 10765 bound_to 10752
  139.9824  134.9543  156.9661 H   0  0  0  0  0  0  0  0  0  0  0  0  # atno 11005 bound_to 11000
  145.8575  139.2206  143.1736 LP  0  0  0  0  0  0  0  0  0  0  0  0  # atno 17320 bound_to 7965
  146.0204  140.8353  142.9926 LP  0  0  0  0  0  0  0  0  0  0  0  0  # atno 17321 bound_to 7965
  140.2530  143.3579  152.1389 LP  0  0  0  0  0  0  0  0  0  0  0  0  # atno 17342 bound_to 10162
  139.5153  144.6960  151.5629 LP  0  0  0  0  0  0  0  0  0  0  0  0  # atno 17343 bound_to 10162
  157.3677  130.7164  149.6543 LP  0  0  0  0  0  0  0  0  0  0  0  0  # atno 17370 bound_to 10713
  155.9691  130.4208  150.4438 LP  0  0  0  0  0  0  0  0  0  0  0  0  # atno 17371 bound_to 10713
  140.5070  134.1040  155.7262 LP  0  0  0  0  0  0  0  0  0  0  0  0  # atno 17394 bound_to 11000
  141.1494  133.8996  157.2135 LP  0  0  0  0  0  0  0  0  0  0  0  0  # atno 17395 bound_to 11000

$$$$
