AV-unprocessed.smi:3330|AV-procd|sdf|12810|dock7
  -GOLD-   2272019173D 1   1.00000     0.00000
 Structure written by MMmdl.
 38 39  0  0  0  0  0  0  0  0  3 V2000
  145.3019  133.6999  153.9643 C   0  0  0  0  0  0  0  0  0  0  0  0
  146.1503  134.6975  153.1544 C   0  0  1  0  0  0  0  0  0  0  0  0
  147.5592  134.2439  153.1727 N   0  3  0  0  0  0  0  0  0  0  0  0
  148.1319  134.0383  154.5177 C   0  0  0  0  0  0  0  0  0  0  0  0
  149.6264  134.3902  154.5318 C   0  0  0  0  0  0  0  0  0  0  0  0
  150.3186  133.7137  155.6314 N   0  0  0  0  0  0  0  0  0  0  0  0
  150.4949  132.3917  155.7132 C   0  0  0  0  0  0  0  0  0  0  0  0
  150.1296  131.5302  154.9132 O   0  0  0  0  0  0  0  0  0  0  0  0
  151.2316  132.1103  157.0020 C   0  0  0  0  0  0  0  0  0  0  0  0
  151.3868  133.4334  157.5634 N   0  5  0  0  0  0  0  0  0  0  0  0
  150.8293  134.3280  156.7153 C   0  0  0  0  0  0  0  0  0  0  0  0
  150.7631  135.5474  156.8685 O   0  0  0  0  0  0  0  0  0  0  0  0
  145.6506  134.8697  151.6932 C   0  0  2  0  0  0  0  0  0  0  0  0
  144.3297  135.6563  151.5941 C   0  0  0  0  0  0  0  0  0  0  0  0
  145.5192  133.5924  151.0036 N   0  0  0  0  0  0  0  0  0  0  0  0
  144.4039  133.0663  150.3840 C   0  0  0  0  0  0  0  0  0  0  0  0
  144.7535  131.8462  149.8805 C   0  0  0  0  0  0  0  0  0  0  0  0
  146.1196  131.7060  150.2510 C   0  0  0  0  0  0  0  0  0  0  0  0
  146.5746  132.7506  150.9232 N   0  0  0  0  0  0  0  0  0  0  0  0
  144.2710  134.0373  154.0732 H   0  0  0  0  0  0  0  0  0  0  0  0
  145.7024  133.5731  154.9707 H   0  0  0  0  0  0  0  0  0  0  0  0
  145.2828  132.7188  153.4887 H   0  0  0  0  0  0  0  0  0  0  0  0
  146.0808  135.6602  153.6643 H   0  0  0  0  0  0  0  0  0  0  0  0
  147.6149  133.3646  152.6792 H   0  0  0  0  0  0  0  0  0  0  0  0
  147.5963  134.6541  155.2410 H   0  0  0  0  0  0  0  0  0  0  0  0
  147.9882  132.9977  154.8123 H   0  0  0  0  0  0  0  0  0  0  0  0
  150.0830  134.1198  153.5781 H   0  0  0  0  0  0  0  0  0  0  0  0
  149.7564  135.4699  154.6250 H   0  0  0  0  0  0  0  0  0  0  0  0
  150.6405  131.4424  157.6293 H   0  0  0  0  0  0  0  0  0  0  0  0
  152.1815  131.6194  156.7880 H   0  0  0  0  0  0  0  0  0  0  0  0
  146.4076  135.4365  151.1485 H   0  0  0  0  0  0  0  0  0  0  0  0
  144.4444  136.6792  151.9528 H   0  0  0  0  0  0  0  0  0  0  0  0
  143.5376  135.1855  152.1776 H   0  0  0  0  0  0  0  0  0  0  0  0
  143.9878  135.7169  150.5603 H   0  0  0  0  0  0  0  0  0  0  0  0
  143.4641  133.5977  150.3519 H   0  0  0  0  0  0  0  0  0  0  0  0
  144.1279  131.1570  149.3326 H   0  0  0  0  0  0  0  0  0  0  0  0
  146.7893  130.8819  150.0533 H   0  0  0  0  0  0  0  0  0  0  0  0
  148.1209  134.9237  152.6805 H   0  0  0  0  0  0  0  0  0  0  0  0
  1  2  1  0  0  0  0
  1 20  1  0  0  0  0
  1 21  1  0  0  0  0
  1 22  1  0  0  0  0
  2  3  1  0  0  0  0
  2 13  1  0  0  0  0
  2 23  1  0  0  0  0
  3  4  1  0  0  0  0
  3 24  1  0  0  0  0
  3 38  1  0  0  0  0
  4  5  1  0  0  0  0
  4 25  1  0  0  0  0
  4 26  1  0  0  0  0
  5  6  1  0  0  0  0
  5 27  1  0  0  0  0
  5 28  1  0  0  0  0
  6 11  1  0  0  0  0
  6  7  1  0  0  0  0
  7  8  2  0  0  0  0
  7  9  1  0  0  0  0
  9 10  1  0  0  0  0
  9 29  1  0  0  0  0
  9 30  1  0  0  0  0
 10 11  1  0  0  0  0
 11 12  2  0  0  0  0
 13 14  1  0  0  0  0
 13 15  1  0  0  0  0
 13 31  1  0  0  0  0
 14 32  1  0  0  0  0
 14 33  1  0  0  0  0
 14 34  1  0  0  0  0
 15 19  1  0  0  0  0
 15 16  1  0  0  0  0
 16 17  2  0  0  0  0
 16 35  1  0  0  0  0
 17 18  1  0  0  0  0
 17 36  1  0  0  0  0
 18 19  2  0  0  0  0
 18 37  1  0  0  0  0
M  CHG  1   3   1
M  CHG  1  10  -1
M  END
> <s_m_source_file>
AV-unprocessed.smi

> <i_m_source_file_index>
3330

> <i_lp_mmshare_version>
43012

> <i_f3d_flags>
0

> <s_epik_input>
bjFbY0hdW2NIXVtjSF1uMVtDQEBIXShbQ0gzXSlbQ0BIXShbQ0gzXSlbTkhdW0NIMl1bQ0gyXU4yQyg9TylbQ0gyXVtOSF1DMj1P

> <s_epik_cmdline>
J2VwaWtfcHl0aG9uJywgJy1waCcsICc3LjAnLCAnLXRuJywgJzgnLCAnLW1hJywgJzIwMCcsICctbWV0YWxfYmluZGluZycsICctaW1hZScsICc8aW5maWxlLm1hZT4nLCAnLW9tYWUnLCAnPG91dGZpbGUubWFlPic=

> <r_lp_tautomer_probability>
1

> <r_epik_Ionization_Penalty>
5.18149

> <r_epik_Ionization_Penalty_Charging>
5.18148

> <r_epik_Ionization_Penalty_Neutral>
9.83265e-06

> <r_epik_State_Penalty>
5.18201

> <r_epik_Charging_Adjusted_Penalty>
10.3635

> <i_epik_Tot_Q>
0

> <i_epik_Tot_abs_Q>
2

> <r_epik_Metal_State_Penalty>
1.25422

> <b_epik_Metal_Only>
1

> <s_lp_Force_Field>
OPLS_2005

> <r_lp_Energy>
16.6991

> <b_lp_Chiralities_Consistent>
1

> <s_lp_Variant>
AV-unprocessed.smi:3330-10

> <Gold.Version>
5.8.1

> <Gold.Id.Protein>
6NUR|6NUR_protein|mol2

> <Gold.PLP.Fitness>
48.5383

> <Gold.PLP.PLP>
-31.6430

> <Gold.PLP.part.hbond>
-2.0461

> <Gold.PLP.part.metal>
0.0000

> <Gold.PLP.part.buried>
-4.8907

> <Gold.PLP.part.nonpolar>
-25.4029

> <Gold.PLP.part.repulsive>
0.2468

> <Gold.PLP.ligand.clash>
0.0000

> <Gold.PLP.ligand.torsion>
0.5498

> <Gold.PLP.Chemscore.Hbond>
3.9840

> <Gold.PLP.Chemscore.CHOScore>
1.9509

> <Gold.PLP.Chemscore.Metal>
0.0000

> <Gold.Chemscore.Hbonds>
donor molecule, donor type, donor heavy atom, donor atom, acceptor molecule, acceptor atom, score
      L1  H     3    38       P1  7948  2.00
      P1  H  6896  6908       L1    10  1.28
      L1  C    16    35       P1 10186  0.55
      L1  C    18    37       P1 10747  0.97

> <Gold.PLP.Chemscore.Internal.Correction>
0.1901

> <Gold.Rescore>
     Score         DG    S(hbond)    S(metal)    S(lipo)     H(rot)  DE(clash)    DE(int)     intcor
      9.81     -11.74       1.86        0.00      57.14       2.59       0.01       1.92       ----

> <Gold.Chemscore.Fitness>
9.8139

> <Gold.Chemscore.DG>
-11.7448

> <Gold.Chemscore.ZeroCoef>
-5.4800

> <Gold.Chemscore.Hbond>
1.8594

> <Gold.Chemscore.Metal>
0.0000

> <Gold.Chemscore.Lipo>
57.1421

> <Gold.Chemscore.Internal_Hbond>
0.0000

> <Gold.Chemscore.DEClash>
0.0133

> <Gold.Chemscore.DEInternal>
1.9176

> <Gold.Chemscore.Rot>
2.5903

> <Gold.Chemscore.Internal.Correction>
   9.000000E+99

> <Gold.Chemscore.Hbonds>
donor molecule, donor type, donor heavy atom, donor atom, acceptor molecule, acceptor atom, score
      L1  H     3    38       P1  7948  0.82
      P1  H  6896  6908       L1    10  0.52

> <Gold.Chemscore.Hbond.Weighted>
-6.2103

> <Gold.Chemscore.Metal.Weighted>
-0.0000

> <Gold.Chemscore.Lipo.Weighted>
-6.6856

> <Gold.Chemscore.Internal_Hbond.Weighted>
0.0000

> <Gold.Chemscore.DEClash.Weighted>
0.0133

> <Gold.Chemscore.DEInternal.Weighted>
1.9176

> <Gold.Chemscore.Rot.Weighted>
6.6311

> <Gold.Chemscore.Internal.Correction.Weighted>
   9.000000E+99

> <Gold.Protein.RotatedTorsions>
[ 6907 6896 6895 6894 ] final   81.00 input  -60.11 | X-H torsion
[ 7974 7965 7964 7962 ] final  164.58 input  175.53 | X-H torsion
[ 8008 7997 7996 7995 ] final  -22.53 input   59.86 | X-H torsion
[ 10167 10162 10161 10158 ] final  169.00 input  -65.29 | X-H torsion
[ 10718 10713 10712 10709 ] final -142.98 input   66.30 | X-H torsion
[ 10763 10752 10751 10750 ] final   76.35 input  -60.55 | X-H torsion
[ 11005 11000 10999 10996 ] final  176.08 input  -57.11 | X-H torsion

> <Gold.Protein.ActiveResidues>
 VAL166  LYS551  ARG553  GLY616  TRP617  ASP618  TYR619  PRO620  LYS621  CYS622 
 ASP623  PHE694  ASN695  SER759  ASP760  ASP761  ALA762  ILE779  LEU786  VAL792 
 PHE793  MET794  SER795  GLU796  ALA797  LYS798  CYS799  TRP800  GLU811  SER814 

> <Gold.Protein.RotatedAtoms>
  152.5254  134.3270  159.9168 H   0  0  0  0  0  0  0  0  0  0  0  0  # atno 6907 bound_to 6896
  151.3219  133.4030  159.2663 H   0  0  0  0  0  0  0  0  0  0  0  0  # atno 6908 bound_to 6896
  150.9951  134.9294  159.7979 H   0  0  0  0  0  0  0  0  0  0  0  0  # atno 6909 bound_to 6896
  144.7539  139.8346  143.6356 H   0  0  0  0  0  0  0  0  0  0  0  0  # atno 7974 bound_to 7965
  154.4639  140.2005  156.0171 H   0  0  0  0  0  0  0  0  0  0  0  0  # atno 8008 bound_to 7997
  156.0891  140.3260  155.7763 H   0  0  0  0  0  0  0  0  0  0  0  0  # atno 8009 bound_to 7997
  155.4987  140.0552  157.2933 H   0  0  0  0  0  0  0  0  0  0  0  0  # atno 8010 bound_to 7997
  139.4981  144.3754  151.9680 H   0  0  0  0  0  0  0  0  0  0  0  0  # atno 10167 bound_to 10162
  156.3524  130.7695  151.1850 H   0  0  0  0  0  0  0  0  0  0  0  0  # atno 10718 bound_to 10713
  153.0719  135.4954  154.8323 H   0  0  0  0  0  0  0  0  0  0  0  0  # atno 10763 bound_to 10752
  154.7035  135.3006  154.9308 H   0  0  0  0  0  0  0  0  0  0  0  0  # atno 10764 bound_to 10752
  154.0025  135.6764  153.4813 H   0  0  0  0  0  0  0  0  0  0  0  0  # atno 10765 bound_to 10752
  140.3692  134.7045  157.4381 H   0  0  0  0  0  0  0  0  0  0  0  0  # atno 11005 bound_to 11000
  146.1525  139.4613  143.0039 LP  0  0  0  0  0  0  0  0  0  0  0  0  # atno 17320 bound_to 7965
  145.6847  141.0181  143.1587 LP  0  0  0  0  0  0  0  0  0  0  0  0  # atno 17321 bound_to 7965
  140.3190  144.3450  150.6014 LP  0  0  0  0  0  0  0  0  0  0  0  0  # atno 17342 bound_to 10162
  140.5738  143.2178  151.7552 LP  0  0  0  0  0  0  0  0  0  0  0  0  # atno 17343 bound_to 10162
  157.7463  131.0423  150.4691 LP  0  0  0  0  0  0  0  0  0  0  0  0  # atno 17370 bound_to 10713
  156.4888  130.4090  149.6418 LP  0  0  0  0  0  0  0  0  0  0  0  0  # atno 17371 bound_to 10713
  140.0565  134.6056  155.8799 LP  0  0  0  0  0  0  0  0  0  0  0  0  # atno 17394 bound_to 11000
  141.1960  133.6589  156.5670 LP  0  0  0  0  0  0  0  0  0  0  0  0  # atno 17395 bound_to 11000

$$$$
