AV-unprocessed.smi:989|AV-procd|sdf|4325|dock6
  -GOLD-   22720 2233D 1   1.00000     0.00000
 Structure written by MMmdl.
 26 27  0  0  0  0  0  0  0  0  2 V2000
  153.4727  138.5688  157.1202 O   0  0  0  0  0  0  0  0  0  0  0  0
  152.8713  137.5397  157.4994 C   0  0  0  0  0  0  0  0  0  0  0  0
  152.7759  136.4743  156.8500 O   0  5  0  0  0  0  0  0  0  0  0  0
  152.1760  137.5982  158.8622 C   0  0  0  0  0  0  0  0  0  0  0  0
  152.4853  138.9236  159.4992 C   0  0  0  0  0  0  0  0  0  0  0  0
  153.2046  139.1353  160.6511 C   0  0  0  0  0  0  0  0  0  0  0  0
  153.3329  140.8277  161.0443 S   0  0  0  0  0  0  0  0  0  0  0  0
  152.3655  141.1938  159.6132 C   0  0  0  0  0  0  0  0  0  0  0  0
  152.0129  142.5030  159.1657 N   0  0  0  0  0  0  0  0  0  0  0  0
  152.5027  143.6396  159.9670 C   0  0  0  0  0  0  0  0  0  0  0  0
  151.5047  144.7997  159.9694 C   0  0  0  0  0  0  0  0  0  0  0  0
  151.1168  145.1324  158.5308 C   0  0  0  0  0  0  0  0  0  0  0  0
  150.8309  143.9170  157.7765 N   0  0  0  0  0  0  0  0  0  0  0  0
  151.3329  142.6843  157.9973 C   0  0  0  0  0  0  0  0  0  0  0  0
  151.1206  141.7853  157.1840 O   0  0  0  0  0  0  0  0  0  0  0  0
  152.0093  140.1063  158.9211 N   0  0  0  0  0  0  0  0  0  0  0  0
  151.1006  137.4603  158.7406 H   0  0  0  0  0  0  0  0  0  0  0  0
  152.5325  136.7749  159.4822 H   0  0  0  0  0  0  0  0  0  0  0  0
  153.6752  138.3964  161.2823 H   0  0  0  0  0  0  0  0  0  0  0  0
  152.6918  143.3388  160.9986 H   0  0  0  0  0  0  0  0  0  0  0  0
  153.4581  143.9674  159.5548 H   0  0  0  0  0  0  0  0  0  0  0  0
  150.6150  144.5101  160.5304 H   0  0  0  0  0  0  0  0  0  0  0  0
  151.9232  145.6731  160.4701 H   0  0  0  0  0  0  0  0  0  0  0  0
  150.2486  145.7913  158.5088 H   0  0  0  0  0  0  0  0  0  0  0  0
  151.9326  145.6584  158.0339 H   0  0  0  0  0  0  0  0  0  0  0  0
  150.2779  144.0373  156.9402 H   0  0  0  0  0  0  0  0  0  0  0  0
  1  2  2  0  0  0  0
  2  3  1  0  0  0  0
  2  4  1  0  0  0  0
  4  5  1  0  0  0  0
  4 17  1  0  0  0  0
  4 18  1  0  0  0  0
  5 16  1  0  0  0  0
  5  6  2  0  0  0  0
  6  7  1  0  0  0  0
  6 19  1  0  0  0  0
  7  8  1  0  0  0  0
  8  9  1  0  0  0  0
  8 16  2  0  0  0  0
  9 14  1  0  0  0  0
  9 10  1  0  0  0  0
 10 11  1  0  0  0  0
 10 20  1  0  0  0  0
 10 21  1  0  0  0  0
 11 12  1  0  0  0  0
 11 22  1  0  0  0  0
 11 23  1  0  0  0  0
 12 13  1  0  0  0  0
 12 24  1  0  0  0  0
 12 25  1  0  0  0  0
 13 14  1  0  0  0  0
 13 26  1  0  0  0  0
 14 15  2  0  0  0  0
M  CHG  1   3  -1
M  END
> <s_m_source_file>
AV-unprocessed.smi

> <i_m_source_file_index>
989

> <i_lp_mmshare_version>
43012

> <i_f3d_flags>
0

> <s_epik_input>
Tz1DKFtPSF0pW0NIMl1jMVtjSF1zYyhuMSlOMltDSDJdW0NIMl1bQ0gyXVtOSF1DMj1P

> <s_epik_cmdline>
J2VwaWtfcHl0aG9uJywgJy1waCcsICc3LjAnLCAnLXRuJywgJzgnLCAnLW1hJywgJzIwMCcsICctbWV0YWxfYmluZGluZycsICctaW1hZScsICc8aW5maWxlLm1hZT4nLCAnLW9tYWUnLCAnPG91dGZpbGUubWFlPic=

> <r_lp_tautomer_probability>
1

> <r_epik_Ionization_Penalty>
0.00100312

> <r_epik_Ionization_Penalty_Charging>
0.000722293

> <r_epik_Ionization_Penalty_Neutral>
0.000280832

> <r_epik_State_Penalty>
0.000460635

> <r_epik_Charging_Adjusted_Penalty>
0.00118293

> <i_epik_Tot_Q>
-1

> <i_epik_Tot_abs_Q>
1

> <r_epik_Metal_State_Penalty>
-0

> <b_epik_Metal_Only>
0

> <s_lp_Force_Field>
OPLS_2005

> <r_lp_Energy>
35.7011

> <b_lp_Chiralities_Consistent>
1

> <s_lp_Variant>
AV-unprocessed.smi:989-1

> <Gold.Version>
5.8.1

> <Gold.Id.Protein>
6NUR|6NUR_protein|mol2

> <Gold.PLP.Fitness>
46.4720

> <Gold.PLP.PLP>
-31.5558

> <Gold.PLP.part.hbond>
-3.0000

> <Gold.PLP.part.metal>
0.0000

> <Gold.PLP.part.buried>
-5.6380

> <Gold.PLP.part.nonpolar>
-23.6905

> <Gold.PLP.part.repulsive>
0.0805

> <Gold.PLP.ligand.clash>
0.0000

> <Gold.PLP.ligand.torsion>
0.0454

> <Gold.PLP.Chemscore.Hbond>
5.0000

> <Gold.PLP.Chemscore.CHOScore>
0.0000

> <Gold.PLP.Chemscore.Metal>
0.0000

> <Gold.Chemscore.Hbonds>
donor molecule, donor type, donor heavy atom, donor atom, acceptor molecule, acceptor atom, score
      L1  H    13    26       P1  8028  1.00
      P1  H  7997  8010       L1     1  2.00
      P1  H 10752 10764       L1     3  2.00

> <Gold.PLP.Chemscore.Internal.Correction>
0.0070

> <Gold.Rescore>
     Score         DG    S(hbond)    S(metal)    S(lipo)     H(rot)  DE(clash)    DE(int)     intcor
     15.19     -18.59       2.94        0.00      61.75       1.54       0.00       3.40       ----

> <Gold.Chemscore.Fitness>
15.1911

> <Gold.Chemscore.DG>
-18.5905

> <Gold.Chemscore.ZeroCoef>
-5.4800

> <Gold.Chemscore.Hbond>
2.9414

> <Gold.Chemscore.Metal>
0.0000

> <Gold.Chemscore.Lipo>
61.7511

> <Gold.Chemscore.Internal_Hbond>
0.0000

> <Gold.Chemscore.DEClash>
0.0000

> <Gold.Chemscore.DEInternal>
3.3994

> <Gold.Chemscore.Rot>
1.5386

> <Gold.Chemscore.Internal.Correction>
   9.000000E+99

> <Gold.Chemscore.Hbonds>
donor molecule, donor type, donor heavy atom, donor atom, acceptor molecule, acceptor atom, score
      L1  H    13    26       P1  8028  0.94
      P1  H  7997  8010       L1     1  0.95
      P1  H 10752 10764       L1     3  0.93

> <Gold.Chemscore.Hbond.Weighted>
-9.8244

> <Gold.Chemscore.Metal.Weighted>
-0.0000

> <Gold.Chemscore.Lipo.Weighted>
-7.2249

> <Gold.Chemscore.Internal_Hbond.Weighted>
0.0000

> <Gold.Chemscore.DEClash.Weighted>
0.0000

> <Gold.Chemscore.DEInternal.Weighted>
3.3994

> <Gold.Chemscore.Rot.Weighted>
3.9388

> <Gold.Chemscore.Internal.Correction.Weighted>
   9.000000E+99

> <Gold.Protein.RotatedTorsions>
[ 6907 6896 6895 6894 ] final   65.94 input  -60.11 | X-H torsion
[ 7974 7965 7964 7962 ] final -135.64 input  175.53 | X-H torsion
[ 8008 7997 7996 7995 ] final   54.64 input   59.86 | X-H torsion
[ 10167 10162 10161 10158 ] final   55.20 input  -65.29 | X-H torsion
[ 10718 10713 10712 10709 ] final -122.97 input   66.30 | X-H torsion
[ 10763 10752 10751 10750 ] final   -0.84 input  -60.55 | X-H torsion
[ 11005 11000 10999 10996 ] final   -6.66 input  -57.11 | X-H torsion

> <Gold.Protein.ActiveResidues>
 VAL166  LYS551  ARG553  GLY616  TRP617  ASP618  TYR619  PRO620  LYS621  CYS622 
 ASP623  PHE694  ASN695  SER759  ASP760  ASP761  ALA762  ILE779  LEU786  VAL792 
 PHE793  MET794  SER795  GLU796  ALA797  LYS798  CYS799  TRP800  GLU811  SER814 

> <Gold.Protein.RotatedAtoms>
  152.4444  134.5524  159.9870 H   0  0  0  0  0  0  0  0  0  0  0  0  # atno 6907 bound_to 6896
  151.5613  133.3397  159.2979 H   0  0  0  0  0  0  0  0  0  0  0  0  # atno 6908 bound_to 6896
  150.8357  134.7662  159.6955 H   0  0  0  0  0  0  0  0  0  0  0  0  # atno 6909 bound_to 6896
  144.8997  140.6754  143.5093 H   0  0  0  0  0  0  0  0  0  0  0  0  # atno 7974 bound_to 7965
  155.4880  140.3470  155.4350 H   0  0  0  0  0  0  0  0  0  0  0  0  # atno 8008 bound_to 7997
  156.0995  140.1432  156.9514 H   0  0  0  0  0  0  0  0  0  0  0  0  # atno 8009 bound_to 7997
  154.4685  140.0909  156.7061 H   0  0  0  0  0  0  0  0  0  0  0  0  # atno 8010 bound_to 7997
  140.2220  144.3779  150.6447 H   0  0  0  0  0  0  0  0  0  0  0  0  # atno 10167 bound_to 10162
  156.1463  130.6502  150.9847 H   0  0  0  0  0  0  0  0  0  0  0  0  # atno 10718 bound_to 10713
  153.3371  135.6978  153.6899 H   0  0  0  0  0  0  0  0  0  0  0  0  # atno 10763 bound_to 10752
  153.5678  135.3522  155.2826 H   0  0  0  0  0  0  0  0  0  0  0  0  # atno 10764 bound_to 10752
  154.8629  135.4265  154.2574 H   0  0  0  0  0  0  0  0  0  0  0  0  # atno 10765 bound_to 10752
  140.7044  133.8962  155.8706 H   0  0  0  0  0  0  0  0  0  0  0  0  # atno 11005 bound_to 11000
  145.3639  139.1675  143.4368 LP  0  0  0  0  0  0  0  0  0  0  0  0  # atno 17320 bound_to 7965
  146.3101  140.3704  142.8673 LP  0  0  0  0  0  0  0  0  0  0  0  0  # atno 17321 bound_to 7965
  140.6248  143.2180  151.6619 LP  0  0  0  0  0  0  0  0  0  0  0  0  # atno 17342 bound_to 10162
  139.5141  144.3422  152.0729 LP  0  0  0  0  0  0  0  0  0  0  0  0  # atno 17343 bound_to 10162
  157.6619  131.0879  150.7818 LP  0  0  0  0  0  0  0  0  0  0  0  0  # atno 17370 bound_to 10713
  156.7890  130.4884  149.5388 LP  0  0  0  0  0  0  0  0  0  0  0  0  # atno 17371 bound_to 10713
  141.0137  134.0985  157.4194 LP  0  0  0  0  0  0  0  0  0  0  0  0  # atno 17394 bound_to 11000
  139.8888  135.0100  156.6642 LP  0  0  0  0  0  0  0  0  0  0  0  0  # atno 17395 bound_to 11000

$$$$
