#       Name:                AV-unprocessed.smi:72
#       Creating user name   scv26
#       Creation time:       Thu Mar 26 17:00:37 2020


#       File generated by GOLD software.
#

@<TRIPOS>MOLECULE
AV-unprocessed.smi:72
    41    42     1
SMALL
NO_CHARGES


@<TRIPOS>ATOM
      1 ****        -2.5073   4.3387  -0.9108 N.2            1 S1                 0.0000
      2 ****        -1.9831   3.2106  -0.5893 C.2            1 S1                 0.0000
      3 ****        -0.6172   2.8984  -0.6654 N.2            1 S1                 0.0000
      4 ****        -0.2296   1.7159  -0.2979 C.2            1 S1                 0.0000
      5 ****        -1.1621   0.7093   0.1859 N.am           1 S1                 0.0000
      6 ****        -0.6789  -0.6630   0.6063 C.3            1 S1                 0.0000
      7 ****         0.5516  -0.5288   1.2516 O.3            1 S1                 0.0000
      8 ****         1.3996  -1.6102   0.8810 C.3            1 S1                 0.0000
      9 ****         2.8784  -1.2701   1.1377 C.3            1 S1                 0.0000
     10 ****         3.2039  -1.5075   2.4909 O.3            1 S1                 0.0000
     11 ****         1.0215  -1.8654  -0.5855 C.3            1 S1                 0.0000
     12 ****         1.7029  -0.9703  -1.4494 O.3            1 S1                 0.0000
     13 ****        -0.4873  -1.6351  -0.5778 C.3            1 S1                 0.0000
     14 ****        -0.9959  -1.1984  -1.8273 O.3            1 S1                 0.0000
     15 ****        -2.5459   1.0039   0.2551 C.2            1 S1                 0.0000
     16 ****        -3.3816   0.1841   0.6348 O.2            1 S1                 0.0000
     17 ****        -2.8946   2.2497  -0.1328 N.am           1 S1                 0.0000
     18 ****        -1.3967  -1.0374   1.3374 H              1 S1                 0.0000
     19 ****         1.1109  -2.4887   1.4619 H              1 S1                 0.0000
     20 ****         1.2702  -2.8821  -0.8915 H              1 S1                 0.0000
     21 ****        -0.9883  -2.5663  -0.3100 H              1 S1                 0.0000
     22 ****        -3.5066   4.3104  -0.7666 H              1 S1                 0.0000
     23 ****         0.8139   1.4005  -0.3298 H              1 S1                 0.0000
     24 ****         3.5212  -1.9097   0.5322 H              1 S1                 0.0000
     25 ****         3.1015  -0.2367   0.8702 H              1 S1                 0.0000
     26 ****         4.1140  -1.2899   2.6236 H              1 S1                 0.0000
     27 ****         1.4285  -1.1471  -2.3364 H              1 S1                 0.0000
     28 ****        -0.5851  -0.3752  -2.0438 H              1 S1                 0.0000
     29 ****        -3.8730   2.4956  -0.0936 H              1 S1                 0.0000
     30 ****        -2.0000   5.1292  -1.2537 LP             1 S1                 0.0000
     31 ****         0.0432   3.5727  -0.9957 LP             1 S1                 0.0000
     32 ****         0.4120  -0.5384   2.2418 LP             1 S1                 0.0000
     33 ****         0.9766   0.3357   0.9833 LP             1 S1                 0.0000
     34 ****         3.0522  -2.4714   2.7101 LP             1 S1                 0.0000
     35 ****         2.6315  -0.9376   3.0804 LP             1 S1                 0.0000
     36 ****         2.6901  -1.1069  -1.3673 LP             1 S1                 0.0000
     37 ****         1.4755  -0.0273  -1.2067 LP             1 S1                 0.0000
     38 ****        -1.9864  -1.0759  -1.7650 LP             1 S1                 0.0000
     39 ****        -0.7876  -1.8761  -2.5326 LP             1 S1                 0.0000
     40 ****        -3.0932  -0.7330   0.9102 LP             1 S1                 0.0000
     41 ****        -4.3491   0.4350   0.6680 LP             1 S1                 0.0000
@<TRIPOS>BOND
    1    1    2 2     
    2    1   22 1     
    3    2   17 1     
    4    2    3 1     
    5    3    4 2     
    6    4    5 1     
    7    4   23 1     
    8    5    6 1     
    9    5   15 am    
   10    6   18 1     
   11    6   13 1     
   12    6    7 1     
   13    7    8 1     
   14    8   19 1     
   15    8    9 1     
   16    8   11 1     
   17    9   10 1     
   18    9   24 1     
   19    9   25 1     
   20   10   26 1     
   21   11   20 1     
   22   11   12 1     
   23   11   13 1     
   24   12   27 1     
   25   13   21 1     
   26   13   14 1     
   27   14   28 1     
   28   15   16 2     
   29   15   17 am    
   30   17   29 1     
   31    1   30 1     
   32    3   31 1     
   33    7   32 1     
   34    7   33 1     
   35   10   34 1     
   36   10   35 1     
   37   12   36 1     
   38   12   37 1     
   39   14   38 1     
   40   14   39 1     
   41   16   40 1     
   42   16   41 1     
@<TRIPOS>SUBSTRUCTURE
      1 S1             1
@<TRIPOS>SET
LONE_PAIRS      STATIC     ATOMS    <user>   **** ""
12 30 31 32 33 34 35 36 37 38 39 40 41
DONOR_HYDROGENS      STATIC     ATOMS    <user>   **** ""
5 22 26 27 28 29
ATOM$BLUE        STATIC     ATOMS    COLORGROUP SYSTEM
12 30 31 32 33 34 35 36 37 38 39 40 41
ATOM$RED        STATIC     ATOMS    COLORGROUP SYSTEM
5 22 26 27 28 29
