AV-unprocessed.smi:3018|AV-procd|sdf|11484|dock2
  -GOLD-   2272016423D 1   1.00000     0.00000
 Structure written by MMmdl.
 44 45  0  0  0  0  0  0  0  0  2 V2000
  149.1605  141.4558  154.7522 C   0  0  0  0  0  0  0  0  0  0  0  0
  149.6820  141.2017  156.1720 C   0  0  0  0  0  0  0  0  0  0  0  0
  151.1886  140.8843  156.2040 C   0  0  1  0  0  0  0  0  0  0  0  0
  151.6238  140.9526  157.5610 O   0  0  0  0  0  0  0  0  0  0  0  0
  151.3610  142.1721  158.2503 C   0  0  0  0  0  0  0  0  0  0  0  0
  151.8271  143.3247  157.3443 C   0  0  0  0  0  0  0  0  0  0  0  0
  151.6704  144.6858  158.0417 C   0  0  0  0  0  0  0  0  0  0  0  0
  152.4183  144.7115  159.3843 C   0  0  0  0  0  0  0  0  0  0  0  0
  151.9642  143.5595  160.2946 C   0  0  0  0  0  0  0  0  0  0  0  0
  152.1185  142.1998  159.5937 C   0  0  0  0  0  0  0  0  0  0  0  0
  151.4713  139.4836  155.6405 C   0  0  0  0  0  0  0  0  0  0  0  0
  152.2608  139.3403  154.7070 O   0  0  0  0  0  0  0  0  0  0  0  0
  150.8153  138.4662  156.2206 N   0  0  0  0  0  0  0  0  0  0  0  0
  150.9793  137.0514  155.8946 C   0  0  0  0  0  0  0  0  0  0  0  0
  150.8195  136.1508  157.1362 C   0  0  0  0  0  0  0  0  0  0  0  0
  149.6093  136.5060  157.9612 C   0  0  0  0  0  0  0  0  0  0  0  0
  148.4252  136.7099  157.5167 N   0  0  0  0  0  0  0  0  0  0  0  0
  147.7326  137.0055  158.6285 N   0  0  0  0  0  0  0  0  0  0  0  0
  148.5038  136.9712  159.7176 C   0  0  0  0  0  0  0  0  0  0  0  0
  148.0898  137.2057  160.8509 O   0  0  0  0  0  0  0  0  0  0  0  0
  149.7415  136.6418  159.3073 N   0  5  0  0  0  0  0  0  0  0  0  0
  146.7477  137.2192  158.5732 H   0  0  0  0  0  0  0  0  0  0  0  0
  148.0904  141.6632  154.7636 H   0  0  0  0  0  0  0  0  0  0  0  0
  149.3244  140.5889  154.1117 H   0  0  0  0  0  0  0  0  0  0  0  0
  149.6599  142.3104  154.2948 H   0  0  0  0  0  0  0  0  0  0  0  0
  149.4690  142.0714  156.7954 H   0  0  0  0  0  0  0  0  0  0  0  0
  149.1222  140.3708  156.6047 H   0  0  0  0  0  0  0  0  0  0  0  0
  151.7080  141.6287  155.5988 H   0  0  0  0  0  0  0  0  0  0  0  0
  150.2929  142.2972  158.4320 H   0  0  0  0  0  0  0  0  0  0  0  0
  152.8718  143.1757  157.0676 H   0  0  0  0  0  0  0  0  0  0  0  0
  151.2574  143.3177  156.4144 H   0  0  0  0  0  0  0  0  0  0  0  0
  152.0420  145.4805  157.3944 H   0  0  0  0  0  0  0  0  0  0  0  0
  150.6120  144.8911  158.2084 H   0  0  0  0  0  0  0  0  0  0  0  0
  153.4914  144.6341  159.2057 H   0  0  0  0  0  0  0  0  0  0  0  0
  152.2558  145.6672  159.8835 H   0  0  0  0  0  0  0  0  0  0  0  0
  152.5408  143.5683  161.2199 H   0  0  0  0  0  0  0  0  0  0  0  0
  150.9213  143.7072  160.5781 H   0  0  0  0  0  0  0  0  0  0  0  0
  151.7586  141.4119  160.2549 H   0  0  0  0  0  0  0  0  0  0  0  0
  153.1763  141.9973  159.4206 H   0  0  0  0  0  0  0  0  0  0  0  0
  150.1832  138.6855  156.9763 H   0  0  0  0  0  0  0  0  0  0  0  0
  150.2059  136.7972  155.1698 H   0  0  0  0  0  0  0  0  0  0  0  0
  151.9310  136.8563  155.3968 H   0  0  0  0  0  0  0  0  0  0  0  0
  150.7646  135.1053  156.8307 H   0  0  0  0  0  0  0  0  0  0  0  0
  151.7153  136.2325  157.7533 H   0  0  0  0  0  0  0  0  0  0  0  0
  1  2  1  0  0  0  0
  1 23  1  0  0  0  0
  1 24  1  0  0  0  0
  1 25  1  0  0  0  0
  2  3  1  0  0  0  0
  2 26  1  0  0  0  0
  2 27  1  0  0  0  0
  3  4  1  0  0  0  0
  3 11  1  0  0  0  0
  3 28  1  0  0  0  0
  4  5  1  0  0  0  0
  5 10  1  0  0  0  0
  5  6  1  0  0  0  0
  5 29  1  0  0  0  0
  6  7  1  0  0  0  0
  6 30  1  0  0  0  0
  6 31  1  0  0  0  0
  7  8  1  0  0  0  0
  7 32  1  0  0  0  0
  7 33  1  0  0  0  0
  8  9  1  0  0  0  0
  8 34  1  0  0  0  0
  8 35  1  0  0  0  0
  9 10  1  0  0  0  0
  9 36  1  0  0  0  0
  9 37  1  0  0  0  0
 10 38  1  0  0  0  0
 10 39  1  0  0  0  0
 11 12  2  0  0  0  0
 11 13  1  0  0  0  0
 13 14  1  0  0  0  0
 13 40  1  0  0  0  0
 14 15  1  0  0  0  0
 14 41  1  0  0  0  0
 14 42  1  0  0  0  0
 15 16  1  0  0  0  0
 15 43  1  0  0  0  0
 15 44  1  0  0  0  0
 16 21  1  0  0  0  0
 16 17  2  0  0  0  0
 17 18  1  0  0  0  0
 18 22  1  0  0  0  0
 18 19  1  0  0  0  0
 19 20  2  0  0  0  0
 19 21  1  0  0  0  0
M  CHG  1  21  -1
M  END
> <s_m_source_file>
AV-unprocessed.smi

> <i_m_source_file_index>
3018

> <i_lp_mmshare_version>
43012

> <i_f3d_flags>
0

> <s_epik_input>
W0NIMl0xW0NIMl1bQ0gyXVtDSDJdW0NIMl1bQ0hdMU9bQ0BASF0oW0NIMl1bQ0gzXSlDKD1PKVtOSF1bQ0gyXVtDSDJdYzJuW25IXWMoPU8pW25IXTI=

> <s_epik_cmdline>
J2VwaWtfcHl0aG9uJywgJy1waCcsICc3LjAnLCAnLXRuJywgJzgnLCAnLW1hJywgJzIwMCcsICctbWV0YWxfYmluZGluZycsICctaW1hZScsICc8aW5maWxlLm1hZT4nLCAnLW9tYWUnLCAnPG91dGZpbGUubWFlPic=

> <r_lp_tautomer_probability>
1

> <r_epik_Ionization_Penalty>
13.7173

> <r_epik_Ionization_Penalty_Charging>
13.7173

> <r_epik_Ionization_Penalty_Neutral>
5.37575e-06

> <r_epik_State_Penalty>
4.05785

> <r_epik_Charging_Adjusted_Penalty>
17.7751

> <i_epik_Tot_Q>
-1

> <i_epik_Tot_abs_Q>
1

> <r_epik_Metal_State_Penalty>
0.460256

> <b_epik_Metal_Only>
1

> <s_lp_Force_Field>
OPLS_2005

> <r_lp_Energy>
25.1559

> <b_lp_Chiralities_Consistent>
1

> <s_lp_Variant>
AV-unprocessed.smi:3018-6

> <Gold.Version>
5.8.1

> <Gold.Id.Protein>
6NUR|6NUR_protein|mol2

> <Gold.PLP.Fitness>
49.3320

> <Gold.PLP.PLP>
-38.0153

> <Gold.PLP.part.hbond>
-4.0000

> <Gold.PLP.part.metal>
0.0000

> <Gold.PLP.part.buried>
-6.2424

> <Gold.PLP.part.nonpolar>
-29.2707

> <Gold.PLP.part.repulsive>
0.1659

> <Gold.PLP.ligand.clash>
0.0000

> <Gold.PLP.ligand.torsion>
0.5343

> <Gold.PLP.Chemscore.Hbond>
4.0603

> <Gold.PLP.Chemscore.CHOScore>
0.0000

> <Gold.PLP.Chemscore.Metal>
0.0000

> <Gold.Chemscore.Hbonds>
donor molecule, donor type, donor heavy atom, donor atom, acceptor molecule, acceptor atom, score
      P1  H  6896  6908       L1    21  1.32
      P1  H  6931  6943       L1    20  0.88
      P1  H  6934  6947       L1    20  0.70
      P1  H  7989  7998       L1    12  0.78

> <Gold.PLP.Chemscore.Internal.Correction>
0.2043

> <Gold.Rescore>
     Score         DG    S(hbond)    S(metal)    S(lipo)     H(rot)  DE(clash)    DE(int)     intcor
     16.86     -17.26       2.80        0.00      85.91       2.98       0.01       0.39       ----

> <Gold.Chemscore.Fitness>
16.8583

> <Gold.Chemscore.DG>
-17.2557

> <Gold.Chemscore.ZeroCoef>
-5.4800

> <Gold.Chemscore.Hbond>
2.7982

> <Gold.Chemscore.Metal>
0.0000

> <Gold.Chemscore.Lipo>
85.9093

> <Gold.Chemscore.Internal_Hbond>
0.0000

> <Gold.Chemscore.DEClash>
0.0059

> <Gold.Chemscore.DEInternal>
0.3915

> <Gold.Chemscore.Rot>
2.9772

> <Gold.Chemscore.Internal.Correction>
   9.000000E+99

> <Gold.Chemscore.Hbonds>
donor molecule, donor type, donor heavy atom, donor atom, acceptor molecule, acceptor atom, score
      P1  H  6896  6908       L1    21  0.13
      P1  H  6931  6943       L1    20  0.83
      P1  H  6934  6947       L1    20  0.51
      P1  H  7989  7998       L1    12  0.22

> <Gold.Chemscore.Hbond.Weighted>
-9.3459

> <Gold.Chemscore.Metal.Weighted>
-0.0000

> <Gold.Chemscore.Lipo.Weighted>
-10.0514

> <Gold.Chemscore.Internal_Hbond.Weighted>
0.0000

> <Gold.Chemscore.DEClash.Weighted>
0.0059

> <Gold.Chemscore.DEInternal.Weighted>
0.3915

> <Gold.Chemscore.Rot.Weighted>
7.6216

> <Gold.Chemscore.Internal.Correction.Weighted>
   9.000000E+99

> <Gold.Protein.RotatedTorsions>
[ 6907 6896 6895 6894 ] final -174.93 input  -60.11 | X-H torsion
[ 7974 7965 7964 7962 ] final  154.96 input  175.53 | X-H torsion
[ 8008 7997 7996 7995 ] final  -17.47 input   59.86 | X-H torsion
[ 10167 10162 10161 10158 ] final  -46.36 input  -65.29 | X-H torsion
[ 10718 10713 10712 10709 ] final -156.66 input   66.30 | X-H torsion
[ 10763 10752 10751 10750 ] final   70.20 input  -60.55 | X-H torsion
[ 11005 11000 10999 10996 ] final  -40.58 input  -57.11 | X-H torsion

> <Gold.Protein.ActiveResidues>
 VAL166  LYS551  ARG553  GLY616  TRP617  ASP618  TYR619  PRO620  LYS621  CYS622 
 ASP623  PHE694  ASN695  SER759  ASP760  ASP761  ALA762  ILE779  LEU786  VAL792 
 PHE793  MET794  SER795  GLU796  ALA797  LYS798  CYS799  TRP800  GLU811  SER814 

> <Gold.Protein.RotatedAtoms>
  151.5804  133.3378  159.3006 H   0  0  0  0  0  0  0  0  0  0  0  0  # atno 6907 bound_to 6896
  150.8317  134.7576  159.6870 H   0  0  0  0  0  0  0  0  0  0  0  0  # atno 6908 bound_to 6896
  152.4399  134.5618  159.9948 H   0  0  0  0  0  0  0  0  0  0  0  0  # atno 6909 bound_to 6896
  144.8055  139.7004  143.6164 H   0  0  0  0  0  0  0  0  0  0  0  0  # atno 7974 bound_to 7965
  154.4976  140.2141  155.9415 H   0  0  0  0  0  0  0  0  0  0  0  0  # atno 8008 bound_to 7997
  156.1390  140.3183  155.8434 H   0  0  0  0  0  0  0  0  0  0  0  0  # atno 8009 bound_to 7997
  155.4155  140.0493  157.3020 H   0  0  0  0  0  0  0  0  0  0  0  0  # atno 8010 bound_to 7997
  140.6821  143.2835  151.3771 H   0  0  0  0  0  0  0  0  0  0  0  0  # atno 10167 bound_to 10162
  156.5296  130.8515  151.2711 H   0  0  0  0  0  0  0  0  0  0  0  0  # atno 10718 bound_to 10713
  153.0329  135.5182  154.7405 H   0  0  0  0  0  0  0  0  0  0  0  0  # atno 10763 bound_to 10752
  154.6406  135.2912  155.0110 H   0  0  0  0  0  0  0  0  0  0  0  0  # atno 10764 bound_to 10752
  154.1029  135.6633  153.4924 H   0  0  0  0  0  0  0  0  0  0  0  0  # atno 10765 bound_to 10752
  141.0185  133.6874  156.2341 H   0  0  0  0  0  0  0  0  0  0  0  0  # atno 11005 bound_to 11000
  146.2345  139.5878  142.9533 LP  0  0  0  0  0  0  0  0  0  0  0  0  # atno 17320 bound_to 7965
  145.5449  141.0418  143.2310 LP  0  0  0  0  0  0  0  0  0  0  0  0  # atno 17321 bound_to 7965
  139.6151  144.1020  152.2337 LP  0  0  0  0  0  0  0  0  0  0  0  0  # atno 17342 bound_to 10162
  140.0447  144.5980  150.7383 LP  0  0  0  0  0  0  0  0  0  0  0  0  # atno 17343 bound_to 10162
  157.7424  130.9889  150.2512 LP  0  0  0  0  0  0  0  0  0  0  0  0  # atno 17370 bound_to 10713
  156.3072  130.3766  149.7695 LP  0  0  0  0  0  0  0  0  0  0  0  0  # atno 17371 bound_to 10713
  140.6614  134.4964  157.5583 LP  0  0  0  0  0  0  0  0  0  0  0  0  # atno 17394 bound_to 11000
  139.9131  134.8302  156.1457 LP  0  0  0  0  0  0  0  0  0  0  0  0  # atno 17395 bound_to 11000

$$$$
