#       Name:                AV-unprocessed.smi:1
#       Creating user name   scv26
#       Creation time:       Thu Mar 26 15:11:06 2020


#       File generated by GOLD software.
#

@<TRIPOS>MOLECULE
AV-unprocessed.smi:1
    66    71     1
SMALL
NO_CHARGES


@<TRIPOS>ATOM
      1 ****        -5.6920   1.8834  -0.4199 O.2            1 S1                 0.0000
      2 ****        -5.8306   0.7318   0.0015 C.2            1 S1                 0.0000
      3 ****        -4.8575  -0.2250   0.2579 N.2            1 S1                 0.0000
      4 ****        -3.6012   0.0656   0.1060 C.2            1 S1                 0.0000
      5 ****        -2.9407   1.2368  -0.2875 N.pl3          1 S1                 0.0000
      6 ****        -1.5509   1.4016  -0.3933 C.2            1 S1                 0.0000
      7 ****        -0.6675   0.4736  -0.1392 N.2            1 S1                 0.0000
      8 ****        -1.2717  -0.7133   0.2531 C.2            1 S1                 0.0000
      9 ****        -2.6133  -0.9963   0.3938 C.2            1 S1                 0.0000
     10 ****        -2.8019  -2.3104   0.8097 N.2            1 S1                 0.0000
     11 ****        -1.5559  -2.7669   0.9059 C.2            1 S1                 0.0000
     12 ****        -0.5925  -1.8816   0.5919 N.pl3          1 S1                 0.0000
     13 ****         0.8788  -2.1252   0.6250 C.3            1 S1                 0.0000
     14 ****         1.4882  -1.0896   1.3263 O.3            1 S1                 0.0000
     15 ****         2.7769  -0.8140   0.7803 C.3            1 S1                 0.0000
     16 ****         2.8559   0.6915   0.4983 C.3            1 S1                 0.0000
     17 ****         4.1954   1.0452   0.1956 O.3            1 S1                 0.0000
     18 ****         4.5049   2.3219  -0.1023 C.2            1 S1                 0.0000
     19 ****         3.6763   3.2342  -0.1373 O.2            1 S1                 0.0000
     20 ****         5.9572   2.5166  -0.3810 C.ar           1 S1                 0.0000
     21 ****         6.4420   3.8166  -0.6563 C.ar           1 S1                 0.0000
     22 ****         7.8088   4.0320  -0.9191 C.ar           1 S1                 0.0000
     23 ****         8.7077   2.9496  -0.9113 C.ar           1 S1                 0.0000
     24 ****         8.2377   1.6512  -0.6407 C.ar           1 S1                 0.0000
     25 ****         6.8712   1.4340  -0.3769 C.ar           1 S1                 0.0000
     26 ****         2.9081  -1.6750  -0.4843 C.3            1 S1                 0.0000
     27 ****         3.6882  -2.8268  -0.2111 O.3            1 S1                 0.0000
     28 ****         2.9576  -4.1451  -0.9318 S.o2           1 S1                 0.0000
     29 ****         3.6765  -4.4473  -2.1789 O.2            1 S1                 0.0000
     30 ****         2.7091  -5.1580   0.1054 O.2            1 S1                 0.0000
     31 ****         1.5000  -3.4303  -1.3293 O.3            1 S1                 0.0000
     32 ****         1.4757  -2.1244  -0.7807 C.3            1 S1                 0.0000
     33 ****        -7.2144   0.2605   0.3086 C.ar           1 S1                 0.0000
     34 ****        -7.7755   0.4969   1.5814 C.ar           1 S1                 0.0000
     35 ****        -9.0762   0.0428   1.8752 C.ar           1 S1                 0.0000
     36 ****        -9.8181  -0.6498   0.8988 C.ar           1 S1                 0.0000
     37 ****        -9.2596  -0.8886  -0.3720 C.ar           1 S1                 0.0000
     38 ****        -7.9589  -0.4355  -0.6671 C.ar           1 S1                 0.0000
     39 ****        -1.2455   2.3983  -0.7151 H              1 S1                 0.0000
     40 ****        -1.3369  -3.7783   1.2156 H              1 S1                 0.0000
     41 ****         1.0158  -3.0664   1.1597 H              1 S1                 0.0000
     42 ****         3.5337  -1.0891   1.5165 H              1 S1                 0.0000
     43 ****         2.1922   0.9626  -0.3241 H              1 S1                 0.0000
     44 ****         2.5322   1.2489   1.3784 H              1 S1                 0.0000
     45 ****         5.7709   4.6634  -0.6667 H              1 S1                 0.0000
     46 ****         8.1677   5.0294  -1.1262 H              1 S1                 0.0000
     47 ****         9.7557   3.1153  -1.1129 H              1 S1                 0.0000
     48 ****         8.9265   0.8193  -0.6346 H              1 S1                 0.0000
     49 ****         6.5438   0.4248  -0.1737 H              1 S1                 0.0000
     50 ****         3.3548  -1.1414  -1.3242 H              1 S1                 0.0000
     51 ****         0.9615  -1.4105  -1.4247 H              1 S1                 0.0000
     52 ****        -7.2117   1.0261   2.3362 H              1 S1                 0.0000
     53 ****        -9.5039   0.2240   2.8501 H              1 S1                 0.0000
     54 ****       -10.8149  -0.9988   1.1249 H              1 S1                 0.0000
     55 ****        -9.8286  -1.4203  -1.1202 H              1 S1                 0.0000
     56 ****        -7.5358  -0.6253  -1.6430 H              1 S1                 0.0000
     57 ****        -3.5180   2.0349  -0.5115 H              1 S1                 0.0000
     58 ****        -4.7781   2.2347  -0.6235 LP             1 S1                 0.0000
     59 ****        -6.4935   2.4652  -0.5577 LP             1 S1                 0.0000
     60 ****        -5.1248  -1.1399   0.5602 LP             1 S1                 0.0000
     61 ****         0.3212   0.6020  -0.2175 LP             1 S1                 0.0000
     62 ****        -3.6595  -2.7916   0.9910 LP             1 S1                 0.0000
     63 ****         1.5860  -1.3536   2.2859 LP             1 S1                 0.0000
     64 ****         0.9204  -0.2689   1.2625 LP             1 S1                 0.0000
     65 ****         2.7150   3.0444   0.0621 LP             1 S1                 0.0000
     66 ****         3.9657   4.1640  -0.3651 LP             1 S1                 0.0000
@<TRIPOS>BOND
    1    1    2 2     
    2    2    3 1     
    3    2   33 1     
    4    3    4 2     
    5    4    9 1     
    6    4    5 1     
    7    5    6 1     
    8    5   57 1     
    9    6    7 2     
   10    6   39 1     
   11    7    8 1     
   12    8   12 1     
   13    8    9 2     
   14    9   10 1     
   15   10   11 2     
   16   11   12 1     
   17   11   40 1     
   18   12   13 1     
   19   13   32 1     
   20   13   14 1     
   21   13   41 1     
   22   14   15 1     
   23   15   16 1     
   24   15   26 1     
   25   15   42 1     
   26   16   17 1     
   27   16   43 1     
   28   16   44 1     
   29   17   18 1     
   30   18   19 2     
   31   18   20 1     
   32   20   25 ar    
   33   20   21 ar    
   34   21   22 ar    
   35   21   45 1     
   36   22   23 ar    
   37   22   46 1     
   38   23   24 ar    
   39   23   47 1     
   40   24   25 ar    
   41   24   48 1     
   42   25   49 1     
   43   26   32 1     
   44   26   27 1     
   45   26   50 1     
   46   27   28 1     
   47   28   29 2     
   48   28   30 2     
   49   28   31 1     
   50   31   32 1     
   51   32   51 1     
   52   33   38 ar    
   53   33   34 ar    
   54   34   35 ar    
   55   34   52 1     
   56   35   36 ar    
   57   35   53 1     
   58   36   37 ar    
   59   36   54 1     
   60   37   38 ar    
   61   37   55 1     
   62   38   56 1     
   63    1   58 1     
   64    1   59 1     
   65    3   60 1     
   66    7   61 1     
   67   10   62 1     
   68   14   63 1     
   69   14   64 1     
   70   19   65 1     
   71   19   66 1     
@<TRIPOS>SUBSTRUCTURE
      1 S1             1
@<TRIPOS>SET
LONE_PAIRS      STATIC     ATOMS    <user>   **** ""
11 58 59 60 61 62 63 64 65 66 29 30
DONOR_HYDROGENS      STATIC     ATOMS    <user>   **** ""
1 57
ATOM$BLUE        STATIC     ATOMS    COLORGROUP SYSTEM
11 58 59 60 61 62 63 64 65 66 29 30
ATOM$RED        STATIC     ATOMS    COLORGROUP SYSTEM
1 57
