AV-unprocessed.smi:2485|AV-procd|sdf|9788|dock1
  -GOLD-   2272013423D 1   1.00000     0.00000
 Structure written by MMmdl.
 39 40  0  0  0  0  0  0  0  0  1 V2000
  148.9999  141.1124  154.1366 C   0  0  0  0  0  0  0  0  0  0  0  0
  147.5868  140.5111  154.1023 C   0  0  0  0  0  0  0  0  0  0  0  0
  146.5179  141.6173  154.1031 C   0  0  0  0  0  0  0  0  0  0  0  0
  147.4011  139.5318  152.9370 C   0  0  0  0  0  0  0  0  0  0  0  0
  146.4851  138.4735  153.5182 C   0  0  1  0  0  0  0  0  0  0  0  0
  146.6153  137.2028  152.8081 N   0  0  0  0  0  0  0  0  0  0  0  0
  145.5946  136.4207  152.4308 C   0  0  0  0  0  0  0  0  0  0  0  0
  144.4122  136.7055  152.6217 O   0  0  0  0  0  0  0  0  0  0  0  0
  146.0379  135.3033  151.8301 N   0  0  0  0  0  0  0  0  0  0  0  0
  145.2730  134.2233  151.3170 C   0  0  0  0  0  0  0  0  0  0  0  0
  145.9831  133.3128  150.5060 C   0  0  0  0  0  0  0  0  0  0  0  0
  145.2871  132.2180  149.9659 C   0  0  0  0  0  0  0  0  0  0  0  0
  143.9210  132.1073  150.2766 C   0  0  0  0  0  0  0  0  0  0  0  0
  143.2810  133.0030  151.0590 N   0  0  0  0  0  0  0  0  0  0  0  0
  143.9499  134.0433  151.5688 N   0  0  0  0  0  0  0  0  0  0  0  0
  146.9380  138.4153  154.9939 C   0  0  0  0  0  0  0  0  0  0  0  0
  145.7763  138.0986  155.9490 C   0  0  0  0  0  0  0  0  0  0  0  0
  148.1318  137.4730  155.2561 C   0  0  0  0  0  0  0  0  0  0  0  0
  147.3953  139.7355  155.2845 O   0  0  0  0  0  0  0  0  0  0  0  0
  149.1988  141.7025  153.2416 H   0  0  0  0  0  0  0  0  0  0  0  0
  149.7603  140.3331  154.1980 H   0  0  0  0  0  0  0  0  0  0  0  0
  149.1294  141.7640  155.0013 H   0  0  0  0  0  0  0  0  0  0  0  0
  146.5946  142.2413  153.2124 H   0  0  0  0  0  0  0  0  0  0  0  0
  146.6265  142.2667  154.9723 H   0  0  0  0  0  0  0  0  0  0  0  0
  145.5105  141.2015  154.1308 H   0  0  0  0  0  0  0  0  0  0  0  0
  146.9923  140.0015  152.0416 H   0  0  0  0  0  0  0  0  0  0  0  0
  148.3582  139.0852  152.6622 H   0  0  0  0  0  0  0  0  0  0  0  0
  145.4596  138.8421  153.4532 H   0  0  0  0  0  0  0  0  0  0  0  0
  147.5540  136.8894  152.6095 H   0  0  0  0  0  0  0  0  0  0  0  0
  147.0385  135.2102  151.7373 H   0  0  0  0  0  0  0  0  0  0  0  0
  147.0348  133.4479  150.3004 H   0  0  0  0  0  0  0  0  0  0  0  0
  145.7812  131.4916  149.3378 H   0  0  0  0  0  0  0  0  0  0  0  0
  143.3315  131.2883  149.8923 H   0  0  0  0  0  0  0  0  0  0  0  0
  145.3827  137.0969  155.7764 H   0  0  0  0  0  0  0  0  0  0  0  0
  144.9557  138.8052  155.8217 H   0  0  0  0  0  0  0  0  0  0  0  0
  146.0966  138.1527  156.9897 H   0  0  0  0  0  0  0  0  0  0  0  0
  147.8604  136.4280  155.1043 H   0  0  0  0  0  0  0  0  0  0  0  0
  148.4846  137.5696  156.2834 H   0  0  0  0  0  0  0  0  0  0  0  0
  148.9735  137.6980  154.6011 H   0  0  0  0  0  0  0  0  0  0  0  0
  1  2  1  0  0  0  0
  1 20  1  0  0  0  0
  1 21  1  0  0  0  0
  1 22  1  0  0  0  0
  2 19  1  0  0  0  0
  2  3  1  0  0  0  0
  2  4  1  0  0  0  0
  3 23  1  0  0  0  0
  3 24  1  0  0  0  0
  3 25  1  0  0  0  0
  4  5  1  0  0  0  0
  4 26  1  0  0  0  0
  4 27  1  0  0  0  0
  5  6  1  0  0  0  0
  5 16  1  0  0  0  0
  5 28  1  0  0  0  0
  6  7  1  0  0  0  0
  6 29  1  0  0  0  0
  7  8  2  0  0  0  0
  7  9  1  0  0  0  0
  9 10  1  0  0  0  0
  9 30  1  0  0  0  0
 10 15  1  0  0  0  0
 10 11  2  0  0  0  0
 11 12  1  0  0  0  0
 11 31  1  0  0  0  0
 12 13  2  0  0  0  0
 12 32  1  0  0  0  0
 13 14  1  0  0  0  0
 13 33  1  0  0  0  0
 14 15  2  0  0  0  0
 16 17  1  0  0  0  0
 16 18  1  0  0  0  0
 16 19  1  0  0  0  0
 17 34  1  0  0  0  0
 17 35  1  0  0  0  0
 17 36  1  0  0  0  0
 18 37  1  0  0  0  0
 18 38  1  0  0  0  0
 18 39  1  0  0  0  0
M  END
> <s_m_source_file>
AV-unprocessed.smi

> <i_m_source_file_index>
2485

> <i_lp_mmshare_version>
43012

> <i_f3d_flags>
0

> <s_epik_input>
W0NIM11DMShbQ0gzXSlbQ0gyXVtDQEhdKEMoTzEpKFtDSDNdKVtDSDNdKVtOSF1DKD1PKVtOSF1jMltjSF1bY0hdW2NIXW5uMg==

> <s_epik_cmdline>
J2VwaWtfcHl0aG9uJywgJy1waCcsICc3LjAnLCAnLXRuJywgJzgnLCAnLW1hJywgJzIwMCcsICctbWV0YWxfYmluZGluZycsICctaW1hZScsICc8aW5maWxlLm1hZT4nLCAnLW9tYWUnLCAnPG91dGZpbGUubWFlPic=

> <r_lp_tautomer_probability>
1

> <r_epik_Ionization_Penalty>
0.00480341

> <r_epik_Ionization_Penalty_Charging>
0

> <r_epik_Ionization_Penalty_Neutral>
0.00480341

> <r_epik_State_Penalty>
-0

> <r_epik_Charging_Adjusted_Penalty>
0

> <i_epik_Tot_Q>
0

> <i_epik_Tot_abs_Q>
0

> <r_epik_Metal_State_Penalty>
-0

> <b_epik_Metal_Only>
0

> <s_lp_Force_Field>
OPLS_2005

> <r_lp_Energy>
24.1228

> <b_lp_Chiralities_Consistent>
1

> <s_lp_Variant>
AV-unprocessed.smi:2485-1

> <Gold.Version>
5.8.1

> <Gold.Id.Protein>
6NUR|6NUR_protein|mol2

> <Gold.PLP.Fitness>
32.2425

> <Gold.PLP.PLP>
-25.7208

> <Gold.PLP.part.hbond>
-2.0000

> <Gold.PLP.part.metal>
0.0000

> <Gold.PLP.part.buried>
-2.1148

> <Gold.PLP.part.nonpolar>
-22.0835

> <Gold.PLP.part.repulsive>
0.8213

> <Gold.PLP.ligand.clash>
0.0000

> <Gold.PLP.ligand.torsion>
0.2004

> <Gold.PLP.Chemscore.Hbond>
1.7210

> <Gold.PLP.Chemscore.CHOScore>
0.5826

> <Gold.PLP.Chemscore.Metal>
0.0000

> <Gold.Chemscore.Hbonds>
donor molecule, donor type, donor heavy atom, donor atom, acceptor molecule, acceptor atom, score
      L1  H     6    29       P1  7948  1.00
      L1  H     9    30       P1  7948  0.69
      L1  C    13    33       P1 10952  0.57

> <Gold.PLP.Chemscore.Internal.Correction>
0.0118

> <Gold.Rescore>
     Score         DG    S(hbond)    S(metal)    S(lipo)     H(rot)  DE(clash)    DE(int)     intcor
     15.18     -16.76       1.88        0.00      64.51       1.00       0.24       1.34       ----

> <Gold.Chemscore.Fitness>
15.1805

> <Gold.Chemscore.DG>
-16.7607

> <Gold.Chemscore.ZeroCoef>
-5.4800

> <Gold.Chemscore.Hbond>
1.8840

> <Gold.Chemscore.Metal>
0.0000

> <Gold.Chemscore.Lipo>
64.5144

> <Gold.Chemscore.Internal_Hbond>
0.0000

> <Gold.Chemscore.DEClash>
0.2381

> <Gold.Chemscore.DEInternal>
1.3421

> <Gold.Chemscore.Rot>
1.0000

> <Gold.Chemscore.Internal.Correction>
   9.000000E+99

> <Gold.Chemscore.Hbonds>
donor molecule, donor type, donor heavy atom, donor atom, acceptor molecule, acceptor atom, score
      L1  H     6    29       P1  7948  1.00
      L1  H     9    30       P1  7948  0.66

> <Gold.Chemscore.Hbond.Weighted>
-6.2925

> <Gold.Chemscore.Metal.Weighted>
-0.0000

> <Gold.Chemscore.Lipo.Weighted>
-7.5482

> <Gold.Chemscore.Internal_Hbond.Weighted>
0.0000

> <Gold.Chemscore.DEClash.Weighted>
0.2381

> <Gold.Chemscore.DEInternal.Weighted>
1.3421

> <Gold.Chemscore.Rot.Weighted>
2.5600

> <Gold.Chemscore.Internal.Correction.Weighted>
   9.000000E+99

> <Gold.Protein.RotatedTorsions>
[ 6907 6896 6895 6894 ] final   38.35 input  -60.11 | X-H torsion
[ 7974 7965 7964 7962 ] final  130.22 input  175.53 | X-H torsion
[ 8008 7997 7996 7995 ] final  114.79 input   59.86 | X-H torsion
[ 10167 10162 10161 10158 ] final  152.85 input  -65.29 | X-H torsion
[ 10718 10713 10712 10709 ] final  -25.90 input   66.30 | X-H torsion
[ 10763 10752 10751 10750 ] final -153.45 input  -60.55 | X-H torsion
[ 11005 11000 10999 10996 ] final   26.30 input  -57.11 | X-H torsion

> <Gold.Protein.ActiveResidues>
 VAL166  LYS551  ARG553  GLY616  TRP617  ASP618  TYR619  PRO620  LYS621  CYS622 
 ASP623  PHE694  ASN695  SER759  ASP760  ASP761  ALA762  ILE779  LEU786  VAL792 
 PHE793  MET794  SER795  GLU796  ALA797  LYS798  CYS799  TRP800  GLU811  SER814 

> <Gold.Protein.RotatedAtoms>
  152.1553  134.8955  160.0545 H   0  0  0  0  0  0  0  0  0  0  0  0  # atno 6907 bound_to 6896
  151.9971  133.3807  159.4175 H   0  0  0  0  0  0  0  0  0  0  0  0  # atno 6908 bound_to 6896
  150.6881  134.3796  159.5072 H   0  0  0  0  0  0  0  0  0  0  0  0  # atno 6909 bound_to 6896
  145.0202  139.4139  143.5201 H   0  0  0  0  0  0  0  0  0  0  0  0  # atno 7974 bound_to 7965
  156.2343  140.2952  156.0270 H   0  0  0  0  0  0  0  0  0  0  0  0  # atno 8008 bound_to 7997
  155.2137  140.0413  157.2954 H   0  0  0  0  0  0  0  0  0  0  0  0  # atno 8009 bound_to 7997
  154.6050  140.2437  155.7750 H   0  0  0  0  0  0  0  0  0  0  0  0  # atno 8010 bound_to 7997
  139.4830  144.5323  151.7703 H   0  0  0  0  0  0  0  0  0  0  0  0  # atno 10167 bound_to 10162
  156.4583  130.4498  149.6945 H   0  0  0  0  0  0  0  0  0  0  0  0  # atno 10718 bound_to 10713
  154.7927  135.3212  154.7740 H   0  0  0  0  0  0  0  0  0  0  0  0  # atno 10763 bound_to 10752
  153.8426  135.6869  153.4805 H   0  0  0  0  0  0  0  0  0  0  0  0  # atno 10764 bound_to 10752
  153.1604  135.4663  154.9704 H   0  0  0  0  0  0  0  0  0  0  0  0  # atno 10765 bound_to 10752
  140.3386  134.2358  155.7693 H   0  0  0  0  0  0  0  0  0  0  0  0  # atno 11005 bound_to 11000
  146.3484  139.9695  142.8708 LP  0  0  0  0  0  0  0  0  0  0  0  0  # atno 17320 bound_to 7965
  145.1906  140.9809  143.4213 LP  0  0  0  0  0  0  0  0  0  0  0  0  # atno 17321 bound_to 7965
  140.4851  144.1393  150.5939 LP  0  0  0  0  0  0  0  0  0  0  0  0  # atno 17342 bound_to 10162
  140.4234  143.2601  151.9686 LP  0  0  0  0  0  0  0  0  0  0  0  0  # atno 17343 bound_to 10162
  156.3743  130.7546  151.2533 LP  0  0  0  0  0  0  0  0  0  0  0  0  # atno 17370 bound_to 10713
  157.7499  131.0314  150.4180 LP  0  0  0  0  0  0  0  0  0  0  0  0  # atno 17371 bound_to 10713
  141.2045  133.7886  157.0285 LP  0  0  0  0  0  0  0  0  0  0  0  0  # atno 17394 bound_to 11000
  140.0800  134.9653  157.1609 LP  0  0  0  0  0  0  0  0  0  0  0  0  # atno 17395 bound_to 11000

$$$$
