AV-unprocessed.smi:3337|AV-procd|sdf|12866|dock5
  -GOLD-   2272019263D 1   1.00000     0.00000
 Structure written by MMmdl.
 46 47  0  0  0  0  0  0  0  0  2 V2000
  143.1482  137.2798  152.5363 C   0  0  0  0  0  0  0  0  0  0  0  0
  144.0486  136.0390  152.6169 C   0  0  1  0  0  0  0  0  0  0  0  0
  143.4636  134.8697  151.8051 C   0  0  0  0  0  0  0  0  0  0  0  0
  144.3951  133.6456  151.8478 C   0  0  1  0  0  0  0  0  0  0  0  0
  143.8321  132.4838  151.0174 C   0  0  0  0  0  0  0  0  0  0  0  0
  145.8101  134.0420  151.3751 C   0  0  0  0  0  0  0  0  0  0  0  0
  146.3731  135.1620  152.1742 N   0  3  2  0  0  0  0  0  0  0  0  0
  146.8269  134.7473  153.5290 C   0  0  0  0  0  0  0  0  0  0  0  0
  146.8807  135.9201  154.5263 C   0  0  0  0  0  0  0  0  0  0  0  0
  147.7976  136.9581  154.0712 N   0  0  0  0  0  0  0  0  0  0  0  0
  148.2252  137.9887  154.8187 C   0  0  0  0  0  0  0  0  0  0  0  0
  147.8665  138.1586  155.9845 O   0  0  0  0  0  0  0  0  0  0  0  0
  149.1859  138.9781  154.1358 C   0  0  1  0  0  0  0  0  0  0  0  0
  148.8179  140.4530  154.3978 C   0  0  0  0  0  0  0  0  0  0  0  0
  150.5684  138.6907  154.5000 N   0  0  0  0  0  0  0  0  0  0  0  0
  151.2644  137.5560  154.3996 C   0  0  0  0  0  0  0  0  0  0  0  0
  152.5020  137.6401  154.8663 N   0  0  0  0  0  0  0  0  0  0  0  0
  152.5036  138.9436  155.2750 C   0  0  0  0  0  0  0  0  0  0  0  0
  151.3670  139.6147  155.0902 N   0  0  0  0  0  0  0  0  0  0  0  0
  145.4841  136.3560  152.1431 C   0  0  0  0  0  0  0  0  0  0  0  0
  143.0606  137.6414  151.5111 H   0  0  0  0  0  0  0  0  0  0  0  0
  143.5454  138.0939  153.1434 H   0  0  0  0  0  0  0  0  0  0  0  0
  142.1434  137.0603  152.8982 H   0  0  0  0  0  0  0  0  0  0  0  0
  144.0837  135.7404  153.6648 H   0  0  0  0  0  0  0  0  0  0  0  0
  142.4804  134.6026  152.1945 H   0  0  0  0  0  0  0  0  0  0  0  0
  143.3126  135.1800  150.7701 H   0  0  0  0  0  0  0  0  0  0  0  0
  144.4571  133.3009  152.8809 H   0  0  0  0  0  0  0  0  0  0  0  0
  143.7393  132.7548  149.9651 H   0  0  0  0  0  0  0  0  0  0  0  0
  142.8444  132.1895  151.3738 H   0  0  0  0  0  0  0  0  0  0  0  0
  144.4781  131.6075  151.0802 H   0  0  0  0  0  0  0  0  0  0  0  0
  146.4826  133.1839  151.4086 H   0  0  0  0  0  0  0  0  0  0  0  0
  145.7729  134.3528  150.3300 H   0  0  0  0  0  0  0  0  0  0  0  0
  146.1990  133.9466  153.9188 H   0  0  0  0  0  0  0  0  0  0  0  0
  147.8304  134.3285  153.4424 H   0  0  0  0  0  0  0  0  0  0  0  0
  145.8849  136.3394  154.6816 H   0  0  0  0  0  0  0  0  0  0  0  0
  147.2345  135.5877  155.5013 H   0  0  0  0  0  0  0  0  0  0  0  0
  148.1371  136.8860  153.1228 H   0  0  0  0  0  0  0  0  0  0  0  0
  149.0975  138.8108  153.0612 H   0  0  0  0  0  0  0  0  0  0  0  0
  147.8054  140.6733  154.0577 H   0  0  0  0  0  0  0  0  0  0  0  0
  149.4925  141.1227  153.8639 H   0  0  0  0  0  0  0  0  0  0  0  0
  148.8732  140.7056  155.4577 H   0  0  0  0  0  0  0  0  0  0  0  0
  150.8561  136.6481  153.9801 H   0  0  0  0  0  0  0  0  0  0  0  0
  153.3661  139.4100  155.7281 H   0  0  0  0  0  0  0  0  0  0  0  0
  145.4506  136.7191  151.1149 H   0  0  0  0  0  0  0  0  0  0  0  0
  145.9085  137.1711  152.7277 H   0  0  0  0  0  0  0  0  0  0  0  0
  147.2189  135.4323  151.6923 H   0  0  0  0  0  0  0  0  0  0  0  0
  1  2  1  0  0  0  0
  1 21  1  0  0  0  0
  1 22  1  0  0  0  0
  1 23  1  0  0  0  0
  2 20  1  0  0  0  0
  2  3  1  0  0  0  0
  2 24  1  0  0  0  0
  3  4  1  0  0  0  0
  3 25  1  0  0  0  0
  3 26  1  0  0  0  0
  4  5  1  0  0  0  0
  4  6  1  0  0  0  0
  4 27  1  0  0  0  0
  5 28  1  0  0  0  0
  5 29  1  0  0  0  0
  5 30  1  0  0  0  0
  6  7  1  0  0  0  0
  6 31  1  0  0  0  0
  6 32  1  0  0  0  0
  7  8  1  0  0  0  0
  7 20  1  0  0  0  0
  7 46  1  0  0  0  0
  8  9  1  0  0  0  0
  8 33  1  0  0  0  0
  8 34  1  0  0  0  0
  9 10  1  0  0  0  0
  9 35  1  0  0  0  0
  9 36  1  0  0  0  0
 10 11  1  0  0  0  0
 10 37  1  0  0  0  0
 11 12  2  0  0  0  0
 11 13  1  0  0  0  0
 13 14  1  0  0  0  0
 13 15  1  0  0  0  0
 13 38  1  0  0  0  0
 14 39  1  0  0  0  0
 14 40  1  0  0  0  0
 14 41  1  0  0  0  0
 15 19  1  0  0  0  0
 15 16  1  0  0  0  0
 16 17  2  0  0  0  0
 16 42  1  0  0  0  0
 17 18  1  0  0  0  0
 18 19  2  0  0  0  0
 18 43  1  0  0  0  0
 20 44  1  0  0  0  0
 20 45  1  0  0  0  0
M  CHG  1   7   1
M  END
> <s_m_source_file>
AV-unprocessed.smi

> <i_m_source_file_index>
3337

> <i_lp_mmshare_version>
43012

> <i_f3d_flags>
0

> <s_epik_input>
W0NIM11bQ0BASF0xW0NIMl1bQ0BASF0oW0NIM10pW0NIMl1OKFtDSDJdMSlbQ0gyXVtDSDJdW05IXUMoPU8pW0NASF0oW0NIM10pbjJbY0hdbltjSF1uMg==

> <s_epik_cmdline>
J2VwaWtfcHl0aG9uJywgJy1waCcsICc3LjAnLCAnLXRuJywgJzgnLCAnLW1hJywgJzIwMCcsICctbWV0YWxfYmluZGluZycsICctaW1hZScsICc8aW5maWxlLm1hZT4nLCAnLW9tYWUnLCAnPG91dGZpbGUubWFlPic=

> <r_lp_tautomer_probability>
1

> <r_epik_Ionization_Penalty>
0.00175613

> <r_epik_Ionization_Penalty_Charging>
0.00174812

> <r_epik_Ionization_Penalty_Neutral>
8.01354e-06

> <r_epik_State_Penalty>
0.00118332

> <r_epik_Charging_Adjusted_Penalty>
0.00293143

> <i_epik_Tot_Q>
1

> <i_epik_Tot_abs_Q>
1

> <r_epik_Metal_State_Penalty>
-0

> <b_epik_Metal_Only>
0

> <s_lp_Force_Field>
OPLS_2005

> <r_lp_Energy>
23.9818

> <b_lp_Chiralities_Consistent>
1

> <s_lp_Variant>
AV-unprocessed.smi:3337-6

> <Gold.Version>
5.8.1

> <Gold.Id.Protein>
6NUR|6NUR_protein|mol2

> <Gold.PLP.Fitness>
48.3546

> <Gold.PLP.PLP>
-34.7887

> <Gold.PLP.part.hbond>
-3.9485

> <Gold.PLP.part.metal>
0.0000

> <Gold.PLP.part.buried>
-2.8459

> <Gold.PLP.part.nonpolar>
-28.2797

> <Gold.PLP.part.repulsive>
0.1535

> <Gold.PLP.ligand.clash>
0.0000

> <Gold.PLP.ligand.torsion>
0.9102

> <Gold.PLP.Chemscore.Hbond>
4.1283

> <Gold.PLP.Chemscore.CHOScore>
0.9511

> <Gold.PLP.Chemscore.Metal>
0.0000

> <Gold.Chemscore.Hbonds>
donor molecule, donor type, donor heavy atom, donor atom, acceptor molecule, acceptor atom, score
      L1  H     7    46       P1  7948  1.89
      L1  H    10    37       P1  7948  1.00
      P1  H  7989  7998       L1    19  0.93
      P1  H 10752 10765       L1    17  0.39
      L1  C    16    42       P1  7948  0.09
      L1  C    16    42       P1  7949  0.65

> <Gold.PLP.Chemscore.Internal.Correction>
0.1480

> <Gold.Rescore>
     Score         DG    S(hbond)    S(metal)    S(lipo)     H(rot)  DE(clash)    DE(int)     intcor
     12.26     -13.64       2.51        0.00      53.14       2.51       0.46       0.91       ----

> <Gold.Chemscore.Fitness>
12.2624

> <Gold.Chemscore.DG>
-13.6407

> <Gold.Chemscore.ZeroCoef>
-5.4800

> <Gold.Chemscore.Hbond>
2.5079

> <Gold.Chemscore.Metal>
0.0000

> <Gold.Chemscore.Lipo>
53.1393

> <Gold.Chemscore.Internal_Hbond>
0.0000

> <Gold.Chemscore.DEClash>
0.4645

> <Gold.Chemscore.DEInternal>
0.9138

> <Gold.Chemscore.Rot>
2.5129

> <Gold.Chemscore.Internal.Correction>
   9.000000E+99

> <Gold.Chemscore.Hbonds>
donor molecule, donor type, donor heavy atom, donor atom, acceptor molecule, acceptor atom, score
      L1  H     7    46       P1  7948  0.91
      L1  H    10    37       P1  7948  0.98
      P1  H  7989  7998       L1    19  0.12
      P1  H 10752 10765       L1    17  0.06

> <Gold.Chemscore.Hbond.Weighted>
-8.3765

> <Gold.Chemscore.Metal.Weighted>
-0.0000

> <Gold.Chemscore.Lipo.Weighted>
-6.2173

> <Gold.Chemscore.Internal_Hbond.Weighted>
0.0000

> <Gold.Chemscore.DEClash.Weighted>
0.4645

> <Gold.Chemscore.DEInternal.Weighted>
0.9138

> <Gold.Chemscore.Rot.Weighted>
6.4331

> <Gold.Chemscore.Internal.Correction.Weighted>
   9.000000E+99

> <Gold.Protein.RotatedTorsions>
[ 6907 6896 6895 6894 ] final  162.41 input  -60.11 | X-H torsion
[ 7974 7965 7964 7962 ] final   80.49 input  175.53 | X-H torsion
[ 8008 7997 7996 7995 ] final   45.24 input   59.86 | X-H torsion
[ 10167 10162 10161 10158 ] final -153.20 input  -65.29 | X-H torsion
[ 10718 10713 10712 10709 ] final   50.53 input   66.30 | X-H torsion
[ 10763 10752 10751 10750 ] final  179.06 input  -60.55 | X-H torsion
[ 11005 11000 10999 10996 ] final   60.13 input  -57.11 | X-H torsion

> <Gold.Protein.ActiveResidues>
 VAL166  LYS551  ARG553  GLY616  TRP617  ASP618  TYR619  PRO620  LYS621  CYS622 
 ASP623  PHE694  ASN695  SER759  ASP760  ASP761  ALA762  ILE779  LEU786  VAL792 
 PHE793  MET794  SER795  GLU796  ALA797  LYS798  CYS799  TRP800  GLU811  SER814 

> <Gold.Protein.RotatedAtoms>
  151.9408  133.3637  159.3964 H   0  0  0  0  0  0  0  0  0  0  0  0  # atno 6907 bound_to 6896
  150.6999  134.4441  159.5315 H   0  0  0  0  0  0  0  0  0  0  0  0  # atno 6908 bound_to 6896
  152.2098  134.8512  160.0549 H   0  0  0  0  0  0  0  0  0  0  0  0  # atno 6909 bound_to 6896
  145.6505  139.2446  143.1979 H   0  0  0  0  0  0  0  0  0  0  0  0  # atno 7974 bound_to 7965
  155.3327  140.3403  155.4239 H   0  0  0  0  0  0  0  0  0  0  0  0  # atno 8008 bound_to 7997
  156.1853  140.1678  156.8233 H   0  0  0  0  0  0  0  0  0  0  0  0  # atno 8009 bound_to 7997
  154.5380  140.0731  156.8444 H   0  0  0  0  0  0  0  0  0  0  0  0  # atno 8010 bound_to 7997
  139.7117  143.9098  152.2470 H   0  0  0  0  0  0  0  0  0  0  0  0  # atno 10167 bound_to 10162
  157.4894  130.8366  149.8184 H   0  0  0  0  0  0  0  0  0  0  0  0  # atno 10718 bound_to 10713
  154.5157  135.2791  155.1305 H   0  0  0  0  0  0  0  0  0  0  0  0  # atno 10763 bound_to 10752
  154.2883  135.6272  153.5378 H   0  0  0  0  0  0  0  0  0  0  0  0  # atno 10764 bound_to 10752
  152.9927  135.5668  154.5633 H   0  0  0  0  0  0  0  0  0  0  0  0  # atno 10765 bound_to 10752
  140.0254  134.6091  155.9581 H   0  0  0  0  0  0  0  0  0  0  0  0  # atno 11005 bound_to 11000
  146.1208  140.7312  142.9458 LP  0  0  0  0  0  0  0  0  0  0  0  0  # atno 17320 bound_to 7965
  144.7124  140.4089  143.7070 LP  0  0  0  0  0  0  0  0  0  0  0  0  # atno 17321 bound_to 7965
  139.8969  144.6934  150.8708 LP  0  0  0  0  0  0  0  0  0  0  0  0  # atno 17342 bound_to 10162
  140.7735  143.3543  151.1951 LP  0  0  0  0  0  0  0  0  0  0  0  0  # atno 17343 bound_to 10162
  156.0165  130.3812  150.2096 LP  0  0  0  0  0  0  0  0  0  0  0  0  # atno 17370 bound_to 10713
  157.0284  131.0000  151.3319 LP  0  0  0  0  0  0  0  0  0  0  0  0  # atno 17371 bound_to 10713
  141.1799  133.6545  156.4979 LP  0  0  0  0  0  0  0  0  0  0  0  0  # atno 17394 bound_to 11000
  140.4316  134.7097  157.4945 LP  0  0  0  0  0  0  0  0  0  0  0  0  # atno 17395 bound_to 11000

$$$$
