AV-unprocessed.smi:1390|AV-procd|sdf|5656|dock8
  -GOLD-   22720 5283D 1   1.00000     0.00000
 Structure written by MMmdl.
 44 45  0  0  0  0  0  0  0  0  1 V2000
  153.5347  142.3669  161.3644 C   0  0  0  0  0  0  0  0  0  0  0  0
  152.4151  142.5133  160.3290 C   0  0  2  0  0  0  0  0  0  0  0  0
  152.5896  141.5426  159.1450 C   0  0  0  0  0  0  0  0  0  0  0  0
  151.5534  141.7800  158.1486 N   0  0  0  0  0  0  0  0  0  0  0  0
  151.5705  140.8583  157.0933 C   0  0  0  0  0  0  0  0  0  0  0  0
  150.4482  140.6714  156.2535 C   0  0  0  0  0  0  0  0  0  0  0  0
  150.5305  139.7222  155.2170 C   0  0  0  0  0  0  0  0  0  0  0  0
  151.7228  138.9884  155.0532 C   0  0  0  0  0  0  0  0  0  0  0  0
  151.8391  137.9619  153.9370 C   0  0  0  0  0  0  0  0  0  0  0  0
  150.8185  136.9228  153.9982 N   0  0  0  0  0  0  0  0  0  0  0  0
  150.8098  135.9003  154.8661 C   0  0  0  0  0  0  0  0  0  0  0  0
  151.6988  135.7070  155.6950 O   0  0  0  0  0  0  0  0  0  0  0  0
  149.6258  134.9379  154.7773 C   0  0  0  0  0  0  0  0  0  0  0  0
  150.0693  133.6222  155.0734 O   0  0  0  0  0  0  0  0  0  0  0  0
  149.7127  132.6825  154.0723 C   0  0  0  0  0  0  0  0  0  0  0  0
  150.0399  131.2666  154.5621 C   0  0  0  0  0  0  0  0  0  0  0  0
  151.2864  131.2417  155.0326 F   0  0  0  0  0  0  0  0  0  0  0  0
  149.2063  130.9119  155.5394 F   0  0  0  0  0  0  0  0  0  0  0  0
  149.9452  130.3984  153.5552 F   0  0  0  0  0  0  0  0  0  0  0  0
  152.7907  139.2585  155.9389 C   0  0  0  0  0  0  0  0  0  0  0  0
  152.7194  140.1660  156.9354 N   0  0  0  0  0  0  0  0  0  0  0  0
  151.5068  143.1671  157.7056 C   0  0  0  0  0  0  0  0  0  0  0  0
  151.3676  144.1018  158.9190 C   0  0  0  0  0  0  0  0  0  0  0  0
  152.4283  143.8521  159.8375 O   0  0  0  0  0  0  0  0  0  0  0  0
  153.5518  141.3604  161.7834 H   0  0  0  0  0  0  0  0  0  0  0  0
  153.3967  143.0672  162.1885 H   0  0  0  0  0  0  0  0  0  0  0  0
  154.5112  142.5620  160.9204 H   0  0  0  0  0  0  0  0  0  0  0  0
  151.4596  142.3239  160.8215 H   0  0  0  0  0  0  0  0  0  0  0  0
  153.5737  141.6789  158.6943 H   0  0  0  0  0  0  0  0  0  0  0  0
  152.5337  140.5103  159.4933 H   0  0  0  0  0  0  0  0  0  0  0  0
  149.5410  141.2398  156.3979 H   0  0  0  0  0  0  0  0  0  0  0  0
  149.6878  139.5600  154.5611 H   0  0  0  0  0  0  0  0  0  0  0  0
  151.7671  138.4637  152.9711 H   0  0  0  0  0  0  0  0  0  0  0  0
  152.8336  137.5162  153.9930 H   0  0  0  0  0  0  0  0  0  0  0  0
  150.0492  136.9969  153.3480 H   0  0  0  0  0  0  0  0  0  0  0  0
  148.8587  135.2524  155.4862 H   0  0  0  0  0  0  0  0  0  0  0  0
  149.1944  134.9765  153.7756 H   0  0  0  0  0  0  0  0  0  0  0  0
  148.6474  132.7607  153.8491 H   0  0  0  0  0  0  0  0  0  0  0  0
  150.2571  132.8941  153.1504 H   0  0  0  0  0  0  0  0  0  0  0  0
  153.7329  138.7379  155.8510 H   0  0  0  0  0  0  0  0  0  0  0  0
  152.4158  143.4118  157.1548 H   0  0  0  0  0  0  0  0  0  0  0  0
  150.6670  143.3090  157.0242 H   0  0  0  0  0  0  0  0  0  0  0  0
  151.4117  145.1427  158.5986 H   0  0  0  0  0  0  0  0  0  0  0  0
  150.4046  143.9602  159.4120 H   0  0  0  0  0  0  0  0  0  0  0  0
  1  2  1  0  0  0  0
  1 25  1  0  0  0  0
  1 26  1  0  0  0  0
  1 27  1  0  0  0  0
  2 24  1  0  0  0  0
  2  3  1  0  0  0  0
  2 28  1  0  0  0  0
  3  4  1  0  0  0  0
  3 29  1  0  0  0  0
  3 30  1  0  0  0  0
  4  5  1  0  0  0  0
  4 22  1  0  0  0  0
  5 21  1  0  0  0  0
  5  6  2  0  0  0  0
  6  7  1  0  0  0  0
  6 31  1  0  0  0  0
  7  8  2  0  0  0  0
  7 32  1  0  0  0  0
  8  9  1  0  0  0  0
  8 20  1  0  0  0  0
  9 10  1  0  0  0  0
  9 33  1  0  0  0  0
  9 34  1  0  0  0  0
 10 11  1  0  0  0  0
 10 35  1  0  0  0  0
 11 12  2  0  0  0  0
 11 13  1  0  0  0  0
 13 14  1  0  0  0  0
 13 36  1  0  0  0  0
 13 37  1  0  0  0  0
 14 15  1  0  0  0  0
 15 16  1  0  0  0  0
 15 38  1  0  0  0  0
 15 39  1  0  0  0  0
 16 17  1  0  0  0  0
 16 18  1  0  0  0  0
 16 19  1  0  0  0  0
 20 21  2  0  0  0  0
 20 40  1  0  0  0  0
 22 23  1  0  0  0  0
 22 41  1  0  0  0  0
 22 42  1  0  0  0  0
 23 24  1  0  0  0  0
 23 43  1  0  0  0  0
 23 44  1  0  0  0  0
M  END
> <s_m_source_file>
AV-unprocessed.smi

> <i_m_source_file_index>
1390

> <i_lp_mmshare_version>
43012

> <i_f3d_flags>
0

> <s_epik_input>
W0NIM11bQ0BASF0xW0NIMl1OKFtDSDJdW0NIMl1PMSljMltjSF1bY0hdYyhbY0hdbjIpW0NIMl1bTkhdQyg9TylbQ0gyXU9bQ0gyXUMoRikoRilG

> <s_epik_cmdline>
J2VwaWtfcHl0aG9uJywgJy1waCcsICc3LjAnLCAnLXRuJywgJzgnLCAnLW1hJywgJzIwMCcsICctbWV0YWxfYmluZGluZycsICctaW1hZScsICc8aW5maWxlLm1hZT4nLCAnLW9tYWUnLCAnPG91dGZpbGUubWFlPic=

> <r_lp_tautomer_probability>
1

> <r_epik_Ionization_Penalty>
0.00481831

> <r_epik_Ionization_Penalty_Charging>
0

> <r_epik_Ionization_Penalty_Neutral>
0.00481831

> <r_epik_State_Penalty>
0.00349373

> <r_epik_Charging_Adjusted_Penalty>
0.00349373

> <i_epik_Tot_Q>
0

> <i_epik_Tot_abs_Q>
0

> <r_epik_Metal_State_Penalty>
-0

> <b_epik_Metal_Only>
0

> <s_lp_Force_Field>
OPLS_2005

> <r_lp_Energy>
18.3567

> <b_lp_Chiralities_Consistent>
1

> <s_lp_Variant>
AV-unprocessed.smi:1390-1

> <Gold.Version>
5.8.1

> <Gold.Id.Protein>
6NUR|6NUR_protein|mol2

> <Gold.PLP.Fitness>
49.7793

> <Gold.PLP.PLP>
-45.3651

> <Gold.PLP.part.hbond>
-4.0000

> <Gold.PLP.part.metal>
0.0000

> <Gold.PLP.part.buried>
-2.2947

> <Gold.PLP.part.nonpolar>
-38.2108

> <Gold.PLP.part.repulsive>
0.1899

> <Gold.PLP.ligand.clash>
0.0000

> <Gold.PLP.ligand.torsion>
1.2459

> <Gold.PLP.Chemscore.Hbond>
2.2272

> <Gold.PLP.Chemscore.CHOScore>
0.0000

> <Gold.PLP.Chemscore.Metal>
0.0000

> <Gold.Chemscore.Hbonds>
donor molecule, donor type, donor heavy atom, donor atom, acceptor molecule, acceptor atom, score
      L1  H    10    35       P1  7948  0.88
      P1  H  7997  8008       L1    21  0.17
      P1  H 10752 10764       L1    12  1.00

> <Gold.PLP.Chemscore.Internal.Correction>
0.2244

> <Gold.Rescore>
     Score         DG    S(hbond)    S(metal)    S(lipo)     H(rot)  DE(clash)    DE(int)     intcor
     14.51     -15.80       1.52        0.00     100.82       2.57       0.05       1.24       ----

> <Gold.Chemscore.Fitness>
14.5111

> <Gold.Chemscore.DG>
-15.7999

> <Gold.Chemscore.ZeroCoef>
-5.4800

> <Gold.Chemscore.Hbond>
1.5248

> <Gold.Chemscore.Metal>
0.0000

> <Gold.Chemscore.Lipo>
100.8151

> <Gold.Chemscore.Internal_Hbond>
0.0000

> <Gold.Chemscore.DEClash>
0.0512

> <Gold.Chemscore.DEInternal>
1.2376

> <Gold.Chemscore.Rot>
2.5657

> <Gold.Chemscore.Internal.Correction>
   9.000000E+99

> <Gold.Chemscore.Hbonds>
donor molecule, donor type, donor heavy atom, donor atom, acceptor molecule, acceptor atom, score
      L1  H    10    35       P1  7948  0.17
      P1  H 10752 10764       L1    12  0.86

> <Gold.Chemscore.Hbond.Weighted>
-5.0927

> <Gold.Chemscore.Metal.Weighted>
-0.0000

> <Gold.Chemscore.Lipo.Weighted>
-11.7954

> <Gold.Chemscore.Internal_Hbond.Weighted>
0.0000

> <Gold.Chemscore.DEClash.Weighted>
0.0512

> <Gold.Chemscore.DEInternal.Weighted>
1.2376

> <Gold.Chemscore.Rot.Weighted>
6.5682

> <Gold.Chemscore.Internal.Correction.Weighted>
   9.000000E+99

> <Gold.Protein.RotatedTorsions>
[ 6907 6896 6895 6894 ] final  161.68 input  -60.11 | X-H torsion
[ 7974 7965 7964 7962 ] final   -7.20 input  175.53 | X-H torsion
[ 8008 7997 7996 7995 ] final  -82.47 input   59.86 | X-H torsion
[ 10167 10162 10161 10158 ] final -162.16 input  -65.29 | X-H torsion
[ 10718 10713 10712 10709 ] final   60.82 input   66.30 | X-H torsion
[ 10763 10752 10751 10750 ] final  -28.55 input  -60.55 | X-H torsion
[ 11005 11000 10999 10996 ] final -121.80 input  -57.11 | X-H torsion

> <Gold.Protein.ActiveResidues>
 VAL166  LYS551  ARG553  GLY616  TRP617  ASP618  TYR619  PRO620  LYS621  CYS622 
 ASP623  PHE694  ASN695  SER759  ASP760  ASP761  ALA762  ILE779  LEU786  VAL792 
 PHE793  MET794  SER795  GLU796  ALA797  LYS798  CYS799  TRP800  GLU811  SER814 

> <Gold.Protein.RotatedAtoms>
  151.9519  133.3668  159.4002 H   0  0  0  0  0  0  0  0  0  0  0  0  # atno 6907 bound_to 6896
  150.6979  134.4331  159.5267 H   0  0  0  0  0  0  0  0  0  0  0  0  # atno 6908 bound_to 6896
  152.2005  134.8591  160.0559 H   0  0  0  0  0  0  0  0  0  0  0  0  # atno 6909 bound_to 6896
  146.2312  140.2284  142.8339 H   0  0  0  0  0  0  0  0  0  0  0  0  # atno 7974 bound_to 7965
  154.6089  140.0632  156.9468 H   0  0  0  0  0  0  0  0  0  0  0  0  # atno 8008 bound_to 7997
  155.2006  140.3314  155.4325 H   0  0  0  0  0  0  0  0  0  0  0  0  # atno 8009 bound_to 7997
  156.2365  140.1865  156.7089 H   0  0  0  0  0  0  0  0  0  0  0  0  # atno 8010 bound_to 7997
  139.6413  144.0255  152.2093 H   0  0  0  0  0  0  0  0  0  0  0  0  # atno 10167 bound_to 10162
  157.5782  130.8960  149.9383 H   0  0  0  0  0  0  0  0  0  0  0  0  # atno 10718 bound_to 10713
  153.7501  135.6926  153.4947 H   0  0  0  0  0  0  0  0  0  0  0  0  # atno 10763 bound_to 10752
  153.2009  135.4437  155.0264 H   0  0  0  0  0  0  0  0  0  0  0  0  # atno 10764 bound_to 10752
  154.8190  135.3413  154.7022 H   0  0  0  0  0  0  0  0  0  0  0  0  # atno 10765 bound_to 10752
  141.0043  134.0358  157.3498 H   0  0  0  0  0  0  0  0  0  0  0  0  # atno 11005 bound_to 11000
  144.9577  140.8243  143.5533 LP  0  0  0  0  0  0  0  0  0  0  0  0  # atno 17320 bound_to 7965
  145.2252  139.2140  143.5072 LP  0  0  0  0  0  0  0  0  0  0  0  0  # atno 17321 bound_to 7965
  139.9945  144.6337  150.7784 LP  0  0  0  0  0  0  0  0  0  0  0  0  # atno 17342 bound_to 10162
  140.7492  143.2934  151.3268 LP  0  0  0  0  0  0  0  0  0  0  0  0  # atno 17343 bound_to 10162
  156.0827  130.3671  150.0549 LP  0  0  0  0  0  0  0  0  0  0  0  0  # atno 17370 bound_to 10713
  156.8692  130.9518  151.3611 LP  0  0  0  0  0  0  0  0  0  0  0  0  # atno 17371 bound_to 10713
  139.9055  135.0178  156.7465 LP  0  0  0  0  0  0  0  0  0  0  0  0  # atno 17394 bound_to 11000
  140.6839  133.9450  155.7926 LP  0  0  0  0  0  0  0  0  0  0  0  0  # atno 17395 bound_to 11000

$$$$
