AV-unprocessed.smi:1815|AV-procd|sdf|7351|dock2
  -GOLD-   22720 9 13D 1   1.00000     0.00000
 Structure written by MMmdl.
 39 40  0  0  0  0  0  0  0  0  1 V2000
  153.1207  139.4092  154.9946 C   0  0  0  0  0  0  0  0  0  0  0  0
  151.7937  138.8817  154.4392 C   0  0  1  0  0  0  0  0  0  0  0  0
  151.2213  137.7323  155.2904 C   0  0  0  0  0  0  0  0  0  0  0  0
  149.9223  137.2847  154.8019 N   0  0  0  0  0  0  0  0  0  0  0  0
  149.4048  136.1865  155.6191 C   0  0  0  0  0  0  0  0  0  0  0  0
  147.9140  135.8523  155.4116 C   0  0  0  0  0  0  0  0  0  0  0  0
  147.6162  135.5242  154.0213 N   0  0  0  0  0  0  0  0  0  0  0  0
  146.6340  134.7068  153.6166 C   0  0  0  0  0  0  0  0  0  0  0  0
  145.8529  134.1501  154.3890 O   0  0  0  0  0  0  0  0  0  0  0  0
  146.6257  134.5820  152.2779 N   0  0  0  0  0  0  0  0  0  0  0  0
  145.7439  133.8142  151.4730 C   0  0  0  0  0  0  0  0  0  0  0  0
  144.4119  133.9431  151.4780 N   0  0  0  0  0  0  0  0  0  0  0  0
  143.7962  133.0615  150.5860 C   0  0  0  0  0  0  0  0  0  0  0  0
  144.6808  132.2625  149.9051 C   0  0  0  0  0  0  0  0  0  0  0  0
  146.3323  132.5881  150.3596 S   0  0  0  0  0  0  0  0  0  0  0  0
  149.0137  138.4269  154.7560 C   0  0  0  0  0  0  0  0  0  0  0  0
  149.5814  139.5808  153.9074 C   0  0  1  0  0  0  0  0  0  0  0  0
  148.6727  140.8141  153.9273 C   0  0  0  0  0  0  0  0  0  0  0  0
  150.8572  139.9555  154.4197 O   0  0  0  0  0  0  0  0  0  0  0  0
  153.8751  138.6225  155.0204 H   0  0  0  0  0  0  0  0  0  0  0  0
  153.0001  139.7918  156.0084 H   0  0  0  0  0  0  0  0  0  0  0  0
  153.5070  140.2197  154.3761 H   0  0  0  0  0  0  0  0  0  0  0  0
  151.9552  138.5341  153.4173 H   0  0  0  0  0  0  0  0  0  0  0  0
  151.9232  136.8974  155.2858 H   0  0  0  0  0  0  0  0  0  0  0  0
  151.1319  138.0583  156.3280 H   0  0  0  0  0  0  0  0  0  0  0  0
  149.9808  135.2850  155.4054 H   0  0  0  0  0  0  0  0  0  0  0  0
  149.5790  136.4025  156.6741 H   0  0  0  0  0  0  0  0  0  0  0  0
  147.6312  135.0173  156.0547 H   0  0  0  0  0  0  0  0  0  0  0  0
  147.2819  136.6861  155.7150 H   0  0  0  0  0  0  0  0  0  0  0  0
  148.2143  135.9354  153.3197 H   0  0  0  0  0  0  0  0  0  0  0  0
  147.3335  135.0969  151.7751 H   0  0  0  0  0  0  0  0  0  0  0  0
  142.7197  133.0696  150.4993 H   0  0  0  0  0  0  0  0  0  0  0  0
  144.4617  131.5052  149.1669 H   0  0  0  0  0  0  0  0  0  0  0  0
  148.0535  138.1273  154.3371 H   0  0  0  0  0  0  0  0  0  0  0  0
  148.8166  138.7820  155.7687 H   0  0  0  0  0  0  0  0  0  0  0  0
  149.7000  139.2493  152.8742 H   0  0  0  0  0  0  0  0  0  0  0  0
  147.6832  140.5787  153.5346 H   0  0  0  0  0  0  0  0  0  0  0  0
  149.0903  141.6156  153.3176 H   0  0  0  0  0  0  0  0  0  0  0  0
  148.5483  141.1963  154.9409 H   0  0  0  0  0  0  0  0  0  0  0  0
  1  2  1  0  0  0  0
  1 20  1  0  0  0  0
  1 21  1  0  0  0  0
  1 22  1  0  0  0  0
  2 19  1  0  0  0  0
  2  3  1  0  0  0  0
  2 23  1  0  0  0  0
  3  4  1  0  0  0  0
  3 24  1  0  0  0  0
  3 25  1  0  0  0  0
  4  5  1  0  0  0  0
  4 16  1  0  0  0  0
  5  6  1  0  0  0  0
  5 26  1  0  0  0  0
  5 27  1  0  0  0  0
  6  7  1  0  0  0  0
  6 28  1  0  0  0  0
  6 29  1  0  0  0  0
  7  8  1  0  0  0  0
  7 30  1  0  0  0  0
  8  9  2  0  0  0  0
  8 10  1  0  0  0  0
 10 11  1  0  0  0  0
 10 31  1  0  0  0  0
 11 15  1  0  0  0  0
 11 12  2  0  0  0  0
 12 13  1  0  0  0  0
 13 14  2  0  0  0  0
 13 32  1  0  0  0  0
 14 15  1  0  0  0  0
 14 33  1  0  0  0  0
 16 17  1  0  0  0  0
 16 34  1  0  0  0  0
 16 35  1  0  0  0  0
 17 18  1  0  0  0  0
 17 19  1  0  0  0  0
 17 36  1  0  0  0  0
 18 37  1  0  0  0  0
 18 38  1  0  0  0  0
 18 39  1  0  0  0  0
M  END
> <s_m_source_file>
AV-unprocessed.smi

> <i_m_source_file_index>
1815

> <i_lp_mmshare_version>
43012

> <i_f3d_flags>
0

> <s_epik_input>
W0NIM11bQ0BASF0xW0NIMl1OKFtDSDJdW0NASF0oTzEpW0NIM10pW0NIMl1bQ0gyXVtOSF1DKD1PKVtOSF1jMm5bY0hdW2NIXXMy

> <s_epik_cmdline>
J2VwaWtfcHl0aG9uJywgJy1waCcsICc3LjAnLCAnLXRuJywgJzgnLCAnLW1hJywgJzIwMCcsICctbWV0YWxfYmluZGluZycsICctaW1hZScsICc8aW5maWxlLm1hZT4nLCAnLW9tYWUnLCAnPG91dGZpbGUubWFlPic=

> <r_lp_tautomer_probability>
0.999

> <r_epik_Ionization_Penalty>
0.219201

> <r_epik_Ionization_Penalty_Charging>
0

> <r_epik_Ionization_Penalty_Neutral>
0.219201

> <r_epik_State_Penalty>
0.209349

> <r_epik_Charging_Adjusted_Penalty>
0.209349

> <i_epik_Tot_Q>
0

> <i_epik_Tot_abs_Q>
0

> <r_epik_Metal_State_Penalty>
0.247737

> <b_epik_Metal_Only>
0

> <s_lp_Force_Field>
OPLS_2005

> <r_lp_Energy>
22.4698

> <b_lp_Chiralities_Consistent>
1

> <s_lp_Variant>
AV-unprocessed.smi:1815-2

> <Gold.Version>
5.8.1

> <Gold.Id.Protein>
6NUR|6NUR_protein|mol2

> <Gold.PLP.Fitness>
40.1534

> <Gold.PLP.PLP>
-29.8402

> <Gold.PLP.part.hbond>
-3.0000

> <Gold.PLP.part.metal>
0.0000

> <Gold.PLP.part.buried>
-1.1904

> <Gold.PLP.part.nonpolar>
-25.8780

> <Gold.PLP.part.repulsive>
0.4751

> <Gold.PLP.ligand.clash>
0.0000

> <Gold.PLP.ligand.torsion>
0.8219

> <Gold.PLP.Chemscore.Hbond>
2.9760

> <Gold.PLP.Chemscore.CHOScore>
1.0000

> <Gold.PLP.Chemscore.Metal>
0.0000

> <Gold.Chemscore.Hbonds>
donor molecule, donor type, donor heavy atom, donor atom, acceptor molecule, acceptor atom, score
      L1  H     7    30       P1  7948  1.00
      L1  H    10    31       P1  7948  0.98
      P1  H  7989  7998       L1    19  0.80
      L1  C    13    32       P1 10186  1.00

> <Gold.PLP.Chemscore.Internal.Correction>
0.0289

> <Gold.Rescore>
     Score         DG    S(hbond)    S(metal)    S(lipo)     H(rot)  DE(clash)    DE(int)     intcor
     14.66     -17.40       2.07        0.00      77.78       1.60       1.82       0.92       ----

> <Gold.Chemscore.Fitness>
14.6550

> <Gold.Chemscore.DG>
-17.3952

> <Gold.Chemscore.ZeroCoef>
-5.4800

> <Gold.Chemscore.Hbond>
2.0691

> <Gold.Chemscore.Metal>
0.0000

> <Gold.Chemscore.Lipo>
77.7828

> <Gold.Chemscore.Internal_Hbond>
0.0000

> <Gold.Chemscore.DEClash>
1.8204

> <Gold.Chemscore.DEInternal>
0.9198

> <Gold.Chemscore.Rot>
1.6001

> <Gold.Chemscore.Internal.Correction>
   9.000000E+99

> <Gold.Chemscore.Hbonds>
donor molecule, donor type, donor heavy atom, donor atom, acceptor molecule, acceptor atom, score
      L1  H     7    30       P1  7948  0.99
      L1  H    10    31       P1  7948  0.84
      P1  H  7989  7998       L1    19  0.11

> <Gold.Chemscore.Hbond.Weighted>
-6.9109

> <Gold.Chemscore.Metal.Weighted>
-0.0000

> <Gold.Chemscore.Lipo.Weighted>
-9.1006

> <Gold.Chemscore.Internal_Hbond.Weighted>
0.0000

> <Gold.Chemscore.DEClash.Weighted>
1.8204

> <Gold.Chemscore.DEInternal.Weighted>
0.9198

> <Gold.Chemscore.Rot.Weighted>
4.0963

> <Gold.Chemscore.Internal.Correction.Weighted>
   9.000000E+99

> <Gold.Protein.RotatedTorsions>
[ 6907 6896 6895 6894 ] final  -46.28 input  -60.11 | X-H torsion
[ 7974 7965 7964 7962 ] final   63.40 input  175.53 | X-H torsion
[ 8008 7997 7996 7995 ] final   44.86 input   59.86 | X-H torsion
[ 10167 10162 10161 10158 ] final -135.42 input  -65.29 | X-H torsion
[ 10718 10713 10712 10709 ] final   76.52 input   66.30 | X-H torsion
[ 10763 10752 10751 10750 ] final  154.53 input  -60.55 | X-H torsion
[ 11005 11000 10999 10996 ] final -128.86 input  -57.11 | X-H torsion

> <Gold.Protein.ActiveResidues>
 VAL166  LYS551  ARG553  GLY616  TRP617  ASP618  TYR619  PRO620  LYS621  CYS622 
 ASP623  PHE694  ASN695  SER759  ASP760  ASP761  ALA762  ILE779  LEU786  VAL792 
 PHE793  MET794  SER795  GLU796  ALA797  LYS798  CYS799  TRP800  GLU811  SER814 

> <Gold.Protein.RotatedAtoms>
  150.9130  134.8547  159.7437 H   0  0  0  0  0  0  0  0  0  0  0  0  # atno 6907 bound_to 6896
  152.4954  134.4332  159.9529 H   0  0  0  0  0  0  0  0  0  0  0  0  # atno 6908 bound_to 6896
  151.4372  133.3614  159.2812 H   0  0  0  0  0  0  0  0  0  0  0  0  # atno 6909 bound_to 6896
  145.8623  139.3323  143.0812 H   0  0  0  0  0  0  0  0  0  0  0  0  # atno 7974 bound_to 7965
  155.3262  140.3400  155.4240 H   0  0  0  0  0  0  0  0  0  0  0  0  # atno 8008 bound_to 7997
  156.1884  140.1689  156.8177 H   0  0  0  0  0  0  0  0  0  0  0  0  # atno 8009 bound_to 7997
  154.5413  140.0724  156.8498 H   0  0  0  0  0  0  0  0  0  0  0  0  # atno 8010 bound_to 7997
  139.8780  143.6874  152.2631 H   0  0  0  0  0  0  0  0  0  0  0  0  # atno 10167 bound_to 10162
  157.6676  130.9778  150.1509 H   0  0  0  0  0  0  0  0  0  0  0  0  # atno 10718 bound_to 10713
  154.1538  135.2813  155.3128 H   0  0  0  0  0  0  0  0  0  0  0  0  # atno 10763 bound_to 10752
  154.6197  135.5471  153.7565 H   0  0  0  0  0  0  0  0  0  0  0  0  # atno 10764 bound_to 10752
  153.0213  135.6436  154.1682 H   0  0  0  0  0  0  0  0  0  0  0  0  # atno 10765 bound_to 10752
  140.9480  134.1103  157.4089 H   0  0  0  0  0  0  0  0  0  0  0  0  # atno 11005 bound_to 11000
  145.9234  140.9099  143.0393 LP  0  0  0  0  0  0  0  0  0  0  0  0  # atno 17320 bound_to 7965
  144.6726  140.1319  143.7443 LP  0  0  0  0  0  0  0  0  0  0  0  0  # atno 17321 bound_to 7965
  139.7222  144.7600  151.0937 LP  0  0  0  0  0  0  0  0  0  0  0  0  # atno 17342 bound_to 10162
  140.7749  143.5193  150.9555 LP  0  0  0  0  0  0  0  0  0  0  0  0  # atno 17343 bound_to 10162
  156.2308  130.3682  149.8447 LP  0  0  0  0  0  0  0  0  0  0  0  0  # atno 17370 bound_to 10713
  156.6274  130.8651  151.3488 LP  0  0  0  0  0  0  0  0  0  0  0  0  # atno 17371 bound_to 10713
  139.8839  135.0057  156.6333 LP  0  0  0  0  0  0  0  0  0  0  0  0  # atno 17394 bound_to 11000
  140.7642  133.8792  155.8441 LP  0  0  0  0  0  0  0  0  0  0  0  0  # atno 17395 bound_to 11000

$$$$
