AV-unprocessed.smi:1437|AV-procd|sdf|5863|dock1
  -GOLD-   22720 5533D 1   1.00000     0.00000
 Structure written by MMmdl.
 36 37  0  0  0  0  0  0  0  0  2 V2000
  152.1809  131.6298  156.8568 C   0  0  0  0  0  0  0  0  0  0  0  0
  151.2358  132.5874  156.2160 C   0  0  0  0  0  0  0  0  0  0  0  0
  150.5487  132.5672  155.0348 C   0  0  0  0  0  0  0  0  0  0  0  0
  149.8360  133.7953  155.0585 C   0  0  0  0  0  0  0  0  0  0  0  0
  148.9829  134.1634  153.9868 N   0  0  0  0  0  0  0  0  0  0  0  0
  147.8723  133.5301  153.5724 C   0  0  0  0  0  0  0  0  0  0  0  0
  147.4106  132.5049  154.0744 O   0  0  0  0  0  0  0  0  0  0  0  0
  147.3156  134.1533  152.5229 N   0  0  0  0  0  0  0  0  0  0  0  0
  146.1068  133.7104  151.8341 C   0  0  2  0  0  0  0  0  0  0  0  0
  146.4103  132.5236  150.9003 C   0  0  0  0  0  0  0  0  0  0  0  0
  145.1617  132.1105  150.1036 C   0  0  0  0  0  0  0  0  0  0  0  0
  144.6110  133.2580  149.3401 N   0  3  1  0  0  0  0  0  0  0  0  0
  143.4767  132.8657  148.4764 C   0  0  0  0  0  0  0  0  0  0  0  0
  144.2785  134.4053  150.2212 C   0  0  0  0  0  0  0  0  0  0  0  0
  145.5106  134.8683  151.0172 C   0  0  0  0  0  0  0  0  0  0  0  0
  150.0682  134.5021  156.1540 N   0  0  0  0  0  0  0  0  0  0  0  0
  150.9668  133.7318  156.9013 O   0  0  0  0  0  0  0  0  0  0  0  0
  152.1336  130.6538  156.3736 H   0  0  0  0  0  0  0  0  0  0  0  0
  151.9418  131.4960  157.9120 H   0  0  0  0  0  0  0  0  0  0  0  0
  153.2058  131.9938  156.7852 H   0  0  0  0  0  0  0  0  0  0  0  0
  150.5565  131.7958  154.2792 H   0  0  0  0  0  0  0  0  0  0  0  0
  149.2512  134.9935  153.4796 H   0  0  0  0  0  0  0  0  0  0  0  0
  147.7606  134.9904  152.1753 H   0  0  0  0  0  0  0  0  0  0  0  0
  145.3674  133.4009  152.5758 H   0  0  0  0  0  0  0  0  0  0  0  0
  147.2103  132.7910  150.2081 H   0  0  0  0  0  0  0  0  0  0  0  0
  146.7733  131.6716  151.4768 H   0  0  0  0  0  0  0  0  0  0  0  0
  145.4201  131.3039  149.4162 H   0  0  0  0  0  0  0  0  0  0  0  0
  144.3984  131.7198  150.7786 H   0  0  0  0  0  0  0  0  0  0  0  0
  142.6345  132.5121  149.0726 H   0  0  0  0  0  0  0  0  0  0  0  0
  143.7706  132.0689  147.7926 H   0  0  0  0  0  0  0  0  0  0  0  0
  143.1399  133.7111  147.8754 H   0  0  0  0  0  0  0  0  0  0  0  0
  143.9031  135.2330  149.6180 H   0  0  0  0  0  0  0  0  0  0  0  0
  143.4761  134.1210  150.9040 H   0  0  0  0  0  0  0  0  0  0  0  0
  145.2328  135.6898  151.6788 H   0  0  0  0  0  0  0  0  0  0  0  0
  146.2592  135.2642  150.3289 H   0  0  0  0  0  0  0  0  0  0  0  0
  145.3460  133.5719  148.7224 H   0  0  0  0  0  0  0  0  0  0  0  0
  1  2  1  0  0  0  0
  1 18  1  0  0  0  0
  1 19  1  0  0  0  0
  1 20  1  0  0  0  0
  2 17  1  0  0  0  0
  2  3  2  0  0  0  0
  3  4  1  0  0  0  0
  3 21  1  0  0  0  0
  4  5  1  0  0  0  0
  4 16  2  0  0  0  0
  5  6  1  0  0  0  0
  5 22  1  0  0  0  0
  6  7  2  0  0  0  0
  6  8  1  0  0  0  0
  8  9  1  0  0  0  0
  8 23  1  0  0  0  0
  9 15  1  0  0  0  0
  9 10  1  0  0  0  0
  9 24  1  0  0  0  0
 10 11  1  0  0  0  0
 10 25  1  0  0  0  0
 10 26  1  0  0  0  0
 11 12  1  0  0  0  0
 11 27  1  0  0  0  0
 11 28  1  0  0  0  0
 12 13  1  0  0  0  0
 12 14  1  0  0  0  0
 12 36  1  0  0  0  0
 13 29  1  0  0  0  0
 13 30  1  0  0  0  0
 13 31  1  0  0  0  0
 14 15  1  0  0  0  0
 14 32  1  0  0  0  0
 14 33  1  0  0  0  0
 15 34  1  0  0  0  0
 15 35  1  0  0  0  0
 16 17  1  0  0  0  0
M  CHG  1  12   1
M  END
> <s_m_source_file>
AV-unprocessed.smi

> <i_m_source_file_index>
1437

> <i_lp_mmshare_version>
43012

> <i_f3d_flags>
0

> <s_epik_input>
W0NIM11jMVtjSF1jKG5vMSlbTkhdQyg9TylbTkhdW0NIXTJbQ0gyXVtDSDJdTihbQ0gzXSlbQ0gyXVtDSDJdMg==

> <s_epik_cmdline>
J2VwaWtfcHl0aG9uJywgJy1waCcsICc3LjAnLCAnLXRuJywgJzgnLCAnLW1hJywgJzIwMCcsICctbWV0YWxfYmluZGluZycsICctaW1hZScsICc8aW5maWxlLm1hZT4nLCAnLW9tYWUnLCAnPG91dGZpbGUubWFlPic=

> <r_epik_Ionization_Penalty>
0.00408962

> <r_epik_Ionization_Penalty_Charging>
0.00405645

> <r_epik_Ionization_Penalty_Neutral>
3.31706e-05

> <r_epik_State_Penalty>
0.00290716

> <r_epik_Charging_Adjusted_Penalty>
0.00696361

> <i_epik_Tot_Q>
1

> <i_epik_Tot_abs_Q>
1

> <r_epik_Metal_State_Penalty>
0.0142111

> <b_epik_Metal_Only>
0

> <s_lp_Force_Field>
OPLS_2005

> <r_lp_Energy>
12.1983

> <b_lp_Chiralities_Consistent>
1

> <s_lp_Variant>
AV-unprocessed.smi:1437-1

> <Gold.Version>
5.8.1

> <Gold.Id.Protein>
6NUR|6NUR_protein|mol2

> <Gold.PLP.Fitness>
38.4790

> <Gold.PLP.PLP>
-30.0130

> <Gold.PLP.part.hbond>
-4.0000

> <Gold.PLP.part.metal>
0.0000

> <Gold.PLP.part.buried>
-3.2011

> <Gold.PLP.part.nonpolar>
-24.1774

> <Gold.PLP.part.repulsive>
0.2198

> <Gold.PLP.ligand.clash>
0.0000

> <Gold.PLP.ligand.torsion>
0.8411

> <Gold.PLP.Chemscore.Hbond>
3.3824

> <Gold.PLP.Chemscore.CHOScore>
0.0000

> <Gold.PLP.Chemscore.Metal>
0.0000

> <Gold.Chemscore.Hbonds>
donor molecule, donor type, donor heavy atom, donor atom, acceptor molecule, acceptor atom, score
      L1  H     5    22       P1  7948  0.78
      L1  H     8    23       P1  7948  1.00
      L1  H    12    36       P1  7921  1.00
      P1  H  6896  6908       L1    17  0.18

> <Gold.PLP.Chemscore.Internal.Correction>
0.0010

> <Gold.Rescore>
     Score         DG    S(hbond)    S(metal)    S(lipo)     H(rot)  DE(clash)    DE(int)     intcor
     19.02     -20.24       2.90        0.00      65.15       1.00       0.27       0.95       ----

> <Gold.Chemscore.Fitness>
19.0175

> <Gold.Chemscore.DG>
-20.2357

> <Gold.Chemscore.ZeroCoef>
-5.4800

> <Gold.Chemscore.Hbond>
2.9023

> <Gold.Chemscore.Metal>
0.0000

> <Gold.Chemscore.Lipo>
65.1457

> <Gold.Chemscore.Internal_Hbond>
0.0000

> <Gold.Chemscore.DEClash>
0.2699

> <Gold.Chemscore.DEInternal>
0.9483

> <Gold.Chemscore.Rot>
1.0000

> <Gold.Chemscore.Internal.Correction>
   9.000000E+99

> <Gold.Chemscore.Hbonds>
donor molecule, donor type, donor heavy atom, donor atom, acceptor molecule, acceptor atom, score
      L1  H     5    22       P1  7948  0.10
      L1  H     8    23       P1  7948  0.85
      L1  H    12    36       P1  7921  0.49
      P1  H  6896  6908       L1    17  0.17

> <Gold.Chemscore.Hbond.Weighted>
-9.6936

> <Gold.Chemscore.Metal.Weighted>
-0.0000

> <Gold.Chemscore.Lipo.Weighted>
-7.6220

> <Gold.Chemscore.Internal_Hbond.Weighted>
0.0000

> <Gold.Chemscore.DEClash.Weighted>
0.2699

> <Gold.Chemscore.DEInternal.Weighted>
0.9483

> <Gold.Chemscore.Rot.Weighted>
2.5600

> <Gold.Chemscore.Internal.Correction.Weighted>
   9.000000E+99

> <Gold.Protein.RotatedTorsions>
[ 6907 6896 6895 6894 ] final  111.29 input  -60.11 | X-H torsion
[ 7974 7965 7964 7962 ] final  -48.12 input  175.53 | X-H torsion
[ 8008 7997 7996 7995 ] final  179.99 input   59.86 | X-H torsion
[ 10167 10162 10161 10158 ] final -174.65 input  -65.29 | X-H torsion
[ 10718 10713 10712 10709 ] final  147.92 input   66.30 | X-H torsion
[ 10763 10752 10751 10750 ] final   80.10 input  -60.55 | X-H torsion
[ 11005 11000 10999 10996 ] final  156.82 input  -57.11 | X-H torsion

> <Gold.Protein.ActiveResidues>
 VAL166  LYS551  ARG553  GLY616  TRP617  ASP618  TYR619  PRO620  LYS621  CYS622 
 ASP623  PHE694  ASN695  SER759  ASP760  ASP761  ALA762  ILE779  LEU786  VAL792 
 PHE793  MET794  SER795  GLU796  ALA797  LYS798  CYS799  TRP800  GLU811  SER814 

> <Gold.Protein.RotatedAtoms>
  152.4977  133.8679  159.7282 H   0  0  0  0  0  0  0  0  0  0  0  0  # atno 6907 bound_to 6896
  150.9173  133.6914  159.2847 H   0  0  0  0  0  0  0  0  0  0  0  0  # atno 6908 bound_to 6896
  151.4303  135.1013  159.9693 H   0  0  0  0  0  0  0  0  0  0  0  0  # atno 6909 bound_to 6896
  145.9545  140.7540  142.9488 H   0  0  0  0  0  0  0  0  0  0  0  0  # atno 7974 bound_to 7965
  156.0371  140.1295  157.0195 H   0  0  0  0  0  0  0  0  0  0  0  0  # atno 8008 bound_to 7997
  154.4375  140.1037  156.6254 H   0  0  0  0  0  0  0  0  0  0  0  0  # atno 8009 bound_to 7997
  155.5721  140.3466  155.4520 H   0  0  0  0  0  0  0  0  0  0  0  0  # atno 8010 bound_to 7997
  139.5622  144.1842  152.1257 H   0  0  0  0  0  0  0  0  0  0  0  0  # atno 10167 bound_to 10162
  157.3151  131.0894  151.1286 H   0  0  0  0  0  0  0  0  0  0  0  0  # atno 10718 bound_to 10713
  153.1006  135.4815  154.8859 H   0  0  0  0  0  0  0  0  0  0  0  0  # atno 10763 bound_to 10752
  154.7374  135.3074  154.8790 H   0  0  0  0  0  0  0  0  0  0  0  0  # atno 10764 bound_to 10752
  153.9408  135.6834  153.4798 H   0  0  0  0  0  0  0  0  0  0  0  0  # atno 10765 bound_to 10752
  140.1711  134.8542  157.2692 H   0  0  0  0  0  0  0  0  0  0  0  0  # atno 11005 bound_to 11000
  144.6802  140.2489  143.7334 LP  0  0  0  0  0  0  0  0  0  0  0  0  # atno 17320 bound_to 7965
  145.8125  139.2009  143.1984 LP  0  0  0  0  0  0  0  0  0  0  0  0  # atno 17321 bound_to 7965
  140.1357  144.5247  150.6774 LP  0  0  0  0  0  0  0  0  0  0  0  0  # atno 17342 bound_to 10162
  140.6903  143.2372  151.5149 LP  0  0  0  0  0  0  0  0  0  0  0  0  # atno 17343 bound_to 10162
  157.2593  130.6651  149.5967 LP  0  0  0  0  0  0  0  0  0  0  0  0  # atno 17370 bound_to 10713
  155.9681  130.4514  150.5733 LP  0  0  0  0  0  0  0  0  0  0  0  0  # atno 17371 bound_to 10713
  140.2376  134.3834  155.7494 LP  0  0  0  0  0  0  0  0  0  0  0  0  # atno 17394 bound_to 11000
  141.2217  133.7248  156.8738 LP  0  0  0  0  0  0  0  0  0  0  0  0  # atno 17395 bound_to 11000

$$$$
