AV-unprocessed.smi:2365|AV-procd|sdf|9420|dock3
  -GOLD-   2272013 53D 1   1.00000     0.00000
 Structure written by MMmdl.
 29 30  0  0  0  0  0  0  0  0  1 V2000
  154.2782  138.7066  154.4438 C   0  0  0  0  0  0  0  0  0  0  0  0
  152.8023  138.5489  154.8232 C   0  0  1  0  0  0  0  0  0  0  0  0
  152.5698  138.1694  156.2811 C   0  0  0  0  0  0  0  0  0  0  0  0
  151.1234  138.5765  156.4780 C   0  0  0  0  0  0  0  0  0  0  0  0
  150.9514  139.7710  155.5218 C   0  0  1  0  0  0  0  0  0  0  0  0
  150.8470  141.1276  156.2289 C   0  0  0  0  0  0  0  0  0  0  0  0
  150.0890  141.9921  155.7888 O   0  0  0  0  0  0  0  0  0  0  0  0
  151.6274  141.2780  157.3145 N   0  0  0  0  0  0  0  0  0  0  0  0
  151.7490  142.4087  158.1695 C   0  0  0  0  0  0  0  0  0  0  0  0
  151.3434  143.7143  157.7970 C   0  0  0  0  0  0  0  0  0  0  0  0
  151.4372  144.7856  158.6127 N   0  0  0  0  0  0  0  0  0  0  0  0
  151.9385  144.5972  159.8506 C   0  0  0  0  0  0  0  0  0  0  0  0
  152.3568  143.3422  160.3334 C   0  0  0  0  0  0  0  0  0  0  0  0
  152.9750  143.1976  161.9403 Cl  0  0  0  0  0  0  0  0  0  0  0  0
  152.2557  142.2241  159.4773 C   0  0  0  0  0  0  0  0  0  0  0  0
  152.7502  140.6562  160.0211 Cl  0  0  0  0  0  0  0  0  0  0  0  0
  152.1200  139.7885  154.7034 O   0  0  0  0  0  0  0  0  0  0  0  0
  154.8149  137.7652  154.5616 H   0  0  0  0  0  0  0  0  0  0  0  0
  154.7695  139.4535  155.0682 H   0  0  0  0  0  0  0  0  0  0  0  0
  154.3809  139.0219  153.4054 H   0  0  0  0  0  0  0  0  0  0  0  0
  152.3203  137.8210  154.1682 H   0  0  0  0  0  0  0  0  0  0  0  0
  152.7471  137.1126  156.4818 H   0  0  0  0  0  0  0  0  0  0  0  0
  153.2142  138.7567  156.9371 H   0  0  0  0  0  0  0  0  0  0  0  0
  150.4637  137.7639  156.1714 H   0  0  0  0  0  0  0  0  0  0  0  0
  150.8980  138.8016  157.5213 H   0  0  0  0  0  0  0  0  0  0  0  0
  150.0763  139.6089  154.8899 H   0  0  0  0  0  0  0  0  0  0  0  0
  152.2619  140.5168  157.5092 H   0  0  0  0  0  0  0  0  0  0  0  0
  150.9092  143.9220  156.8315 H   0  0  0  0  0  0  0  0  0  0  0  0
  152.0018  145.4743  160.4775 H   0  0  0  0  0  0  0  0  0  0  0  0
  1  2  1  0  0  0  0
  1 18  1  0  0  0  0
  1 19  1  0  0  0  0
  1 20  1  0  0  0  0
  2 17  1  0  0  0  0
  2  3  1  0  0  0  0
  2 21  1  0  0  0  0
  3  4  1  0  0  0  0
  3 22  1  0  0  0  0
  3 23  1  0  0  0  0
  4  5  1  0  0  0  0
  4 24  1  0  0  0  0
  4 25  1  0  0  0  0
  5  6  1  0  0  0  0
  5 17  1  0  0  0  0
  5 26  1  0  0  0  0
  6  7  2  0  0  0  0
  6  8  1  0  0  0  0
  8  9  1  0  0  0  0
  8 27  1  0  0  0  0
  9 15  1  0  0  0  0
  9 10  2  0  0  0  0
 10 11  1  0  0  0  0
 10 28  1  0  0  0  0
 11 12  2  0  0  0  0
 12 13  1  0  0  0  0
 12 29  1  0  0  0  0
 13 14  1  0  0  0  0
 13 15  2  0  0  0  0
 15 16  1  0  0  0  0
M  END
> <s_m_source_file>
AV-unprocessed.smi

> <i_m_source_file_index>
2365

> <i_lp_mmshare_version>
43012

> <i_f3d_flags>
0

> <s_epik_input>
W0NIM11bQ0BASF0xW0NIMl1bQ0gyXVtDQEhdKE8xKUMoPU8pW05IXWMyW2NIXW5bY0hdYyhDbCljMkNs

> <s_epik_cmdline>
J2VwaWtfcHl0aG9uJywgJy1waCcsICc3LjAnLCAnLXRuJywgJzgnLCAnLW1hJywgJzIwMCcsICctbWV0YWxfYmluZGluZycsICctaW1hZScsICc8aW5maWxlLm1hZT4nLCAnLW9tYWUnLCAnPG91dGZpbGUubWFlPic=

> <r_lp_tautomer_probability>
1

> <r_epik_Ionization_Penalty>
7.32461e-06

> <r_epik_Ionization_Penalty_Charging>
0

> <r_epik_Ionization_Penalty_Neutral>
7.32461e-06

> <r_epik_State_Penalty>
-0

> <r_epik_Charging_Adjusted_Penalty>
0

> <i_epik_Tot_Q>
0

> <i_epik_Tot_abs_Q>
0

> <r_epik_Metal_State_Penalty>
-0

> <b_epik_Metal_Only>
0

> <s_lp_Force_Field>
OPLS_2005

> <r_lp_Energy>
23.8833

> <b_lp_Chiralities_Consistent>
1

> <s_lp_Variant>
AV-unprocessed.smi:2365-2

> <Gold.Version>
5.8.1

> <Gold.Id.Protein>
6NUR|6NUR_protein|mol2

> <Gold.PLP.Fitness>
38.2393

> <Gold.PLP.PLP>
-34.1876

> <Gold.PLP.part.hbond>
-1.0000

> <Gold.PLP.part.metal>
0.0000

> <Gold.PLP.part.buried>
-2.5815

> <Gold.PLP.part.nonpolar>
-32.0417

> <Gold.PLP.part.repulsive>
1.3005

> <Gold.PLP.ligand.clash>
0.0000

> <Gold.PLP.ligand.torsion>
0.7020

> <Gold.PLP.Chemscore.Hbond>
0.8160

> <Gold.PLP.Chemscore.CHOScore>
1.0000

> <Gold.PLP.Chemscore.Metal>
0.0000

> <Gold.Chemscore.Hbonds>
donor molecule, donor type, donor heavy atom, donor atom, acceptor molecule, acceptor atom, score
      P1  H  7989  7998       L1    17  0.82
      L1  C    10    28       P1  8028  1.00

> <Gold.PLP.Chemscore.Internal.Correction>
0.0077

> <Gold.Rescore>
     Score         DG    S(hbond)    S(metal)    S(lipo)     H(rot)  DE(clash)    DE(int)     intcor
     15.97     -18.41       0.99        0.00     104.25       1.00       0.57       1.87       ----

> <Gold.Chemscore.Fitness>
15.9686

> <Gold.Chemscore.DG>
-18.4108

> <Gold.Chemscore.ZeroCoef>
-5.4800

> <Gold.Chemscore.Hbond>
0.9862

> <Gold.Chemscore.Metal>
0.0000

> <Gold.Chemscore.Lipo>
104.2464

> <Gold.Chemscore.Internal_Hbond>
0.0000

> <Gold.Chemscore.DEClash>
0.5688

> <Gold.Chemscore.DEInternal>
1.8735

> <Gold.Chemscore.Rot>
1.0000

> <Gold.Chemscore.Internal.Correction>
   9.000000E+99

> <Gold.Chemscore.Hbonds>
donor molecule, donor type, donor heavy atom, donor atom, acceptor molecule, acceptor atom, score
      P1  H  7989  7998       L1    17  0.28

> <Gold.Chemscore.Hbond.Weighted>
-3.2940

> <Gold.Chemscore.Metal.Weighted>
-0.0000

> <Gold.Chemscore.Lipo.Weighted>
-12.1968

> <Gold.Chemscore.Internal_Hbond.Weighted>
0.0000

> <Gold.Chemscore.DEClash.Weighted>
0.5688

> <Gold.Chemscore.DEInternal.Weighted>
1.8735

> <Gold.Chemscore.Rot.Weighted>
2.5600

> <Gold.Chemscore.Internal.Correction.Weighted>
   9.000000E+99

> <Gold.Protein.RotatedTorsions>
[ 6907 6896 6895 6894 ] final   65.46 input  -60.11 | X-H torsion
[ 7974 7965 7964 7962 ] final   40.58 input  175.53 | X-H torsion
[ 8008 7997 7996 7995 ] final -166.76 input   59.86 | X-H torsion
[ 10167 10162 10161 10158 ] final   44.96 input  -65.29 | X-H torsion
[ 10718 10713 10712 10709 ] final  -22.06 input   66.30 | X-H torsion
[ 10763 10752 10751 10750 ] final  112.32 input  -60.55 | X-H torsion
[ 11005 11000 10999 10996 ] final   42.85 input  -57.11 | X-H torsion

> <Gold.Protein.ActiveResidues>
 VAL166  LYS551  ARG553  GLY616  TRP617  ASP618  TYR619  PRO620  LYS621  CYS622 
 ASP623  PHE694  ASN695  SER759  ASP760  ASP761  ALA762  ILE779  LEU786  VAL792 
 PHE793  MET794  SER795  GLU796  ALA797  LYS798  CYS799  TRP800  GLU811  SER814 

> <Gold.Protein.RotatedAtoms>
  152.4409  134.5592  159.9888 H   0  0  0  0  0  0  0  0  0  0  0  0  # atno 6907 bound_to 6896
  151.5690  133.3387  159.2993 H   0  0  0  0  0  0  0  0  0  0  0  0  # atno 6908 bound_to 6896
  150.8315  134.7604  159.6922 H   0  0  0  0  0  0  0  0  0  0  0  0  # atno 6909 bound_to 6896
  146.0893  139.5516  142.9486 H   0  0  0  0  0  0  0  0  0  0  0  0  # atno 7974 bound_to 7965
  155.8683  140.0989  157.1567 H   0  0  0  0  0  0  0  0  0  0  0  0  # atno 8008 bound_to 7997
  154.3995  140.1352  156.4109 H   0  0  0  0  0  0  0  0  0  0  0  0  # atno 8009 bound_to 7997
  155.7779  140.3459  155.5284 H   0  0  0  0  0  0  0  0  0  0  0  0  # atno 8010 bound_to 7997
  140.3290  144.2612  150.6171 H   0  0  0  0  0  0  0  0  0  0  0  0  # atno 10167 bound_to 10162
  156.5097  130.4607  149.6655 H   0  0  0  0  0  0  0  0  0  0  0  0  # atno 10718 bound_to 10713
  153.4761  135.3690  155.2417 H   0  0  0  0  0  0  0  0  0  0  0  0  # atno 10763 bound_to 10752
  154.8756  135.3943  154.3755 H   0  0  0  0  0  0  0  0  0  0  0  0  # atno 10764 bound_to 10752
  153.4351  135.7083  153.6270 H   0  0  0  0  0  0  0  0  0  0  0  0  # atno 10765 bound_to 10752
  140.1700  134.4234  155.8263 H   0  0  0  0  0  0  0  0  0  0  0  0  # atno 11005 bound_to 11000
  145.6070  141.0346  143.1987 LP  0  0  0  0  0  0  0  0  0  0  0  0  # atno 17320 bound_to 7965
  144.7348  139.7617  143.7333 LP  0  0  0  0  0  0  0  0  0  0  0  0  # atno 17321 bound_to 7965
  140.5415  143.2223  151.8077 LP  0  0  0  0  0  0  0  0  0  0  0  0  # atno 17342 bound_to 10162
  139.4860  144.4594  151.9559 LP  0  0  0  0  0  0  0  0  0  0  0  0  # atno 17343 bound_to 10162
  156.3252  130.7302  151.2221 LP  0  0  0  0  0  0  0  0  0  0  0  0  # atno 17370 bound_to 10713
  157.7452  131.0445  150.4795 LP  0  0  0  0  0  0  0  0  0  0  0  0  # atno 17371 bound_to 10713
  141.2216  133.6951  156.7746 LP  0  0  0  0  0  0  0  0  0  0  0  0  # atno 17394 bound_to 11000
  140.2389  134.8629  157.3553 LP  0  0  0  0  0  0  0  0  0  0  0  0  # atno 17395 bound_to 11000

$$$$
