#       Name:                AV-unprocessed.smi:242
#       Creating user name   scv26
#       Creation time:       Thu Mar 26 20:46:47 2020


#       File generated by GOLD software.
#

@<TRIPOS>MOLECULE
AV-unprocessed.smi:242
    66    69     1
SMALL
NO_CHARGES


@<TRIPOS>ATOM
      1 ****        -5.6392   0.1954   0.9376 C.3            1 S1                 0.0000
      2 ****        -5.6537   0.6376  -0.5388 C.3            1 S1                 0.0000
      3 ****        -7.0551   0.3860  -1.1292 C.3            1 S1                 0.0000
      4 ****        -4.5926  -0.0604  -1.3188 N.4            1 S1                 1.0000
      5 ****        -4.6144   0.1659  -2.7828 C.3            1 S1                 0.0000
      6 ****        -3.1752  -0.0372  -3.2469 C.3            1 S1                 0.0000
      7 ****        -2.3849   0.5976  -2.1065 C.3            1 S1                 0.0000
      8 ****        -0.9732   0.2037  -2.0563 N.3            1 S1                 0.0000
      9 ****        -0.1721   0.4347  -3.2524 C.3            1 S1                 0.0000
     10 ****        -0.2870   0.5575  -0.9435 C.ar           1 S1                 0.0000
     11 ****        -0.4529   1.7932  -0.4012 N.ar           1 S1                 0.0000
     12 ****         0.2272   2.1375   0.6969 C.ar           1 S1                 0.0000
     13 ****         1.1043   1.4143   1.3966 N.ar           1 S1                 0.0000
     14 ****         1.2796   0.1781   0.8472 C.ar           1 S1                 0.0000
     15 ****         0.6295  -0.3254  -0.3137 C.ar           1 S1                 0.0000
     16 ****         1.0469  -1.6248  -0.5706 N.2            1 S1                 0.0000
     17 ****         1.8967  -1.8774   0.3875 C.2            1 S1                 0.0000
     18 ****         2.1010  -0.8482   1.2798 N.pl3          1 S1                 0.0000
     19 ****         2.9827  -0.8613   2.4372 C.3            1 S1                 0.0000
     20 ****         4.4209  -0.3657   2.1446 C.3            1 S1                 0.0000
     21 ****         4.3402   0.9942   1.7552 O.3            1 S1                 0.0000
     22 ****         5.2858  -0.4565   3.4179 C.3            1 S1                 0.0000
     23 ****         6.7661  -0.1406   3.1398 C.3            1 S1                 0.0000
     24 ****         7.2611  -0.9950   2.1162 O.3            1 S1                 0.0000
     25 ****         6.5970  -0.8043   0.8731 C.3            1 S1                 0.0000
     26 ****         5.1051  -1.1576   1.0091 C.3            1 S1                 0.0000
     27 ****        -3.1997   0.1864  -0.8652 C.3            1 S1                 0.0000
     28 ****        -6.4318   0.6901   1.5000 H              1 S1                 0.0000
     29 ****        -4.7019   0.4385   1.4369 H              1 S1                 0.0000
     30 ****        -5.7940  -0.8801   1.0293 H              1 S1                 0.0000
     31 ****        -5.4555   1.7097  -0.5812 H              1 S1                 0.0000
     32 ****        -7.8251   0.8614  -0.5206 H              1 S1                 0.0000
     33 ****        -7.2822  -0.6798  -1.1724 H              1 S1                 0.0000
     34 ****        -7.1571   0.7915  -2.1357 H              1 S1                 0.0000
     35 ****        -5.3108  -0.5060  -3.2857 H              1 S1                 0.0000
     36 ****        -4.9185   1.1925  -2.9951 H              1 S1                 0.0000
     37 ****        -2.9522  -1.1028  -3.3238 H              1 S1                 0.0000
     38 ****        -2.9777   0.4253  -4.2145 H              1 S1                 0.0000
     39 ****        -2.4439   1.6814  -2.2214 H              1 S1                 0.0000
     40 ****         0.8617   0.1156  -3.1111 H              1 S1                 0.0000
     41 ****        -0.1703   1.4937  -3.5137 H              1 S1                 0.0000
     42 ****        -0.5723  -0.1254  -4.0973 H              1 S1                 0.0000
     43 ****         0.0424   3.1346   1.0689 H              1 S1                 0.0000
     44 ****         2.4045  -2.8275   0.4691 H              1 S1                 0.0000
     45 ****         2.5260  -0.2572   3.2226 H              1 S1                 0.0000
     46 ****         3.0122  -1.8819   2.8210 H              1 S1                 0.0000
     47 ****         5.2149   1.3145   1.5960 H              1 S1                 0.0000
     48 ****         4.9001   0.2093   4.1910 H              1 S1                 0.0000
     49 ****         5.2217  -1.4662   3.8258 H              1 S1                 0.0000
     50 ****         6.8992   0.9040   2.8546 H              1 S1                 0.0000
     51 ****         7.3559  -0.2977   4.0429 H              1 S1                 0.0000
     52 ****         6.7282   0.2235   0.5319 H              1 S1                 0.0000
     53 ****         7.0635  -1.4454   0.1252 H              1 S1                 0.0000
     54 ****         5.0189  -2.2254   1.2146 H              1 S1                 0.0000
     55 ****         4.6027  -0.9866   0.0563 H              1 S1                 0.0000
     56 ****        -3.1341   0.9600  -0.0997 H              1 S1                 0.0000
     57 ****        -2.8222  -0.7416  -0.4334 H              1 S1                 0.0000
     58 ****        -4.7476  -1.0506  -1.1927 H              1 S1                 0.0000
     59 ****        -1.1076  -0.7861  -2.0089 LP             1 S1                 0.0000
     60 ****        -1.0835   2.4443  -0.8237 LP             1 S1                 0.0000
     61 ****         1.5731   1.7376   2.2187 LP             1 S1                 0.0000
     62 ****         0.7625  -2.2271  -1.3165 LP             1 S1                 0.0000
     63 ****         3.9132   1.5288   2.4845 LP             1 S1                 0.0000
     64 ****         3.7951   1.0739   0.9206 LP             1 S1                 0.0000
     65 ****         7.1356  -1.9445   2.4036 LP             1 S1                 0.0000
     66 ****         8.2359  -0.8111   1.9896 LP             1 S1                 0.0000
@<TRIPOS>BOND
    1    1    2 1     
    2    1   28 1     
    3    1   29 1     
    4    1   30 1     
    5    2    3 1     
    6    2    4 1     
    7    2   31 1     
    8    3   32 1     
    9    3   33 1     
   10    3   34 1     
   11    4   27 1     
   12    4    5 1     
   13    4   58 1     
   14    5    6 1     
   15    5   35 1     
   16    5   36 1     
   17    6    7 1     
   18    6   37 1     
   19    6   38 1     
   20    7    8 1     
   21    7   27 1     
   22    7   39 1     
   23    8    9 1     
   24    8   10 1     
   25    9   40 1     
   26    9   41 1     
   27    9   42 1     
   28   10   15 ar    
   29   10   11 ar    
   30   11   12 ar    
   31   12   13 ar    
   32   12   43 1     
   33   13   14 ar    
   34   14   18 1     
   35   14   15 ar    
   36   15   16 1     
   37   16   17 2     
   38   17   18 1     
   39   17   44 1     
   40   18   19 1     
   41   19   20 1     
   42   19   45 1     
   43   19   46 1     
   44   20   26 1     
   45   20   21 1     
   46   20   22 1     
   47   21   47 1     
   48   22   23 1     
   49   22   48 1     
   50   22   49 1     
   51   23   24 1     
   52   23   50 1     
   53   23   51 1     
   54   24   25 1     
   55   25   26 1     
   56   25   52 1     
   57   25   53 1     
   58   26   54 1     
   59   26   55 1     
   60   27   56 1     
   61   27   57 1     
   62    8   59 1     
   63   11   60 1     
   64   13   61 1     
   65   16   62 1     
   66   21   63 1     
   67   21   64 1     
   68   24   65 1     
   69   24   66 1     
@<TRIPOS>SUBSTRUCTURE
      1 S1             1
@<TRIPOS>SET
LONE_PAIRS      STATIC     ATOMS    <user>   **** ""
8 59 60 61 62 63 64 65 66
DONOR_HYDROGENS      STATIC     ATOMS    <user>   **** ""
2 58 47
ATOM$BLUE        STATIC     ATOMS    COLORGROUP SYSTEM
8 59 60 61 62 63 64 65 66
ATOM$RED        STATIC     ATOMS    COLORGROUP SYSTEM
2 58 47
