AV-unprocessed.smi:2232|AV-procd|sdf|9038|dock10
  -GOLD-   2272012243D 1   1.00000     0.00000
 Structure written by MMmdl.
 42 43  0  0  0  0  0  0  0  0  1 V2000
  152.1240  145.8888  160.3005 C   0  0  0  0  0  0  0  0  0  0  0  0
  152.1602  144.5387  159.6156 C   0  0  0  0  0  0  0  0  0  0  0  0
  153.0465  143.5333  160.0464 C   0  0  0  0  0  0  0  0  0  0  0  0
  153.0306  142.2982  159.3694 C   0  0  0  0  0  0  0  0  0  0  0  0
  153.9559  141.1726  159.7817 C   0  0  0  0  0  0  0  0  0  0  0  0
  152.2096  142.0387  158.3295 N   0  0  0  0  0  0  0  0  0  0  0  0
  151.3521  142.9999  157.9052 C   0  0  0  0  0  0  0  0  0  0  0  0
  150.4448  142.8253  156.8265 N   0  0  0  0  0  0  0  0  0  0  0  0
  150.3150  141.7611  156.0146 C   0  0  0  0  0  0  0  0  0  0  0  0
  151.0035  140.7409  156.0603 O   0  0  0  0  0  0  0  0  0  0  0  0
  149.3264  141.9451  155.1273 N   0  0  0  0  0  0  0  0  0  0  0  0
  148.9292  140.9834  154.1058 C   0  0  0  0  0  0  0  0  0  0  0  0
  147.5164  140.4298  154.3730 C   0  0  0  0  0  0  0  0  0  0  0  0
  146.5820  141.3846  154.9670 N   0  0  0  0  0  0  0  0  0  0  0  0
  145.3421  140.7542  155.4167 C   0  0  0  0  0  0  0  0  0  0  0  0
  144.3548  141.7781  156.0050 C   0  0  0  0  0  0  0  0  0  0  0  0
  144.0921  142.7978  155.0469 O   0  0  0  0  0  0  0  0  0  0  0  0
  145.2741  143.4700  154.6253 C   0  0  0  0  0  0  0  0  0  0  0  0
  146.2572  142.4504  154.0249 C   0  0  0  0  0  0  0  0  0  0  0  0
  151.3027  144.2659  158.5309 C   0  0  0  0  0  0  0  0  0  0  0  0
  152.7863  145.9119  161.1666 H   0  0  0  0  0  0  0  0  0  0  0  0
  151.1127  146.1139  160.6397 H   0  0  0  0  0  0  0  0  0  0  0  0
  152.4376  146.6714  159.6092 H   0  0  0  0  0  0  0  0  0  0  0  0
  153.7198  143.7034  160.8739 H   0  0  0  0  0  0  0  0  0  0  0  0
  154.4544  141.3971  160.7250 H   0  0  0  0  0  0  0  0  0  0  0  0
  154.7202  141.0140  159.0207 H   0  0  0  0  0  0  0  0  0  0  0  0
  153.3968  140.2448  159.9068 H   0  0  0  0  0  0  0  0  0  0  0  0
  149.8179  143.5978  156.6581 H   0  0  0  0  0  0  0  0  0  0  0  0
  148.8120  142.8130  155.1595 H   0  0  0  0  0  0  0  0  0  0  0  0
  148.9696  141.4973  153.1461 H   0  0  0  0  0  0  0  0  0  0  0  0
  149.6554  140.1701  154.0562 H   0  0  0  0  0  0  0  0  0  0  0  0
  147.1051  140.0896  153.4216 H   0  0  0  0  0  0  0  0  0  0  0  0
  147.5838  139.5410  155.0027 H   0  0  0  0  0  0  0  0  0  0  0  0
  144.8672  140.2349  154.5829 H   0  0  0  0  0  0  0  0  0  0  0  0
  145.5525  140.0013  156.1754 H   0  0  0  0  0  0  0  0  0  0  0  0
  143.4173  141.2905  156.2728 H   0  0  0  0  0  0  0  0  0  0  0  0
  144.7562  142.2221  156.9172 H   0  0  0  0  0  0  0  0  0  0  0  0
  145.0115  144.2256  153.8850 H   0  0  0  0  0  0  0  0  0  0  0  0
  145.7261  143.9919  155.4703 H   0  0  0  0  0  0  0  0  0  0  0  0
  147.1688  142.9671  153.7224 H   0  0  0  0  0  0  0  0  0  0  0  0
  145.8250  142.0248  153.1181 H   0  0  0  0  0  0  0  0  0  0  0  0
  150.6146  145.0234  158.1839 H   0  0  0  0  0  0  0  0  0  0  0  0
  1  2  1  0  0  0  0
  1 21  1  0  0  0  0
  1 22  1  0  0  0  0
  1 23  1  0  0  0  0
  2 20  1  0  0  0  0
  2  3  2  0  0  0  0
  3  4  1  0  0  0  0
  3 24  1  0  0  0  0
  4  5  1  0  0  0  0
  4  6  2  0  0  0  0
  5 25  1  0  0  0  0
  5 26  1  0  0  0  0
  5 27  1  0  0  0  0
  6  7  1  0  0  0  0
  7  8  1  0  0  0  0
  7 20  2  0  0  0  0
  8  9  1  0  0  0  0
  8 28  1  0  0  0  0
  9 10  2  0  0  0  0
  9 11  1  0  0  0  0
 11 12  1  0  0  0  0
 11 29  1  0  0  0  0
 12 13  1  0  0  0  0
 12 30  1  0  0  0  0
 12 31  1  0  0  0  0
 13 14  1  0  0  0  0
 13 32  1  0  0  0  0
 13 33  1  0  0  0  0
 14 19  1  0  0  0  0
 14 15  1  0  0  0  0
 15 16  1  0  0  0  0
 15 34  1  0  0  0  0
 15 35  1  0  0  0  0
 16 17  1  0  0  0  0
 16 36  1  0  0  0  0
 16 37  1  0  0  0  0
 17 18  1  0  0  0  0
 18 19  1  0  0  0  0
 18 38  1  0  0  0  0
 18 39  1  0  0  0  0
 19 40  1  0  0  0  0
 19 41  1  0  0  0  0
 20 42  1  0  0  0  0
M  END
> <s_m_source_file>
AV-unprocessed.smi

> <i_m_source_file_index>
2232

> <i_lp_mmshare_version>
43012

> <i_f3d_flags>
0

> <s_epik_input>
W0NIM11jMVtjSF1jKFtDSDNdKW5jKFtjSF0xKVtOSF1DKD1PKVtOSF1bQ0gyXVtDSDJdTjJbQ0gyXVtDSDJdT1tDSDJdW0NIMl0y

> <s_epik_cmdline>
J2VwaWtfcHl0aG9uJywgJy1waCcsICc3LjAnLCAnLXRuJywgJzgnLCAnLW1hJywgJzIwMCcsICctbWV0YWxfYmluZGluZycsICctaW1hZScsICc8aW5maWxlLm1hZT4nLCAnLW9tYWUnLCAnPG91dGZpbGUubWFlPic=

> <r_epik_Ionization_Penalty>
0.26623

> <r_epik_Ionization_Penalty_Charging>
0

> <r_epik_Ionization_Penalty_Neutral>
0.26623

> <r_epik_State_Penalty>
0.257924

> <r_epik_Charging_Adjusted_Penalty>
0.257924

> <i_epik_Tot_Q>
0

> <i_epik_Tot_abs_Q>
0

> <r_epik_Metal_State_Penalty>
0.257909

> <b_epik_Metal_Only>
0

> <s_lp_Force_Field>
OPLS_2005

> <r_lp_Energy>
21.9386

> <b_lp_Chiralities_Consistent>
1

> <s_lp_Variant>
AV-unprocessed.smi:2232-1

> <Gold.Version>
5.8.1

> <Gold.Id.Protein>
6NUR|6NUR_protein|mol2

> <Gold.PLP.Fitness>
47.2469

> <Gold.PLP.PLP>
-41.8750

> <Gold.PLP.part.hbond>
-2.0000

> <Gold.PLP.part.metal>
0.0000

> <Gold.PLP.part.buried>
-6.5703

> <Gold.PLP.part.nonpolar>
-34.8227

> <Gold.PLP.part.repulsive>
0.5410

> <Gold.PLP.ligand.clash>
0.0000

> <Gold.PLP.ligand.torsion>
0.2095

> <Gold.PLP.Chemscore.Hbond>
1.9280

> <Gold.PLP.Chemscore.CHOScore>
0.0000

> <Gold.PLP.Chemscore.Metal>
0.0000

> <Gold.Chemscore.Hbonds>
donor molecule, donor type, donor heavy atom, donor atom, acceptor molecule, acceptor atom, score
      L1  H     8    28       P1  8028  1.00
      L1  H    11    29       P1  8028  0.93

> <Gold.PLP.Chemscore.Internal.Correction>
0.0070

> <Gold.Rescore>
     Score         DG    S(hbond)    S(metal)    S(lipo)     H(rot)  DE(clash)    DE(int)     intcor
     17.91     -19.40       1.85        0.00      97.69       1.44       0.01       1.48       ----

> <Gold.Chemscore.Fitness>
17.9056

> <Gold.Chemscore.DG>
-19.3961

> <Gold.Chemscore.ZeroCoef>
-5.4800

> <Gold.Chemscore.Hbond>
1.8508

> <Gold.Chemscore.Metal>
0.0000

> <Gold.Chemscore.Lipo>
97.6854

> <Gold.Chemscore.Internal_Hbond>
0.0000

> <Gold.Chemscore.DEClash>
0.0058

> <Gold.Chemscore.DEInternal>
1.4847

> <Gold.Chemscore.Rot>
1.4433

> <Gold.Chemscore.Internal.Correction>
   9.000000E+99

> <Gold.Chemscore.Hbonds>
donor molecule, donor type, donor heavy atom, donor atom, acceptor molecule, acceptor atom, score
      L1  H     8    28       P1  8028  0.98
      L1  H    11    29       P1  8028  0.88

> <Gold.Chemscore.Hbond.Weighted>
-6.1817

> <Gold.Chemscore.Metal.Weighted>
-0.0000

> <Gold.Chemscore.Lipo.Weighted>
-11.4292

> <Gold.Chemscore.Internal_Hbond.Weighted>
0.0000

> <Gold.Chemscore.DEClash.Weighted>
0.0058

> <Gold.Chemscore.DEInternal.Weighted>
1.4847

> <Gold.Chemscore.Rot.Weighted>
3.6948

> <Gold.Chemscore.Internal.Correction.Weighted>
   9.000000E+99

> <Gold.Protein.RotatedTorsions>
[ 6907 6896 6895 6894 ] final  137.67 input  -60.11 | X-H torsion
[ 7974 7965 7964 7962 ] final   34.14 input  175.53 | X-H torsion
[ 8008 7997 7996 7995 ] final   11.68 input   59.86 | X-H torsion
[ 10167 10162 10161 10158 ] final -102.72 input  -65.29 | X-H torsion
[ 10718 10713 10712 10709 ] final -173.34 input   66.30 | X-H torsion
[ 10763 10752 10751 10750 ] final -168.03 input  -60.55 | X-H torsion
[ 11005 11000 10999 10996 ] final  -20.52 input  -57.11 | X-H torsion

> <Gold.Protein.ActiveResidues>
 VAL166  LYS551  ARG553  GLY616  TRP617  ASP618  TYR619  PRO620  LYS621  CYS622 
 ASP623  PHE694  ASN695  SER759  ASP760  ASP761  ALA762  ILE779  LEU786  VAL792 
 PHE793  MET794  SER795  GLU796  ALA797  LYS798  CYS799  TRP800  GLU811  SER814 

> <Gold.Protein.RotatedAtoms>
  152.2754  133.5421  159.5464 H   0  0  0  0  0  0  0  0  0  0  0  0  # atno 6907 bound_to 6896
  150.7175  134.0639  159.3849 H   0  0  0  0  0  0  0  0  0  0  0  0  # atno 6908 bound_to 6896
  151.8552  135.0544  160.0514 H   0  0  0  0  0  0  0  0  0  0  0  0  # atno 6909 bound_to 6896
  146.1373  139.6307  142.9187 H   0  0  0  0  0  0  0  0  0  0  0  0  # atno 7974 bound_to 7965
  154.8102  140.2867  155.5859 H   0  0  0  0  0  0  0  0  0  0  0  0  # atno 8008 bound_to 7997
  156.2987  140.2570  156.2918 H   0  0  0  0  0  0  0  0  0  0  0  0  # atno 8009 bound_to 7997
  154.9457  140.0380  157.2108 H   0  0  0  0  0  0  0  0  0  0  0  0  # atno 8010 bound_to 7997
  140.2276  143.3630  152.0915 H   0  0  0  0  0  0  0  0  0  0  0  0  # atno 10167 bound_to 10162
  156.7689  130.9441  151.3119 H   0  0  0  0  0  0  0  0  0  0  0  0  # atno 10718 bound_to 10713
  154.6670  135.2933  154.9791 H   0  0  0  0  0  0  0  0  0  0  0  0  # atno 10763 bound_to 10752
  154.0831  135.6601  153.4845 H   0  0  0  0  0  0  0  0  0  0  0  0  # atno 10764 bound_to 10752
  153.0464  135.5202  154.7648 H   0  0  0  0  0  0  0  0  0  0  0  0  # atno 10765 bound_to 10752
  140.8472  133.7883  155.9926 H   0  0  0  0  0  0  0  0  0  0  0  0  # atno 11005 bound_to 11000
  145.5127  141.0435  143.2479 LP  0  0  0  0  0  0  0  0  0  0  0  0  # atno 17320 bound_to 7965
  144.7754  139.6643  143.7177 LP  0  0  0  0  0  0  0  0  0  0  0  0  # atno 17321 bound_to 7965
  139.5121  144.6912  151.5755 LP  0  0  0  0  0  0  0  0  0  0  0  0  # atno 17342 bound_to 10162
  140.6209  143.9261  150.6525 LP  0  0  0  0  0  0  0  0  0  0  0  0  # atno 17343 bound_to 10162
  157.6700  130.9042  150.0019 LP  0  0  0  0  0  0  0  0  0  0  0  0  # atno 17370 bound_to 10713
  156.1290  130.3644  149.9762 LP  0  0  0  0  0  0  0  0  0  0  0  0  # atno 17371 bound_to 10713
  140.8830  134.2588  157.5134 LP  0  0  0  0  0  0  0  0  0  0  0  0  # atno 17394 bound_to 11000
  139.8703  134.9624  156.4429 LP  0  0  0  0  0  0  0  0  0  0  0  0  # atno 17395 bound_to 11000

$$$$
