AV-unprocessed.smi:1901|AV-procd|sdf|7717|dock3
  -GOLD-   22720 9453D 1   1.00000     0.00000
 Structure written by MMmdl.
 28 29  0  0  0  0  0  0  0  0  1 V2000
  144.7002  136.6940  152.9932 O   0  0  0  0  0  0  0  0  0  0  0  0
  145.8731  136.5275  152.6573 C   0  0  0  0  0  0  0  0  0  0  0  0
  146.8668  137.3607  152.9988 N   0  0  0  0  0  0  0  0  0  0  0  0
  146.7213  138.5674  153.8071 C   0  0  0  0  0  0  0  0  0  0  0  0
  147.9105  139.5289  153.6241 C   0  0  1  0  0  0  0  0  0  0  0  0
  147.7614  140.8354  154.3758 C   0  0  0  0  0  0  0  0  0  0  0  0
  149.1961  141.3539  154.4008 C   0  0  0  0  0  0  0  0  0  0  0  0
  150.0289  140.1980  154.4098 O   0  0  0  0  0  0  0  0  0  0  0  0
  149.2459  139.0305  154.1802 C   0  0  0  0  0  0  0  0  0  0  0  0
  146.3310  135.5053  151.9136 N   0  0  0  0  0  0  0  0  0  0  0  0
  145.6006  134.4109  151.3808 C   0  0  0  0  0  0  0  0  0  0  0  0
  144.2671  134.3732  151.2739 N   0  0  0  0  0  0  0  0  0  0  0  0
  143.8195  133.1740  150.7139 C   0  0  0  0  0  0  0  0  0  0  0  0
  144.8328  132.3030  150.3991 C   0  0  0  0  0  0  0  0  0  0  0  0
  146.3990  132.9586  150.7954 S   0  0  0  0  0  0  0  0  0  0  0  0
  147.7984  137.1437  152.6758 H   0  0  0  0  0  0  0  0  0  0  0  0
  145.8027  139.0634  153.4929 H   0  0  0  0  0  0  0  0  0  0  0  0
  146.5856  138.3168  154.8608 H   0  0  0  0  0  0  0  0  0  0  0  0
  148.0345  139.7550  152.5635 H   0  0  0  0  0  0  0  0  0  0  0  0
  147.0685  141.5292  153.8984 H   0  0  0  0  0  0  0  0  0  0  0  0
  147.4135  140.6515  155.3934 H   0  0  0  0  0  0  0  0  0  0  0  0
  149.4099  141.9266  153.4975 H   0  0  0  0  0  0  0  0  0  0  0  0
  149.3911  141.9941  155.2614 H   0  0  0  0  0  0  0  0  0  0  0  0
  149.1012  138.5224  155.1346 H   0  0  0  0  0  0  0  0  0  0  0  0
  149.7511  138.3408  153.5038 H   0  0  0  0  0  0  0  0  0  0  0  0
  147.3195  135.5055  151.7104 H   0  0  0  0  0  0  0  0  0  0  0  0
  142.7593  133.0232  150.5744 H   0  0  0  0  0  0  0  0  0  0  0  0
  144.7529  131.3201  149.9595 H   0  0  0  0  0  0  0  0  0  0  0  0
  1  2  2  0  0  0  0
  2  3  1  0  0  0  0
  2 10  1  0  0  0  0
  3  4  1  0  0  0  0
  3 16  1  0  0  0  0
  4  5  1  0  0  0  0
  4 17  1  0  0  0  0
  4 18  1  0  0  0  0
  5  9  1  0  0  0  0
  5  6  1  0  0  0  0
  5 19  1  0  0  0  0
  6  7  1  0  0  0  0
  6 20  1  0  0  0  0
  6 21  1  0  0  0  0
  7  8  1  0  0  0  0
  7 22  1  0  0  0  0
  7 23  1  0  0  0  0
  8  9  1  0  0  0  0
  9 24  1  0  0  0  0
  9 25  1  0  0  0  0
 10 11  1  0  0  0  0
 10 26  1  0  0  0  0
 11 15  1  0  0  0  0
 11 12  2  0  0  0  0
 12 13  1  0  0  0  0
 13 14  2  0  0  0  0
 13 27  1  0  0  0  0
 14 15  1  0  0  0  0
 14 28  1  0  0  0  0
M  END
> <s_m_source_file>
AV-unprocessed.smi

> <i_m_source_file_index>
1901

> <i_lp_mmshare_version>
43012

> <i_f3d_flags>
0

> <s_epik_input>
czFbY0hdW2NIXW5jMVtOSF1DKD1PKVtOSF1bQ0gyXVtDQEBIXTJbQ0gyXVtDSDJdT1tDSDJdMg==

> <s_epik_cmdline>
J2VwaWtfcHl0aG9uJywgJy1waCcsICc3LjAnLCAnLXRuJywgJzgnLCAnLW1hJywgJzIwMCcsICctbWV0YWxfYmluZGluZycsICctaW1hZScsICc8aW5maWxlLm1hZT4nLCAnLW9tYWUnLCAnPG91dGZpbGUubWFlPic=

> <r_lp_tautomer_probability>
0.999

> <r_epik_Ionization_Penalty>
0.000365592

> <r_epik_Ionization_Penalty_Charging>
0

> <r_epik_Ionization_Penalty_Neutral>
0.000365592

> <r_epik_State_Penalty>
0.000177984

> <r_epik_Charging_Adjusted_Penalty>
0.000177984

> <i_epik_Tot_Q>
0

> <i_epik_Tot_abs_Q>
0

> <r_epik_Metal_State_Penalty>
0.00682492

> <b_epik_Metal_Only>
0

> <s_lp_Force_Field>
OPLS_2005

> <r_lp_Energy>
17.1136

> <b_lp_Chiralities_Consistent>
1

> <s_lp_Variant>
AV-unprocessed.smi:1901-2

> <Gold.Version>
5.8.1

> <Gold.Id.Protein>
6NUR|6NUR_protein|mol2

> <Gold.PLP.Fitness>
36.5179

> <Gold.PLP.PLP>
-24.9619

> <Gold.PLP.part.hbond>
-3.0000

> <Gold.PLP.part.metal>
0.0000

> <Gold.PLP.part.buried>
-1.5987

> <Gold.PLP.part.nonpolar>
-19.6899

> <Gold.PLP.part.repulsive>
0.4809

> <Gold.PLP.ligand.clash>
0.0000

> <Gold.PLP.ligand.torsion>
0.2134

> <Gold.PLP.Chemscore.Hbond>
2.9920

> <Gold.PLP.Chemscore.CHOScore>
1.0000

> <Gold.PLP.Chemscore.Metal>
0.0000

> <Gold.Chemscore.Hbonds>
donor molecule, donor type, donor heavy atom, donor atom, acceptor molecule, acceptor atom, score
      L1  H     3    16       P1  7948  1.00
      L1  H    10    26       P1  7948  1.00
      P1  H  7989  7998       L1     8  0.99
      L1  C    13    27       P1 10186  1.00

> <Gold.PLP.Chemscore.Internal.Correction>
0.0067

> <Gold.Rescore>
     Score         DG    S(hbond)    S(metal)    S(lipo)     H(rot)  DE(clash)    DE(int)     intcor
     15.47     -16.96       2.49        0.00      55.79       1.32       0.06       1.44       ----

> <Gold.Chemscore.Fitness>
15.4667

> <Gold.Chemscore.DG>
-16.9595

> <Gold.Chemscore.ZeroCoef>
-5.4800

> <Gold.Chemscore.Hbond>
2.4916

> <Gold.Chemscore.Metal>
0.0000

> <Gold.Chemscore.Lipo>
55.7910

> <Gold.Chemscore.Internal_Hbond>
0.0000

> <Gold.Chemscore.DEClash>
0.0562

> <Gold.Chemscore.DEInternal>
1.4366

> <Gold.Chemscore.Rot>
1.3163

> <Gold.Chemscore.Internal.Correction>
   9.000000E+99

> <Gold.Chemscore.Hbonds>
donor molecule, donor type, donor heavy atom, donor atom, acceptor molecule, acceptor atom, score
      L1  H     3    16       P1  7948  0.98
      L1  H    10    26       P1  7948  0.96
      P1  H  7989  7998       L1     8  0.28

> <Gold.Chemscore.Hbond.Weighted>
-8.3218

> <Gold.Chemscore.Metal.Weighted>
-0.0000

> <Gold.Chemscore.Lipo.Weighted>
-6.5275

> <Gold.Chemscore.Internal_Hbond.Weighted>
0.0000

> <Gold.Chemscore.DEClash.Weighted>
0.0562

> <Gold.Chemscore.DEInternal.Weighted>
1.4366

> <Gold.Chemscore.Rot.Weighted>
3.3698

> <Gold.Chemscore.Internal.Correction.Weighted>
   9.000000E+99

> <Gold.Protein.RotatedTorsions>
[ 6907 6896 6895 6894 ] final   40.85 input  -60.11 | X-H torsion
[ 7974 7965 7964 7962 ] final -150.44 input  175.53 | X-H torsion
[ 8008 7997 7996 7995 ] final  -92.84 input   59.86 | X-H torsion
[ 10167 10162 10161 10158 ] final -143.70 input  -65.29 | X-H torsion
[ 10718 10713 10712 10709 ] final  -37.65 input   66.30 | X-H torsion
[ 10763 10752 10751 10750 ] final  -46.18 input  -60.55 | X-H torsion
[ 11005 11000 10999 10996 ] final  134.98 input  -57.11 | X-H torsion

> <Gold.Protein.ActiveResidues>
 VAL166  LYS551  ARG553  GLY616  TRP617  ASP618  TYR619  PRO620  LYS621  CYS622 
 ASP623  PHE694  ASN695  SER759  ASP760  ASP761  ALA762  ILE779  LEU786  VAL792 
 PHE793  MET794  SER795  GLU796  ALA797  LYS798  CYS799  TRP800  GLU811  SER814 

> <Gold.Protein.RotatedAtoms>
  152.1878  134.8699  160.0520 H   0  0  0  0  0  0  0  0  0  0  0  0  # atno 6907 bound_to 6896
  151.9599  133.3687  159.4039 H   0  0  0  0  0  0  0  0  0  0  0  0  # atno 6908 bound_to 6896
  150.6929  134.4175  159.5234 H   0  0  0  0  0  0  0  0  0  0  0  0  # atno 6909 bound_to 6896
  144.7908  140.4932  143.5774 H   0  0  0  0  0  0  0  0  0  0  0  0  # atno 7974 bound_to 7965
  154.7281  140.0505  157.0701 H   0  0  0  0  0  0  0  0  0  0  0  0  # atno 8008 bound_to 7997
  155.0338  140.3161  155.4730 H   0  0  0  0  0  0  0  0  0  0  0  0  # atno 8009 bound_to 7997
  156.2834  140.2145  156.5460 H   0  0  0  0  0  0  0  0  0  0  0  0  # atno 8010 bound_to 7997
  139.7968  143.7889  152.2655 H   0  0  0  0  0  0  0  0  0  0  0  0  # atno 10167 bound_to 10162
  156.3128  130.4255  149.8034 H   0  0  0  0  0  0  0  0  0  0  0  0  # atno 10718 bound_to 10713
  154.0407  135.6644  153.4790 H   0  0  0  0  0  0  0  0  0  0  0  0  # atno 10763 bound_to 10752
  153.0503  135.5089  154.7845 H   0  0  0  0  0  0  0  0  0  0  0  0  # atno 10764 bound_to 10752
  154.6820  135.3046  154.9565 H   0  0  0  0  0  0  0  0  0  0  0  0  # atno 10765 bound_to 10752
  139.9950  134.9501  156.9942 H   0  0  0  0  0  0  0  0  0  0  0  0  # atno 11005 bound_to 11000
  145.5801  139.1488  143.3240 LP  0  0  0  0  0  0  0  0  0  0  0  0  # atno 17320 bound_to 7965
  146.2158  140.5931  142.9039 LP  0  0  0  0  0  0  0  0  0  0  0  0  # atno 17321 bound_to 7965
  139.7997  144.7379  150.9842 LP  0  0  0  0  0  0  0  0  0  0  0  0  # atno 17342 bound_to 10162
  140.7820  143.4358  151.0626 LP  0  0  0  0  0  0  0  0  0  0  0  0  # atno 17343 bound_to 10162
  156.5370  130.8283  151.3256 LP  0  0  0  0  0  0  0  0  0  0  0  0  # atno 17370 bound_to 10713
  157.7395  130.9832  150.2317 LP  0  0  0  0  0  0  0  0  0  0  0  0  # atno 17371 bound_to 10713
  140.4836  134.1264  155.7221 LP  0  0  0  0  0  0  0  0  0  0  0  0  # atno 17394 bound_to 11000
  141.1597  133.8817  157.1883 LP  0  0  0  0  0  0  0  0  0  0  0  0  # atno 17395 bound_to 11000

$$$$
