AV-unprocessed.smi:297|AV-procd|sdf|2260|dock2
  -GOLD-   2262022143D 1   1.00000     0.00000
 Structure written by MMmdl.
 29 30  0  0  0  0  0  0  0  0  1 V2000
  156.0978  137.6701  160.1463 N   0  0  0  0  0  0  0  0  0  0  0  0
  155.3027  138.5019  160.0216 C   0  0  0  0  0  0  0  0  0  0  0  0
  154.3031  139.5477  159.8646 C   0  0  0  0  0  0  0  0  0  0  0  0
  153.6395  139.5802  158.6878 N   0  0  0  0  0  0  0  0  0  0  0  0
  152.6925  140.5274  158.4775 C   0  0  0  0  0  0  0  0  0  0  0  0
  152.0150  140.5335  157.2389 N   0  0  0  0  0  0  0  0  0  0  0  0
  150.8639  141.4273  157.1501 C   0  0  0  0  0  0  0  0  0  0  0  0
  150.4245  141.5843  155.6858 C   0  0  0  0  0  0  0  0  0  0  0  0
  150.1695  140.3028  155.1219 O   0  0  0  0  0  0  0  0  0  0  0  0
  151.3328  139.4749  155.1084 C   0  0  2  0  0  0  0  0  0  0  0  0
  150.9959  138.1558  154.3975 C   0  0  0  0  0  0  0  0  0  0  0  0
  150.1175  138.2088  153.3921 N   0  0  0  0  0  0  0  0  0  0  0  0
  151.5317  137.1012  154.7337 O   0  0  0  0  0  0  0  0  0  0  0  0
  151.8132  139.2539  156.5605 C   0  0  0  0  0  0  0  0  0  0  0  0
  152.3858  141.4953  159.4619 C   0  0  0  0  0  0  0  0  0  0  0  0
  153.0742  141.4656  160.6888 C   0  0  0  0  0  0  0  0  0  0  0  0
  154.0513  140.4757  160.9032 C   0  0  0  0  0  0  0  0  0  0  0  0
  154.9016  140.4342  162.4101 Cl  0  0  0  0  0  0  0  0  0  0  0  0
  150.0479  141.0098  157.7415 H   0  0  0  0  0  0  0  0  0  0  0  0
  151.0816  142.4118  157.5616 H   0  0  0  0  0  0  0  0  0  0  0  0
  149.5155  142.1831  155.6295 H   0  0  0  0  0  0  0  0  0  0  0  0
  151.1862  142.1061  155.1039 H   0  0  0  0  0  0  0  0  0  0  0  0
  152.1169  139.9679  154.5309 H   0  0  0  0  0  0  0  0  0  0  0  0
  149.8744  137.3645  152.8941 H   0  0  0  0  0  0  0  0  0  0  0  0
  149.7060  139.0927  153.1297 H   0  0  0  0  0  0  0  0  0  0  0  0
  152.7481  138.6915  156.5524 H   0  0  0  0  0  0  0  0  0  0  0  0
  151.0821  138.6647  157.1169 H   0  0  0  0  0  0  0  0  0  0  0  0
  151.6472  142.2632  159.2872 H   0  0  0  0  0  0  0  0  0  0  0  0
  152.8562  142.1963  161.4536 H   0  0  0  0  0  0  0  0  0  0  0  0
  1  2  3  0  0  0  0
  2  3  1  0  0  0  0
  3 17  1  0  0  0  0
  3  4  2  0  0  0  0
  4  5  1  0  0  0  0
  5  6  1  0  0  0  0
  5 15  2  0  0  0  0
  6 14  1  0  0  0  0
  6  7  1  0  0  0  0
  7  8  1  0  0  0  0
  7 19  1  0  0  0  0
  7 20  1  0  0  0  0
  8  9  1  0  0  0  0
  8 21  1  0  0  0  0
  8 22  1  0  0  0  0
  9 10  1  0  0  0  0
 10 11  1  0  0  0  0
 10 14  1  0  0  0  0
 10 23  1  0  0  0  0
 11 12  1  0  0  0  0
 11 13  2  0  0  0  0
 12 24  1  0  0  0  0
 12 25  1  0  0  0  0
 14 26  1  0  0  0  0
 14 27  1  0  0  0  0
 15 16  1  0  0  0  0
 15 28  1  0  0  0  0
 16 17  2  0  0  0  0
 16 29  1  0  0  0  0
 17 18  1  0  0  0  0
M  END
> <s_m_source_file>
AV-unprocessed.smi

> <i_m_source_file_index>
297

> <i_lp_mmshare_version>
43012

> <i_f3d_flags>
0

> <s_epik_input>
TiNDYzFuYyhbY0hdW2NIXWMxQ2wpTjJbQ0gyXVtDSDJdT1tDQEhdKFtDSDJdMilDKD1PKVtOSDJd

> <s_epik_cmdline>
J2VwaWtfcHl0aG9uJywgJy1waCcsICc3LjAnLCAnLXRuJywgJzgnLCAnLW1hJywgJzIwMCcsICctbWV0YWxfYmluZGluZycsICctaW1hZScsICc8aW5maWxlLm1hZT4nLCAnLW9tYWUnLCAnPG91dGZpbGUubWFlPic=

> <r_lp_tautomer_probability>
1

> <r_epik_Ionization_Penalty>
8.82403e-08

> <r_epik_Ionization_Penalty_Charging>
0

> <r_epik_Ionization_Penalty_Neutral>
8.82403e-08

> <r_epik_State_Penalty>
-0

> <r_epik_Charging_Adjusted_Penalty>
0

> <i_epik_Tot_Q>
0

> <i_epik_Tot_abs_Q>
0

> <r_epik_Metal_State_Penalty>
-0

> <b_epik_Metal_Only>
0

> <s_lp_Force_Field>
OPLS_2005

> <r_lp_Energy>
18.7144

> <b_lp_Chiralities_Consistent>
1

> <s_lp_Variant>
AV-unprocessed.smi:297-2

> <Gold.Version>
5.8.1

> <Gold.Id.Protein>
6NUR|6NUR_protein|mol2

> <Gold.PLP.Fitness>
39.6924

> <Gold.PLP.PLP>
-31.7320

> <Gold.PLP.part.hbond>
-5.2269

> <Gold.PLP.part.metal>
0.0000

> <Gold.PLP.part.buried>
-0.5906

> <Gold.PLP.part.nonpolar>
-24.9844

> <Gold.PLP.part.repulsive>
0.3014

> <Gold.PLP.ligand.clash>
0.0000

> <Gold.PLP.ligand.torsion>
1.1868

> <Gold.PLP.Chemscore.Hbond>
3.3272

> <Gold.PLP.Chemscore.CHOScore>
0.0000

> <Gold.PLP.Chemscore.Metal>
0.0000

> <Gold.Chemscore.Hbonds>
donor molecule, donor type, donor heavy atom, donor atom, acceptor molecule, acceptor atom, score
      L1  H    12    24       P1  7948  1.00
      L1  H    12    25       P1  7957  0.35
      P1  H  7997  8010       L1     4  1.00
      P1  H 10752 10765       L1    13  0.96

> <Gold.PLP.Chemscore.Internal.Correction>
0.3525

> <Gold.Rescore>
     Score         DG    S(hbond)    S(metal)    S(lipo)     H(rot)  DE(clash)    DE(int)     intcor
     15.05     -16.33       2.03        0.00      67.56       1.50       0.32       0.96       ----

> <Gold.Chemscore.Fitness>
15.0515

> <Gold.Chemscore.DG>
-16.3280

> <Gold.Chemscore.ZeroCoef>
-5.4800

> <Gold.Chemscore.Hbond>
2.0315

> <Gold.Chemscore.Metal>
0.0000

> <Gold.Chemscore.Lipo>
67.5603

> <Gold.Chemscore.Internal_Hbond>
0.0000

> <Gold.Chemscore.DEClash>
0.3158

> <Gold.Chemscore.DEInternal>
0.9607

> <Gold.Chemscore.Rot>
1.5006

> <Gold.Chemscore.Internal.Correction>
   9.000000E+99

> <Gold.Chemscore.Hbonds>
donor molecule, donor type, donor heavy atom, donor atom, acceptor molecule, acceptor atom, score
      L1  H    12    24       P1  7948  0.26
      L1  H    12    25       P1  7957  0.34
      P1  H  7997  8010       L1     4  0.20
      P1  H 10752 10765       L1    13  0.91

> <Gold.Chemscore.Hbond.Weighted>
-6.7851

> <Gold.Chemscore.Metal.Weighted>
-0.0000

> <Gold.Chemscore.Lipo.Weighted>
-7.9046

> <Gold.Chemscore.Internal_Hbond.Weighted>
0.0000

> <Gold.Chemscore.DEClash.Weighted>
0.3158

> <Gold.Chemscore.DEInternal.Weighted>
0.9607

> <Gold.Chemscore.Rot.Weighted>
3.8416

> <Gold.Chemscore.Internal.Correction.Weighted>
   9.000000E+99

> <Gold.Protein.RotatedTorsions>
[ 6907 6896 6895 6894 ] final  -74.08 input  -60.11 | X-H torsion
[ 7974 7965 7964 7962 ] final  114.64 input  175.53 | X-H torsion
[ 8008 7997 7996 7995 ] final    7.76 input   59.86 | X-H torsion
[ 10167 10162 10161 10158 ] final   44.67 input  -65.29 | X-H torsion
[ 10718 10713 10712 10709 ] final -133.23 input   66.30 | X-H torsion
[ 10763 10752 10751 10750 ] final  171.16 input  -60.55 | X-H torsion
[ 11005 11000 10999 10996 ] final -136.47 input  -57.11 | X-H torsion

> <Gold.Protein.ActiveResidues>
 VAL166  LYS551  ARG553  GLY616  TRP617  ASP618  TYR619  PRO620  LYS621  CYS622 
 ASP623  PHE694  ASN695  SER759  ASP760  ASP761  ALA762  ILE779  LEU786  VAL792 
 PHE793  MET794  SER795  GLU796  ALA797  LYS798  CYS799  TRP800  GLU811  SER814 

> <Gold.Protein.RotatedAtoms>
  150.7106  134.4921  159.5520 H   0  0  0  0  0  0  0  0  0  0  0  0  # atno 6907 bound_to 6896
  152.2537  134.8104  160.0451 H   0  0  0  0  0  0  0  0  0  0  0  0  # atno 6908 bound_to 6896
  151.8842  133.3466  159.3813 H   0  0  0  0  0  0  0  0  0  0  0  0  # atno 6909 bound_to 6896
  145.2019  139.2948  143.4314 H   0  0  0  0  0  0  0  0  0  0  0  0  # atno 7974 bound_to 7965
  154.7580  140.2779  155.6237 H   0  0  0  0  0  0  0  0  0  0  0  0  # atno 8008 bound_to 7997
  156.2910  140.2665  156.2278 H   0  0  0  0  0  0  0  0  0  0  0  0  # atno 8009 bound_to 7997
  155.0053  140.0372  157.2367 H   0  0  0  0  0  0  0  0  0  0  0  0  # atno 8010 bound_to 7997
  140.3319  144.2578  150.6167 H   0  0  0  0  0  0  0  0  0  0  0  0  # atno 10167 bound_to 10162
  156.2428  130.7106  151.0974 H   0  0  0  0  0  0  0  0  0  0  0  0  # atno 10718 bound_to 10713
  154.4079  135.2756  155.2055 H   0  0  0  0  0  0  0  0  0  0  0  0  # atno 10763 bound_to 10752
  154.4053  135.6035  153.5924 H   0  0  0  0  0  0  0  0  0  0  0  0  # atno 10764 bound_to 10752
  152.9831  135.5936  154.4357 H   0  0  0  0  0  0  0  0  0  0  0  0  # atno 10765 bound_to 10752
  140.8802  134.1941  157.4596 H   0  0  0  0  0  0  0  0  0  0  0  0  # atno 11005 bound_to 11000
  146.3416  140.2266  142.8592 LP  0  0  0  0  0  0  0  0  0  0  0  0  # atno 17320 bound_to 7965
  144.9940  140.8572  143.5322 LP  0  0  0  0  0  0  0  0  0  0  0  0  # atno 17321 bound_to 7965
  140.5389  143.2227  151.8117 LP  0  0  0  0  0  0  0  0  0  0  0  0  # atno 17342 bound_to 10162
  139.4855  144.4626  151.9523 LP  0  0  0  0  0  0  0  0  0  0  0  0  # atno 17343 bound_to 10162
  157.7182  131.0697  150.6242 LP  0  0  0  0  0  0  0  0  0  0  0  0  # atno 17370 bound_to 10713
  156.6317  130.4433  149.5784 LP  0  0  0  0  0  0  0  0  0  0  0  0  # atno 17371 bound_to 10713
  139.8719  134.9814  156.5114 LP  0  0  0  0  0  0  0  0  0  0  0  0  # atno 17394 bound_to 11000
  140.8470  133.8161  155.9131 LP  0  0  0  0  0  0  0  0  0  0  0  0  # atno 17395 bound_to 11000

$$$$
