AV-unprocessed.smi:1354|AV-procd|sdf|5535|dock3
  -GOLD-   22720 5123D 1   1.00000     0.00000
 Structure written by MMmdl.
 40 42  0  0  0  0  0  0  0  0  2 V2000
  152.7860  136.2314  156.0123 O   0  0  0  0  0  0  0  0  0  0  0  0
  152.2740  137.5327  155.8240 C   0  0  0  0  0  0  0  0  0  0  0  0
  151.7127  137.6684  154.4020 C   0  0  0  0  0  0  0  0  0  0  0  0
  150.6255  138.6917  154.3363 C   0  0  0  0  0  0  0  0  0  0  0  0
  149.5002  138.6123  153.5712 N   0  3  0  0  0  0  0  0  0  0  0  0
  148.7092  139.7437  153.7745 C   0  0  0  0  0  0  0  0  0  0  0  0
  147.4879  140.1128  153.2193 C   0  0  0  0  0  0  0  0  0  0  0  0
  146.9473  141.3452  153.6413 C   0  0  0  0  0  0  0  0  0  0  0  0
  147.6151  142.1559  154.5817 C   0  0  0  0  0  0  0  0  0  0  0  0
  148.8510  141.7693  155.1400 C   0  0  0  0  0  0  0  0  0  0  0  0
  149.3809  140.5508  154.7154 C   0  0  0  0  0  0  0  0  0  0  0  0
  150.5574  139.8620  155.0346 N   0  0  0  0  0  0  0  0  0  0  0  0
  151.5022  140.4471  155.9984 C   0  0  0  0  0  0  0  0  0  0  0  0
  150.8019  140.9515  157.2687 C   0  0  0  0  0  0  0  0  0  0  0  0
  151.7412  141.0240  158.3330 O   0  0  0  0  0  0  0  0  0  0  0  0
  151.7883  142.1728  159.0943 C   0  0  0  0  0  0  0  0  0  0  0  0
  151.0344  143.3402  158.8105 C   0  0  0  0  0  0  0  0  0  0  0  0
  151.1383  144.4763  159.6362 C   0  0  0  0  0  0  0  0  0  0  0  0
  151.9938  144.4626  160.7526 C   0  0  0  0  0  0  0  0  0  0  0  0
  152.7456  143.3100  161.0434 C   0  0  0  0  0  0  0  0  0  0  0  0
  152.6431  142.1717  160.2197 C   0  0  0  0  0  0  0  0  0  0  0  0
  153.5745  140.7683  160.6033 Cl  0  0  0  0  0  0  0  0  0  0  0  0
  152.9405  136.0985  156.9355 H   0  0  0  0  0  0  0  0  0  0  0  0
  151.4966  137.7196  156.5656 H   0  0  0  0  0  0  0  0  0  0  0  0
  153.0718  138.2553  155.9974 H   0  0  0  0  0  0  0  0  0  0  0  0
  152.5050  137.9448  153.7057 H   0  0  0  0  0  0  0  0  0  0  0  0
  151.3178  136.7107  154.0607 H   0  0  0  0  0  0  0  0  0  0  0  0
  146.9748  139.4937  152.4980 H   0  0  0  0  0  0  0  0  0  0  0  0
  146.0023  141.6757  153.2352 H   0  0  0  0  0  0  0  0  0  0  0  0
  147.1729  143.0961  154.8782 H   0  0  0  0  0  0  0  0  0  0  0  0
  149.3573  142.4035  155.8524 H   0  0  0  0  0  0  0  0  0  0  0  0
  152.2709  139.7128  156.2392 H   0  0  0  0  0  0  0  0  0  0  0  0
  152.0141  141.2730  155.5041 H   0  0  0  0  0  0  0  0  0  0  0  0
  150.3720  141.9356  157.0780 H   0  0  0  0  0  0  0  0  0  0  0  0
  149.9890  140.2722  157.5302 H   0  0  0  0  0  0  0  0  0  0  0  0
  150.3684  143.3914  157.9628 H   0  0  0  0  0  0  0  0  0  0  0  0
  150.5602  145.3606  159.4120 H   0  0  0  0  0  0  0  0  0  0  0  0
  152.0734  145.3346  161.3849 H   0  0  0  0  0  0  0  0  0  0  0  0
  153.4021  143.3000  161.9012 H   0  0  0  0  0  0  0  0  0  0  0  0
  149.2927  137.8397  152.9514 H   0  0  0  0  0  0  0  0  0  0  0  0
  1  2  1  0  0  0  0
  1 23  1  0  0  0  0
  2  3  1  0  0  0  0
  2 24  1  0  0  0  0
  2 25  1  0  0  0  0
  3  4  1  0  0  0  0
  3 26  1  0  0  0  0
  3 27  1  0  0  0  0
  4 12  1  0  0  0  0
  4  5  2  0  0  0  0
  5  6  1  0  0  0  0
  5 40  1  0  0  0  0
  6 11  2  0  0  0  0
  6  7  1  0  0  0  0
  7  8  2  0  0  0  0
  7 28  1  0  0  0  0
  8  9  1  0  0  0  0
  8 29  1  0  0  0  0
  9 10  2  0  0  0  0
  9 30  1  0  0  0  0
 10 11  1  0  0  0  0
 10 31  1  0  0  0  0
 11 12  1  0  0  0  0
 12 13  1  0  0  0  0
 13 14  1  0  0  0  0
 13 32  1  0  0  0  0
 13 33  1  0  0  0  0
 14 15  1  0  0  0  0
 14 34  1  0  0  0  0
 14 35  1  0  0  0  0
 15 16  1  0  0  0  0
 16 21  1  0  0  0  0
 16 17  2  0  0  0  0
 17 18  1  0  0  0  0
 17 36  1  0  0  0  0
 18 19  2  0  0  0  0
 18 37  1  0  0  0  0
 19 20  1  0  0  0  0
 19 38  1  0  0  0  0
 20 21  2  0  0  0  0
 20 39  1  0  0  0  0
 21 22  1  0  0  0  0
M  CHG  1   5   1
M  END
> <s_m_source_file>
AV-unprocessed.smi

> <i_m_source_file_index>
1354

> <i_lp_mmshare_version>
43012

> <i_f3d_flags>
0

> <s_epik_input>
W2NIXTFbY0hdW2NIXVtjSF1jKGMxMiluKGMobjIpW0NIMl1bQ0gyXVtPSF0pW0NIMl1bQ0gyXU9jM1tjSF1bY0hdW2NIXVtjSF1jM0Ns

> <s_epik_cmdline>
J2VwaWtfcHl0aG9uJywgJy1waCcsICc3LjAnLCAnLXRuJywgJzgnLCAnLW1hJywgJzIwMCcsICctbWV0YWxfYmluZGluZycsICctaW1hZScsICc8aW5maWxlLm1hZT4nLCAnLW9tYWUnLCAnPG91dGZpbGUubWFlPic=

> <r_lp_tautomer_probability>
1

> <r_epik_Ionization_Penalty>
0.752951

> <r_epik_Ionization_Penalty_Charging>
0.752951

> <r_epik_Ionization_Penalty_Neutral>
5.89567e-08

> <r_epik_State_Penalty>
0.780107

> <r_epik_Charging_Adjusted_Penalty>
1.53306

> <i_epik_Tot_Q>
1

> <i_epik_Tot_abs_Q>
1

> <r_epik_Metal_State_Penalty>
4.68821

> <b_epik_Metal_Only>
0

> <s_lp_Force_Field>
OPLS_2005

> <r_lp_Energy>
19.8379

> <b_lp_Chiralities_Consistent>
1

> <s_lp_Variant>
AV-unprocessed.smi:1354-2

> <Gold.Version>
5.8.1

> <Gold.Id.Protein>
6NUR|6NUR_protein|mol2

> <Gold.PLP.Fitness>
59.4915

> <Gold.PLP.PLP>
-52.6490

> <Gold.PLP.part.hbond>
-3.0000

> <Gold.PLP.part.metal>
0.0000

> <Gold.PLP.part.buried>
-0.5352

> <Gold.PLP.part.nonpolar>
-49.8470

> <Gold.PLP.part.repulsive>
0.0650

> <Gold.PLP.ligand.clash>
0.0000

> <Gold.PLP.ligand.torsion>
1.1227

> <Gold.PLP.Chemscore.Hbond>
3.0000

> <Gold.PLP.Chemscore.CHOScore>
0.0000

> <Gold.PLP.Chemscore.Metal>
0.0000

> <Gold.Chemscore.Hbonds>
donor molecule, donor type, donor heavy atom, donor atom, acceptor molecule, acceptor atom, score
      L1  H     5    40       P1  7948  2.00
      P1  H 10752 10764       L1     1  0.35

> <Gold.PLP.Chemscore.Internal.Correction>
0.0879

> <Gold.Rescore>
     Score         DG    S(hbond)    S(metal)    S(lipo)     H(rot)  DE(clash)    DE(int)     intcor
     20.85     -21.85       1.94        0.00     136.82       2.39       0.09       0.92       ----

> <Gold.Chemscore.Fitness>
20.8474

> <Gold.Chemscore.DG>
-21.8521

> <Gold.Chemscore.ZeroCoef>
-5.4800

> <Gold.Chemscore.Hbond>
1.9447

> <Gold.Chemscore.Metal>
0.0000

> <Gold.Chemscore.Lipo>
136.8162

> <Gold.Chemscore.Internal_Hbond>
0.0000

> <Gold.Chemscore.DEClash>
0.0887

> <Gold.Chemscore.DEInternal>
0.9160

> <Gold.Chemscore.Rot>
2.3948

> <Gold.Chemscore.Internal.Correction>
   9.000000E+99

> <Gold.Chemscore.Hbonds>
donor molecule, donor type, donor heavy atom, donor atom, acceptor molecule, acceptor atom, score
      L1  H     5    40       P1  7948  0.95
      P1  H 10752 10764       L1     1  0.28

> <Gold.Chemscore.Hbond.Weighted>
-6.4954

> <Gold.Chemscore.Metal.Weighted>
-0.0000

> <Gold.Chemscore.Lipo.Weighted>
-16.0075

> <Gold.Chemscore.Internal_Hbond.Weighted>
0.0000

> <Gold.Chemscore.DEClash.Weighted>
0.0887

> <Gold.Chemscore.DEInternal.Weighted>
0.9160

> <Gold.Chemscore.Rot.Weighted>
6.1308

> <Gold.Chemscore.Internal.Correction.Weighted>
   9.000000E+99

> <Gold.Protein.RotatedTorsions>
[ 6907 6896 6895 6894 ] final   47.04 input  -60.11 | X-H torsion
[ 7974 7965 7964 7962 ] final   88.72 input  175.53 | X-H torsion
[ 8008 7997 7996 7995 ] final  -45.66 input   59.86 | X-H torsion
[ 10167 10162 10161 10158 ] final -107.41 input  -65.29 | X-H torsion
[ 10718 10713 10712 10709 ] final   46.31 input   66.30 | X-H torsion
[ 10763 10752 10751 10750 ] final   -7.94 input  -60.55 | X-H torsion
[ 11005 11000 10999 10996 ] final -139.70 input  -57.11 | X-H torsion

> <Gold.Protein.ActiveResidues>
 VAL166  LYS551  ARG553  GLY616  TRP617  ASP618  TYR619  PRO620  LYS621  CYS622 
 ASP623  PHE694  ASN695  SER759  ASP760  ASP761  ALA762  ILE779  LEU786  VAL792 
 PHE793  MET794  SER795  GLU796  ALA797  LYS798  CYS799  TRP800  GLU811  SER814 

> <Gold.Protein.RotatedAtoms>
  152.2634  134.8010  160.0426 H   0  0  0  0  0  0  0  0  0  0  0  0  # atno 6907 bound_to 6896
  151.8648  133.3459  159.3724 H   0  0  0  0  0  0  0  0  0  0  0  0  # atno 6908 bound_to 6896
  150.7125  134.5098  159.5646 H   0  0  0  0  0  0  0  0  0  0  0  0  # atno 6909 bound_to 6896
  145.5419  139.2289  143.2561 H   0  0  0  0  0  0  0  0  0  0  0  0  # atno 7974 bound_to 7965
  154.4002  140.1391  156.3884 H   0  0  0  0  0  0  0  0  0  0  0  0  # atno 8008 bound_to 7997
  155.7937  140.3478  155.5343 H   0  0  0  0  0  0  0  0  0  0  0  0  # atno 8009 bound_to 7997
  155.8553  140.0948  157.1639 H   0  0  0  0  0  0  0  0  0  0  0  0  # atno 8010 bound_to 7997
  140.1773  143.3995  152.1309 H   0  0  0  0  0  0  0  0  0  0  0  0  # atno 10167 bound_to 10162
  157.4467  130.8114  149.7748 H   0  0  0  0  0  0  0  0  0  0  0  0  # atno 10718 bound_to 10713
  153.4334  135.7012  153.6216 H   0  0  0  0  0  0  0  0  0  0  0  0  # atno 10763 bound_to 10752
  153.4621  135.3734  155.2344 H   0  0  0  0  0  0  0  0  0  0  0  0  # atno 10764 bound_to 10752
  154.8726  135.4022  154.3721 H   0  0  0  0  0  0  0  0  0  0  0  0  # atno 10765 bound_to 10752
  140.8494  134.2305  157.4768 H   0  0  0  0  0  0  0  0  0  0  0  0  # atno 11005 bound_to 11000
  146.1975  140.6240  142.9117 LP  0  0  0  0  0  0  0  0  0  0  0  0  # atno 17320 bound_to 7965
  144.7572  140.5337  143.6760 LP  0  0  0  0  0  0  0  0  0  0  0  0  # atno 17321 bound_to 7965
  139.5311  144.7160  151.5051 LP  0  0  0  0  0  0  0  0  0  0  0  0  # atno 17342 bound_to 10162
  140.6543  143.8632  150.6818 LP  0  0  0  0  0  0  0  0  0  0  0  0  # atno 17343 bound_to 10162
  155.9970  130.3902  150.2756 LP  0  0  0  0  0  0  0  0  0  0  0  0  # atno 17370 bound_to 10713
  157.0925  131.0173  151.3116 LP  0  0  0  0  0  0  0  0  0  0  0  0  # atno 17371 bound_to 10713
  139.8704  134.9675  156.4600 LP  0  0  0  0  0  0  0  0  0  0  0  0  # atno 17394 bound_to 11000
  140.8807  133.7920  155.9464 LP  0  0  0  0  0  0  0  0  0  0  0  0  # atno 17395 bound_to 11000

$$$$
