AV-unprocessed.smi:2468|AV-procd|sdf|9730|dock3
  -GOLD-   2272013373D 1   1.00000     0.00000
 Structure written by MMmdl.
 32 33  0  0  0  0  0  0  0  0  1 V2000
  151.7997  145.8671  160.1747 C   0  0  0  0  0  0  0  0  0  0  0  0
  152.1372  144.3884  160.2171 C   0  0  0  0  0  0  0  0  0  0  0  0
  152.4721  143.8997  161.4311 N   0  0  0  0  0  0  0  0  0  0  0  0
  152.7728  142.5885  161.5260 C   0  0  0  0  0  0  0  0  0  0  0  0
  152.7604  141.7091  160.4268 C   0  0  0  0  0  0  0  0  0  0  0  0
  152.4265  142.2210  159.1498 C   0  0  0  0  0  0  0  0  0  0  0  0
  152.3621  141.4201  157.9755 N   0  0  0  0  0  0  0  0  0  0  0  0
  152.0850  140.1086  157.8580 C   0  0  0  0  0  0  0  0  0  0  0  0
  151.8769  139.3508  158.8058 O   0  0  0  0  0  0  0  0  0  0  0  0
  152.0834  139.5581  156.4214 C   0  0  1  0  0  0  0  0  0  0  0  0
  151.9822  138.1352  156.5033 O   0  0  0  0  0  0  0  0  0  0  0  0
  150.7696  137.6745  155.9113 C   0  0  0  0  0  0  0  0  0  0  0  0
  149.8687  138.9001  155.8086 C   0  0  0  0  0  0  0  0  0  0  0  0
  150.8863  139.9917  155.5482 C   0  0  1  0  0  0  0  0  0  0  0  0
  150.3532  141.4226  155.7449 C   0  0  0  0  0  0  0  0  0  0  0  0
  152.0943  143.5926  159.0483 C   0  0  0  0  0  0  0  0  0  0  0  0
  151.6486  144.2858  157.5245 Cl  0  0  0  0  0  0  0  0  0  0  0  0
  152.4782  146.3911  159.5010 H   0  0  0  0  0  0  0  0  0  0  0  0
  151.8817  146.3268  161.1604 H   0  0  0  0  0  0  0  0  0  0  0  0
  150.7794  146.0126  159.8190 H   0  0  0  0  0  0  0  0  0  0  0  0
  153.0242  142.2260  162.5117 H   0  0  0  0  0  0  0  0  0  0  0  0
  152.9921  140.6679  160.5885 H   0  0  0  0  0  0  0  0  0  0  0  0
  152.6127  141.8938  157.1195 H   0  0  0  0  0  0  0  0  0  0  0  0
  153.0202  139.8215  155.9277 H   0  0  0  0  0  0  0  0  0  0  0  0
  150.9945  137.2850  154.9177 H   0  0  0  0  0  0  0  0  0  0  0  0
  150.3196  136.8721  156.4961 H   0  0  0  0  0  0  0  0  0  0  0  0
  149.1236  138.8119  155.0175 H   0  0  0  0  0  0  0  0  0  0  0  0
  149.3473  139.0701  156.7515 H   0  0  0  0  0  0  0  0  0  0  0  0
  151.2022  139.9061  154.5070 H   0  0  0  0  0  0  0  0  0  0  0  0
  149.9327  141.5715  156.7397 H   0  0  0  0  0  0  0  0  0  0  0  0
  149.5651  141.6419  155.0243 H   0  0  0  0  0  0  0  0  0  0  0  0
  151.1456  142.1576  155.6009 H   0  0  0  0  0  0  0  0  0  0  0  0
  1  2  1  0  0  0  0
  1 18  1  0  0  0  0
  1 19  1  0  0  0  0
  1 20  1  0  0  0  0
  2 16  1  0  0  0  0
  2  3  2  0  0  0  0
  3  4  1  0  0  0  0
  4  5  2  0  0  0  0
  4 21  1  0  0  0  0
  5  6  1  0  0  0  0
  5 22  1  0  0  0  0
  6  7  1  0  0  0  0
  6 16  2  0  0  0  0
  7  8  1  0  0  0  0
  7 23  1  0  0  0  0
  8  9  2  0  0  0  0
  8 10  1  0  0  0  0
 10 14  1  0  0  0  0
 10 11  1  0  0  0  0
 10 24  1  0  0  0  0
 11 12  1  0  0  0  0
 12 13  1  0  0  0  0
 12 25  1  0  0  0  0
 12 26  1  0  0  0  0
 13 14  1  0  0  0  0
 13 27  1  0  0  0  0
 13 28  1  0  0  0  0
 14 15  1  0  0  0  0
 14 29  1  0  0  0  0
 15 30  1  0  0  0  0
 15 31  1  0  0  0  0
 15 32  1  0  0  0  0
 16 17  1  0  0  0  0
M  END
> <s_m_source_file>
AV-unprocessed.smi

> <i_m_source_file_index>
2468

> <i_lp_mmshare_version>
43012

> <i_f3d_flags>
0

> <s_epik_input>
W0NIM11jMW5bY0hdW2NIXWMoYzFDbClbTkhdQyg9TylbQ0BASF0yT1tDSDJdW0NIMl1bQ0BIXTJbQ0gzXQ==

> <s_epik_cmdline>
J2VwaWtfcHl0aG9uJywgJy1waCcsICc3LjAnLCAnLXRuJywgJzgnLCAnLW1hJywgJzIwMCcsICctbWV0YWxfYmluZGluZycsICctaW1hZScsICc8aW5maWxlLm1hZT4nLCAnLW9tYWUnLCAnPG91dGZpbGUubWFlPic=

> <r_epik_Ionization_Penalty>
0.000361027

> <r_epik_Ionization_Penalty_Charging>
0

> <r_epik_Ionization_Penalty_Neutral>
0.000361027

> <r_epik_State_Penalty>
0.000217849

> <r_epik_Charging_Adjusted_Penalty>
0.000217849

> <i_epik_Tot_Q>
0

> <i_epik_Tot_abs_Q>
0

> <r_epik_Metal_State_Penalty>
-0

> <b_epik_Metal_Only>
0

> <s_lp_Force_Field>
OPLS_2005

> <r_lp_Energy>
25.7151

> <b_lp_Chiralities_Consistent>
1

> <s_lp_Variant>
AV-unprocessed.smi:2468-2

> <Gold.Version>
5.8.1

> <Gold.Id.Protein>
6NUR|6NUR_protein|mol2

> <Gold.PLP.Fitness>
35.6030

> <Gold.PLP.PLP>
-36.3014

> <Gold.PLP.part.hbond>
0.0000

> <Gold.PLP.part.metal>
0.0000

> <Gold.PLP.part.buried>
-0.5719

> <Gold.PLP.part.nonpolar>
-34.0057

> <Gold.PLP.part.repulsive>
0.2148

> <Gold.PLP.ligand.clash>
0.0000

> <Gold.PLP.ligand.torsion>
0.3570

> <Gold.PLP.Chemscore.Hbond>
0.0000

> <Gold.PLP.Chemscore.CHOScore>
0.0000

> <Gold.PLP.Chemscore.Metal>
0.0000

> <Gold.PLP.Chemscore.Internal.Correction>
0.0155

> <Gold.Rescore>
     Score         DG    S(hbond)    S(metal)    S(lipo)     H(rot)  DE(clash)    DE(int)     intcor
     13.71     -16.08       0.00        0.00     112.50       1.00       0.13       2.25       ----

> <Gold.Chemscore.Fitness>
13.7104

> <Gold.Chemscore.DG>
-16.0819

> <Gold.Chemscore.ZeroCoef>
-5.4800

> <Gold.Chemscore.Hbond>
0.0000

> <Gold.Chemscore.Metal>
0.0000

> <Gold.Chemscore.Lipo>
112.4952

> <Gold.Chemscore.Internal_Hbond>
0.0000

> <Gold.Chemscore.DEClash>
0.1255

> <Gold.Chemscore.DEInternal>
2.2460

> <Gold.Chemscore.Rot>
1.0000

> <Gold.Chemscore.Internal.Correction>
   9.000000E+99

> <Gold.Chemscore.Hbond.Weighted>
-0.0000

> <Gold.Chemscore.Metal.Weighted>
-0.0000

> <Gold.Chemscore.Lipo.Weighted>
-13.1619

> <Gold.Chemscore.Internal_Hbond.Weighted>
0.0000

> <Gold.Chemscore.DEClash.Weighted>
0.1255

> <Gold.Chemscore.DEInternal.Weighted>
2.2460

> <Gold.Chemscore.Rot.Weighted>
2.5600

> <Gold.Chemscore.Internal.Correction.Weighted>
   9.000000E+99

> <Gold.Protein.RotatedTorsions>
[ 6907 6896 6895 6894 ] final -154.43 input  -60.11 | X-H torsion
[ 7974 7965 7964 7962 ] final  -79.62 input  175.53 | X-H torsion
[ 8008 7997 7996 7995 ] final  111.66 input   59.86 | X-H torsion
[ 10167 10162 10161 10158 ] final   35.36 input  -65.29 | X-H torsion
[ 10718 10713 10712 10709 ] final  126.25 input   66.30 | X-H torsion
[ 10763 10752 10751 10750 ] final -123.12 input  -60.55 | X-H torsion
[ 11005 11000 10999 10996 ] final    7.58 input  -57.11 | X-H torsion

> <Gold.Protein.ActiveResidues>
 VAL166  LYS551  ARG553  GLY616  TRP617  ASP618  TYR619  PRO620  LYS621  CYS622 
 ASP623  PHE694  ASN695  SER759  ASP760  ASP761  ALA762  ILE779  LEU786  VAL792 
 PHE793  MET794  SER795  GLU796  ALA797  LYS798  CYS799  TRP800  GLU811  SER814 

> <Gold.Protein.RotatedAtoms>
  151.2573  133.4319  159.2614 H   0  0  0  0  0  0  0  0  0  0  0  0  # atno 6907 bound_to 6896
  151.0562  134.9706  159.8247 H   0  0  0  0  0  0  0  0  0  0  0  0  # atno 6908 bound_to 6896
  152.5391  134.2526  159.8957 H   0  0  0  0  0  0  0  0  0  0  0  0  # atno 6909 bound_to 6896
  145.5708  140.9466  143.1396 H   0  0  0  0  0  0  0  0  0  0  0  0  # atno 7974 bound_to 7965
  156.2139  140.3015  155.9795 H   0  0  0  0  0  0  0  0  0  0  0  0  # atno 8008 bound_to 7997
  155.2655  140.0431  157.3019 H   0  0  0  0  0  0  0  0  0  0  0  0  # atno 8009 bound_to 7997
  154.5739  140.2356  155.8159 H   0  0  0  0  0  0  0  0  0  0  0  0  # atno 8010 bound_to 7997
  140.4229  144.1435  150.6150 H   0  0  0  0  0  0  0  0  0  0  0  0  # atno 10167 bound_to 10162
  157.5435  131.1096  150.8820 H   0  0  0  0  0  0  0  0  0  0  0  0  # atno 10718 bound_to 10713
  154.8702  135.4109  154.2891 H   0  0  0  0  0  0  0  0  0  0  0  0  # atno 10763 bound_to 10752
  153.3770  135.7010  153.6599 H   0  0  0  0  0  0  0  0  0  0  0  0  # atno 10764 bound_to 10752
  153.5437  135.3643  155.2701 H   0  0  0  0  0  0  0  0  0  0  0  0  # atno 10765 bound_to 10752
  140.5466  134.0323  155.7922 H   0  0  0  0  0  0  0  0  0  0  0  0  # atno 11005 bound_to 11000
  144.7439  139.7374  143.7300 LP  0  0  0  0  0  0  0  0  0  0  0  0  # atno 17320 bound_to 7965
  146.1786  139.4967  142.9881 LP  0  0  0  0  0  0  0  0  0  0  0  0  # atno 17321 bound_to 7965
  140.4514  143.2485  151.9343 LP  0  0  0  0  0  0  0  0  0  0  0  0  # atno 17342 bound_to 10162
  139.4783  144.5558  151.8315 LP  0  0  0  0  0  0  0  0  0  0  0  0  # atno 17343 bound_to 10162
  156.9366  130.5369  149.5279 LP  0  0  0  0  0  0  0  0  0  0  0  0  # atno 17370 bound_to 10713
  156.0516  130.5584  150.9001 LP  0  0  0  0  0  0  0  0  0  0  0  0  # atno 17371 bound_to 10713
  141.1196  133.9483  157.2756 LP  0  0  0  0  0  0  0  0  0  0  0  0  # atno 17394 bound_to 11000
  139.9476  135.0181  156.8899 LP  0  0  0  0  0  0  0  0  0  0  0  0  # atno 17395 bound_to 11000

$$$$
