AV-unprocessed.smi:3032|AV-procd|sdf|11565|dock2
  -GOLD-   2272016533D 1   1.00000     0.00000
 Structure written by MMmdl.
 37 38  0  0  0  0  0  0  0  0  1 V2000
  145.4036  131.5803  150.1704 C   0  0  0  0  0  0  0  0  0  0  0  0
  145.1687  132.6926  151.2018 C   0  0  2  0  0  0  0  0  0  0  0  0
  143.7355  133.2485  151.1137 C   0  0  0  0  0  0  0  0  0  0  0  0
  143.4895  134.3470  152.1590 C   0  0  0  0  0  0  0  0  0  0  0  0
  144.5337  135.4772  152.0567 C   0  0  0  0  0  0  0  0  0  0  0  0
  145.9986  134.9749  152.0638 C   0  0  1  0  0  0  0  0  0  0  0  0
  146.5152  134.5720  153.4574 C   0  0  0  0  0  0  0  0  0  0  0  0
  145.9010  133.7705  154.1611 O   0  0  0  0  0  0  0  0  0  0  0  0
  147.6684  135.1407  153.8408 N   0  0  0  0  0  0  0  0  0  0  0  0
  148.3824  134.8511  155.0811 C   0  0  0  0  0  0  0  0  0  0  0  0
  149.9057  134.6979  154.8865 C   0  0  0  0  0  0  0  0  0  0  0  0
  150.6554  135.9934  154.9048 C   0  0  0  0  0  0  0  0  0  0  0  0
  151.6510  136.2892  155.7489 N   0  0  0  0  0  0  0  0  0  0  0  0
  152.0369  137.5820  155.4305 N   0  0  0  0  0  0  0  0  0  0  0  0
  151.2382  137.9391  154.4236 C   0  0  0  0  0  0  0  0  0  0  0  0
  150.3656  136.9934  154.0579 N   0  0  0  0  0  0  0  0  0  0  0  0
  146.1889  133.8372  151.0348 C   0  0  0  0  0  0  0  0  0  0  0  0
  149.6626  137.0262  153.3339 H   0  0  0  0  0  0  0  0  0  0  0  0
  145.2815  131.9509  149.1522 H   0  0  0  0  0  0  0  0  0  0  0  0
  144.7009  130.7589  150.3127 H   0  0  0  0  0  0  0  0  0  0  0  0
  146.4101  131.1704  150.2572 H   0  0  0  0  0  0  0  0  0  0  0  0
  145.3017  132.2498  152.1897 H   0  0  0  0  0  0  0  0  0  0  0  0
  143.5576  133.6515  150.1157 H   0  0  0  0  0  0  0  0  0  0  0  0
  143.0129  132.4442  151.2546 H   0  0  0  0  0  0  0  0  0  0  0  0
  142.4898  134.7614  152.0274 H   0  0  0  0  0  0  0  0  0  0  0  0
  143.4988  133.9073  153.1556 H   0  0  0  0  0  0  0  0  0  0  0  0
  144.3609  136.0270  151.1306 H   0  0  0  0  0  0  0  0  0  0  0  0
  144.3755  136.1975  152.8607 H   0  0  0  0  0  0  0  0  0  0  0  0
  146.6203  135.8134  151.7456 H   0  0  0  0  0  0  0  0  0  0  0  0
  148.1066  135.7939  153.2073 H   0  0  0  0  0  0  0  0  0  0  0  0
  148.1915  135.6837  155.7585 H   0  0  0  0  0  0  0  0  0  0  0  0
  147.9661  133.9633  155.5586 H   0  0  0  0  0  0  0  0  0  0  0  0
  150.3111  134.0496  155.6639 H   0  0  0  0  0  0  0  0  0  0  0  0
  150.1070  134.1940  153.9401 H   0  0  0  0  0  0  0  0  0  0  0  0
  151.2902  138.9066  153.9466 H   0  0  0  0  0  0  0  0  0  0  0  0
  147.2033  133.4401  151.0993 H   0  0  0  0  0  0  0  0  0  0  0  0
  146.1008  134.2530  150.0303 H   0  0  0  0  0  0  0  0  0  0  0  0
  1  2  1  0  0  0  0
  1 19  1  0  0  0  0
  1 20  1  0  0  0  0
  1 21  1  0  0  0  0
  2 17  1  0  0  0  0
  2  3  1  0  0  0  0
  2 22  1  0  0  0  0
  3  4  1  0  0  0  0
  3 23  1  0  0  0  0
  3 24  1  0  0  0  0
  4  5  1  0  0  0  0
  4 25  1  0  0  0  0
  4 26  1  0  0  0  0
  5  6  1  0  0  0  0
  5 27  1  0  0  0  0
  5 28  1  0  0  0  0
  6  7  1  0  0  0  0
  6 17  1  0  0  0  0
  6 29  1  0  0  0  0
  7  8  2  0  0  0  0
  7  9  1  0  0  0  0
  9 10  1  0  0  0  0
  9 30  1  0  0  0  0
 10 11  1  0  0  0  0
 10 31  1  0  0  0  0
 10 32  1  0  0  0  0
 11 12  1  0  0  0  0
 11 33  1  0  0  0  0
 11 34  1  0  0  0  0
 12 16  1  0  0  0  0
 12 13  2  0  0  0  0
 13 14  1  0  0  0  0
 14 15  2  0  0  0  0
 15 16  1  0  0  0  0
 15 35  1  0  0  0  0
 16 18  1  0  0  0  0
 17 36  1  0  0  0  0
 17 37  1  0  0  0  0
M  END
> <s_m_source_file>
AV-unprocessed.smi

> <i_m_source_file_index>
3032

> <i_lp_mmshare_version>
43012

> <i_f3d_flags>
0

> <s_epik_input>
W0NIM11bQ0BASF0xW0NIMl1bQ0gyXVtDSDJdW0NASF0oW0NIMl0xKUMoPU8pW05IXVtDSDJdW0NIMl1jMm5uW2NIXVtuSF0y

> <s_epik_cmdline>
J2VwaWtfcHl0aG9uJywgJy1waCcsICc3LjAnLCAnLXRuJywgJzgnLCAnLW1hJywgJzIwMCcsICctbWV0YWxfYmluZGluZycsICctaW1hZScsICc8aW5maWxlLm1hZT4nLCAnLW9tYWUnLCAnPG91dGZpbGUubWFlPic=

> <r_lp_tautomer_probability>
0.0517155

> <r_epik_Ionization_Penalty>
0.00149837

> <r_epik_Ionization_Penalty_Charging>
0

> <r_epik_Ionization_Penalty_Neutral>
0.00149837

> <r_epik_State_Penalty>
2.1109

> <r_epik_Charging_Adjusted_Penalty>
2.1109

> <i_epik_Tot_Q>
0

> <i_epik_Tot_abs_Q>
0

> <r_epik_Metal_State_Penalty>
2.23635

> <b_epik_Metal_Only>
0

> <s_lp_Force_Field>
OPLS_2005

> <r_lp_Energy>
9.22736

> <b_lp_Chiralities_Consistent>
1

> <s_lp_Variant>
AV-unprocessed.smi:3032-9

> <Gold.Version>
5.8.1

> <Gold.Id.Protein>
6NUR|6NUR_protein|mol2

> <Gold.PLP.Fitness>
36.8014

> <Gold.PLP.PLP>
-28.9286

> <Gold.PLP.part.hbond>
-4.3935

> <Gold.PLP.part.metal>
0.0000

> <Gold.PLP.part.buried>
-3.1139

> <Gold.PLP.part.nonpolar>
-21.8987

> <Gold.PLP.part.repulsive>
0.2225

> <Gold.PLP.ligand.clash>
0.0000

> <Gold.PLP.ligand.torsion>
0.4541

> <Gold.PLP.Chemscore.Hbond>
2.9120

> <Gold.PLP.Chemscore.CHOScore>
0.0000

> <Gold.PLP.Chemscore.Metal>
0.0000

> <Gold.Chemscore.Hbonds>
donor molecule, donor type, donor heavy atom, donor atom, acceptor molecule, acceptor atom, score
      L1  H     9    30       P1  7948  1.00
      L1  H    16    18       P1  7948  0.91
      P1  H 10752 10764       L1    13  0.80

> <Gold.PLP.Chemscore.Internal.Correction>
0.0451

> <Gold.Rescore>
     Score         DG    S(hbond)    S(metal)    S(lipo)     H(rot)  DE(clash)    DE(int)     intcor
     13.05     -13.50       2.22        0.00      54.53       2.25       0.02       0.44       ----

> <Gold.Chemscore.Fitness>
13.0501

> <Gold.Chemscore.DG>
-13.5011

> <Gold.Chemscore.ZeroCoef>
-5.4800

> <Gold.Chemscore.Hbond>
2.2160

> <Gold.Chemscore.Metal>
0.0000

> <Gold.Chemscore.Lipo>
54.5301

> <Gold.Chemscore.Internal_Hbond>
0.0000

> <Gold.Chemscore.DEClash>
0.0158

> <Gold.Chemscore.DEInternal>
0.4352

> <Gold.Chemscore.Rot>
2.2501

> <Gold.Chemscore.Internal.Correction>
   9.000000E+99

> <Gold.Chemscore.Hbonds>
donor molecule, donor type, donor heavy atom, donor atom, acceptor molecule, acceptor atom, score
      L1  H     9    30       P1  7948  0.97
      L1  H    16    18       P1  7948  0.58
      P1  H 10752 10764       L1    13  0.07

> <Gold.Chemscore.Hbond.Weighted>
-7.4014

> <Gold.Chemscore.Metal.Weighted>
-0.0000

> <Gold.Chemscore.Lipo.Weighted>
-6.3800

> <Gold.Chemscore.Internal_Hbond.Weighted>
0.0000

> <Gold.Chemscore.DEClash.Weighted>
0.0158

> <Gold.Chemscore.DEInternal.Weighted>
0.4352

> <Gold.Chemscore.Rot.Weighted>
5.7603

> <Gold.Chemscore.Internal.Correction.Weighted>
   9.000000E+99

> <Gold.Protein.RotatedTorsions>
[ 6907 6896 6895 6894 ] final  -43.83 input  -60.11 | X-H torsion
[ 7974 7965 7964 7962 ] final  116.23 input  175.53 | X-H torsion
[ 8008 7997 7996 7995 ] final  -90.99 input   59.86 | X-H torsion
[ 10167 10162 10161 10158 ] final   74.64 input  -65.29 | X-H torsion
[ 10718 10713 10712 10709 ] final  167.45 input   66.30 | X-H torsion
[ 10763 10752 10751 10750 ] final  -25.40 input  -60.55 | X-H torsion
[ 11005 11000 10999 10996 ] final -141.15 input  -57.11 | X-H torsion

> <Gold.Protein.ActiveResidues>
 VAL166  LYS551  ARG553  GLY616  TRP617  ASP618  TYR619  PRO620  LYS621  CYS622 
 ASP623  PHE694  ASN695  SER759  ASP760  ASP761  ALA762  ILE779  LEU786  VAL792 
 PHE793  MET794  SER795  GLU796  ALA797  LYS798  CYS799  TRP800  GLU811  SER814 

> <Gold.Protein.RotatedAtoms>
  150.9396  134.8806  159.7603 H   0  0  0  0  0  0  0  0  0  0  0  0  # atno 6907 bound_to 6896
  152.5074  134.3961  159.9410 H   0  0  0  0  0  0  0  0  0  0  0  0  # atno 6908 bound_to 6896
  151.3983  133.3726  159.2764 H   0  0  0  0  0  0  0  0  0  0  0  0  # atno 6909 bound_to 6896
  145.1822  139.3044  143.4412 H   0  0  0  0  0  0  0  0  0  0  0  0  # atno 7974 bound_to 7965
  154.7052  140.0524  157.0497 H   0  0  0  0  0  0  0  0  0  0  0  0  # atno 8008 bound_to 7997
  155.0630  140.3191  155.4635 H   0  0  0  0  0  0  0  0  0  0  0  0  # atno 8009 bound_to 7997
  156.2772  140.2095  156.5757 H   0  0  0  0  0  0  0  0  0  0  0  0  # atno 8010 bound_to 7997
  140.0115  144.5610  150.7654 H   0  0  0  0  0  0  0  0  0  0  0  0  # atno 10167 bound_to 10162
  157.0513  131.0314  151.2679 H   0  0  0  0  0  0  0  0  0  0  0  0  # atno 10718 bound_to 10713
  153.6993  135.6957  153.5068 H   0  0  0  0  0  0  0  0  0  0  0  0  # atno 10763 bound_to 10752
  153.2355  135.4323  155.0640 H   0  0  0  0  0  0  0  0  0  0  0  0  # atno 10764 bound_to 10752
  154.8349  135.3494  154.6532 H   0  0  0  0  0  0  0  0  0  0  0  0  # atno 10765 bound_to 10752
  140.8353  134.2468  157.4837 H   0  0  0  0  0  0  0  0  0  0  0  0  # atno 11005 bound_to 11000
  146.3451  140.2006  142.8589 LP  0  0  0  0  0  0  0  0  0  0  0  0  # atno 17320 bound_to 7965
  145.0124  140.8725  143.5216 LP  0  0  0  0  0  0  0  0  0  0  0  0  # atno 17321 bound_to 7965
  140.7379  143.2771  151.3708 LP  0  0  0  0  0  0  0  0  0  0  0  0  # atno 17342 bound_to 10162
  139.6201  144.0923  152.2383 LP  0  0  0  0  0  0  0  0  0  0  0  0  # atno 17343 bound_to 10162
  157.5027  130.7890  149.7622 LP  0  0  0  0  0  0  0  0  0  0  0  0  # atno 17370 bound_to 10713
  156.0007  130.3882  150.2619 LP  0  0  0  0  0  0  0  0  0  0  0  0  # atno 17371 bound_to 10713
  139.8704  134.9607  156.4373 LP  0  0  0  0  0  0  0  0  0  0  0  0  # atno 17394 bound_to 11000
  140.8954  133.7817  155.9619 LP  0  0  0  0  0  0  0  0  0  0  0  0  # atno 17395 bound_to 11000

$$$$
