#       Name:                AV-unprocessed.smi:2061
#       Creating user name   scv26
#       Creation time:       Fri Mar 27 11:07:12 2020


#       File generated by GOLD software.
#

@<TRIPOS>MOLECULE
AV-unprocessed.smi:2061
    53    54     1
SMALL
NO_CHARGES


@<TRIPOS>ATOM
      1 ****        -6.1781   5.7035  -1.2568 C.3            1 S1                 0.0000
      2 ****        -5.2563   4.6018  -0.8610 C.2            1 S1                 0.0000
      3 ****        -4.0941   4.5742  -0.1427 C.2            1 S1                 0.0000
      4 ****        -3.7431   3.1979  -0.1522 C.2            1 S1                 0.0000
      5 ****        -2.5647   2.7468   0.4993 N.am           1 S1                 0.0000
      6 ****        -2.0522   1.5036   0.5465 C.2            1 S1                 0.0000
      7 ****        -2.6313   0.5665  -0.0164 O.2            1 S1                 0.0000
      8 ****        -0.8857   1.4525   1.2472 N.pl3          1 S1                -1.0000
      9 ****        -0.0858   0.2434   1.4515 C.3            1 S1                 0.0000
     10 ****         0.8339  -0.0314   0.2285 C.3            1 S1                 0.0000
     11 ****         1.9303   1.0415   0.0080 C.3            1 S1                 0.0000
     12 ****         1.3835  -1.4220   0.2828 N.4            1 S1                 1.0000
     13 ****         1.5210  -2.0577  -1.0512 C.3            1 S1                 0.0000
     14 ****         1.9053  -3.5423  -0.9010 C.3            1 S1                 0.0000
     15 ****         2.1448  -4.2173  -2.2561 C.3            1 S1                 0.0000
     16 ****         3.1031  -3.6454  -0.1381 O.3            1 S1                 0.0000
     17 ****         2.9659  -3.1130   1.1751 C.3            1 S1                 0.0000
     18 ****         4.2756  -3.3620   1.9312 C.3            1 S1                 0.0000
     19 ****         2.6323  -1.6143   1.0711 C.3            1 S1                 0.0000
     20 ****        -4.6161   2.4527  -0.8141 N.2            1 S1                 0.0000
     21 ****        -5.5903   3.3483  -1.2708 O.3            1 S1                 0.0000
     22 ****        -5.7543   6.6757  -1.0047 H              1 S1                 0.0000
     23 ****        -7.1353   5.6079  -0.7441 H              1 S1                 0.0000
     24 ****        -6.3645   5.6848  -2.3306 H              1 S1                 0.0000
     25 ****        -3.5775   5.4061   0.3126 H              1 S1                 0.0000
     26 ****        -2.0319   3.4579   0.9781 H              1 S1                 0.0000
     27 ****         0.5305   0.3239   2.3471 H              1 S1                 0.0000
     28 ****        -0.7174  -0.6299   1.6221 H              1 S1                 0.0000
     29 ****         0.1839   0.0041  -0.6473 H              1 S1                 0.0000
     30 ****         1.5004   2.0238  -0.1954 H              1 S1                 0.0000
     31 ****         2.5510   0.7930  -0.8530 H              1 S1                 0.0000
     32 ****         2.5934   1.1502   0.8680 H              1 S1                 0.0000
     33 ****         0.5799  -1.9843  -1.5980 H              1 S1                 0.0000
     34 ****         2.2744  -1.5261  -1.6345 H              1 S1                 0.0000
     35 ****         1.1057  -4.0767  -0.3846 H              1 S1                 0.0000
     36 ****         1.2518  -4.1741  -2.8800 H              1 S1                 0.0000
     37 ****         2.4089  -5.2672  -2.1264 H              1 S1                 0.0000
     38 ****         2.9572  -3.7346  -2.8002 H              1 S1                 0.0000
     39 ****         2.1602  -3.6352   1.6945 H              1 S1                 0.0000
     40 ****         4.2197  -2.9789   2.9505 H              1 S1                 0.0000
     41 ****         5.1164  -2.8747   1.4365 H              1 S1                 0.0000
     42 ****         4.4954  -4.4283   1.9890 H              1 S1                 0.0000
     43 ****         3.4616  -1.0911   0.5931 H              1 S1                 0.0000
     44 ****         2.5222  -1.1954   2.0718 H              1 S1                 0.0000
     45 ****         0.6686  -1.9564   0.7562 H              1 S1                 0.0000
     46 ****        -3.4853   0.7307  -0.5101 LP             1 S1                 0.0000
     47 ****        -2.2454  -0.3553   0.0222 LP             1 S1                 0.0000
     48 ****        -0.5508   2.3033   1.6519 LP             1 S1                 0.0000
     49 ****         3.8281  -3.1455  -0.6119 LP             1 S1                 0.0000
     50 ****         3.3552  -4.6106  -0.0673 LP             1 S1                 0.0000
     51 ****        -4.5856   1.4634  -0.9568 LP             1 S1                 0.0000
     52 ****        -5.6313   3.3204  -2.2696 LP             1 S1                 0.0000
     53 ****        -6.4816   3.0971  -0.8935 LP             1 S1                 0.0000
@<TRIPOS>BOND
    1    1    2 1     
    2    1   22 1     
    3    1   23 1     
    4    1   24 1     
    5    2   21 1     
    6    2    3 2     
    7    3    4 1     
    8    3   25 1     
    9    4    5 1     
   10    4   20 2     
   11    5    6 am    
   12    5   26 1     
   13    6    7 2     
   14    6    8 1     
   15    8    9 1     
   16    9   10 1     
   17    9   27 1     
   18    9   28 1     
   19   10   11 1     
   20   10   12 1     
   21   10   29 1     
   22   11   30 1     
   23   11   31 1     
   24   11   32 1     
   25   12   19 1     
   26   12   13 1     
   27   12   45 1     
   28   13   14 1     
   29   13   33 1     
   30   13   34 1     
   31   14   15 1     
   32   14   16 1     
   33   14   35 1     
   34   15   36 1     
   35   15   37 1     
   36   15   38 1     
   37   16   17 1     
   38   17   18 1     
   39   17   19 1     
   40   17   39 1     
   41   18   40 1     
   42   18   41 1     
   43   18   42 1     
   44   19   43 1     
   45   19   44 1     
   46   20   21 1     
   47    7   46 1     
   48    7   47 1     
   49    8   48 1     
   50   16   49 1     
   51   16   50 1     
   52   20   51 1     
   53   21   52 1     
   54   21   53 1     
@<TRIPOS>SUBSTRUCTURE
      1 S1             1
@<TRIPOS>SET
LONE_PAIRS      STATIC     ATOMS    <user>   **** ""
8 46 47 48 49 50 51 52 53
DONOR_HYDROGENS      STATIC     ATOMS    <user>   **** ""
2 26 45
ATOM$BLUE        STATIC     ATOMS    COLORGROUP SYSTEM
8 46 47 48 49 50 51 52 53
ATOM$RED        STATIC     ATOMS    COLORGROUP SYSTEM
2 26 45
