AV-unprocessed.smi:3354|AV-procd|sdf|12956|dock9
  -GOLD-   2272019393D 1   1.00000     0.00000
 Structure written by MMmdl.
 38 40  0  0  0  0  0  0  0  0  1 V2000
  149.0728  140.3230  157.6305 C   0  0  0  0  0  0  0  0  0  0  0  0
  149.4117  141.3241  156.5433 C   0  0  1  0  0  0  0  0  0  0  0  0
  150.8355  141.7875  156.3385 C   0  0  0  0  0  0  0  0  0  0  0  0
  150.1609  140.9312  155.2847 C   0  0  1  0  0  0  0  0  0  0  0  0
  150.5580  139.5676  155.0886 N   0  0  0  0  0  0  0  0  0  0  0  0
  149.6143  138.4629  155.1919 C   0  0  0  0  0  0  0  0  0  0  0  0
  150.4778  137.1974  155.3399 C   0  0  1  0  0  0  0  0  0  0  0  0
  149.9958  136.1250  154.4713 N   0  0  0  0  0  0  0  0  0  0  0  0
  149.7752  134.8561  154.8440 C   0  0  0  0  0  0  0  0  0  0  0  0
  149.9528  134.4403  155.9887 O   0  0  0  0  0  0  0  0  0  0  0  0
  149.3214  134.1219  153.8133 N   0  0  0  0  0  0  0  0  0  0  0  0
  148.9963  132.7384  153.7863 C   0  0  0  0  0  0  0  0  0  0  0  0
  149.7284  131.7335  154.4642 C   0  0  0  0  0  0  0  0  0  0  0  0
  149.3163  130.3925  154.3414 C   0  0  0  0  0  0  0  0  0  0  0  0
  148.1939  130.1040  153.5413 C   0  0  0  0  0  0  0  0  0  0  0  0
  147.4949  131.0495  152.8788 N   0  0  0  0  0  0  0  0  0  0  0  0
  147.8963  132.3328  153.0007 C   0  0  0  0  0  0  0  0  0  0  0  0
  151.9031  137.6313  154.9719 C   0  0  0  0  0  0  0  0  0  0  0  0
  151.8245  139.1482  154.9920 C   0  0  0  0  0  0  0  0  0  0  0  0
  152.8222  139.8660  154.9406 O   0  0  0  0  0  0  0  0  0  0  0  0
  149.9002  139.6355  157.8071 H   0  0  0  0  0  0  0  0  0  0  0  0
  148.1947  139.7442  157.3435 H   0  0  0  0  0  0  0  0  0  0  0  0
  148.8560  140.8447  158.5626 H   0  0  0  0  0  0  0  0  0  0  0  0
  148.6400  142.0790  156.4043 H   0  0  0  0  0  0  0  0  0  0  0  0
  150.9878  142.8392  156.1052 H   0  0  0  0  0  0  0  0  0  0  0  0
  151.5991  141.3433  156.9734 H   0  0  0  0  0  0  0  0  0  0  0  0
  149.8703  141.4603  154.3784 H   0  0  0  0  0  0  0  0  0  0  0  0
  148.9465  138.5886  156.0454 H   0  0  0  0  0  0  0  0  0  0  0  0
  149.0043  138.4315  154.2878 H   0  0  0  0  0  0  0  0  0  0  0  0
  150.4736  136.8927  156.3882 H   0  0  0  0  0  0  0  0  0  0  0  0
  149.8142  136.3716  153.5093 H   0  0  0  0  0  0  0  0  0  0  0  0
  149.1420  134.6241  152.9562 H   0  0  0  0  0  0  0  0  0  0  0  0
  150.6001  131.9586  155.0587 H   0  0  0  0  0  0  0  0  0  0  0  0
  149.8526  129.6020  154.8455 H   0  0  0  0  0  0  0  0  0  0  0  0
  147.8524  129.0860  153.4251 H   0  0  0  0  0  0  0  0  0  0  0  0
  147.3156  133.0615  152.4539 H   0  0  0  0  0  0  0  0  0  0  0  0
  152.6412  137.2620  155.6846 H   0  0  0  0  0  0  0  0  0  0  0  0
  152.1914  137.3048  153.9717 H   0  0  0  0  0  0  0  0  0  0  0  0
  1  2  1  0  0  0  0
  1 21  1  0  0  0  0
  1 22  1  0  0  0  0
  1 23  1  0  0  0  0
  2  4  1  0  0  0  0
  2  3  1  0  0  0  0
  2 24  1  0  0  0  0
  3  4  1  0  0  0  0
  3 25  1  0  0  0  0
  3 26  1  0  0  0  0
  4  5  1  0  0  0  0
  4 27  1  0  0  0  0
  5 19  1  0  0  0  0
  5  6  1  0  0  0  0
  6  7  1  0  0  0  0
  6 28  1  0  0  0  0
  6 29  1  0  0  0  0
  7  8  1  0  0  0  0
  7 18  1  0  0  0  0
  7 30  1  0  0  0  0
  8  9  1  0  0  0  0
  8 31  1  0  0  0  0
  9 10  2  0  0  0  0
  9 11  1  0  0  0  0
 11 12  1  0  0  0  0
 11 32  1  0  0  0  0
 12 17  1  0  0  0  0
 12 13  2  0  0  0  0
 13 14  1  0  0  0  0
 13 33  1  0  0  0  0
 14 15  2  0  0  0  0
 14 34  1  0  0  0  0
 15 16  1  0  0  0  0
 15 35  1  0  0  0  0
 16 17  2  0  0  0  0
 17 36  1  0  0  0  0
 18 19  1  0  0  0  0
 18 37  1  0  0  0  0
 18 38  1  0  0  0  0
 19 20  2  0  0  0  0
M  END
> <s_m_source_file>
AV-unprocessed.smi

> <i_m_source_file_index>
3354

> <i_lp_mmshare_version>
43012

> <i_f3d_flags>
0

> <s_epik_input>
W0NIM11bQ0BASF0xW0NIMl1bQ0BIXTFOMltDSDJdW0NASF0oW0NIMl1DMj1PKVtOSF1DKD1PKVtOSF1jM1tjSF1bY0hdW2NIXW5bY0hdMw==

> <s_epik_cmdline>
J2VwaWtfcHl0aG9uJywgJy1waCcsICc3LjAnLCAnLXRuJywgJzgnLCAnLW1hJywgJzIwMCcsICctbWV0YWxfYmluZGluZycsICctaW1hZScsICc8aW5maWxlLm1hZT4nLCAnLW9tYWUnLCAnPG91dGZpbGUubWFlPic=

> <r_epik_Ionization_Penalty>
0.00456191

> <r_epik_Ionization_Penalty_Charging>
0

> <r_epik_Ionization_Penalty_Neutral>
0.00456191

> <r_epik_State_Penalty>
0.00327094

> <r_epik_Charging_Adjusted_Penalty>
0.00327094

> <i_epik_Tot_Q>
0

> <i_epik_Tot_abs_Q>
0

> <r_epik_Metal_State_Penalty>
-0

> <b_epik_Metal_Only>
0

> <s_lp_Force_Field>
OPLS_2005

> <r_lp_Energy>
43.9825

> <b_lp_Chiralities_Consistent>
1

> <s_lp_Variant>
AV-unprocessed.smi:3354-2

> <Gold.Version>
5.8.1

> <Gold.Id.Protein>
6NUR|6NUR_protein|mol2

> <Gold.PLP.Fitness>
42.2380

> <Gold.PLP.PLP>
-35.3990

> <Gold.PLP.part.hbond>
-4.4541

> <Gold.PLP.part.metal>
0.0000

> <Gold.PLP.part.buried>
-0.2727

> <Gold.PLP.part.nonpolar>
-30.1224

> <Gold.PLP.part.repulsive>
0.6754

> <Gold.PLP.ligand.clash>
0.0000

> <Gold.PLP.ligand.torsion>
0.4914

> <Gold.PLP.Chemscore.Hbond>
2.5396

> <Gold.PLP.Chemscore.CHOScore>
0.0000

> <Gold.PLP.Chemscore.Metal>
0.0000

> <Gold.Chemscore.Hbonds>
donor molecule, donor type, donor heavy atom, donor atom, acceptor molecule, acceptor atom, score
      L1  H     8    31       P1  7948  0.95
      L1  H    11    32       P1  7948  0.35
      P1  H  7989  7998       L1    20  0.06
      P1  H  7997  8010       L1    20  1.00

> <Gold.PLP.Chemscore.Internal.Correction>
0.2030

> <Gold.Rescore>
     Score         DG    S(hbond)    S(metal)    S(lipo)     H(rot)  DE(clash)    DE(int)     intcor
     16.19     -16.86       2.14        0.00      63.07       1.24       0.04       0.63       ----

> <Gold.Chemscore.Fitness>
16.1888

> <Gold.Chemscore.DG>
-16.8554

> <Gold.Chemscore.ZeroCoef>
-5.4800

> <Gold.Chemscore.Hbond>
2.1438

> <Gold.Chemscore.Metal>
0.0000

> <Gold.Chemscore.Lipo>
63.0706

> <Gold.Chemscore.Internal_Hbond>
0.0000

> <Gold.Chemscore.DEClash>
0.0392

> <Gold.Chemscore.DEInternal>
0.6274

> <Gold.Chemscore.Rot>
1.2361

> <Gold.Chemscore.Internal.Correction>
   9.000000E+99

> <Gold.Chemscore.Hbonds>
donor molecule, donor type, donor heavy atom, donor atom, acceptor molecule, acceptor atom, score
      L1  H     8    31       P1  7948  0.21
      L1  H    11    32       P1  7948  0.01
      P1  H  7997  8010       L1    20  0.97

> <Gold.Chemscore.Hbond.Weighted>
-7.1604

> <Gold.Chemscore.Metal.Weighted>
-0.0000

> <Gold.Chemscore.Lipo.Weighted>
-7.3793

> <Gold.Chemscore.Internal_Hbond.Weighted>
0.0000

> <Gold.Chemscore.DEClash.Weighted>
0.0392

> <Gold.Chemscore.DEInternal.Weighted>
0.6274

> <Gold.Chemscore.Rot.Weighted>
3.1643

> <Gold.Chemscore.Internal.Correction.Weighted>
   9.000000E+99

> <Gold.Protein.RotatedTorsions>
[ 6907 6896 6895 6894 ] final  -52.00 input  -60.11 | X-H torsion
[ 7974 7965 7964 7962 ] final  116.36 input  175.53 | X-H torsion
[ 8008 7997 7996 7995 ] final  120.32 input   59.86 | X-H torsion
[ 10167 10162 10161 10158 ] final  -96.09 input  -65.29 | X-H torsion
[ 10718 10713 10712 10709 ] final  -91.51 input   66.30 | X-H torsion
[ 10763 10752 10751 10750 ] final  -79.98 input  -60.55 | X-H torsion
[ 11005 11000 10999 10996 ] final    7.95 input  -57.11 | X-H torsion

> <Gold.Protein.ActiveResidues>
 VAL166  LYS551  ARG553  GLY616  TRP617  ASP618  TYR619  PRO620  LYS621  CYS622 
 ASP623  PHE694  ASN695  SER759  ASP760  ASP761  ALA762  ILE779  LEU786  VAL792 
 PHE793  MET794  SER795  GLU796  ALA797  LYS798  CYS799  TRP800  GLU811  SER814 

> <Gold.Protein.RotatedAtoms>
  150.8559  134.7897  159.7044 H   0  0  0  0  0  0  0  0  0  0  0  0  # atno 6907 bound_to 6896
  152.4610  134.5180  159.9783 H   0  0  0  0  0  0  0  0  0  0  0  0  # atno 6908 bound_to 6896
  151.5292  133.3414  159.2951 H   0  0  0  0  0  0  0  0  0  0  0  0  # atno 6909 bound_to 6896
  145.1806  139.3052  143.4420 H   0  0  0  0  0  0  0  0  0  0  0  0  # atno 7974 bound_to 7965
  156.2637  140.2833  156.1132 H   0  0  0  0  0  0  0  0  0  0  0  0  # atno 8008 bound_to 7997
  155.1235  140.0392  157.2774 H   0  0  0  0  0  0  0  0  0  0  0  0  # atno 8009 bound_to 7997
  154.6652  140.2575  155.7071 H   0  0  0  0  0  0  0  0  0  0  0  0  # atno 8010 bound_to 7997
  140.2974  143.3183  152.0284 H   0  0  0  0  0  0  0  0  0  0  0  0  # atno 10167 bound_to 10162
  155.9994  130.4951  150.5486 H   0  0  0  0  0  0  0  0  0  0  0  0  # atno 10718 bound_to 10713
  154.5455  135.5677  153.6876 H   0  0  0  0  0  0  0  0  0  0  0  0  # atno 10763 bound_to 10752
  152.9975  135.6238  154.2444 H   0  0  0  0  0  0  0  0  0  0  0  0  # atno 10764 bound_to 10752
  154.2377  135.2863  155.2845 H   0  0  0  0  0  0  0  0  0  0  0  0  # atno 10765 bound_to 10752
  140.5425  134.0361  155.7909 H   0  0  0  0  0  0  0  0  0  0  0  0  # atno 11005 bound_to 11000
  146.3454  140.1984  142.8589 LP  0  0  0  0  0  0  0  0  0  0  0  0  # atno 17320 bound_to 7965
  145.0140  140.8738  143.5207 LP  0  0  0  0  0  0  0  0  0  0  0  0  # atno 17321 bound_to 7965
  139.4923  144.6481  151.6735 LP  0  0  0  0  0  0  0  0  0  0  0  0  # atno 17342 bound_to 10162
  140.5680  144.0156  150.6202 LP  0  0  0  0  0  0  0  0  0  0  0  0  # atno 17343 bound_to 10162
  157.3412  131.0717  151.1786 LP  0  0  0  0  0  0  0  0  0  0  0  0  # atno 17370 bound_to 10713
  157.2634  130.6670  149.5985 LP  0  0  0  0  0  0  0  0  0  0  0  0  # atno 17371 bound_to 10713
  141.1219  133.9447  157.2712 LP  0  0  0  0  0  0  0  0  0  0  0  0  # atno 17394 bound_to 11000
  139.9497  135.0178  156.8957 LP  0  0  0  0  0  0  0  0  0  0  0  0  # atno 17395 bound_to 11000

$$$$
