#       Name:                AV-unprocessed.smi:1024
#       Creating user name   scv26
#       Creation time:       Fri Mar 27 02:44:00 2020


#       File generated by GOLD software.
#

@<TRIPOS>MOLECULE
AV-unprocessed.smi:1024
    50    52     1
SMALL
NO_CHARGES


@<TRIPOS>ATOM
      1 ****         1.8033   1.7552  -0.2785 O.2            1 S1                 0.0000
      2 ****         1.4734   0.8223   0.4558 C.2            1 S1                 0.0000
      3 ****         2.2610  -0.2519   0.6356 N.am           1 S1                 0.0000
      4 ****         3.5524  -0.4597  -0.0079 C.3            1 S1                 0.0000
      5 ****         3.3869  -0.9507  -1.4557 C.3            1 S1                 0.0000
      6 ****         4.6784  -1.0908  -2.1287 N.pl3          1 S1                 0.0000
      7 ****         5.4670  -2.2104  -2.1969 C.2            1 S1                 0.0000
      8 ****         6.5767  -1.8619  -2.9233 C.2            1 S1                 0.0000
      9 ****         6.4181  -0.5457  -3.2669 N.pl3          1 S1                 1.0000
     10 ****         5.2632  -0.0784  -2.7817 C.2            1 S1                 0.0000
     11 ****         0.3120   0.8018   1.1578 N.am           1 S1                 0.0000
     12 ****        -0.2444  -0.3467   1.8893 C.3            1 S1                 0.0000
     13 ****        -1.4233  -0.9216   1.0806 C.3            1 S1                 0.0000
     14 ****        -2.5347   0.1265   0.7913 C.3            1 S1                 0.0000
     15 ****        -3.5039  -0.4737  -0.2606 C.3            1 S1                 0.0000
     16 ****        -4.7583   0.3848  -0.5009 C.3            1 S1                 0.0000
     17 ****        -5.5211   0.6291   0.8076 C.3            1 S1                 0.0000
     18 ****        -4.6073   1.2545   1.8698 C.3            1 S1                 0.0000
     19 ****        -3.3415   0.4060   2.0924 C.3            1 S1                 0.0000
     20 ****        -1.8672   1.4190   0.2328 C.3            1 S1                 0.0000
     21 ****        -0.6652   1.8916   1.0736 C.3            1 S1                 0.0000
     22 ****         1.9370  -0.9758   1.2607 H              1 S1                 0.0000
     23 ****         4.1331   0.4641   0.0213 H              1 S1                 0.0000
     24 ****         4.1100  -1.1947   0.5733 H              1 S1                 0.0000
     25 ****         2.8856  -1.9192  -1.4810 H              1 S1                 0.0000
     26 ****         2.7774  -0.2592  -2.0396 H              1 S1                 0.0000
     27 ****         5.1882  -3.1465  -1.7349 H              1 S1                 0.0000
     28 ****         7.4444  -2.4364  -3.2132 H              1 S1                 0.0000
     29 ****         4.8795   0.9203  -2.8932 H              1 S1                 0.0000
     30 ****         0.4800  -1.1364   2.0871 H              1 S1                 0.0000
     31 ****        -0.5785  -0.0195   2.8741 H              1 S1                 0.0000
     32 ****        -1.0328  -1.3071   0.1374 H              1 S1                 0.0000
     33 ****        -1.8408  -1.7841   1.6015 H              1 S1                 0.0000
     34 ****        -2.9850  -0.6285  -1.2073 H              1 S1                 0.0000
     35 ****        -3.8235  -1.4642   0.0670 H              1 S1                 0.0000
     36 ****        -4.4820   1.3375  -0.9528 H              1 S1                 0.0000
     37 ****        -5.4113  -0.1124  -1.2183 H              1 S1                 0.0000
     38 ****        -6.3795   1.2760   0.6243 H              1 S1                 0.0000
     39 ****        -5.9187  -0.3159   1.1795 H              1 S1                 0.0000
     40 ****        -4.3369   2.2683   1.5756 H              1 S1                 0.0000
     41 ****        -5.1527   1.3511   2.8090 H              1 S1                 0.0000
     42 ****        -3.6473  -0.5436   2.5336 H              1 S1                 0.0000
     43 ****        -2.7194   0.8886   2.8449 H              1 S1                 0.0000
     44 ****        -1.5165   1.2317  -0.7831 H              1 S1                 0.0000
     45 ****        -2.5864   2.2318   0.1451 H              1 S1                 0.0000
     46 ****        -0.9814   2.1787   2.0766 H              1 S1                 0.0000
     47 ****        -0.2448   2.7976   0.6357 H              1 S1                 0.0000
     48 ****         7.0778  -0.0018  -3.8089 H              1 S1                 0.0000
     49 ****         2.6788   1.7264  -0.7608 LP             1 S1                 0.0000
     50 ****         1.1955   2.5412  -0.3921 LP             1 S1                 0.0000
@<TRIPOS>BOND
    1    1    2 2     
    2    2    3 am    
    3    2   11 am    
    4    3    4 1     
    5    3   22 1     
    6    4    5 1     
    7    4   23 1     
    8    4   24 1     
    9    5    6 1     
   10    5   25 1     
   11    5   26 1     
   12    6   10 1     
   13    6    7 1     
   14    7    8 2     
   15    7   27 1     
   16    8    9 1     
   17    8   28 1     
   18    9   10 2     
   19    9   48 1     
   20   10   29 1     
   21   11   21 1     
   22   11   12 1     
   23   12   13 1     
   24   12   30 1     
   25   12   31 1     
   26   13   14 1     
   27   13   32 1     
   28   13   33 1     
   29   14   19 1     
   30   14   15 1     
   31   14   20 1     
   32   15   16 1     
   33   15   34 1     
   34   15   35 1     
   35   16   17 1     
   36   16   36 1     
   37   16   37 1     
   38   17   18 1     
   39   17   38 1     
   40   17   39 1     
   41   18   19 1     
   42   18   40 1     
   43   18   41 1     
   44   19   42 1     
   45   19   43 1     
   46   20   21 1     
   47   20   44 1     
   48   20   45 1     
   49   21   46 1     
   50   21   47 1     
   51    1   49 1     
   52    1   50 1     
@<TRIPOS>SUBSTRUCTURE
      1 S1             1
@<TRIPOS>SET
LONE_PAIRS      STATIC     ATOMS    <user>   **** ""
2 49 50
DONOR_HYDROGENS      STATIC     ATOMS    <user>   **** ""
2 22 48
ATOM$BLUE        STATIC     ATOMS    COLORGROUP SYSTEM
2 49 50
ATOM$RED        STATIC     ATOMS    COLORGROUP SYSTEM
2 22 48
