AV-unprocessed.smi:3040|AV-procd|sdf|11596|dock1
  -GOLD-   2272016573D 1   1.00000     0.00000
 Structure written by MMmdl.
 39 40  0  0  0  0  0  0  0  0  1 V2000
  153.4004  142.4260  160.4513 C   0  0  0  0  0  0  0  0  0  0  0  0
  152.5074  142.0552  159.3519 N   0  0  0  0  0  0  0  0  0  0  0  0
  151.4191  143.0073  159.0876 C   0  0  0  0  0  0  0  0  0  0  0  0
  150.2683  142.4090  158.2688 C   0  0  0  0  0  0  0  0  0  0  0  0
  150.8240  141.6751  157.0418 C   0  0  2  0  0  0  0  0  0  0  0  0
  149.6912  141.0977  156.1837 C   0  0  0  0  0  0  0  0  0  0  0  0
  149.6808  139.9010  155.8934 O   0  0  0  0  0  0  0  0  0  0  0  0
  148.7646  141.9694  155.7532 N   0  0  0  0  0  0  0  0  0  0  0  0
  147.7056  141.6718  154.7900 C   0  0  0  0  0  0  0  0  0  0  0  0
  146.3044  141.9659  155.3637 C   0  0  0  0  0  0  0  0  0  0  0  0
  145.6244  143.1251  154.6822 C   0  0  0  0  0  0  0  0  0  0  0  0
  144.4732  143.8443  155.1138 C   0  0  0  0  0  0  0  0  0  0  0  0
  144.0968  144.7763  154.2532 N   0  0  0  0  0  0  0  0  0  0  0  0
  144.9932  144.6885  153.2493 N   0  0  0  0  0  0  0  0  0  0  0  0
  144.8699  145.5596  152.1003 C   0  0  0  0  0  0  0  0  0  0  0  0
  145.9340  143.7108  153.4868 C   0  0  0  0  0  0  0  0  0  0  0  0
  151.7788  140.5496  157.4912 C   0  0  0  0  0  0  0  0  0  0  0  0
  152.7488  140.9425  158.6171 C   0  0  0  0  0  0  0  0  0  0  0  0
  153.7110  140.2046  158.8320 O   0  0  0  0  0  0  0  0  0  0  0  0
  154.4381  142.4629  160.1161 H   0  0  0  0  0  0  0  0  0  0  0  0
  153.3286  141.6982  161.2606 H   0  0  0  0  0  0  0  0  0  0  0  0
  153.1605  143.4067  160.8639 H   0  0  0  0  0  0  0  0  0  0  0  0
  151.0206  143.3915  160.0277 H   0  0  0  0  0  0  0  0  0  0  0  0
  151.8413  143.8609  158.5554 H   0  0  0  0  0  0  0  0  0  0  0  0
  149.7004  141.7202  158.8967 H   0  0  0  0  0  0  0  0  0  0  0  0
  149.5787  143.1991  157.9688 H   0  0  0  0  0  0  0  0  0  0  0  0
  151.3870  142.3909  156.4394 H   0  0  0  0  0  0  0  0  0  0  0  0
  148.8477  142.9302  156.0519 H   0  0  0  0  0  0  0  0  0  0  0  0
  147.8540  142.2378  153.8689 H   0  0  0  0  0  0  0  0  0  0  0  0
  147.7761  140.6201  154.5116 H   0  0  0  0  0  0  0  0  0  0  0  0
  145.6946  141.0655  155.2864 H   0  0  0  0  0  0  0  0  0  0  0  0
  146.3982  142.1614  156.4325 H   0  0  0  0  0  0  0  0  0  0  0  0
  143.8923  143.7032  156.0132 H   0  0  0  0  0  0  0  0  0  0  0  0
  145.8161  145.5992  151.5600 H   0  0  0  0  0  0  0  0  0  0  0  0
  144.6032  146.5676  152.4203 H   0  0  0  0  0  0  0  0  0  0  0  0
  144.0961  145.1771  151.4338 H   0  0  0  0  0  0  0  0  0  0  0  0
  146.7234  143.4970  152.7813 H   0  0  0  0  0  0  0  0  0  0  0  0
  151.2126  139.6872  157.8476 H   0  0  0  0  0  0  0  0  0  0  0  0
  152.3609  140.2000  156.6375 H   0  0  0  0  0  0  0  0  0  0  0  0
  1  2  1  0  0  0  0
  1 20  1  0  0  0  0
  1 21  1  0  0  0  0
  1 22  1  0  0  0  0
  2 18  1  0  0  0  0
  2  3  1  0  0  0  0
  3  4  1  0  0  0  0
  3 23  1  0  0  0  0
  3 24  1  0  0  0  0
  4  5  1  0  0  0  0
  4 25  1  0  0  0  0
  4 26  1  0  0  0  0
  5  6  1  0  0  0  0
  5 17  1  0  0  0  0
  5 27  1  0  0  0  0
  6  7  2  0  0  0  0
  6  8  1  0  0  0  0
  8  9  1  0  0  0  0
  8 28  1  0  0  0  0
  9 10  1  0  0  0  0
  9 29  1  0  0  0  0
  9 30  1  0  0  0  0
 10 11  1  0  0  0  0
 10 31  1  0  0  0  0
 10 32  1  0  0  0  0
 11 16  2  0  0  0  0
 11 12  1  0  0  0  0
 12 13  2  0  0  0  0
 12 33  1  0  0  0  0
 13 14  1  0  0  0  0
 14 15  1  0  0  0  0
 14 16  1  0  0  0  0
 15 34  1  0  0  0  0
 15 35  1  0  0  0  0
 15 36  1  0  0  0  0
 16 37  1  0  0  0  0
 17 18  1  0  0  0  0
 17 38  1  0  0  0  0
 17 39  1  0  0  0  0
 18 19  2  0  0  0  0
M  END
> <s_m_source_file>
AV-unprocessed.smi

> <i_m_source_file_index>
3040

> <i_lp_mmshare_version>
43012

> <i_f3d_flags>
0

> <s_epik_input>
W0NIM11OMVtDSDJdW0NIMl1bQ0BIXShbQ0gyXUMxPU8pQyg9TylbTkhdW0NIMl1bQ0gyXWMyW2NIXW5uKFtDSDNdKVtjSF0y

> <s_epik_cmdline>
J2VwaWtfcHl0aG9uJywgJy1waCcsICc3LjAnLCAnLXRuJywgJzgnLCAnLW1hJywgJzIwMCcsICctbWV0YWxfYmluZGluZycsICctaW1hZScsICc8aW5maWxlLm1hZT4nLCAnLW9tYWUnLCAnPG91dGZpbGUubWFlPic=

> <r_lp_tautomer_probability>
1

> <r_epik_Ionization_Penalty>
0.000456436

> <r_epik_Ionization_Penalty_Charging>
0

> <r_epik_Ionization_Penalty_Neutral>
0.000456436

> <r_epik_State_Penalty>
-0

> <r_epik_Charging_Adjusted_Penalty>
0

> <i_epik_Tot_Q>
0

> <i_epik_Tot_abs_Q>
0

> <r_epik_Metal_State_Penalty>
-0

> <b_epik_Metal_Only>
0

> <s_lp_Force_Field>
OPLS_2005

> <r_lp_Energy>
9.8739

> <b_lp_Chiralities_Consistent>
1

> <s_lp_Variant>
AV-unprocessed.smi:3040-2

> <Gold.Version>
5.8.1

> <Gold.Id.Protein>
6NUR|6NUR_protein|mol2

> <Gold.PLP.Fitness>
42.8744

> <Gold.PLP.PLP>
-38.3873

> <Gold.PLP.part.hbond>
-2.0000

> <Gold.PLP.part.metal>
0.0000

> <Gold.PLP.part.buried>
-2.2284

> <Gold.PLP.part.nonpolar>
-33.9015

> <Gold.PLP.part.repulsive>
0.2191

> <Gold.PLP.ligand.clash>
0.0000

> <Gold.PLP.ligand.torsion>
0.5869

> <Gold.PLP.Chemscore.Hbond>
1.8800

> <Gold.PLP.Chemscore.CHOScore>
0.0000

> <Gold.PLP.Chemscore.Metal>
0.0000

> <Gold.Chemscore.Hbonds>
donor molecule, donor type, donor heavy atom, donor atom, acceptor molecule, acceptor atom, score
      L1  H     8    28       P1  8028  1.00
      P1  H  7997  8010       L1    19  0.86

> <Gold.PLP.Chemscore.Internal.Correction>
0.0210

> <Gold.Rescore>
     Score         DG    S(hbond)    S(metal)    S(lipo)     H(rot)  DE(clash)    DE(int)     intcor
     14.61     -15.51       1.58        0.00      76.86       1.65       0.34       0.56       ----

> <Gold.Chemscore.Fitness>
14.6140

> <Gold.Chemscore.DG>
-15.5132

> <Gold.Chemscore.ZeroCoef>
-5.4800

> <Gold.Chemscore.Hbond>
1.5789

> <Gold.Chemscore.Metal>
0.0000

> <Gold.Chemscore.Lipo>
76.8612

> <Gold.Chemscore.Internal_Hbond>
0.0000

> <Gold.Chemscore.DEClash>
0.3395

> <Gold.Chemscore.DEInternal>
0.5597

> <Gold.Chemscore.Rot>
1.6536

> <Gold.Chemscore.Internal.Correction>
   9.000000E+99

> <Gold.Chemscore.Hbonds>
donor molecule, donor type, donor heavy atom, donor atom, acceptor molecule, acceptor atom, score
      L1  H     8    28       P1  8028  0.94
      P1  H  7997  8010       L1    19  0.71

> <Gold.Chemscore.Hbond.Weighted>
-5.2736

> <Gold.Chemscore.Metal.Weighted>
-0.0000

> <Gold.Chemscore.Lipo.Weighted>
-8.9928

> <Gold.Chemscore.Internal_Hbond.Weighted>
0.0000

> <Gold.Chemscore.DEClash.Weighted>
0.3395

> <Gold.Chemscore.DEInternal.Weighted>
0.5597

> <Gold.Chemscore.Rot.Weighted>
4.2332

> <Gold.Chemscore.Internal.Correction.Weighted>
   9.000000E+99

> <Gold.Protein.RotatedTorsions>
[ 6907 6896 6895 6894 ] final  150.41 input  -60.11 | X-H torsion
[ 7974 7965 7964 7962 ] final  -37.68 input  175.53 | X-H torsion
[ 8008 7997 7996 7995 ] final    9.13 input   59.86 | X-H torsion
[ 10167 10162 10161 10158 ] final   84.09 input  -65.29 | X-H torsion
[ 10718 10713 10712 10709 ] final  -90.43 input   66.30 | X-H torsion
[ 10763 10752 10751 10750 ] final  170.60 input  -60.55 | X-H torsion
[ 11005 11000 10999 10996 ] final   86.50 input  -57.11 | X-H torsion

> <Gold.Protein.ActiveResidues>
 VAL166  LYS551  ARG553  GLY616  TRP617  ASP618  TYR619  PRO620  LYS621  CYS622 
 ASP623  PHE694  ASN695  SER759  ASP760  ASP761  ALA762  ILE779  LEU786  VAL792 
 PHE793  MET794  SER795  GLU796  ALA797  LYS798  CYS799  TRP800  GLU811  SER814 

> <Gold.Protein.RotatedAtoms>
  152.1148  133.4320  159.4647 H   0  0  0  0  0  0  0  0  0  0  0  0  # atno 6907 bound_to 6896
  150.6869  134.2605  159.4556 H   0  0  0  0  0  0  0  0  0  0  0  0  # atno 6908 bound_to 6896
  152.0477  134.9672  160.0625 H   0  0  0  0  0  0  0  0  0  0  0  0  # atno 6909 bound_to 6896
  146.0553  140.6424  142.9022 H   0  0  0  0  0  0  0  0  0  0  0  0  # atno 7974 bound_to 7965
  154.7760  140.2810  155.6100 H   0  0  0  0  0  0  0  0  0  0  0  0  # atno 8008 bound_to 7997
  156.2942  140.2632  156.2502 H   0  0  0  0  0  0  0  0  0  0  0  0  # atno 8009 bound_to 7997
  154.9842  140.0374  157.2280 H   0  0  0  0  0  0  0  0  0  0  0  0  # atno 8010 bound_to 7997
  139.9116  144.6268  150.8531 H   0  0  0  0  0  0  0  0  0  0  0  0  # atno 10167 bound_to 10162
  155.9988  130.4909  150.5321 H   0  0  0  0  0  0  0  0  0  0  0  0  # atno 10718 bound_to 10713
  154.3999  135.2755  155.2103 H   0  0  0  0  0  0  0  0  0  0  0  0  # atno 10763 bound_to 10752
  154.4134  135.6017  153.5969 H   0  0  0  0  0  0  0  0  0  0  0  0  # atno 10764 bound_to 10752
  152.9831  135.5955  154.4265 H   0  0  0  0  0  0  0  0  0  0  0  0  # atno 10765 bound_to 10752
  139.8943  134.8359  156.2729 H   0  0  0  0  0  0  0  0  0  0  0  0  # atno 11005 bound_to 11000
  144.7145  140.4159  143.7055 LP  0  0  0  0  0  0  0  0  0  0  0  0  # atno 17320 bound_to 7965
  145.6654  139.1589  143.2785 LP  0  0  0  0  0  0  0  0  0  0  0  0  # atno 17321 bound_to 7965
  140.7684  143.3361  151.2305 LP  0  0  0  0  0  0  0  0  0  0  0  0  # atno 17342 bound_to 10162
  139.6937  143.9648  152.2872 LP  0  0  0  0  0  0  0  0  0  0  0  0  # atno 17343 bound_to 10162
  157.3269  131.0692  151.1890 LP  0  0  0  0  0  0  0  0  0  0  0  0  # atno 17370 bound_to 10713
  157.2784  130.6738  149.6054 LP  0  0  0  0  0  0  0  0  0  0  0  0  # atno 17371 bound_to 10713
  141.0089  133.7107  156.1079 LP  0  0  0  0  0  0  0  0  0  0  0  0  # atno 17394 bound_to 11000
  140.7395  134.4166  157.5556 LP  0  0  0  0  0  0  0  0  0  0  0  0  # atno 17395 bound_to 11000

$$$$
