AV-unprocessed.smi:1644|AV-procd|sdf|6597|dock6
  -GOLD-   22720 7303D 1   1.00000     0.00000
 Structure written by MMmdl.
 49 51  0  0  0  0  0  0  0  0  3 V2000
  151.6922  131.6741  156.4267 C   0  0  0  0  0  0  0  0  0  0  0  0
  151.3183  133.1549  156.5563 C   0  0  0  0  0  0  0  0  0  0  0  0
  149.8843  133.3565  157.0722 C   0  0  0  0  0  0  0  0  0  0  0  0
  149.4491  134.8372  157.1030 C   0  0  1  0  0  0  0  0  0  0  0  0
  150.2694  135.6134  158.0106 N   0  5  0  0  0  0  0  0  0  0  0  0
  150.8688  136.6060  157.3131 C   0  0  0  0  0  0  0  0  0  0  0  0
  151.6409  137.4545  157.7578 O   0  0  0  0  0  0  0  0  0  0  0  0
  150.5261  136.5580  156.0120 N   0  0  0  0  0  0  0  0  0  0  0  0
  151.0336  137.4582  154.9708 C   0  0  0  0  0  0  0  0  0  0  0  0
  150.6430  138.9244  155.2499 C   0  0  2  0  0  0  0  0  0  0  0  0
  150.3741  139.5617  154.0164 O   0  0  0  0  0  0  0  0  0  0  0  0
  151.7717  139.6910  155.9664 C   0  0  0  0  0  0  0  0  0  0  0  0
  151.3409  141.0065  156.4613 N   0  0  0  0  0  0  0  0  0  0  0  0
  150.5268  141.9266  155.8775 C   0  0  0  0  0  0  0  0  0  0  0  0
  150.4286  142.9865  156.7269 N   0  3  0  0  0  0  0  0  0  0  0  0
  151.1954  142.7412  157.8679 C   0  0  0  0  0  0  0  0  0  0  0  0
  151.4127  143.5157  159.0012 C   0  0  0  0  0  0  0  0  0  0  0  0
  152.2605  142.9795  159.9965 C   0  0  0  0  0  0  0  0  0  0  0  0
  152.5204  143.8016  161.2473 C   0  0  0  0  0  0  0  0  0  0  0  0
  152.8589  141.7031  159.8353 C   0  0  0  0  0  0  0  0  0  0  0  0
  153.7725  141.1381  160.9096 C   0  0  0  0  0  0  0  0  0  0  0  0
  152.6233  140.9299  158.6759 C   0  0  0  0  0  0  0  0  0  0  0  0
  151.7848  141.4726  157.7046 C   0  0  0  0  0  0  0  0  0  0  0  0
  149.6996  135.5331  155.7807 C   0  0  0  0  0  0  0  0  0  0  0  0
  149.2210  135.1813  154.7014 O   0  0  0  0  0  0  0  0  0  0  0  0
  152.7139  131.5619  156.0632 H   0  0  0  0  0  0  0  0  0  0  0  0
  151.0317  131.1615  155.7270 H   0  0  0  0  0  0  0  0  0  0  0  0
  151.6230  131.1655  157.3886 H   0  0  0  0  0  0  0  0  0  0  0  0
  152.0215  133.6447  157.2308 H   0  0  0  0  0  0  0  0  0  0  0  0
  151.4337  133.6391  155.5860 H   0  0  0  0  0  0  0  0  0  0  0  0
  149.1902  132.7727  156.4648 H   0  0  0  0  0  0  0  0  0  0  0  0
  149.8220  132.9424  158.0796 H   0  0  0  0  0  0  0  0  0  0  0  0
  148.3851  134.9112  157.3324 H   0  0  0  0  0  0  0  0  0  0  0  0
  152.1210  137.3672  154.9504 H   0  0  0  0  0  0  0  0  0  0  0  0
  150.7054  137.1454  153.9777 H   0  0  0  0  0  0  0  0  0  0  0  0
  149.7451  138.9640  155.8685 H   0  0  0  0  0  0  0  0  0  0  0  0
  149.6338  139.1316  153.6143 H   0  0  0  0  0  0  0  0  0  0  0  0
  152.1092  139.1236  156.8345 H   0  0  0  0  0  0  0  0  0  0  0  0
  152.6441  139.8115  155.3234 H   0  0  0  0  0  0  0  0  0  0  0  0
  150.0464  141.8321  154.9142 H   0  0  0  0  0  0  0  0  0  0  0  0
  150.9549  144.4874  159.1163 H   0  0  0  0  0  0  0  0  0  0  0  0
  152.1611  143.2755  162.1321 H   0  0  0  0  0  0  0  0  0  0  0  0
  152.0131  144.7659  161.2033 H   0  0  0  0  0  0  0  0  0  0  0  0
  153.5871  143.9925  161.3664 H   0  0  0  0  0  0  0  0  0  0  0  0
  154.1334  140.1438  160.6445 H   0  0  0  0  0  0  0  0  0  0  0  0
  153.2441  141.0577  161.8599 H   0  0  0  0  0  0  0  0  0  0  0  0
  154.6417  141.7810  161.0494 H   0  0  0  0  0  0  0  0  0  0  0  0
  153.0852  139.9619  158.5493 H   0  0  0  0  0  0  0  0  0  0  0  0
  149.8800  143.8159  156.5386 H   0  0  0  0  0  0  0  0  0  0  0  0
  1  2  1  0  0  0  0
  1 26  1  0  0  0  0
  1 27  1  0  0  0  0
  1 28  1  0  0  0  0
  2  3  1  0  0  0  0
  2 29  1  0  0  0  0
  2 30  1  0  0  0  0
  3  4  1  0  0  0  0
  3 31  1  0  0  0  0
  3 32  1  0  0  0  0
  4 24  1  0  0  0  0
  4  5  1  0  0  0  0
  4 33  1  0  0  0  0
  5  6  1  0  0  0  0
  6  7  2  0  0  0  0
  6  8  1  0  0  0  0
  8  9  1  0  0  0  0
  8 24  1  0  0  0  0
  9 10  1  0  0  0  0
  9 34  1  0  0  0  0
  9 35  1  0  0  0  0
 10 11  1  0  0  0  0
 10 12  1  0  0  0  0
 10 36  1  0  0  0  0
 11 37  1  0  0  0  0
 12 13  1  0  0  0  0
 12 38  1  0  0  0  0
 12 39  1  0  0  0  0
 13 23  1  0  0  0  0
 13 14  1  0  0  0  0
 14 15  2  0  0  0  0
 14 40  1  0  0  0  0
 15 16  1  0  0  0  0
 15 49  1  0  0  0  0
 16 23  2  0  0  0  0
 16 17  1  0  0  0  0
 17 18  2  0  0  0  0
 17 41  1  0  0  0  0
 18 19  1  0  0  0  0
 18 20  1  0  0  0  0
 19 42  1  0  0  0  0
 19 43  1  0  0  0  0
 19 44  1  0  0  0  0
 20 21  1  0  0  0  0
 20 22  2  0  0  0  0
 21 45  1  0  0  0  0
 21 46  1  0  0  0  0
 21 47  1  0  0  0  0
 22 23  1  0  0  0  0
 22 48  1  0  0  0  0
 24 25  2  0  0  0  0
M  CHG  1   5  -1
M  CHG  1  15   1
M  END
> <s_m_source_file>
AV-unprocessed.smi

> <i_m_source_file_index>
1644

> <i_lp_mmshare_version>
43012

> <i_f3d_flags>
0

> <s_epik_input>
W0NIM11bQ0gyXVtDSDJdW0NAQEhdMVtOSF1DKD1PKU4oQzE9TylbQ0gyXVtDQEhdKFtPSF0pW0NIMl1uKFtjSF1uMiljKGMyMylbY0hdYyhbQ0gzXSljKFtjSF0zKVtDSDNd

> <s_epik_cmdline>
J2VwaWtfcHl0aG9uJywgJy1waCcsICc3LjAnLCAnLXRuJywgJzgnLCAnLW1hJywgJzIwMCcsICctbWV0YWxfYmluZGluZycsICctaW1hZScsICc8aW5maWxlLm1hZT4nLCAnLW9tYWUnLCAnPG91dGZpbGUubWFlPic=

> <r_lp_tautomer_probability>
1

> <r_epik_Ionization_Penalty>
6.86868

> <r_epik_Ionization_Penalty_Charging>
6.86868

> <r_epik_Ionization_Penalty_Neutral>
5.84798e-07

> <r_epik_State_Penalty>
6.92818

> <r_epik_Charging_Adjusted_Penalty>
13.7969

> <i_epik_Tot_Q>
0

> <i_epik_Tot_abs_Q>
2

> <r_epik_Metal_State_Penalty>
2.98017

> <b_epik_Metal_Only>
1

> <s_lp_Force_Field>
OPLS_2005

> <r_lp_Energy>
23.8384

> <b_lp_Chiralities_Consistent>
1

> <s_lp_Variant>
AV-unprocessed.smi:1644-14

> <Gold.Version>
5.8.1

> <Gold.Id.Protein>
6NUR|6NUR_protein|mol2

> <Gold.PLP.Fitness>
57.7579

> <Gold.PLP.PLP>
-45.7948

> <Gold.PLP.part.hbond>
-4.0000

> <Gold.PLP.part.metal>
0.0000

> <Gold.PLP.part.buried>
-6.9116

> <Gold.PLP.part.nonpolar>
-35.8743

> <Gold.PLP.part.repulsive>
1.2433

> <Gold.PLP.ligand.clash>
0.0000

> <Gold.PLP.ligand.torsion>
0.8664

> <Gold.PLP.Chemscore.Hbond>
4.5360

> <Gold.PLP.Chemscore.CHOScore>
0.0000

> <Gold.PLP.Chemscore.Metal>
0.0000

> <Gold.Chemscore.Hbonds>
donor molecule, donor type, donor heavy atom, donor atom, acceptor molecule, acceptor atom, score
      L1  H    15    49       P1  8028  2.00
      P1  H  6896  6908       L1     5  1.50
      P1  H  7989  7998       L1    11  1.00

> <Gold.PLP.Chemscore.Internal.Correction>
0.0879

> <Gold.Rescore>
     Score         DG    S(hbond)    S(metal)    S(lipo)     H(rot)  DE(clash)    DE(int)     intcor
     17.88     -21.18       2.85        0.00     112.46       2.72       0.22       3.09       ----

> <Gold.Chemscore.Fitness>
17.8787

> <Gold.Chemscore.DG>
-21.1841

> <Gold.Chemscore.ZeroCoef>
-5.4800

> <Gold.Chemscore.Hbond>
2.8505

> <Gold.Chemscore.Metal>
0.0000

> <Gold.Chemscore.Lipo>
112.4625

> <Gold.Chemscore.Internal_Hbond>
0.0000

> <Gold.Chemscore.DEClash>
0.2199

> <Gold.Chemscore.DEInternal>
3.0855

> <Gold.Chemscore.Rot>
2.7245

> <Gold.Chemscore.Internal.Correction>
   9.000000E+99

> <Gold.Chemscore.Hbonds>
donor molecule, donor type, donor heavy atom, donor atom, acceptor molecule, acceptor atom, score
      L1  H    15    49       P1  8028  0.96
      P1  H  6896  6908       L1     5  0.56
      P1  H  7989  7998       L1    11  0.91

> <Gold.Chemscore.Hbond.Weighted>
-9.5207

> <Gold.Chemscore.Metal.Weighted>
-0.0000

> <Gold.Chemscore.Lipo.Weighted>
-13.1581

> <Gold.Chemscore.Internal_Hbond.Weighted>
0.0000

> <Gold.Chemscore.DEClash.Weighted>
0.2199

> <Gold.Chemscore.DEInternal.Weighted>
3.0855

> <Gold.Chemscore.Rot.Weighted>
6.9748

> <Gold.Chemscore.Internal.Correction.Weighted>
   9.000000E+99

> <Gold.Protein.RotatedTorsions>
[ 6907 6896 6895 6894 ] final  169.79 input  -60.11 | X-H torsion
[ 7974 7965 7964 7962 ] final  160.17 input  175.53 | X-H torsion
[ 8008 7997 7996 7995 ] final   85.88 input   59.86 | X-H torsion
[ 10167 10162 10161 10158 ] final  179.39 input  -65.29 | X-H torsion
[ 10718 10713 10712 10709 ] final  177.99 input   66.30 | X-H torsion
[ 10763 10752 10751 10750 ] final   16.45 input  -60.55 | X-H torsion
[ 11005 11000 10999 10996 ] final  -12.66 input  -57.11 | X-H torsion

> <Gold.Protein.ActiveResidues>
 VAL166  LYS551  ARG553  GLY616  TRP617  ASP618  TYR619  PRO620  LYS621  CYS622 
 ASP623  PHE694  ASN695  SER759  ASP760  ASP761  ALA762  ILE779  LEU786  VAL792 
 PHE793  MET794  SER795  GLU796  ALA797  LYS798  CYS799  TRP800  GLU811  SER814 

> <Gold.Protein.RotatedAtoms>
  151.8264  133.3402  159.3599 H   0  0  0  0  0  0  0  0  0  0  0  0  # atno 6907 bound_to 6896
  150.7278  134.5525  159.5811 H   0  0  0  0  0  0  0  0  0  0  0  0  # atno 6908 bound_to 6896
  152.2968  134.7658  160.0417 H   0  0  0  0  0  0  0  0  0  0  0  0  # atno 6909 bound_to 6896
  144.7751  139.7720  143.6282 H   0  0  0  0  0  0  0  0  0  0  0  0  # atno 7974 bound_to 7965
  155.9556  140.3397  155.6446 H   0  0  0  0  0  0  0  0  0  0  0  0  # atno 8008 bound_to 7997
  155.6864  140.0744  157.2483 H   0  0  0  0  0  0  0  0  0  0  0  0  # atno 8009 bound_to 7997
  154.4131  140.1665  156.2026 H   0  0  0  0  0  0  0  0  0  0  0  0  # atno 8010 bound_to 7997
  139.5334  144.2566  152.0741 H   0  0  0  0  0  0  0  0  0  0  0  0  # atno 10167 bound_to 10162
  156.8972  130.9867  151.3041 H   0  0  0  0  0  0  0  0  0  0  0  0  # atno 10718 bound_to 10713
  153.1429  135.6763  153.8999 H   0  0  0  0  0  0  0  0  0  0  0  0  # atno 10763 bound_to 10752
  153.8450  135.3100  155.3430 H   0  0  0  0  0  0  0  0  0  0  0  0  # atno 10764 bound_to 10752
  154.7802  135.4892  153.9913 H   0  0  0  0  0  0  0  0  0  0  0  0  # atno 10765 bound_to 10752
  140.7680  133.8461  155.9182 H   0  0  0  0  0  0  0  0  0  0  0  0  # atno 11005 bound_to 11000
  146.1925  139.5173  142.9796 LP  0  0  0  0  0  0  0  0  0  0  0  0  # atno 17320 bound_to 7965
  145.6210  141.0322  143.1915 LP  0  0  0  0  0  0  0  0  0  0  0  0  # atno 17321 bound_to 7965
  140.2033  144.4636  150.6421 LP  0  0  0  0  0  0  0  0  0  0  0  0  # atno 17342 bound_to 10162
  140.6527  143.2229  151.6040 LP  0  0  0  0  0  0  0  0  0  0  0  0  # atno 17343 bound_to 10162
  157.6048  130.8539  149.8858 LP  0  0  0  0  0  0  0  0  0  0  0  0  # atno 17370 bound_to 10713
  156.0599  130.3701  150.1005 LP  0  0  0  0  0  0  0  0  0  0  0  0  # atno 17371 bound_to 10713
  140.9601  134.1667  157.4661 LP  0  0  0  0  0  0  0  0  0  0  0  0  # atno 17394 bound_to 11000
  139.8760  134.9941  156.5679 LP  0  0  0  0  0  0  0  0  0  0  0  0  # atno 17395 bound_to 11000

$$$$
