AV-unprocessed.smi:1899|AV-procd|sdf|7708|dock3
  -GOLD-   22720 9443D 1   1.00000     0.00000
 Structure written by MMmdl.
 33 34  0  0  0  0  0  0  0  0  1 V2000
  152.6304  140.2572  157.8974 O   0  0  0  0  0  0  0  0  0  0  0  0
  151.6341  140.9797  157.9367 C   0  0  0  0  0  0  0  0  0  0  0  0
  150.5878  140.8332  157.1097 N   0  0  0  0  0  0  0  0  0  0  0  0
  150.4568  139.7936  156.0936 C   0  0  0  0  0  0  0  0  0  0  0  0
  150.1567  140.3701  154.6962 C   0  0  0  0  0  0  0  0  0  0  0  0
  148.7991  140.8697  154.5865 N   0  0  0  0  0  0  0  0  0  0  0  0
  147.8524  140.5217  153.6325 C   0  0  0  0  0  0  0  0  0  0  0  0
  146.7195  141.2490  153.9205 C   0  0  0  0  0  0  0  0  0  0  0  0
  146.9454  142.0461  155.0405 N   0  0  0  0  0  0  0  0  0  0  0  0
  148.1967  141.7659  155.3806 C   0  0  0  0  0  0  0  0  0  0  0  0
  151.5359  142.1074  158.9721 C   0  0  1  0  0  0  0  0  0  0  0  0
  152.6167  141.9488  160.0663 C   0  0  0  0  0  0  0  0  0  0  0  0
  152.7253  143.1788  160.9500 C   0  0  0  0  0  0  0  0  0  0  0  0
  152.1994  144.3722  160.6247 C   0  0  0  0  0  0  0  0  0  0  0  0
  151.4395  144.6268  159.3350 C   0  0  0  0  0  0  0  0  0  0  0  0
  151.6375  143.4956  158.3084 C   0  0  0  0  0  0  0  0  0  0  0  0
  149.8124  141.4727  157.2093 H   0  0  0  0  0  0  0  0  0  0  0  0
  151.3838  139.2203  156.0686 H   0  0  0  0  0  0  0  0  0  0  0  0
  149.6714  139.0947  156.3858 H   0  0  0  0  0  0  0  0  0  0  0  0
  150.8403  141.1917  154.4801 H   0  0  0  0  0  0  0  0  0  0  0  0
  150.3202  139.6203  153.9208 H   0  0  0  0  0  0  0  0  0  0  0  0
  148.0578  139.8072  152.8491 H   0  0  0  0  0  0  0  0  0  0  0  0
  145.7671  141.2603  153.4113 H   0  0  0  0  0  0  0  0  0  0  0  0
  148.6897  142.2284  156.2232 H   0  0  0  0  0  0  0  0  0  0  0  0
  150.5575  142.0445  159.4526 H   0  0  0  0  0  0  0  0  0  0  0  0
  152.3802  141.0896  160.6951 H   0  0  0  0  0  0  0  0  0  0  0  0
  153.5991  141.7612  159.6306 H   0  0  0  0  0  0  0  0  0  0  0  0
  153.2688  143.0666  161.8767 H   0  0  0  0  0  0  0  0  0  0  0  0
  152.3008  145.2066  161.3030 H   0  0  0  0  0  0  0  0  0  0  0  0
  150.3827  144.7316  159.5817 H   0  0  0  0  0  0  0  0  0  0  0  0
  151.7621  145.5766  158.9076 H   0  0  0  0  0  0  0  0  0  0  0  0
  152.6183  143.6061  157.8429 H   0  0  0  0  0  0  0  0  0  0  0  0
  150.9045  143.5965  157.5066 H   0  0  0  0  0  0  0  0  0  0  0  0
  1  2  2  0  0  0  0
  2  3  1  0  0  0  0
  2 11  1  0  0  0  0
  3  4  1  0  0  0  0
  3 17  1  0  0  0  0
  4  5  1  0  0  0  0
  4 18  1  0  0  0  0
  4 19  1  0  0  0  0
  5  6  1  0  0  0  0
  5 20  1  0  0  0  0
  5 21  1  0  0  0  0
  6 10  1  0  0  0  0
  6  7  1  0  0  0  0
  7  8  2  0  0  0  0
  7 22  1  0  0  0  0
  8  9  1  0  0  0  0
  8 23  1  0  0  0  0
  9 10  2  0  0  0  0
 10 24  1  0  0  0  0
 11 16  1  0  0  0  0
 11 12  1  0  0  0  0
 11 25  1  0  0  0  0
 12 13  1  0  0  0  0
 12 26  1  0  0  0  0
 12 27  1  0  0  0  0
 13 14  2  0  0  0  0
 13 28  1  0  0  0  0
 14 15  1  0  0  0  0
 14 29  1  0  0  0  0
 15 16  1  0  0  0  0
 15 30  1  0  0  0  0
 15 31  1  0  0  0  0
 16 32  1  0  0  0  0
 16 33  1  0  0  0  0
M  END
> <s_m_source_file>
AV-unprocessed.smi

> <i_m_source_file_index>
1899

> <i_lp_mmshare_version>
43012

> <i_f3d_flags>
0

> <s_epik_input>
W0NIMl0xW0NIMl1bQ0hdPVtDSF1bQ0gyXVtDQEhdMUMoPU8pW05IXVtDSDJdW0NIMl1uMltjSF1bY0hdbltjSF0y

> <s_epik_cmdline>
J2VwaWtfcHl0aG9uJywgJy1waCcsICc3LjAnLCAnLXRuJywgJzgnLCAnLW1hJywgJzIwMCcsICctbWV0YWxfYmluZGluZycsICctaW1hZScsICc8aW5maWxlLm1hZT4nLCAnLW9tYWUnLCAnPG91dGZpbGUubWFlPic=

> <r_lp_tautomer_probability>
1

> <r_epik_Ionization_Penalty>
0.598506

> <r_epik_Ionization_Penalty_Charging>
0.598506

> <r_epik_Ionization_Penalty_Neutral>
1.57027e-08

> <r_epik_State_Penalty>
0.612686

> <r_epik_Charging_Adjusted_Penalty>
1.21119

> <i_epik_Tot_Q>
0

> <i_epik_Tot_abs_Q>
0

> <r_epik_Metal_State_Penalty>
0.300712

> <b_epik_Metal_Only>
0

> <s_lp_Force_Field>
OPLS_2005

> <r_lp_Energy>
10.0214

> <b_lp_Chiralities_Consistent>
1

> <s_lp_Variant>
AV-unprocessed.smi:1899-4

> <Gold.Version>
5.8.1

> <Gold.Id.Protein>
6NUR|6NUR_protein|mol2

> <Gold.PLP.Fitness>
42.9998

> <Gold.PLP.PLP>
-33.3711

> <Gold.PLP.part.hbond>
-1.0000

> <Gold.PLP.part.metal>
0.0000

> <Gold.PLP.part.buried>
3.1866

> <Gold.PLP.part.nonpolar>
-35.0045

> <Gold.PLP.part.repulsive>
0.1857

> <Gold.PLP.ligand.clash>
0.0000

> <Gold.PLP.ligand.torsion>
0.3576

> <Gold.PLP.Chemscore.Hbond>
0.8960

> <Gold.PLP.Chemscore.CHOScore>
2.5436

> <Gold.PLP.Chemscore.Metal>
0.0000

> <Gold.Chemscore.Hbonds>
donor molecule, donor type, donor heavy atom, donor atom, acceptor molecule, acceptor atom, score
      P1  H  7997  8009       L1     1  0.75
      L1  C     7    22       P1  7957  0.94
      L1  C     8    23       P1 10175  1.00
      L1  C    10    24       P1  8028  0.48

> <Gold.PLP.Chemscore.Internal.Correction>
0.0251

> <Gold.Rescore>
     Score         DG    S(hbond)    S(metal)    S(lipo)     H(rot)  DE(clash)    DE(int)     intcor
     14.42     -14.86       0.91        0.00      93.59       1.80       0.19       0.25       ----

> <Gold.Chemscore.Fitness>
14.4245

> <Gold.Chemscore.DG>
-14.8610

> <Gold.Chemscore.ZeroCoef>
-5.4800

> <Gold.Chemscore.Hbond>
0.9136

> <Gold.Chemscore.Metal>
0.0000

> <Gold.Chemscore.Lipo>
93.5886

> <Gold.Chemscore.Internal_Hbond>
0.0000

> <Gold.Chemscore.DEClash>
0.1864

> <Gold.Chemscore.DEInternal>
0.2501

> <Gold.Chemscore.Rot>
1.8048

> <Gold.Chemscore.Internal.Correction>
   9.000000E+99

> <Gold.Chemscore.Hbonds>
donor molecule, donor type, donor heavy atom, donor atom, acceptor molecule, acceptor atom, score
      P1  H  7997  8009       L1     1  0.71

> <Gold.Chemscore.Hbond.Weighted>
-3.0514

> <Gold.Chemscore.Metal.Weighted>
-0.0000

> <Gold.Chemscore.Lipo.Weighted>
-10.9499

> <Gold.Chemscore.Internal_Hbond.Weighted>
0.0000

> <Gold.Chemscore.DEClash.Weighted>
0.1864

> <Gold.Chemscore.DEInternal.Weighted>
0.2501

> <Gold.Chemscore.Rot.Weighted>
4.6203

> <Gold.Chemscore.Internal.Correction.Weighted>
   9.000000E+99

> <Gold.Protein.RotatedTorsions>
[ 6907 6896 6895 6894 ] final -145.46 input  -60.11 | X-H torsion
[ 7974 7965 7964 7962 ] final  177.68 input  175.53 | X-H torsion
[ 8008 7997 7996 7995 ] final  171.20 input   59.86 | X-H torsion
[ 10167 10162 10161 10158 ] final -174.33 input  -65.29 | X-H torsion
[ 10718 10713 10712 10709 ] final -168.58 input   66.30 | X-H torsion
[ 10763 10752 10751 10750 ] final -124.27 input  -60.55 | X-H torsion
[ 11005 11000 10999 10996 ] final -109.82 input  -57.11 | X-H torsion

> <Gold.Protein.ActiveResidues>
 VAL166  LYS551  ARG553  GLY616  TRP617  ASP618  TYR619  PRO620  LYS621  CYS622 
 ASP623  PHE694  ASN695  SER759  ASP760  ASP761  ALA762  ILE779  LEU786  VAL792 
 PHE793  MET794  SER795  GLU796  ALA797  LYS798  CYS799  TRP800  GLU811  SER814 

> <Gold.Protein.RotatedAtoms>
  151.1281  133.5056  159.2599 H   0  0  0  0  0  0  0  0  0  0  0  0  # atno 6907 bound_to 6896
  151.1788  135.0351  159.8793 H   0  0  0  0  0  0  0  0  0  0  0  0  # atno 6908 bound_to 6896
  152.5459  134.1135  159.8422 H   0  0  0  0  0  0  0  0  0  0  0  0  # atno 6909 bound_to 6896
  144.7166  140.0284  143.6439 H   0  0  0  0  0  0  0  0  0  0  0  0  # atno 7974 bound_to 7965
  156.1293  140.1518  156.9089 H   0  0  0  0  0  0  0  0  0  0  0  0  # atno 8008 bound_to 7997
  154.4897  140.0855  156.7606 H   0  0  0  0  0  0  0  0  0  0  0  0  # atno 8009 bound_to 7997
  155.4285  140.3426  155.4280 H   0  0  0  0  0  0  0  0  0  0  0  0  # atno 8010 bound_to 7997
  139.5640  144.1801  152.1283 H   0  0  0  0  0  0  0  0  0  0  0  0  # atno 10167 bound_to 10162
  156.6991  130.9189  151.3078 H   0  0  0  0  0  0  0  0  0  0  0  0  # atno 10718 bound_to 10713
  154.8721  135.4069  154.3078 H   0  0  0  0  0  0  0  0  0  0  0  0  # atno 10763 bound_to 10752
  153.3927  135.7015  153.6488 H   0  0  0  0  0  0  0  0  0  0  0  0  # atno 10764 bound_to 10752
  153.5264  135.3676  155.2627 H   0  0  0  0  0  0  0  0  0  0  0  0  # atno 10765 bound_to 10752
  141.0826  133.9193  157.2255 H   0  0  0  0  0  0  0  0  0  0  0  0  # atno 11005 bound_to 11000
  146.0123  139.3180  143.0863 LP  0  0  0  0  0  0  0  0  0  0  0  0  # atno 17320 bound_to 7965
  145.8667  140.9444  143.0672 LP  0  0  0  0  0  0  0  0  0  0  0  0  # atno 17321 bound_to 7965
  140.1320  144.5279  150.6796 LP  0  0  0  0  0  0  0  0  0  0  0  0  # atno 17342 bound_to 10162
  140.6922  143.2382  151.5100 LP  0  0  0  0  0  0  0  0  0  0  0  0  # atno 17343 bound_to 10162
  157.6980  130.9302  150.0701 LP  0  0  0  0  0  0  0  0  0  0  0  0  # atno 17370 bound_to 10713
  156.1742  130.3647  149.9123 LP  0  0  0  0  0  0  0  0  0  0  0  0  # atno 17371 bound_to 10713
  139.9642  135.0146  156.9341 LP  0  0  0  0  0  0  0  0  0  0  0  0  # atno 17394 bound_to 11000
  140.5434  134.0698  155.7348 LP  0  0  0  0  0  0  0  0  0  0  0  0  # atno 17395 bound_to 11000

$$$$
