#       Name:                AV-unprocessed.smi:1423
#       Creating user name   scv26
#       Creation time:       Fri Mar 27 05:44:32 2020


#       File generated by GOLD software.
#

@<TRIPOS>MOLECULE
AV-unprocessed.smi:1423
    51    52     1
SMALL
NO_CHARGES


@<TRIPOS>ATOM
      1 ****        -8.1673   3.0509   0.1582 C.3            1 S1                 0.0000
      2 ****        -7.6434   1.7308   0.2522 O.3            1 S1                 0.0000
      3 ****        -6.2784   1.5587   0.1460 C.ar           1 S1                 0.0000
      4 ****        -5.7514   0.2575   0.2644 C.ar           1 S1                 0.0000
      5 ****        -4.3592   0.0735   0.1632 C.ar           1 S1                 0.0000
      6 ****        -3.5340   1.2016  -0.0626 C.ar           1 S1                 0.0000
      7 ****        -2.1162   1.1582  -0.1609 N.am           1 S1                 0.0000
      8 ****        -1.3159   0.0975  -0.3643 C.2            1 S1                 0.0000
      9 ****        -1.6944  -1.0542  -0.5756 O.2            1 S1                 0.0000
     10 ****        -0.0230   0.4513  -0.3238 N.am           1 S1                 0.0000
     11 ****         1.1035  -0.4608  -0.5018 C.3            1 S1                 0.0000
     12 ****         1.3848  -1.2472   0.7927 C.3            1 S1                 0.0000
     13 ****         2.6365  -2.1291   0.6498 C.3            1 S1                 0.0000
     14 ****         3.8191  -1.3186   0.2634 N.4            1 S1                 1.0000
     15 ****         5.0770  -2.1087   0.2606 C.3            1 S1                 0.0000
     16 ****         6.3223  -1.2440   0.4816 C.2            1 S1                 0.0000
     17 ****         7.4905  -1.7567   0.0889 N.am           1 S1                 0.0000
     18 ****         6.2374  -0.1376   1.0119 O.2            1 S1                 0.0000
     19 ****         3.5860  -0.5881  -1.0110 C.3            1 S1                 0.0000
     20 ****         2.3579   0.3312  -0.9049 C.3            1 S1                 0.0000
     21 ****        -4.1607   2.4616  -0.1587 C.ar           1 S1                 0.0000
     22 ****        -5.4941   2.6451  -0.0614 N.ar           1 S1                 0.0000
     23 ****        -9.2517   3.0166   0.2608 H              1 S1                 0.0000
     24 ****        -7.9406   3.5034  -0.8082 H              1 S1                 0.0000
     25 ****        -7.7806   3.6904   0.9530 H              1 S1                 0.0000
     26 ****        -6.4035  -0.5861   0.4370 H              1 S1                 0.0000
     27 ****        -3.9599  -0.9219   0.2756 H              1 S1                 0.0000
     28 ****        -1.6548   2.0528  -0.0850 H              1 S1                 0.0000
     29 ****         0.1977   1.4217  -0.1541 H              1 S1                 0.0000
     30 ****         0.8695  -1.1639  -1.3037 H              1 S1                 0.0000
     31 ****         1.5242  -0.5549   1.6243 H              1 S1                 0.0000
     32 ****         0.5281  -1.8707   1.0513 H              1 S1                 0.0000
     33 ****         2.8277  -2.6319   1.5985 H              1 S1                 0.0000
     34 ****         2.4674  -2.9082  -0.0952 H              1 S1                 0.0000
     35 ****         5.0564  -2.8369   1.0726 H              1 S1                 0.0000
     36 ****         5.1614  -2.6766  -0.6675 H              1 S1                 0.0000
     37 ****         8.3437  -1.2294   0.2070 H              1 S1                 0.0000
     38 ****         7.5169  -2.6751  -0.3310 H              1 S1                 0.0000
     39 ****         4.4598   0.0119  -1.2659 H              1 S1                 0.0000
     40 ****         3.4487  -1.3046  -1.8225 H              1 S1                 0.0000
     41 ****         2.1919   0.8353  -1.8580 H              1 S1                 0.0000
     42 ****         2.5562   1.1143  -0.1713 H              1 S1                 0.0000
     43 ****        -3.5738   3.3544  -0.3196 H              1 S1                 0.0000
     44 ****         3.9325  -0.6212   0.9857 H              1 S1                 0.0000
     45 ****        -8.0671   1.1918  -0.4758 LP             1 S1                 0.0000
     46 ****        -7.9194   1.3655   1.1412 LP             1 S1                 0.0000
     47 ****        -2.6722  -1.2614  -0.6067 LP             1 S1                 0.0000
     48 ****        -1.0242  -1.7829  -0.7163 LP             1 S1                 0.0000
     49 ****         5.3465   0.2091   1.3055 LP             1 S1                 0.0000
     50 ****         7.0592   0.4153   1.1494 LP             1 S1                 0.0000
     51 ****        -5.8934   3.5586  -0.1402 LP             1 S1                 0.0000
@<TRIPOS>BOND
    1    1    2 1     
    2    1   23 1     
    3    1   24 1     
    4    1   25 1     
    5    2    3 1     
    6    3   22 ar    
    7    3    4 ar    
    8    4    5 ar    
    9    4   26 1     
   10    5    6 ar    
   11    5   27 1     
   12    6    7 1     
   13    6   21 ar    
   14    7    8 am    
   15    7   28 1     
   16    8    9 2     
   17    8   10 am    
   18   10   11 1     
   19   10   29 1     
   20   11   20 1     
   21   11   12 1     
   22   11   30 1     
   23   12   13 1     
   24   12   31 1     
   25   12   32 1     
   26   13   14 1     
   27   13   33 1     
   28   13   34 1     
   29   14   15 1     
   30   14   19 1     
   31   14   44 1     
   32   15   16 1     
   33   15   35 1     
   34   15   36 1     
   35   16   17 am    
   36   16   18 2     
   37   17   37 1     
   38   17   38 1     
   39   19   20 1     
   40   19   39 1     
   41   19   40 1     
   42   20   41 1     
   43   20   42 1     
   44   21   22 ar    
   45   21   43 1     
   46    2   45 1     
   47    2   46 1     
   48    9   47 1     
   49    9   48 1     
   50   18   49 1     
   51   18   50 1     
   52   22   51 1     
@<TRIPOS>SUBSTRUCTURE
      1 S1             1
@<TRIPOS>SET
LONE_PAIRS      STATIC     ATOMS    <user>   **** ""
7 45 46 47 48 49 50 51
DONOR_HYDROGENS      STATIC     ATOMS    <user>   **** ""
5 28 29 44 37 38
ATOM$BLUE        STATIC     ATOMS    COLORGROUP SYSTEM
7 45 46 47 48 49 50 51
ATOM$RED        STATIC     ATOMS    COLORGROUP SYSTEM
5 28 29 44 37 38
