#       Name:                AV-unprocessed.smi:1946
#       Creating user name   scv26
#       Creation time:       Fri Mar 27 10:01:07 2020


#       File generated by GOLD software.
#

@<TRIPOS>MOLECULE
AV-unprocessed.smi:1946
    41    43     1
SMALL
NO_CHARGES


@<TRIPOS>ATOM
      1 ****        -6.0820  -0.3776  -1.8432 C.3            1 S1                 0.0000
      2 ****        -5.5794  -0.0069  -0.1141 S.o2           1 S1                 0.0000
      3 ****        -5.8871   1.4057   0.1580 O.2            1 S1                 0.0000
      4 ****        -6.1358  -1.0541   0.7569 O.2            1 S1                 0.0000
      5 ****        -3.8008  -0.1921  -0.1449 C.ar           1 S1                 0.0000
      6 ****        -3.2204  -1.4412   0.1518 C.ar           1 S1                 0.0000
      7 ****        -1.8209  -1.5894   0.0951 C.ar           1 S1                 0.0000
      8 ****        -1.0022  -0.4973  -0.2712 C.ar           1 S1                 0.0000
      9 ****         0.5102  -0.6455  -0.3266 C.3            1 S1                 0.0000
     10 ****         0.9103  -1.8391  -0.9726 O.3            1 S1                 0.0000
     11 ****         1.1309  -0.5824   1.0820 C.3            1 S1                 0.0000
     12 ****         2.5819  -0.5920   1.0467 N.pl3          1 S1                 0.0000
     13 ****         3.3978  -1.6392   1.2752 C.2            1 S1                 0.0000
     14 ****         4.7072  -1.4215   1.1874 N.2            1 S1                 0.0000
     15 ****         4.7456  -0.0758   0.8641 C.ar           1 S1                 0.0000
     16 ****         5.8448   0.7807   0.6276 C.ar           1 S1                 0.0000
     17 ****         5.6364   2.1388   0.3085 C.ar           1 S1                 0.0000
     18 ****         4.3294   2.6610   0.2206 C.ar           1 S1                 0.0000
     19 ****         3.2184   1.8270   0.4512 C.ar           1 S1                 0.0000
     20 ****         3.4311   0.4728   0.7696 C.ar           1 S1                 0.0000
     21 ****        -1.5961   0.7467  -0.5769 C.ar           1 S1                 0.0000
     22 ****        -2.9947   0.9004  -0.5202 C.ar           1 S1                 0.0000
     23 ****        -7.1643  -0.2876  -1.9332 H              1 S1                 0.0000
     24 ****        -5.7798  -1.3925  -2.1007 H              1 S1                 0.0000
     25 ****        -5.6021   0.3277  -2.5214 H              1 S1                 0.0000
     26 ****        -3.8389  -2.2838   0.4237 H              1 S1                 0.0000
     27 ****        -1.3776  -2.5452   0.3338 H              1 S1                 0.0000
     28 ****         0.9087   0.1773  -0.9219 H              1 S1                 0.0000
     29 ****         0.6122  -1.8091  -1.8689 H              1 S1                 0.0000
     30 ****         0.8136   0.3286   1.5912 H              1 S1                 0.0000
     31 ****         0.7870  -1.4180   1.6936 H              1 S1                 0.0000
     32 ****         3.0083  -2.6176   1.5164 H              1 S1                 0.0000
     33 ****         6.8504   0.3921   0.6918 H              1 S1                 0.0000
     34 ****         6.4846   2.7835   0.1306 H              1 S1                 0.0000
     35 ****         4.1805   3.7025  -0.0240 H              1 S1                 0.0000
     36 ****         2.2156   2.2222   0.3845 H              1 S1                 0.0000
     37 ****        -0.9804   1.5888  -0.8576 H              1 S1                 0.0000
     38 ****        -3.4414   1.8531  -0.7640 H              1 S1                 0.0000
     39 ****         0.5045  -2.6264  -0.5082 LP             1 S1                 0.0000
     40 ****         1.9070  -1.9167  -0.9509 LP             1 S1                 0.0000
     41 ****         5.4643  -2.0613   1.3200 LP             1 S1                 0.0000
@<TRIPOS>BOND
    1    1    2 1     
    2    1   23 1     
    3    1   24 1     
    4    1   25 1     
    5    2    3 2     
    6    2    4 2     
    7    2    5 1     
    8    5   22 ar    
    9    5    6 ar    
   10    6    7 ar    
   11    6   26 1     
   12    7    8 ar    
   13    7   27 1     
   14    8    9 1     
   15    8   21 ar    
   16    9   10 1     
   17    9   11 1     
   18    9   28 1     
   19   10   29 1     
   20   11   12 1     
   21   11   30 1     
   22   11   31 1     
   23   12   20 1     
   24   12   13 1     
   25   13   14 2     
   26   13   32 1     
   27   14   15 1     
   28   15   20 ar    
   29   15   16 ar    
   30   16   17 ar    
   31   16   33 1     
   32   17   18 ar    
   33   17   34 1     
   34   18   19 ar    
   35   18   35 1     
   36   19   20 ar    
   37   19   36 1     
   38   21   22 ar    
   39   21   37 1     
   40   22   38 1     
   41   10   39 1     
   42   10   40 1     
   43   14   41 1     
@<TRIPOS>SUBSTRUCTURE
      1 S1             1
@<TRIPOS>SET
LONE_PAIRS      STATIC     ATOMS    <user>   **** ""
5 3 4 39 40 41
DONOR_HYDROGENS      STATIC     ATOMS    <user>   **** ""
1 29
ATOM$BLUE        STATIC     ATOMS    COLORGROUP SYSTEM
5 3 4 39 40 41
ATOM$RED        STATIC     ATOMS    COLORGROUP SYSTEM
1 29
