AV-unprocessed.smi:1600|AV-procd|sdf|6428|dock6
  -GOLD-   22720 7 73D 1   1.00000     0.00000
 Structure written by MMmdl.
 46 47  0  0  0  0  0  0  0  0  2 V2000
  143.5123  132.3289  149.6136 C   0  0  0  0  0  0  0  0  0  0  0  0
  144.5641  133.0923  150.3630 C   0  0  0  0  0  0  0  0  0  0  0  0
  144.6886  134.5048  150.5051 C   0  0  0  0  0  0  0  0  0  0  0  0
  145.8119  134.6321  151.2762 C   0  0  0  0  0  0  0  0  0  0  0  0
  146.4107  135.7639  151.7337 N   0  0  0  0  0  0  0  0  0  0  0  0
  145.8353  136.8907  152.1888 C   0  0  0  0  0  0  0  0  0  0  0  0
  144.6236  137.0865  152.2840 O   0  0  0  0  0  0  0  0  0  0  0  0
  146.7572  137.8072  152.5186 N   0  0  0  0  0  0  0  0  0  0  0  0
  146.4749  139.1406  153.0466 C   0  0  0  0  0  0  0  0  0  0  0  0
  147.7397  139.9944  153.2857 C   0  0  1  0  0  0  0  0  0  0  0  0
  147.5110  141.3413  153.9711 C   0  0  0  0  0  0  0  0  0  0  0  0
  148.8808  141.7092  154.5594 C   0  0  0  0  0  0  0  0  0  0  0  0
  149.7217  140.4848  154.5207 N   0  3  1  0  0  0  0  0  0  0  0  0
  150.5768  140.2655  155.7218 C   0  0  0  0  0  0  0  0  0  0  0  0
  151.0444  141.6055  156.3201 C   0  0  0  0  0  0  0  0  0  0  0  0
  151.8039  139.3913  155.3996 C   0  0  0  0  0  0  0  0  0  0  0  0
  148.8244  139.3650  154.1616 C   0  0  0  0  0  0  0  0  0  0  0  0
  146.2990  133.3765  151.5633 N   0  0  0  0  0  0  0  0  0  0  0  0
  147.4586  132.9950  152.3455 C   0  0  0  0  0  0  0  0  0  0  0  0
  145.5257  132.4273  150.9935 N   0  0  0  0  0  0  0  0  0  0  0  0
  142.7147  132.9891  149.2725 H   0  0  0  0  0  0  0  0  0  0  0  0
  143.0599  131.5608  150.2415 H   0  0  0  0  0  0  0  0  0  0  0  0
  143.9347  131.8386  148.7364 H   0  0  0  0  0  0  0  0  0  0  0  0
  144.0486  135.2751  150.1027 H   0  0  0  0  0  0  0  0  0  0  0  0
  147.4196  135.7588  151.7026 H   0  0  0  0  0  0  0  0  0  0  0  0
  147.7305  137.5606  152.4092 H   0  0  0  0  0  0  0  0  0  0  0  0
  145.7848  139.6746  152.3913 H   0  0  0  0  0  0  0  0  0  0  0  0
  145.9465  139.0128  153.9915 H   0  0  0  0  0  0  0  0  0  0  0  0
  148.1873  140.1950  152.3108 H   0  0  0  0  0  0  0  0  0  0  0  0
  147.1337  142.0991  153.2836 H   0  0  0  0  0  0  0  0  0  0  0  0
  146.7886  141.2446  154.7823 H   0  0  0  0  0  0  0  0  0  0  0  0
  149.3661  142.4898  153.9728 H   0  0  0  0  0  0  0  0  0  0  0  0
  148.7547  142.0870  155.5751 H   0  0  0  0  0  0  0  0  0  0  0  0
  149.9803  139.7433  156.4717 H   0  0  0  0  0  0  0  0  0  0  0  0
  151.6794  141.4432  157.1916 H   0  0  0  0  0  0  0  0  0  0  0  0
  150.2097  142.2248  156.6478 H   0  0  0  0  0  0  0  0  0  0  0  0
  151.6211  142.1816  155.5956 H   0  0  0  0  0  0  0  0  0  0  0  0
  152.4430  139.2791  156.2760 H   0  0  0  0  0  0  0  0  0  0  0  0
  152.4080  139.8316  154.6057 H   0  0  0  0  0  0  0  0  0  0  0  0
  151.5207  138.3858  155.0882 H   0  0  0  0  0  0  0  0  0  0  0  0
  148.3961  138.9526  155.0753 H   0  0  0  0  0  0  0  0  0  0  0  0
  149.3561  138.5668  153.6430 H   0  0  0  0  0  0  0  0  0  0  0  0
  148.3546  133.4424  151.9146 H   0  0  0  0  0  0  0  0  0  0  0  0
  147.5752  131.9104  152.3566 H   0  0  0  0  0  0  0  0  0  0  0  0
  147.3407  133.3477  153.3702 H   0  0  0  0  0  0  0  0  0  0  0  0
  150.3435  140.5992  153.7331 H   0  0  0  0  0  0  0  0  0  0  0  0
  1  2  1  0  0  0  0
  1 21  1  0  0  0  0
  1 22  1  0  0  0  0
  1 23  1  0  0  0  0
  2 20  2  0  0  0  0
  2  3  1  0  0  0  0
  3  4  2  0  0  0  0
  3 24  1  0  0  0  0
  4  5  1  0  0  0  0
  4 18  1  0  0  0  0
  5  6  1  0  0  0  0
  5 25  1  0  0  0  0
  6  7  2  0  0  0  0
  6  8  1  0  0  0  0
  8  9  1  0  0  0  0
  8 26  1  0  0  0  0
  9 10  1  0  0  0  0
  9 27  1  0  0  0  0
  9 28  1  0  0  0  0
 10 17  1  0  0  0  0
 10 11  1  0  0  0  0
 10 29  1  0  0  0  0
 11 12  1  0  0  0  0
 11 30  1  0  0  0  0
 11 31  1  0  0  0  0
 12 13  1  0  0  0  0
 12 32  1  0  0  0  0
 12 33  1  0  0  0  0
 13 14  1  0  0  0  0
 13 17  1  0  0  0  0
 13 46  1  0  0  0  0
 14 15  1  0  0  0  0
 14 16  1  0  0  0  0
 14 34  1  0  0  0  0
 15 35  1  0  0  0  0
 15 36  1  0  0  0  0
 15 37  1  0  0  0  0
 16 38  1  0  0  0  0
 16 39  1  0  0  0  0
 16 40  1  0  0  0  0
 17 41  1  0  0  0  0
 17 42  1  0  0  0  0
 18 19  1  0  0  0  0
 18 20  1  0  0  0  0
 19 43  1  0  0  0  0
 19 44  1  0  0  0  0
 19 45  1  0  0  0  0
M  CHG  1  13   1
M  END
> <s_m_source_file>
AV-unprocessed.smi

> <i_m_source_file_index>
1600

> <i_lp_mmshare_version>
43012

> <i_f3d_flags>
0

> <s_epik_input>
W0NIM11jMVtjSF1jKG4objEpW0NIM10pW05IXUMoPU8pW05IXVtDSDJdW0NAQEhdMltDSDJdW0NIMl1OKFtDSDJdMilbQ0hdKFtDSDNdKVtDSDNd

> <s_epik_cmdline>
J2VwaWtfcHl0aG9uJywgJy1waCcsICc3LjAnLCAnLXRuJywgJzgnLCAnLW1hJywgJzIwMCcsICctbWV0YWxfYmluZGluZycsICctaW1hZScsICc8aW5maWxlLm1hZT4nLCAnLW9tYWUnLCAnPG91dGZpbGUubWFlPic=

> <r_lp_tautomer_probability>
1

> <r_epik_Ionization_Penalty>
0.000297652

> <r_epik_Ionization_Penalty_Charging>
0.000213653

> <r_epik_Ionization_Penalty_Neutral>
8.3999e-05

> <r_epik_State_Penalty>
-0

> <r_epik_Charging_Adjusted_Penalty>
0.000213653

> <i_epik_Tot_Q>
1

> <i_epik_Tot_abs_Q>
1

> <r_epik_Metal_State_Penalty>
-0

> <b_epik_Metal_Only>
0

> <s_lp_Force_Field>
OPLS_2005

> <r_lp_Energy>
33.4544

> <b_lp_Chiralities_Consistent>
1

> <s_lp_Variant>
AV-unprocessed.smi:1600-2

> <Gold.Version>
5.8.1

> <Gold.Id.Protein>
6NUR|6NUR_protein|mol2

> <Gold.PLP.Fitness>
41.5255

> <Gold.PLP.PLP>
-37.3012

> <Gold.PLP.part.hbond>
-2.0000

> <Gold.PLP.part.metal>
0.0000

> <Gold.PLP.part.buried>
-0.0717

> <Gold.PLP.part.nonpolar>
-36.8438

> <Gold.PLP.part.repulsive>
2.0289

> <Gold.PLP.ligand.clash>
0.0000

> <Gold.PLP.ligand.torsion>
0.7993

> <Gold.PLP.Chemscore.Hbond>
1.9280

> <Gold.PLP.Chemscore.CHOScore>
0.0000

> <Gold.PLP.Chemscore.Metal>
0.0000

> <Gold.Chemscore.Hbonds>
donor molecule, donor type, donor heavy atom, donor atom, acceptor molecule, acceptor atom, score
      L1  H     5    25       P1  7948  1.00
      L1  H     8    26       P1  7948  0.93

> <Gold.PLP.Chemscore.Internal.Correction>
0.0389

> <Gold.Rescore>
     Score         DG    S(hbond)    S(metal)    S(lipo)     H(rot)  DE(clash)    DE(int)     intcor
     17.54     -18.14       1.92        0.00      84.94       1.44       0.09       0.50       ----

> <Gold.Chemscore.Fitness>
17.5446

> <Gold.Chemscore.DG>
-18.1356

> <Gold.Chemscore.ZeroCoef>
-5.4800

> <Gold.Chemscore.Hbond>
1.9151

> <Gold.Chemscore.Metal>
0.0000

> <Gold.Chemscore.Lipo>
84.9370

> <Gold.Chemscore.Internal_Hbond>
0.0000

> <Gold.Chemscore.DEClash>
0.0873

> <Gold.Chemscore.DEInternal>
0.5038

> <Gold.Chemscore.Rot>
1.4369

> <Gold.Chemscore.Internal.Correction>
   9.000000E+99

> <Gold.Chemscore.Hbonds>
donor molecule, donor type, donor heavy atom, donor atom, acceptor molecule, acceptor atom, score
      L1  H     5    25       P1  7948  0.97
      L1  H     8    26       P1  7948  0.90

> <Gold.Chemscore.Hbond.Weighted>
-6.3965

> <Gold.Chemscore.Metal.Weighted>
-0.0000

> <Gold.Chemscore.Lipo.Weighted>
-9.9376

> <Gold.Chemscore.Internal_Hbond.Weighted>
0.0000

> <Gold.Chemscore.DEClash.Weighted>
0.0873

> <Gold.Chemscore.DEInternal.Weighted>
0.5038

> <Gold.Chemscore.Rot.Weighted>
3.6785

> <Gold.Chemscore.Internal.Correction.Weighted>
   9.000000E+99

> <Gold.Protein.RotatedTorsions>
[ 6907 6896 6895 6894 ] final  -96.29 input  -60.11 | X-H torsion
[ 7974 7965 7964 7962 ] final  -26.65 input  175.53 | X-H torsion
[ 8008 7997 7996 7995 ] final   -6.14 input   59.86 | X-H torsion
[ 10167 10162 10161 10158 ] final   75.89 input  -65.29 | X-H torsion
[ 10718 10713 10712 10709 ] final  -94.89 input   66.30 | X-H torsion
[ 10763 10752 10751 10750 ] final  -24.86 input  -60.55 | X-H torsion
[ 11005 11000 10999 10996 ] final   -4.89 input  -57.11 | X-H torsion

> <Gold.Protein.ActiveResidues>
 VAL166  LYS551  ARG553  GLY616  TRP617  ASP618  TYR619  PRO620  LYS621  CYS622 
 ASP623  PHE694  ASN695  SER759  ASP760  ASP761  ALA762  ILE779  LEU786  VAL792 
 PHE793  MET794  SER795  GLU796  ALA797  LYS798  CYS799  TRP800  GLU811  SER814 

> <Gold.Protein.RotatedAtoms>
  150.6985  134.1526  159.4145 H   0  0  0  0  0  0  0  0  0  0  0  0  # atno 6907 bound_to 6896
  151.9508  135.0167  160.0551 H   0  0  0  0  0  0  0  0  0  0  0  0  # atno 6908 bound_to 6896
  152.2012  133.4807  159.5096 H   0  0  0  0  0  0  0  0  0  0  0  0  # atno 6909 bound_to 6896
  146.1411  140.5048  142.8652 H   0  0  0  0  0  0  0  0  0  0  0  0  # atno 7974 bound_to 7965
  154.5967  140.2440  155.7847 H   0  0  0  0  0  0  0  0  0  0  0  0  # atno 8008 bound_to 7997
  156.2284  140.2975  156.0078 H   0  0  0  0  0  0  0  0  0  0  0  0  # atno 8009 bound_to 7997
  155.2280  140.0402  157.2948 H   0  0  0  0  0  0  0  0  0  0  0  0  # atno 8010 bound_to 7997
  139.9981  144.5707  150.7760 H   0  0  0  0  0  0  0  0  0  0  0  0  # atno 10167 bound_to 10162
  156.0034  130.5086  150.5995 H   0  0  0  0  0  0  0  0  0  0  0  0  # atno 10718 bound_to 10713
  153.6905  135.6962  153.5091 H   0  0  0  0  0  0  0  0  0  0  0  0  # atno 10763 bound_to 10752
  153.2416  135.4304  155.0703 H   0  0  0  0  0  0  0  0  0  0  0  0  # atno 10764 bound_to 10752
  154.8374  135.3509  154.6447 H   0  0  0  0  0  0  0  0  0  0  0  0  # atno 10765 bound_to 10752
  140.6852  133.9119  155.8581 H   0  0  0  0  0  0  0  0  0  0  0  0  # atno 11005 bound_to 11000
  144.7793  140.5807  143.6616 LP  0  0  0  0  0  0  0  0  0  0  0  0  # atno 17320 bound_to 7965
  145.5045  139.1482  143.3639 LP  0  0  0  0  0  0  0  0  0  0  0  0  # atno 17321 bound_to 7965
  140.7429  143.2839  151.3520 LP  0  0  0  0  0  0  0  0  0  0  0  0  # atno 17342 bound_to 10162
  139.6291  144.0755  152.2461 LP  0  0  0  0  0  0  0  0  0  0  0  0  # atno 17343 bound_to 10162
  157.3846  131.0786  151.1447 LP  0  0  0  0  0  0  0  0  0  0  0  0  # atno 17370 bound_to 10713
  157.2158  130.6459  149.5792 LP  0  0  0  0  0  0  0  0  0  0  0  0  # atno 17371 bound_to 10713
  141.0286  134.0788  157.4040 LP  0  0  0  0  0  0  0  0  0  0  0  0  # atno 17394 bound_to 11000
  139.8940  135.0133  156.6927 LP  0  0  0  0  0  0  0  0  0  0  0  0  # atno 17395 bound_to 11000

$$$$
