AV-unprocessed.smi:3290|AV-procd|sdf|12618|dock4
  -GOLD-   2272018553D 1   1.00000     0.00000
 Structure written by MMmdl.
 43 44  0  0  0  0  0  0  0  0  2 V2000
  147.1509  142.1050  154.2739 C   0  0  0  0  0  0  0  0  0  0  0  0
  148.3702  141.1689  154.1893 C   0  0  1  0  0  0  0  0  0  0  0  0
  149.3088  141.4381  155.3848 C   0  0  0  0  0  0  0  0  0  0  0  0
  150.5748  140.5731  155.3305 C   0  0  0  0  0  0  0  0  0  0  0  0
  150.2141  139.0853  155.2588 C   0  0  0  0  0  0  0  0  0  0  0  0
  149.2896  138.8046  154.0660 C   0  0  0  0  0  0  0  0  0  0  0  0
  148.0014  139.6572  154.1093 C   0  0  2  0  0  0  0  0  0  0  0  0
  147.1094  139.2990  152.8986 C   0  0  0  0  0  0  0  0  0  0  0  0
  147.0134  137.8404  152.6898 N   0  3  0  0  0  0  0  0  0  0  0  0
  145.9703  137.4342  151.7271 C   0  0  0  0  0  0  0  0  0  0  0  0
  145.0400  136.3636  152.3240 C   0  0  1  0  0  0  0  0  0  0  0  0
  143.7343  136.8993  152.4226 O   0  0  0  0  0  0  0  0  0  0  0  0
  145.0646  135.0895  151.4943 C   0  0  0  0  0  0  0  0  0  0  0  0
  146.2626  134.3622  151.3341 C   0  0  0  0  0  0  0  0  0  0  0  0
  146.2399  133.1895  150.5527 C   0  0  0  0  0  0  0  0  0  0  0  0
  145.1277  132.7252  149.9446 N   0  0  0  0  0  0  0  0  0  0  0  0
  143.9842  133.4257  150.0989 C   0  0  0  0  0  0  0  0  0  0  0  0
  143.8990  134.6094  150.8585 C   0  0  0  0  0  0  0  0  0  0  0  0
  146.4990  141.8355  155.1053 H   0  0  0  0  0  0  0  0  0  0  0  0
  146.5622  142.0866  153.3574 H   0  0  0  0  0  0  0  0  0  0  0  0
  147.4623  143.1397  154.4214 H   0  0  0  0  0  0  0  0  0  0  0  0
  148.9152  141.4319  153.2813 H   0  0  0  0  0  0  0  0  0  0  0  0
  149.5964  142.4900  155.4056 H   0  0  0  0  0  0  0  0  0  0  0  0
  148.7793  141.2469  156.3194 H   0  0  0  0  0  0  0  0  0  0  0  0
  151.1724  140.8496  154.4609 H   0  0  0  0  0  0  0  0  0  0  0  0
  151.1949  140.7643  156.2068 H   0  0  0  0  0  0  0  0  0  0  0  0
  151.1215  138.4864  155.1763 H   0  0  0  0  0  0  0  0  0  0  0  0
  149.7243  138.7801  156.1845 H   0  0  0  0  0  0  0  0  0  0  0  0
  149.8285  138.9975  153.1370 H   0  0  0  0  0  0  0  0  0  0  0  0
  149.0362  137.7438  154.0580 H   0  0  0  0  0  0  0  0  0  0  0  0
  147.4675  139.3819  155.0207 H   0  0  0  0  0  0  0  0  0  0  0  0
  146.1146  139.7299  153.0206 H   0  0  0  0  0  0  0  0  0  0  0  0
  147.5253  139.7261  151.9851 H   0  0  0  0  0  0  0  0  0  0  0  0
  147.9072  137.4970  152.3683 H   0  0  0  0  0  0  0  0  0  0  0  0
  145.3941  138.3094  151.4223 H   0  0  0  0  0  0  0  0  0  0  0  0
  146.4572  137.0442  150.8321 H   0  0  0  0  0  0  0  0  0  0  0  0
  145.3698  136.1229  153.3357 H   0  0  0  0  0  0  0  0  0  0  0  0
  143.4805  137.2280  151.5729 H   0  0  0  0  0  0  0  0  0  0  0  0
  147.1817  134.6900  151.7973 H   0  0  0  0  0  0  0  0  0  0  0  0
  147.1401  132.6097  150.4119 H   0  0  0  0  0  0  0  0  0  0  0  0
  143.1103  133.0323  149.6008 H   0  0  0  0  0  0  0  0  0  0  0  0
  142.9582  135.1328  150.9473 H   0  0  0  0  0  0  0  0  0  0  0  0
  146.8022  137.4065  153.5777 H   0  0  0  0  0  0  0  0  0  0  0  0
  1  2  1  0  0  0  0
  1 19  1  0  0  0  0
  1 20  1  0  0  0  0
  1 21  1  0  0  0  0
  2  7  1  0  0  0  0
  2  3  1  0  0  0  0
  2 22  1  0  0  0  0
  3  4  1  0  0  0  0
  3 23  1  0  0  0  0
  3 24  1  0  0  0  0
  4  5  1  0  0  0  0
  4 25  1  0  0  0  0
  4 26  1  0  0  0  0
  5  6  1  0  0  0  0
  5 27  1  0  0  0  0
  5 28  1  0  0  0  0
  6  7  1  0  0  0  0
  6 29  1  0  0  0  0
  6 30  1  0  0  0  0
  7  8  1  0  0  0  0
  7 31  1  0  0  0  0
  8  9  1  0  0  0  0
  8 32  1  0  0  0  0
  8 33  1  0  0  0  0
  9 10  1  0  0  0  0
  9 34  1  0  0  0  0
  9 43  1  0  0  0  0
 10 11  1  0  0  0  0
 10 35  1  0  0  0  0
 10 36  1  0  0  0  0
 11 12  1  0  0  0  0
 11 13  1  0  0  0  0
 11 37  1  0  0  0  0
 12 38  1  0  0  0  0
 13 18  1  0  0  0  0
 13 14  2  0  0  0  0
 14 15  1  0  0  0  0
 14 39  1  0  0  0  0
 15 16  2  0  0  0  0
 15 40  1  0  0  0  0
 16 17  1  0  0  0  0
 17 18  2  0  0  0  0
 17 41  1  0  0  0  0
 18 42  1  0  0  0  0
M  CHG  1   9   1
M  END
> <s_m_source_file>
AV-unprocessed.smi

> <i_m_source_file_index>
3290

> <i_lp_mmshare_version>
43012

> <i_f3d_flags>
0

> <s_epik_input>
W0NIM11bQ0BASF0xW0NIMl1bQ0gyXVtDSDJdW0NIMl1bQ0BIXTFbQ0gyXVtOSF1bQ0gyXVtDQEhdKFtPSF0pYzJbY0hdW2NIXW5bY0hdW2NIXTI=

> <s_epik_cmdline>
J2VwaWtfcHl0aG9uJywgJy1waCcsICc3LjAnLCAnLXRuJywgJzgnLCAnLW1hJywgJzIwMCcsICctbWV0YWxfYmluZGluZycsICctaW1hZScsICc8aW5maWxlLm1hZT4nLCAnLW9tYWUnLCAnPG91dGZpbGUubWFlPic=

> <r_lp_tautomer_probability>
1

> <r_epik_Ionization_Penalty>
0.00420552

> <r_epik_Ionization_Penalty_Charging>
0.00207255

> <r_epik_Ionization_Penalty_Neutral>
0.00213297

> <r_epik_State_Penalty>
-0

> <r_epik_Charging_Adjusted_Penalty>
0.00207255

> <i_epik_Tot_Q>
1

> <i_epik_Tot_abs_Q>
1

> <r_epik_Metal_State_Penalty>
-0

> <b_epik_Metal_Only>
0

> <s_lp_Force_Field>
OPLS_2005

> <r_lp_Energy>
17.3555

> <b_lp_Chiralities_Consistent>
1

> <s_lp_Variant>
AV-unprocessed.smi:3290-8

> <Gold.Version>
5.8.1

> <Gold.Id.Protein>
6NUR|6NUR_protein|mol2

> <Gold.PLP.Fitness>
46.4815

> <Gold.PLP.PLP>
-34.6504

> <Gold.PLP.part.hbond>
-2.0000

> <Gold.PLP.part.metal>
0.0000

> <Gold.PLP.part.buried>
1.7882

> <Gold.PLP.part.nonpolar>
-35.3323

> <Gold.PLP.part.repulsive>
0.2175

> <Gold.PLP.ligand.clash>
0.0000

> <Gold.PLP.ligand.torsion>
1.2448

> <Gold.PLP.Chemscore.Hbond>
3.0000

> <Gold.PLP.Chemscore.CHOScore>
1.7480

> <Gold.PLP.Chemscore.Metal>
0.0000

> <Gold.Chemscore.Hbonds>
donor molecule, donor type, donor heavy atom, donor atom, acceptor molecule, acceptor atom, score
      L1  H     9    34       P1  7948  2.00
      L1  H    12    38       P1 10171  0.47
      L1  C    15    40       P1 10747  0.99
      L1  C    17    41       P1 10186  0.78

> <Gold.PLP.Chemscore.Internal.Correction>
0.0766

> <Gold.Rescore>
     Score         DG    S(hbond)    S(metal)    S(lipo)     H(rot)  DE(clash)    DE(int)     intcor
     15.73     -18.20       1.94        0.00      98.17       2.05       1.25       1.23       ----

> <Gold.Chemscore.Fitness>
15.7325

> <Gold.Chemscore.DG>
-18.2039

> <Gold.Chemscore.ZeroCoef>
-5.4800

> <Gold.Chemscore.Hbond>
1.9419

> <Gold.Chemscore.Metal>
0.0000

> <Gold.Chemscore.Lipo>
98.1652

> <Gold.Chemscore.Internal_Hbond>
0.0000

> <Gold.Chemscore.DEClash>
1.2452

> <Gold.Chemscore.DEInternal>
1.2262

> <Gold.Chemscore.Rot>
2.0498

> <Gold.Chemscore.Internal.Correction>
   9.000000E+99

> <Gold.Chemscore.Hbonds>
donor molecule, donor type, donor heavy atom, donor atom, acceptor molecule, acceptor atom, score
      L1  H     9    34       P1  7948  0.97
      L1  H    12    38       P1 10171  0.43

> <Gold.Chemscore.Hbond.Weighted>
-6.4861

> <Gold.Chemscore.Metal.Weighted>
-0.0000

> <Gold.Chemscore.Lipo.Weighted>
-11.4853

> <Gold.Chemscore.Internal_Hbond.Weighted>
0.0000

> <Gold.Chemscore.DEClash.Weighted>
1.2452

> <Gold.Chemscore.DEInternal.Weighted>
1.2262

> <Gold.Chemscore.Rot.Weighted>
5.2475

> <Gold.Chemscore.Internal.Correction.Weighted>
   9.000000E+99

> <Gold.Protein.RotatedTorsions>
[ 6907 6896 6895 6894 ] final -178.06 input  -60.11 | X-H torsion
[ 7974 7965 7964 7962 ] final  -47.80 input  175.53 | X-H torsion
[ 8008 7997 7996 7995 ] final  -92.63 input   59.86 | X-H torsion
[ 10167 10162 10161 10158 ] final  -83.47 input  -65.29 | X-H torsion
[ 10718 10713 10712 10709 ] final   62.74 input   66.30 | X-H torsion
[ 10763 10752 10751 10750 ] final -172.91 input  -60.55 | X-H torsion
[ 11005 11000 10999 10996 ] final  173.73 input  -57.11 | X-H torsion

> <Gold.Protein.ActiveResidues>
 VAL166  LYS551  ARG553  GLY616  TRP617  ASP618  TYR619  PRO620  LYS621  CYS622 
 ASP623  PHE694  ASN695  SER759  ASP760  ASP761  ALA762  ILE779  LEU786  VAL792 
 PHE793  MET794  SER795  GLU796  ALA797  LYS798  CYS799  TRP800  GLU811  SER814 

> <Gold.Protein.RotatedAtoms>
  151.6311  133.3332  159.3108 H   0  0  0  0  0  0  0  0  0  0  0  0  # atno 6907 bound_to 6896
  150.8056  134.7182  159.6652 H   0  0  0  0  0  0  0  0  0  0  0  0  # atno 6908 bound_to 6896
  152.4151  134.6060  160.0064 H   0  0  0  0  0  0  0  0  0  0  0  0  # atno 6909 bound_to 6896
  145.9578  140.7509  142.9472 H   0  0  0  0  0  0  0  0  0  0  0  0  # atno 7974 bound_to 7965
  154.7256  140.0507  157.0679 H   0  0  0  0  0  0  0  0  0  0  0  0  # atno 8008 bound_to 7997
  155.0370  140.3164  155.4719 H   0  0  0  0  0  0  0  0  0  0  0  0  # atno 8009 bound_to 7997
  156.2828  140.2140  156.5492 H   0  0  0  0  0  0  0  0  0  0  0  0  # atno 8010 bound_to 7997
  140.4223  143.2580  151.8873 H   0  0  0  0  0  0  0  0  0  0  0  0  # atno 10167 bound_to 10162
  157.5922  130.9067  149.9627 H   0  0  0  0  0  0  0  0  0  0  0  0  # atno 10718 bound_to 10713
  154.6139  135.2867  155.0401 H   0  0  0  0  0  0  0  0  0  0  0  0  # atno 10763 bound_to 10752
  154.1621  135.6486  153.4992 H   0  0  0  0  0  0  0  0  0  0  0  0  # atno 10764 bound_to 10752
  153.0207  135.5380  154.6903 H   0  0  0  0  0  0  0  0  0  0  0  0  # atno 10765 bound_to 10752
  140.3436  134.7255  157.4219 H   0  0  0  0  0  0  0  0  0  0  0  0  # atno 11005 bound_to 11000
  144.6809  140.2541  143.7327 LP  0  0  0  0  0  0  0  0  0  0  0  0  # atno 17320 bound_to 7965
  145.8081  139.1992  143.2009 LP  0  0  0  0  0  0  0  0  0  0  0  0  # atno 17321 bound_to 7965
  139.4783  144.5424  151.8509 LP  0  0  0  0  0  0  0  0  0  0  0  0  # atno 17342 bound_to 10162
  140.4519  144.1842  150.5898 LP  0  0  0  0  0  0  0  0  0  0  0  0  # atno 17343 bound_to 10162
  156.0979  130.3658  150.0273 LP  0  0  0  0  0  0  0  0  0  0  0  0  # atno 17370 bound_to 10713
  156.8393  130.9420  151.3633 LP  0  0  0  0  0  0  0  0  0  0  0  0  # atno 17371 bound_to 10713
  140.0760  134.5796  155.8590 LP  0  0  0  0  0  0  0  0  0  0  0  0  # atno 17394 bound_to 11000
  141.2032  133.6630  156.6047 LP  0  0  0  0  0  0  0  0  0  0  0  0  # atno 17395 bound_to 11000

$$$$
