AV-unprocessed.smi:898|AV-procd|sdf|4086|dock4
  -GOLD-   22720 1573D 1   1.00000     0.00000
 Structure written by MMmdl.
 33 35  0  0  0  0  0  0  0  0  2 V2000
  152.0695  140.1551  159.2336 O   0  0  0  0  0  0  0  0  0  0  0  0
  153.2900  140.0645  159.0814 C   0  0  0  0  0  0  0  0  0  0  0  0
  153.9580  139.0015  158.5784 N   0  5  0  0  0  0  0  0  0  0  0  0
  154.0174  137.8546  159.2751 C   0  0  0  0  0  0  0  0  0  0  0  0
  153.9835  136.6519  158.6843 N   0  0  0  0  0  0  0  0  0  0  0  0
  154.0523  135.6003  159.5865 N   0  0  0  0  0  0  0  0  0  0  0  0
  154.1308  136.0246  160.8500 C   0  0  0  0  0  0  0  0  0  0  0  0
  154.2179  135.0839  162.0050 C   0  0  0  0  0  0  0  0  0  0  0  0
  154.1118  135.5702  163.4342 C   0  0  0  0  0  0  0  0  0  0  0  0
  155.4332  135.0758  162.9035 C   0  0  0  0  0  0  0  0  0  0  0  0
  154.1180  137.7714  161.0334 S   0  0  0  0  0  0  0  0  0  0  0  0
  154.0859  141.0886  159.4215 N   0  0  0  0  0  0  0  0  0  0  0  0
  153.6551  142.3715  159.9713 C   0  0  1  0  0  0  0  0  0  0  0  0
  152.8195  143.1173  158.9131 C   0  0  0  0  0  0  0  0  0  0  0  0
  152.3722  144.5111  159.3827 C   0  0  0  0  0  0  0  0  0  0  0  0
  151.4896  144.4490  160.6370 C   0  0  0  0  0  0  0  0  0  0  0  0
  152.3900  143.7322  162.0376 S   0  0  0  0  0  0  0  0  0  0  0  0
  152.8625  142.1548  161.2755 C   0  0  0  0  0  0  0  0  0  0  0  0
  153.7590  134.1286  161.7580 H   0  0  0  0  0  0  0  0  0  0  0  0
  154.0159  136.6400  163.6093 H   0  0  0  0  0  0  0  0  0  0  0  0
  153.5853  134.9339  164.1424 H   0  0  0  0  0  0  0  0  0  0  0  0
  155.7889  134.1103  163.2571 H   0  0  0  0  0  0  0  0  0  0  0  0
  156.2067  135.8175  162.7130 H   0  0  0  0  0  0  0  0  0  0  0  0
  155.0776  140.9662  159.2791 H   0  0  0  0  0  0  0  0  0  0  0  0
  154.5405  142.9716  160.1900 H   0  0  0  0  0  0  0  0  0  0  0  0
  153.4049  143.2247  157.9990 H   0  0  0  0  0  0  0  0  0  0  0  0
  151.9435  142.5244  158.6456 H   0  0  0  0  0  0  0  0  0  0  0  0
  153.2459  145.1346  159.5764 H   0  0  0  0  0  0  0  0  0  0  0  0
  151.8201  145.0001  158.5796 H   0  0  0  0  0  0  0  0  0  0  0  0
  151.1539  145.4489  160.9127 H   0  0  0  0  0  0  0  0  0  0  0  0
  150.5968  143.8529  160.4452 H   0  0  0  0  0  0  0  0  0  0  0  0
  151.9617  141.5712  161.0829 H   0  0  0  0  0  0  0  0  0  0  0  0
  153.4557  141.5949  161.9991 H   0  0  0  0  0  0  0  0  0  0  0  0
  1  2  2  0  0  0  0
  2  3  1  0  0  0  0
  2 12  1  0  0  0  0
  3  4  1  0  0  0  0
  4 11  1  0  0  0  0
  4  5  2  0  0  0  0
  5  6  1  0  0  0  0
  6  7  2  0  0  0  0
  7  8  1  0  0  0  0
  7 11  1  0  0  0  0
  8 10  1  0  0  0  0
  8  9  1  0  0  0  0
  8 19  1  0  0  0  0
  9 10  1  0  0  0  0
  9 20  1  0  0  0  0
  9 21  1  0  0  0  0
 10 22  1  0  0  0  0
 10 23  1  0  0  0  0
 12 13  1  0  0  0  0
 12 24  1  0  0  0  0
 13 18  1  0  0  0  0
 13 14  1  0  0  0  0
 13 25  1  0  0  0  0
 14 15  1  0  0  0  0
 14 26  1  0  0  0  0
 14 27  1  0  0  0  0
 15 16  1  0  0  0  0
 15 28  1  0  0  0  0
 15 29  1  0  0  0  0
 16 17  1  0  0  0  0
 16 30  1  0  0  0  0
 16 31  1  0  0  0  0
 17 18  1  0  0  0  0
 18 32  1  0  0  0  0
 18 33  1  0  0  0  0
M  CHG  1   3  -1
M  END
> <s_m_source_file>
AV-unprocessed.smi

> <i_m_source_file_index>
898

> <i_lp_mmshare_version>
43012

> <i_f3d_flags>
0

> <s_epik_input>
W0NIMl0xU1tDSDJdW0NIMl1bQ0gyXVtDQEhdMVtOSF1DKD1PKVtOSF1jMm5uYyhzMilbQ0hdM1tDSDJdW0NIMl0z

> <s_epik_cmdline>
J2VwaWtfcHl0aG9uJywgJy1waCcsICc3LjAnLCAnLXRuJywgJzgnLCAnLW1hJywgJzIwMCcsICctbWV0YWxfYmluZGluZycsICctaW1hZScsICc8aW5maWxlLm1hZT4nLCAnLW9tYWUnLCAnPG91dGZpbGUubWFlPic=

> <r_lp_tautomer_probability>
1

> <r_epik_Ionization_Penalty>
4.71411

> <r_epik_Ionization_Penalty_Charging>
4.5615

> <r_epik_Ionization_Penalty_Neutral>
0.152604

> <r_epik_State_Penalty>
4.56123

> <r_epik_Charging_Adjusted_Penalty>
9.12273

> <i_epik_Tot_Q>
-1

> <i_epik_Tot_abs_Q>
1

> <r_epik_Metal_State_Penalty>
0.850765

> <b_epik_Metal_Only>
1

> <s_lp_Force_Field>
OPLS_2005

> <r_lp_Energy>
0.516701

> <b_lp_Chiralities_Consistent>
1

> <s_lp_Variant>
AV-unprocessed.smi:898-4

> <Gold.Version>
5.8.1

> <Gold.Id.Protein>
6NUR|6NUR_protein|mol2

> <Gold.PLP.Fitness>
41.3568

> <Gold.PLP.PLP>
-34.8776

> <Gold.PLP.part.hbond>
-1.9964

> <Gold.PLP.part.metal>
0.0000

> <Gold.PLP.part.buried>
-3.0588

> <Gold.PLP.part.nonpolar>
-30.0205

> <Gold.PLP.part.repulsive>
0.0943

> <Gold.PLP.ligand.clash>
0.0000

> <Gold.PLP.ligand.torsion>
1.0021

> <Gold.PLP.Chemscore.Hbond>
2.7750

> <Gold.PLP.Chemscore.CHOScore>
0.0000

> <Gold.PLP.Chemscore.Metal>
0.0000

> <Gold.Chemscore.Hbonds>
donor molecule, donor type, donor heavy atom, donor atom, acceptor molecule, acceptor atom, score
      P1  H  6896  6908       L1     6  0.65
      P1  H  7997  8010       L1     3  1.70

> <Gold.PLP.Chemscore.Internal.Correction>
0.1585

> <Gold.Rescore>
     Score         DG    S(hbond)    S(metal)    S(lipo)     H(rot)  DE(clash)    DE(int)     intcor
     16.58     -19.10       1.24        0.00     107.05       1.19       0.07       2.46       ----

> <Gold.Chemscore.Fitness>
16.5791

> <Gold.Chemscore.DG>
-19.1021

> <Gold.Chemscore.ZeroCoef>
-5.4800

> <Gold.Chemscore.Hbond>
1.2413

> <Gold.Chemscore.Metal>
0.0000

> <Gold.Chemscore.Lipo>
107.0547

> <Gold.Chemscore.Internal_Hbond>
0.0000

> <Gold.Chemscore.DEClash>
0.0655

> <Gold.Chemscore.DEInternal>
2.4575

> <Gold.Chemscore.Rot>
1.1911

> <Gold.Chemscore.Internal.Correction>
   9.000000E+99

> <Gold.Chemscore.Hbonds>
donor molecule, donor type, donor heavy atom, donor atom, acceptor molecule, acceptor atom, score
      P1  H  6896  6908       L1     6  0.06
      P1  H  7997  8010       L1     3  0.14

> <Gold.Chemscore.Hbond.Weighted>
-4.1459

> <Gold.Chemscore.Metal.Weighted>
-0.0000

> <Gold.Chemscore.Lipo.Weighted>
-12.5254

> <Gold.Chemscore.Internal_Hbond.Weighted>
0.0000

> <Gold.Chemscore.DEClash.Weighted>
0.0655

> <Gold.Chemscore.DEInternal.Weighted>
2.4575

> <Gold.Chemscore.Rot.Weighted>
3.0492

> <Gold.Chemscore.Internal.Correction.Weighted>
   9.000000E+99

> <Gold.Protein.RotatedTorsions>
[ 6907 6896 6895 6894 ] final  -47.10 input  -60.11 | X-H torsion
[ 7974 7965 7964 7962 ] final  103.09 input  175.53 | X-H torsion
[ 8008 7997 7996 7995 ] final   -2.05 input   59.86 | X-H torsion
[ 10167 10162 10161 10158 ] final  153.74 input  -65.29 | X-H torsion
[ 10718 10713 10712 10709 ] final -123.17 input   66.30 | X-H torsion
[ 10763 10752 10751 10750 ] final   53.65 input  -60.55 | X-H torsion
[ 11005 11000 10999 10996 ] final   67.39 input  -57.11 | X-H torsion

> <Gold.Protein.ActiveResidues>
 VAL166  LYS551  ARG553  GLY616  TRP617  ASP618  TYR619  PRO620  LYS621  CYS622 
 ASP623  PHE694  ASN695  SER759  ASP760  ASP761  ALA762  ILE779  LEU786  VAL792 
 PHE793  MET794  SER795  GLU796  ALA797  LYS798  CYS799  TRP800  GLU811  SER814 

> <Gold.Protein.RotatedAtoms>
  150.9043  134.8457  159.7381 H   0  0  0  0  0  0  0  0  0  0  0  0  # atno 6907 bound_to 6896
  152.4910  134.4455  159.9567 H   0  0  0  0  0  0  0  0  0  0  0  0  # atno 6908 bound_to 6896
  151.4503  133.3580  159.2829 H   0  0  0  0  0  0  0  0  0  0  0  0  # atno 6909 bound_to 6896
  145.3505  139.2440  143.3561 H   0  0  0  0  0  0  0  0  0  0  0  0  # atno 7974 bound_to 7965
  154.6400  140.2544  155.7333 H   0  0  0  0  0  0  0  0  0  0  0  0  # atno 8008 bound_to 7997
  156.2524  140.2889  156.0710 H   0  0  0  0  0  0  0  0  0  0  0  0  # atno 8009 bound_to 7997
  155.1611  140.0384  157.2833 H   0  0  0  0  0  0  0  0  0  0  0  0  # atno 8010 bound_to 7997
  139.4826  144.5247  151.7820 H   0  0  0  0  0  0  0  0  0  0  0  0  # atno 10167 bound_to 10162
  156.1479  130.6513  150.9870 H   0  0  0  0  0  0  0  0  0  0  0  0  # atno 10718 bound_to 10713
  152.9797  135.5771  154.4777 H   0  0  0  0  0  0  0  0  0  0  0  0  # atno 10763 bound_to 10752
  154.4330  135.2774  155.1901 H   0  0  0  0  0  0  0  0  0  0  0  0  # atno 10764 bound_to 10752
  154.3602  135.6190  153.5740 H   0  0  0  0  0  0  0  0  0  0  0  0  # atno 10765 bound_to 10752
  139.9774  134.6800  156.0328 H   0  0  0  0  0  0  0  0  0  0  0  0  # atno 11005 bound_to 11000
  146.2970  140.4120  142.8718 LP  0  0  0  0  0  0  0  0  0  0  0  0  # atno 17320 bound_to 7965
  144.8721  140.7287  143.6040 LP  0  0  0  0  0  0  0  0  0  0  0  0  # atno 17321 bound_to 7965
  140.4765  144.1511  150.5925 LP  0  0  0  0  0  0  0  0  0  0  0  0  # atno 17342 bound_to 10162
  140.4325  143.2562  151.9577 LP  0  0  0  0  0  0  0  0  0  0  0  0  # atno 17343 bound_to 10162
  157.6632  131.0877  150.7789 LP  0  0  0  0  0  0  0  0  0  0  0  0  # atno 17370 bound_to 10713
  156.7859  130.4874  149.5393 LP  0  0  0  0  0  0  0  0  0  0  0  0  # atno 17371 bound_to 10713
  141.1449  133.6557  156.3839 LP  0  0  0  0  0  0  0  0  0  0  0  0  # atno 17394 bound_to 11000
  140.5167  134.6343  157.5304 LP  0  0  0  0  0  0  0  0  0  0  0  0  # atno 17395 bound_to 11000

$$$$
