AV-unprocessed.smi:1952|AV-procd|sdf|7886|dock3
  -GOLD-   2272010 33D 1   1.00000     0.00000
 Structure written by MMmdl.
 40 41  0  0  0  0  0  0  0  0  2 V2000
  138.6460  136.7799  154.4176 C   0  0  0  0  0  0  0  0  0  0  0  0
  140.1177  136.8923  154.2113 C   0  0  0  0  0  0  0  0  0  0  0  0
  140.9279  137.9235  153.8262 C   0  0  0  0  0  0  0  0  0  0  0  0
  142.2200  137.3340  153.8314 C   0  0  0  0  0  0  0  0  0  0  0  0
  143.3685  138.0900  153.4831 N   0  0  0  0  0  0  0  0  0  0  0  0
  144.6556  137.7500  153.6653 C   0  0  0  0  0  0  0  0  0  0  0  0
  145.0467  136.6908  154.1564 O   0  0  0  0  0  0  0  0  0  0  0  0
  145.4823  138.7219  153.2497 N   0  0  0  0  0  0  0  0  0  0  0  0
  146.9453  138.6706  153.2600 C   0  0  1  0  0  0  0  0  0  0  0  0
  147.4921  140.0885  153.0441 C   0  0  0  0  0  0  0  0  0  0  0  0
  147.4854  138.0586  154.5740 C   0  0  0  0  0  0  0  0  0  0  0  0
  148.8076  137.4015  154.4151 N   0  3  0  0  0  0  0  0  0  0  0  0
  149.9532  138.3291  154.5798 C   0  0  0  0  0  0  0  0  0  0  0  0
  151.2757  137.5894  154.3198 C   0  0  0  0  0  0  0  0  0  0  0  0
  151.3812  136.4814  155.2059 O   0  0  0  0  0  0  0  0  0  0  0  0
  150.3319  135.5412  155.0106 C   0  0  0  0  0  0  0  0  0  0  0  0
  148.9755  136.2139  155.2848 C   0  0  0  0  0  0  0  0  0  0  0  0
  142.2015  136.0602  154.1929 N   0  0  0  0  0  0  0  0  0  0  0  0
  140.8539  135.7702  154.4366 O   0  0  0  0  0  0  0  0  0  0  0  0
  138.1780  137.7644  154.4332 H   0  0  0  0  0  0  0  0  0  0  0  0
  138.4232  136.2859  155.3635 H   0  0  0  0  0  0  0  0  0  0  0  0
  138.1877  136.2000  153.6163 H   0  0  0  0  0  0  0  0  0  0  0  0
  140.6381  138.9339  153.5787 H   0  0  0  0  0  0  0  0  0  0  0  0
  143.1891  138.9846  153.0512 H   0  0  0  0  0  0  0  0  0  0  0  0
  145.0668  139.5568  152.8624 H   0  0  0  0  0  0  0  0  0  0  0  0
  147.2852  138.0709  152.4145 H   0  0  0  0  0  0  0  0  0  0  0  0
  148.5817  140.0869  153.0032 H   0  0  0  0  0  0  0  0  0  0  0  0
  147.1910  140.7592  153.8498 H   0  0  0  0  0  0  0  0  0  0  0  0
  147.1303  140.5113  152.1062 H   0  0  0  0  0  0  0  0  0  0  0  0
  147.5497  138.8175  155.3552 H   0  0  0  0  0  0  0  0  0  0  0  0
  146.7606  137.3233  154.9274 H   0  0  0  0  0  0  0  0  0  0  0  0
  149.8671  139.1684  153.8905 H   0  0  0  0  0  0  0  0  0  0  0  0
  149.9496  138.7434  155.5893 H   0  0  0  0  0  0  0  0  0  0  0  0
  151.3368  137.2517  153.2839 H   0  0  0  0  0  0  0  0  0  0  0  0
  152.1201  138.2583  154.4875 H   0  0  0  0  0  0  0  0  0  0  0  0
  150.3704  135.1420  153.9958 H   0  0  0  0  0  0  0  0  0  0  0  0
  150.4796  134.7010  155.6894 H   0  0  0  0  0  0  0  0  0  0  0  0
  148.9081  136.5136  156.3318 H   0  0  0  0  0  0  0  0  0  0  0  0
  148.1708  135.5012  155.1008 H   0  0  0  0  0  0  0  0  0  0  0  0
  148.8431  137.0612  153.4643 H   0  0  0  0  0  0  0  0  0  0  0  0
  1  2  1  0  0  0  0
  1 20  1  0  0  0  0
  1 21  1  0  0  0  0
  1 22  1  0  0  0  0
  2 19  1  0  0  0  0
  2  3  2  0  0  0  0
  3  4  1  0  0  0  0
  3 23  1  0  0  0  0
  4  5  1  0  0  0  0
  4 18  2  0  0  0  0
  5  6  1  0  0  0  0
  5 24  1  0  0  0  0
  6  7  2  0  0  0  0
  6  8  1  0  0  0  0
  8  9  1  0  0  0  0
  8 25  1  0  0  0  0
  9 10  1  0  0  0  0
  9 11  1  0  0  0  0
  9 26  1  0  0  0  0
 10 27  1  0  0  0  0
 10 28  1  0  0  0  0
 10 29  1  0  0  0  0
 11 12  1  0  0  0  0
 11 30  1  0  0  0  0
 11 31  1  0  0  0  0
 12 17  1  0  0  0  0
 12 13  1  0  0  0  0
 12 40  1  0  0  0  0
 13 14  1  0  0  0  0
 13 32  1  0  0  0  0
 13 33  1  0  0  0  0
 14 15  1  0  0  0  0
 14 34  1  0  0  0  0
 14 35  1  0  0  0  0
 15 16  1  0  0  0  0
 16 17  1  0  0  0  0
 16 36  1  0  0  0  0
 16 37  1  0  0  0  0
 17 38  1  0  0  0  0
 17 39  1  0  0  0  0
 18 19  1  0  0  0  0
M  CHG  1  12   1
M  END
> <s_m_source_file>
AV-unprocessed.smi

> <i_m_source_file_index>
1952

> <i_lp_mmshare_version>
43012

> <i_f3d_flags>
0

> <s_epik_input>
W0NIM11jMVtjSF1jKG5vMSlbTkhdQyg9TylbTkhdW0NASF0oW0NIM10pW0NIMl1OMltDSDJdW0NIMl1PW0NIMl1bQ0gyXTI=

> <s_epik_cmdline>
J2VwaWtfcHl0aG9uJywgJy1waCcsICc3LjAnLCAnLXRuJywgJzgnLCAnLW1hJywgJzIwMCcsICctbWV0YWxfYmluZGluZycsICctaW1hZScsICc8aW5maWxlLm1hZT4nLCAnLW9tYWUnLCAnPG91dGZpbGUubWFlPic=

> <r_epik_Ionization_Penalty>
0.707079

> <r_epik_Ionization_Penalty_Charging>
0.707039

> <r_epik_Ionization_Penalty_Neutral>
4.01892e-05

> <r_epik_State_Penalty>
0.730276

> <r_epik_Charging_Adjusted_Penalty>
1.43732

> <i_epik_Tot_Q>
1

> <i_epik_Tot_abs_Q>
1

> <r_epik_Metal_State_Penalty>
0.744847

> <b_epik_Metal_Only>
0

> <s_lp_Force_Field>
OPLS_2005

> <r_lp_Energy>
19.2195

> <b_lp_Chiralities_Consistent>
1

> <s_lp_Variant>
AV-unprocessed.smi:1952-4

> <Gold.Version>
5.8.1

> <Gold.Id.Protein>
6NUR|6NUR_protein|mol2

> <Gold.PLP.Fitness>
42.2172

> <Gold.PLP.PLP>
-26.3081

> <Gold.PLP.part.hbond>
-5.0000

> <Gold.PLP.part.metal>
0.0000

> <Gold.PLP.part.buried>
-2.8691

> <Gold.PLP.part.nonpolar>
-20.8343

> <Gold.PLP.part.repulsive>
0.3208

> <Gold.PLP.ligand.clash>
0.0000

> <Gold.PLP.ligand.torsion>
0.9286

> <Gold.PLP.Chemscore.Hbond>
5.9040

> <Gold.PLP.Chemscore.CHOScore>
0.0000

> <Gold.PLP.Chemscore.Metal>
0.0000

> <Gold.Chemscore.Hbonds>
donor molecule, donor type, donor heavy atom, donor atom, acceptor molecule, acceptor atom, score
      L1  H     5    24       P1 10175  1.00
      L1  H     8    25       P1 10175  0.99
      L1  H    12    40       P1  7948  2.00
      P1  H 10752 10765       L1    15  1.00
      P1  H 11000 11005       L1    19  0.86

> <Gold.PLP.Chemscore.Internal.Correction>
0.0544

> <Gold.Rescore>
     Score         DG    S(hbond)    S(metal)    S(lipo)     H(rot)  DE(clash)    DE(int)     intcor
     19.03     -22.84       4.43        0.00      57.00       1.61       0.23       3.58       ----

> <Gold.Chemscore.Fitness>
19.0279

> <Gold.Chemscore.DG>
-22.8443

> <Gold.Chemscore.ZeroCoef>
-5.4800

> <Gold.Chemscore.Hbond>
4.4343

> <Gold.Chemscore.Metal>
0.0000

> <Gold.Chemscore.Lipo>
57.0048

> <Gold.Chemscore.Internal_Hbond>
0.0000

> <Gold.Chemscore.DEClash>
0.2316

> <Gold.Chemscore.DEInternal>
3.5848

> <Gold.Chemscore.Rot>
1.6078

> <Gold.Chemscore.Internal.Correction>
   9.000000E+99

> <Gold.Chemscore.Hbonds>
donor molecule, donor type, donor heavy atom, donor atom, acceptor molecule, acceptor atom, score
      L1  H     5    24       P1 10175  0.97
      L1  H     8    25       P1 10175  0.94
      L1  H    12    40       P1  7948  1.00
      P1  H 10752 10765       L1    15  0.40
      P1  H 11000 11005       L1    19  0.80

> <Gold.Chemscore.Hbond.Weighted>
-14.8106

> <Gold.Chemscore.Metal.Weighted>
-0.0000

> <Gold.Chemscore.Lipo.Weighted>
-6.6696

> <Gold.Chemscore.Internal_Hbond.Weighted>
0.0000

> <Gold.Chemscore.DEClash.Weighted>
0.2316

> <Gold.Chemscore.DEInternal.Weighted>
3.5848

> <Gold.Chemscore.Rot.Weighted>
4.1158

> <Gold.Chemscore.Internal.Correction.Weighted>
   9.000000E+99

> <Gold.Protein.RotatedTorsions>
[ 6907 6896 6895 6894 ] final   44.29 input  -60.11 | X-H torsion
[ 7974 7965 7964 7962 ] final  114.54 input  175.53 | X-H torsion
[ 8008 7997 7996 7995 ] final  -91.22 input   59.86 | X-H torsion
[ 10167 10162 10161 10158 ] final -170.53 input  -65.29 | X-H torsion
[ 10718 10713 10712 10709 ] final   56.14 input   66.30 | X-H torsion
[ 10763 10752 10751 10750 ] final -161.70 input  -60.55 | X-H torsion
[ 11005 11000 10999 10996 ] final   39.95 input  -57.11 | X-H torsion

> <Gold.Protein.ActiveResidues>
 VAL166  LYS551  ARG553  GLY616  TRP617  ASP618  TYR619  PRO620  LYS621  CYS622 
 ASP623  PHE694  ASN695  SER759  ASP760  ASP761  ALA762  ILE779  LEU786  VAL792 
 PHE793  MET794  SER795  GLU796  ALA797  LYS798  CYS799  TRP800  GLU811  SER814 

> <Gold.Protein.RotatedAtoms>
  152.2307  134.8324  160.0473 H   0  0  0  0  0  0  0  0  0  0  0  0  # atno 6907 bound_to 6896
  151.9074  133.3548  159.3860 H   0  0  0  0  0  0  0  0  0  0  0  0  # atno 6908 bound_to 6896
  150.7025  134.4692  159.5461 H   0  0  0  0  0  0  0  0  0  0  0  0  # atno 6909 bound_to 6896
  145.2031  139.2942  143.4308 H   0  0  0  0  0  0  0  0  0  0  0  0  # atno 7974 bound_to 7965
  154.7081  140.0522  157.0524 H   0  0  0  0  0  0  0  0  0  0  0  0  # atno 8008 bound_to 7997
  155.0592  140.3187  155.4647 H   0  0  0  0  0  0  0  0  0  0  0  0  # atno 8009 bound_to 7997
  156.2781  140.2102  156.5719 H   0  0  0  0  0  0  0  0  0  0  0  0  # atno 8010 bound_to 7997
  139.5856  144.1326  152.1571 H   0  0  0  0  0  0  0  0  0  0  0  0  # atno 10167 bound_to 10162
  157.5406  130.8694  149.8816 H   0  0  0  0  0  0  0  0  0  0  0  0  # atno 10718 bound_to 10713
  154.7280  135.3040  154.8939 H   0  0  0  0  0  0  0  0  0  0  0  0  # atno 10763 bound_to 10752
  153.9790  135.6732  153.4753 H   0  0  0  0  0  0  0  0  0  0  0  0  # atno 10764 bound_to 10752
  153.0892  135.4968  154.8577 H   0  0  0  0  0  0  0  0  0  0  0  0  # atno 10765 bound_to 10752
  140.1978  134.3908  155.8112 H   0  0  0  0  0  0  0  0  0  0  0  0  # atno 11005 bound_to 11000
  146.3413  140.2282  142.8593 LP  0  0  0  0  0  0  0  0  0  0  0  0  # atno 17320 bound_to 7965
  144.9928  140.8563  143.5329 LP  0  0  0  0  0  0  0  0  0  0  0  0  # atno 17321 bound_to 7965
  140.0889  144.5638  150.7069 LP  0  0  0  0  0  0  0  0  0  0  0  0  # atno 17342 bound_to 10162
  140.7128  143.2519  151.4528 LP  0  0  0  0  0  0  0  0  0  0  0  0  # atno 17343 bound_to 10162
  156.0493  130.3721  150.1239 LP  0  0  0  0  0  0  0  0  0  0  0  0  # atno 17370 bound_to 10713
  156.9419  130.9747  151.3514 LP  0  0  0  0  0  0  0  0  0  0  0  0  # atno 17371 bound_to 10713
  141.2227  133.7078  156.8205 LP  0  0  0  0  0  0  0  0  0  0  0  0  # atno 17394 bound_to 11000
  140.2088  134.8843  157.3251 LP  0  0  0  0  0  0  0  0  0  0  0  0  # atno 17395 bound_to 11000

$$$$
