AV-unprocessed.smi:560|AV-procd|sdf|2929|dock2
  -GOLD-   2262023423D 1   1.00000     0.00000
 Structure written by MMmdl.
 42 43  0  0  0  0  0  0  0  0  2 V2000
  152.2518  139.0077  155.3880 C   0  0  0  0  0  0  0  0  0  0  0  0
  151.4559  140.3179  155.5575 C   0  0  1  0  0  0  0  0  0  0  0  0
  149.9659  140.1672  155.2060 C   0  0  0  0  0  0  0  0  0  0  0  0
  149.2236  141.1491  155.1616 O   0  0  0  0  0  0  0  0  0  0  0  0
  149.5368  138.9180  154.9633 N   0  0  0  0  0  0  0  0  0  0  0  0
  148.1741  138.5532  154.5901 C   0  0  2  0  0  0  0  0  0  0  0  0
  147.9734  137.0279  154.6583 C   0  0  0  0  0  0  0  0  0  0  0  0
  146.5746  136.6272  154.1604 C   0  0  0  0  0  0  0  0  0  0  0  0
  146.3326  137.1264  152.7827 N   0  3  1  0  0  0  0  0  0  0  0  0
  145.0498  136.6348  152.2172 C   0  0  0  0  0  0  0  0  0  0  0  0
  145.2324  135.8480  150.9149 C   0  0  0  0  0  0  0  0  0  0  0  0
  144.9707  136.4965  149.7778 N   0  0  0  0  0  0  0  0  0  0  0  0
  145.5888  134.6709  150.9314 O   0  0  0  0  0  0  0  0  0  0  0  0
  146.4773  138.6052  152.7056 C   0  0  0  0  0  0  0  0  0  0  0  0
  147.8755  139.0488  153.1660 C   0  0  0  0  0  0  0  0  0  0  0  0
  151.6135  140.8809  156.8942 N   0  0  0  0  0  0  0  0  0  0  0  0
  150.9772  141.9813  157.4326 C   0  0  0  0  0  0  0  0  0  0  0  0
  151.4103  142.1175  158.7203 C   0  0  0  0  0  0  0  0  0  0  0  0
  152.3170  141.0342  158.8879 C   0  0  0  0  0  0  0  0  0  0  0  0
  152.4309  140.2926  157.7985 N   0  0  0  0  0  0  0  0  0  0  0  0
  152.1823  138.6342  154.3656 H   0  0  0  0  0  0  0  0  0  0  0  0
  151.8927  138.2210  156.0530 H   0  0  0  0  0  0  0  0  0  0  0  0
  153.3085  139.1655  155.6053 H   0  0  0  0  0  0  0  0  0  0  0  0
  151.8738  141.0399  154.8542 H   0  0  0  0  0  0  0  0  0  0  0  0
  150.2114  138.1690  155.0220 H   0  0  0  0  0  0  0  0  0  0  0  0
  147.4749  139.0374  155.2750 H   0  0  0  0  0  0  0  0  0  0  0  0
  148.7304  136.5269  154.0530 H   0  0  0  0  0  0  0  0  0  0  0  0
  148.1118  136.6732  155.6804 H   0  0  0  0  0  0  0  0  0  0  0  0
  146.4879  135.5401  154.1795 H   0  0  0  0  0  0  0  0  0  0  0  0
  145.8083  137.0191  154.8312 H   0  0  0  0  0  0  0  0  0  0  0  0
  144.5726  135.9562  152.9256 H   0  0  0  0  0  0  0  0  0  0  0  0
  144.3611  137.4685  152.0688 H   0  0  0  0  0  0  0  0  0  0  0  0
  145.0784  136.0292  148.8889 H   0  0  0  0  0  0  0  0  0  0  0  0
  144.6686  137.4599  149.8097 H   0  0  0  0  0  0  0  0  0  0  0  0
  146.3142  138.9471  151.6832 H   0  0  0  0  0  0  0  0  0  0  0  0
  145.7118  139.0800  153.3216 H   0  0  0  0  0  0  0  0  0  0  0  0
  147.9482  140.1367  153.1258 H   0  0  0  0  0  0  0  0  0  0  0  0
  148.6237  138.6628  152.4717 H   0  0  0  0  0  0  0  0  0  0  0  0
  150.2762  142.5709  156.8603 H   0  0  0  0  0  0  0  0  0  0  0  0
  151.1221  142.8744  159.4347 H   0  0  0  0  0  0  0  0  0  0  0  0
  152.8887  140.7640  159.7636 H   0  0  0  0  0  0  0  0  0  0  0  0
  147.0605  136.7293  152.2053 H   0  0  0  0  0  0  0  0  0  0  0  0
  1  2  1  0  0  0  0
  1 21  1  0  0  0  0
  1 22  1  0  0  0  0
  1 23  1  0  0  0  0
  2  3  1  0  0  0  0
  2 16  1  0  0  0  0
  2 24  1  0  0  0  0
  3  4  2  0  0  0  0
  3  5  1  0  0  0  0
  5  6  1  0  0  0  0
  5 25  1  0  0  0  0
  6 15  1  0  0  0  0
  6  7  1  0  0  0  0
  6 26  1  0  0  0  0
  7  8  1  0  0  0  0
  7 27  1  0  0  0  0
  7 28  1  0  0  0  0
  8  9  1  0  0  0  0
  8 29  1  0  0  0  0
  8 30  1  0  0  0  0
  9 10  1  0  0  0  0
  9 14  1  0  0  0  0
  9 42  1  0  0  0  0
 10 11  1  0  0  0  0
 10 31  1  0  0  0  0
 10 32  1  0  0  0  0
 11 12  1  0  0  0  0
 11 13  2  0  0  0  0
 12 33  1  0  0  0  0
 12 34  1  0  0  0  0
 14 15  1  0  0  0  0
 14 35  1  0  0  0  0
 14 36  1  0  0  0  0
 15 37  1  0  0  0  0
 15 38  1  0  0  0  0
 16 20  1  0  0  0  0
 16 17  1  0  0  0  0
 17 18  2  0  0  0  0
 17 39  1  0  0  0  0
 18 19  1  0  0  0  0
 18 40  1  0  0  0  0
 19 20  2  0  0  0  0
 19 41  1  0  0  0  0
M  CHG  1   9   1
M  END
> <s_m_source_file>
AV-unprocessed.smi

> <i_m_source_file_index>
560

> <i_lp_mmshare_version>
43012

> <i_f3d_flags>
0

> <s_epik_input>
bjFbY0hdW2NIXVtjSF1uMVtDQEhdKFtDSDNdKUMoPU8pW05IXVtDSF0yW0NIMl1bQ0gyXU4oW0NIMl1bQ0gyXTIpW0NIMl1DKD1PKVtOSDJd

> <s_epik_cmdline>
J2VwaWtfcHl0aG9uJywgJy1waCcsICc3LjAnLCAnLXRuJywgJzgnLCAnLW1hJywgJzIwMCcsICctbWV0YWxfYmluZGluZycsICctaW1hZScsICc8aW5maWxlLm1hZT4nLCAnLW9tYWUnLCAnPG91dGZpbGUubWFlPic=

> <r_lp_tautomer_probability>
1

> <r_epik_Ionization_Penalty>
1.02943

> <r_epik_Ionization_Penalty_Charging>
1.02936

> <r_epik_Ionization_Penalty_Neutral>
7.4537e-05

> <r_epik_State_Penalty>
1.08036

> <r_epik_Charging_Adjusted_Penalty>
2.10972

> <i_epik_Tot_Q>
1

> <i_epik_Tot_abs_Q>
1

> <r_epik_Metal_State_Penalty>
1.09347

> <b_epik_Metal_Only>
0

> <s_lp_Force_Field>
OPLS_2005

> <r_lp_Energy>
15.5023

> <b_lp_Chiralities_Consistent>
1

> <s_lp_Variant>
AV-unprocessed.smi:560-4

> <Gold.Version>
5.8.1

> <Gold.Id.Protein>
6NUR|6NUR_protein|mol2

> <Gold.PLP.Fitness>
42.2802

> <Gold.PLP.PLP>
-28.6255

> <Gold.PLP.part.hbond>
-3.6676

> <Gold.PLP.part.metal>
0.0000

> <Gold.PLP.part.buried>
2.1690

> <Gold.PLP.part.nonpolar>
-26.2153

> <Gold.PLP.part.repulsive>
0.5105

> <Gold.PLP.ligand.clash>
0.0172

> <Gold.PLP.ligand.torsion>
1.2831

> <Gold.PLP.Chemscore.Hbond>
4.3650

> <Gold.PLP.Chemscore.CHOScore>
1.0000

> <Gold.PLP.Chemscore.Metal>
0.0000

> <Gold.Chemscore.Hbonds>
donor molecule, donor type, donor heavy atom, donor atom, acceptor molecule, acceptor atom, score
      L1  H     9    42       P1  7948  2.00
      L1  H    12    33       P1  7921  1.00
      L1  H    12    34       P1 10171  0.57
      P1  H  7997  8008       L1    20  0.42
      L1  C    17    39       P1  8028  0.26

> <Gold.PLP.Chemscore.Internal.Correction>
0.1431

> <Gold.Rescore>
     Score         DG    S(hbond)    S(metal)    S(lipo)     H(rot)  DE(clash)    DE(int)     intcor
     13.92     -19.12       3.68        0.00      66.86       2.52       2.46       2.74       ----

> <Gold.Chemscore.Fitness>
13.9217

> <Gold.Chemscore.DG>
-19.1188

> <Gold.Chemscore.ZeroCoef>
-5.4800

> <Gold.Chemscore.Hbond>
3.6761

> <Gold.Chemscore.Metal>
0.0000

> <Gold.Chemscore.Lipo>
66.8617

> <Gold.Chemscore.Internal_Hbond>
0.0000

> <Gold.Chemscore.DEClash>
2.4621

> <Gold.Chemscore.DEInternal>
2.7350

> <Gold.Chemscore.Rot>
2.5243

> <Gold.Chemscore.Internal.Correction>
   9.000000E+99

> <Gold.Chemscore.Hbonds>
donor molecule, donor type, donor heavy atom, donor atom, acceptor molecule, acceptor atom, score
      L1  H     9    42       P1  7948  0.95
      L1  H    12    33       P1  7921  0.90
      L1  H    12    34       P1 10171  0.58
      P1  H  7997  8008       L1    20  0.18

> <Gold.Chemscore.Hbond.Weighted>
-12.2782

> <Gold.Chemscore.Metal.Weighted>
-0.0000

> <Gold.Chemscore.Lipo.Weighted>
-7.8228

> <Gold.Chemscore.Internal_Hbond.Weighted>
0.0000

> <Gold.Chemscore.DEClash.Weighted>
2.4621

> <Gold.Chemscore.DEInternal.Weighted>
2.7350

> <Gold.Chemscore.Rot.Weighted>
6.4622

> <Gold.Chemscore.Internal.Correction.Weighted>
   9.000000E+99

> <Gold.Protein.RotatedTorsions>
[ 6907 6896 6895 6894 ] final  106.86 input  -60.11 | X-H torsion
[ 7974 7965 7964 7962 ] final  130.62 input  175.53 | X-H torsion
[ 8008 7997 7996 7995 ] final  -63.61 input   59.86 | X-H torsion
[ 10167 10162 10161 10158 ] final   26.23 input  -65.29 | X-H torsion
[ 10718 10713 10712 10709 ] final -137.15 input   66.30 | X-H torsion
[ 10763 10752 10751 10750 ] final  132.49 input  -60.55 | X-H torsion
[ 11005 11000 10999 10996 ] final   33.08 input  -57.11 | X-H torsion

> <Gold.Protein.ActiveResidues>
 VAL166  LYS551  ARG553  GLY616  TRP617  ASP618  TYR619  PRO620  LYS621  CYS622 
 ASP623  PHE694  ASN695  SER759  ASP760  ASP761  ALA762  ILE779  LEU786  VAL792 
 PHE793  MET794  SER795  GLU796  ALA797  LYS798  CYS799  TRP800  GLU811  SER814 

> <Gold.Protein.RotatedAtoms>
  152.5177  133.9319  159.7584 H   0  0  0  0  0  0  0  0  0  0  0  0  # atno 6907 bound_to 6896
  150.9668  133.6378  159.2752 H   0  0  0  0  0  0  0  0  0  0  0  0  # atno 6908 bound_to 6896
  151.3603  135.0908  159.9485 H   0  0  0  0  0  0  0  0  0  0  0  0  # atno 6909 bound_to 6896
  145.0159  139.4176  143.5221 H   0  0  0  0  0  0  0  0  0  0  0  0  # atno 7974 bound_to 7965
  154.4564  140.0971  156.6770 H   0  0  0  0  0  0  0  0  0  0  0  0  # atno 8008 bound_to 7997
  155.5125  140.3477  155.4373 H   0  0  0  0  0  0  0  0  0  0  0  0  # atno 8009 bound_to 7997
  156.0786  140.1367  156.9729 H   0  0  0  0  0  0  0  0  0  0  0  0  # atno 8010 bound_to 7997
  140.5040  144.0269  150.6344 H   0  0  0  0  0  0  0  0  0  0  0  0  # atno 10167 bound_to 10162
  156.2849  130.7342  151.1350 H   0  0  0  0  0  0  0  0  0  0  0  0  # atno 10718 bound_to 10713
  153.7916  135.3154  155.3379 H   0  0  0  0  0  0  0  0  0  0  0  0  # atno 10763 bound_to 10752
  154.8123  135.4659  154.0553 H   0  0  0  0  0  0  0  0  0  0  0  0  # atno 10764 bound_to 10752
  153.1873  135.6903  153.8485 H   0  0  0  0  0  0  0  0  0  0  0  0  # atno 10765 bound_to 10752
  140.2668  134.3128  155.7840 H   0  0  0  0  0  0  0  0  0  0  0  0  # atno 11005 bound_to 11000
  146.3478  139.9630  142.8715 LP  0  0  0  0  0  0  0  0  0  0  0  0  # atno 17320 bound_to 7965
  145.1960  140.9833  143.4183 LP  0  0  0  0  0  0  0  0  0  0  0  0  # atno 17321 bound_to 7965
  140.3573  143.2928  152.0422 LP  0  0  0  0  0  0  0  0  0  0  0  0  # atno 17342 bound_to 10162
  139.4879  144.6329  151.7033 LP  0  0  0  0  0  0  0  0  0  0  0  0  # atno 17343 bound_to 10162
  157.7325  131.0599  150.5622 LP  0  0  0  0  0  0  0  0  0  0  0  0  # atno 17370 bound_to 10713
  156.5732  130.4285  149.6010 LP  0  0  0  0  0  0  0  0  0  0  0  0  # atno 17371 bound_to 10713
  141.2183  133.7442  156.9272 LP  0  0  0  0  0  0  0  0  0  0  0  0  # atno 17394 bound_to 11000
  140.1411  134.9293  157.2468 LP  0  0  0  0  0  0  0  0  0  0  0  0  # atno 17395 bound_to 11000

$$$$
