#       Name:                AV-unprocessed.smi:1226
#       Creating user name   scv26
#       Creation time:       Fri Mar 27 04:21:32 2020


#       File generated by GOLD software.
#

@<TRIPOS>MOLECULE
AV-unprocessed.smi:1226
    42    43     1
SMALL
NO_CHARGES


@<TRIPOS>ATOM
      1 ****        -2.7232   6.2767  -2.2917 C.3            1 S1                 0.0000
      2 ****        -2.4608   5.1793  -1.3184 C.2            1 S1                 0.0000
      3 ****        -1.8260   4.0477  -1.6347 N.2            1 S1                 0.0000
      4 ****        -1.6957   3.1808  -0.5451 C.2            1 S1                 0.0000
      5 ****        -1.0008   1.8640  -0.7141 C.3            1 S1                 0.0000
      6 ****         0.5281   2.0187  -0.7716 C.3            1 S1                 0.0000
      7 ****         1.1940   0.7318  -0.9360 N.am           1 S1                 0.0000
      8 ****         1.4470  -0.1310   0.0576 C.2            1 S1                 0.0000
      9 ****         1.1417   0.0651   1.2342 O.2            1 S1                 0.0000
     10 ****         2.0692  -1.2322  -0.3854 N.am           1 S1                 0.0000
     11 ****         2.4568  -2.3653   0.4470 C.3            1 S1                 0.0000
     12 ****         1.3579  -3.4398   0.4808 C.3            1 S1                 0.0000
     13 ****         1.7594  -4.7006   1.2439 C.3            1 S1                 0.0000
     14 ****         0.4113  -5.2685   1.6233 C.3            1 S1                 0.0000
     15 ****        -0.3807  -4.0044   1.9452 C.3            1 S1                 0.0000
     16 ****         0.1947  -2.9664   1.1559 O.3            1 S1                 0.0000
     17 ****        -2.2489   3.6761   0.6093 C.2            1 S1                 0.0000
     18 ****        -2.9518   5.2518   0.3694 S.3            1 S1                 0.0000
     19 ****        -2.6280   5.9127  -3.3152 H              1 S1                 0.0000
     20 ****        -2.0091   7.0861  -2.1395 H              1 S1                 0.0000
     21 ****        -3.7312   6.6673  -2.1529 H              1 S1                 0.0000
     22 ****        -1.2715   1.1987   0.1068 H              1 S1                 0.0000
     23 ****        -1.3523   1.3736  -1.6228 H              1 S1                 0.0000
     24 ****         0.8068   2.6529  -1.6136 H              1 S1                 0.0000
     25 ****         0.8952   2.5175   0.1270 H              1 S1                 0.0000
     26 ****         1.4810   0.4821  -1.8710 H              1 S1                 0.0000
     27 ****         2.2763  -1.2991  -1.3710 H              1 S1                 0.0000
     28 ****         3.3675  -2.7887   0.0230 H              1 S1                 0.0000
     29 ****         2.7103  -2.0400   1.4575 H              1 S1                 0.0000
     30 ****         1.0677  -3.7163  -0.5342 H              1 S1                 0.0000
     31 ****         2.3608  -5.3867   0.6472 H              1 S1                 0.0000
     32 ****         2.3216  -4.4448   2.1433 H              1 S1                 0.0000
     33 ****        -0.0307  -5.7830   0.7691 H              1 S1                 0.0000
     34 ****         0.4577  -5.9676   2.4586 H              1 S1                 0.0000
     35 ****        -1.4446  -4.1188   1.7372 H              1 S1                 0.0000
     36 ****        -0.2671  -3.7397   2.9969 H              1 S1                 0.0000
     37 ****        -2.2832   3.2114   1.5837 H              1 S1                 0.0000
     38 ****        -1.4814   3.8426  -2.5508 LP             1 S1                 0.0000
     39 ****         0.6757   0.9103   1.4956 LP             1 S1                 0.0000
     40 ****         1.3598  -0.6209   1.9284 LP             1 S1                 0.0000
     41 ****        -0.4747  -2.6568   0.4806 LP             1 S1                 0.0000
     42 ****         0.4468  -2.2025   1.7499 LP             1 S1                 0.0000
@<TRIPOS>BOND
    1    1    2 1     
    2    1   19 1     
    3    1   20 1     
    4    1   21 1     
    5    2   18 1     
    6    2    3 2     
    7    3    4 1     
    8    4    5 1     
    9    4   17 2     
   10    5    6 1     
   11    5   22 1     
   12    5   23 1     
   13    6    7 1     
   14    6   24 1     
   15    6   25 1     
   16    7    8 am    
   17    7   26 1     
   18    8    9 2     
   19    8   10 am    
   20   10   11 1     
   21   10   27 1     
   22   11   12 1     
   23   11   28 1     
   24   11   29 1     
   25   12   16 1     
   26   12   13 1     
   27   12   30 1     
   28   13   14 1     
   29   13   31 1     
   30   13   32 1     
   31   14   15 1     
   32   14   33 1     
   33   14   34 1     
   34   15   16 1     
   35   15   35 1     
   36   15   36 1     
   37   17   18 1     
   38   17   37 1     
   39    3   38 1     
   40    9   39 1     
   41    9   40 1     
   42   16   41 1     
   43   16   42 1     
@<TRIPOS>SUBSTRUCTURE
      1 S1             1
@<TRIPOS>SET
LONE_PAIRS      STATIC     ATOMS    <user>   **** ""
5 38 39 40 41 42
DONOR_HYDROGENS      STATIC     ATOMS    <user>   **** ""
2 26 27
ATOM$BLUE        STATIC     ATOMS    COLORGROUP SYSTEM
5 38 39 40 41 42
ATOM$RED        STATIC     ATOMS    COLORGROUP SYSTEM
2 26 27
