AV-unprocessed.smi:3051|AV-procd|sdf|11634|dock2
  -GOLD-   2272017 23D 1   1.00000     0.00000
 Structure written by MMmdl.
 37 37  0  0  0  0  0  0  0  0  1 V2000
  155.7532  139.7630  163.5184 C   0  0  0  0  0  0  0  0  0  0  0  0
  155.2815  140.1988  162.1251 C   0  0  0  0  0  0  0  0  0  0  0  0
  154.3351  141.3048  162.2009 N   0  0  0  0  0  0  0  0  0  0  0  0
  153.6967  141.8514  161.1541 C   0  0  0  0  0  0  0  0  0  0  0  0
  153.8346  141.4612  159.9949 O   0  0  0  0  0  0  0  0  0  0  0  0
  152.7558  143.0177  161.4613 C   0  0  0  0  0  0  0  0  0  0  0  0
  152.1977  143.5750  160.2423 N   0  0  0  0  0  0  0  0  0  0  0  0
  152.1961  144.8912  159.8233 C   0  0  0  0  0  0  0  0  0  0  0  0
  151.5387  144.9402  158.6266 C   0  0  0  0  0  0  0  0  0  0  0  0
  151.1706  143.5858  158.4015 C   0  0  0  0  0  0  0  0  0  0  0  0
  150.4515  143.1908  157.2669 N   0  0  0  0  0  0  0  0  0  0  0  0
  150.0876  141.7932  157.0625 C   0  0  1  0  0  0  0  0  0  0  0  0
  148.5757  141.6503  156.8177 C   0  0  0  0  0  0  0  0  0  0  0  0
  150.8882  141.2025  155.8917 C   0  0  0  0  0  0  0  0  0  0  0  0
  150.6982  139.7974  155.8536 O   0  0  0  0  0  0  0  0  0  0  0  0
  151.6283  139.1470  155.0057 C   0  0  0  0  0  0  0  0  0  0  0  0
  151.5698  142.7653  159.3612 N   0  0  0  0  0  0  0  0  0  0  0  0
  156.4846  138.9581  163.4442 H   0  0  0  0  0  0  0  0  0  0  0  0
  154.9224  139.3996  164.1240 H   0  0  0  0  0  0  0  0  0  0  0  0
  156.2222  140.5899  164.0526 H   0  0  0  0  0  0  0  0  0  0  0  0
  156.1366  140.5245  161.5328 H   0  0  0  0  0  0  0  0  0  0  0  0
  154.8383  139.3557  161.5927 H   0  0  0  0  0  0  0  0  0  0  0  0
  154.1614  141.6954  163.1162 H   0  0  0  0  0  0  0  0  0  0  0  0
  151.9378  142.6804  162.0995 H   0  0  0  0  0  0  0  0  0  0  0  0
  153.2900  143.7964  162.0084 H   0  0  0  0  0  0  0  0  0  0  0  0
  152.6542  145.6748  160.4087 H   0  0  0  0  0  0  0  0  0  0  0  0
  151.3468  145.8091  158.0145 H   0  0  0  0  0  0  0  0  0  0  0  0
  150.1682  143.8768  156.5822 H   0  0  0  0  0  0  0  0  0  0  0  0
  150.3436  141.2295  157.9607 H   0  0  0  0  0  0  0  0  0  0  0  0
  148.2987  140.6041  156.6854 H   0  0  0  0  0  0  0  0  0  0  0  0
  148.2661  142.1913  155.9228 H   0  0  0  0  0  0  0  0  0  0  0  0
  147.9937  142.0347  157.6554 H   0  0  0  0  0  0  0  0  0  0  0  0
  150.5388  141.6320  154.9512 H   0  0  0  0  0  0  0  0  0  0  0  0
  151.9478  141.4471  155.9865 H   0  0  0  0  0  0  0  0  0  0  0  0
  151.4455  138.0726  155.0167 H   0  0  0  0  0  0  0  0  0  0  0  0
  152.6528  139.3171  155.3394 H   0  0  0  0  0  0  0  0  0  0  0  0
  151.5329  139.4939  153.9760 H   0  0  0  0  0  0  0  0  0  0  0  0
  1  2  1  0  0  0  0
  1 18  1  0  0  0  0
  1 19  1  0  0  0  0
  1 20  1  0  0  0  0
  2  3  1  0  0  0  0
  2 21  1  0  0  0  0
  2 22  1  0  0  0  0
  3  4  1  0  0  0  0
  3 23  1  0  0  0  0
  4  5  2  0  0  0  0
  4  6  1  0  0  0  0
  6  7  1  0  0  0  0
  6 24  1  0  0  0  0
  6 25  1  0  0  0  0
  7 17  1  0  0  0  0
  7  8  1  0  0  0  0
  8  9  2  0  0  0  0
  8 26  1  0  0  0  0
  9 10  1  0  0  0  0
  9 27  1  0  0  0  0
 10 11  1  0  0  0  0
 10 17  2  0  0  0  0
 11 12  1  0  0  0  0
 11 28  1  0  0  0  0
 12 13  1  0  0  0  0
 12 14  1  0  0  0  0
 12 29  1  0  0  0  0
 13 30  1  0  0  0  0
 13 31  1  0  0  0  0
 13 32  1  0  0  0  0
 14 15  1  0  0  0  0
 14 33  1  0  0  0  0
 14 34  1  0  0  0  0
 15 16  1  0  0  0  0
 16 35  1  0  0  0  0
 16 36  1  0  0  0  0
 16 37  1  0  0  0  0
M  END
> <s_m_source_file>
AV-unprocessed.smi

> <i_m_source_file_index>
3051

> <i_lp_mmshare_version>
43012

> <i_f3d_flags>
0

> <s_epik_input>
W0NIM11bQ0gyXVtOSF1DKD1PKVtDSDJdbjFbY0hdW2NIXWMobjEpW05IXVtDQEhdKFtDSDNdKVtDSDJdT1tDSDNd

> <s_epik_cmdline>
J2VwaWtfcHl0aG9uJywgJy1waCcsICc3LjAnLCAnLXRuJywgJzgnLCAnLW1hJywgJzIwMCcsICctbWV0YWxfYmluZGluZycsICctaW1hZScsICc8aW5maWxlLm1hZT4nLCAnLW9tYWUnLCAnPG91dGZpbGUubWFlPic=

> <r_lp_tautomer_probability>
1

> <r_epik_Ionization_Penalty>
0.00023157

> <r_epik_Ionization_Penalty_Charging>
0

> <r_epik_Ionization_Penalty_Neutral>
0.00023157

> <r_epik_State_Penalty>
-0

> <r_epik_Charging_Adjusted_Penalty>
0

> <i_epik_Tot_Q>
0

> <i_epik_Tot_abs_Q>
0

> <r_epik_Metal_State_Penalty>
-0

> <b_epik_Metal_Only>
0

> <s_lp_Force_Field>
OPLS_2005

> <r_lp_Energy>
3.21547

> <b_lp_Chiralities_Consistent>
1

> <s_lp_Variant>
AV-unprocessed.smi:3051-2

> <Gold.Version>
5.8.1

> <Gold.Id.Protein>
6NUR|6NUR_protein|mol2

> <Gold.PLP.Fitness>
42.2756

> <Gold.PLP.PLP>
-39.6453

> <Gold.PLP.part.hbond>
-2.0000

> <Gold.PLP.part.metal>
0.0000

> <Gold.PLP.part.buried>
-5.3131

> <Gold.PLP.part.nonpolar>
-31.4787

> <Gold.PLP.part.repulsive>
0.0062

> <Gold.PLP.ligand.clash>
0.0000

> <Gold.PLP.ligand.torsion>
0.2114

> <Gold.PLP.Chemscore.Hbond>
1.0000

> <Gold.PLP.Chemscore.CHOScore>
0.0000

> <Gold.PLP.Chemscore.Metal>
0.0000

> <Gold.Chemscore.Hbonds>
donor molecule, donor type, donor heavy atom, donor atom, acceptor molecule, acceptor atom, score
      L1  H    11    28       P1  8028  1.00

> <Gold.PLP.Chemscore.Internal.Correction>
0.0533

> <Gold.Rescore>
     Score         DG    S(hbond)    S(metal)    S(lipo)     H(rot)  DE(clash)    DE(int)     intcor
     10.26     -11.86       0.97        0.00      74.58       2.19       0.01       1.58       ----

> <Gold.Chemscore.Fitness>
10.2588

> <Gold.Chemscore.DG>
-11.8557

> <Gold.Chemscore.ZeroCoef>
-5.4800

> <Gold.Chemscore.Hbond>
0.9743

> <Gold.Chemscore.Metal>
0.0000

> <Gold.Chemscore.Lipo>
74.5754

> <Gold.Chemscore.Internal_Hbond>
0.0000

> <Gold.Chemscore.DEClash>
0.0121

> <Gold.Chemscore.DEInternal>
1.5848

> <Gold.Chemscore.Rot>
2.1890

> <Gold.Chemscore.Internal.Correction>
   9.000000E+99

> <Gold.Chemscore.Hbonds>
donor molecule, donor type, donor heavy atom, donor atom, acceptor molecule, acceptor atom, score
      L1  H    11    28       P1  8028  0.95

> <Gold.Chemscore.Hbond.Weighted>
-3.2543

> <Gold.Chemscore.Metal.Weighted>
-0.0000

> <Gold.Chemscore.Lipo.Weighted>
-8.7253

> <Gold.Chemscore.Internal_Hbond.Weighted>
0.0000

> <Gold.Chemscore.DEClash.Weighted>
0.0121

> <Gold.Chemscore.DEInternal.Weighted>
1.5848

> <Gold.Chemscore.Rot.Weighted>
5.6039

> <Gold.Chemscore.Internal.Correction.Weighted>
   9.000000E+99

> <Gold.Protein.RotatedTorsions>
[ 6907 6896 6895 6894 ] final   16.10 input  -60.11 | X-H torsion
[ 7974 7965 7964 7962 ] final -120.01 input  175.53 | X-H torsion
[ 8008 7997 7996 7995 ] final  138.81 input   59.86 | X-H torsion
[ 10167 10162 10161 10158 ] final -105.66 input  -65.29 | X-H torsion
[ 10718 10713 10712 10709 ] final -108.71 input   66.30 | X-H torsion
[ 10763 10752 10751 10750 ] final  -57.78 input  -60.55 | X-H torsion
[ 11005 11000 10999 10996 ] final  -11.90 input  -57.11 | X-H torsion

> <Gold.Protein.ActiveResidues>
 VAL166  LYS551  ARG553  GLY616  TRP617  ASP618  TYR619  PRO620  LYS621  CYS622 
 ASP623  PHE694  ASN695  SER759  ASP760  ASP761  ALA762  ILE779  LEU786  VAL792 
 PHE793  MET794  SER795  GLU796  ALA797  LYS798  CYS799  TRP800  GLU811  SER814 

> <Gold.Protein.RotatedAtoms>
  151.8285  135.0629  160.0433 H   0  0  0  0  0  0  0  0  0  0  0  0  # atno 6907 bound_to 6896
  152.2898  133.5546  159.5558 H   0  0  0  0  0  0  0  0  0  0  0  0  # atno 6908 bound_to 6896
  150.7225  134.0361  159.3792 H   0  0  0  0  0  0  0  0  0  0  0  0  # atno 6909 bound_to 6896
  145.0561  140.8255  143.4180 H   0  0  0  0  0  0  0  0  0  0  0  0  # atno 7974 bound_to 7965
  156.2995  140.2384  156.4134 H   0  0  0  0  0  0  0  0  0  0  0  0  # atno 8008 bound_to 7997
  154.8420  140.0428  157.1568 H   0  0  0  0  0  0  0  0  0  0  0  0  # atno 8009 bound_to 7997
  154.9092  140.2988  155.5279 H   0  0  0  0  0  0  0  0  0  0  0  0  # atno 8010 bound_to 7997
  140.1962  143.3854  152.1167 H   0  0  0  0  0  0  0  0  0  0  0  0  # atno 10167 bound_to 10162
  156.0499  130.5727  150.7999 H   0  0  0  0  0  0  0  0  0  0  0  0  # atno 10718 bound_to 10713
  154.2278  135.6366  153.5165 H   0  0  0  0  0  0  0  0  0  0  0  0  # atno 10763 bound_to 10752
  152.9955  135.5512  154.6045 H   0  0  0  0  0  0  0  0  0  0  0  0  # atno 10764 bound_to 10752
  154.5521  135.2902  155.0973 H   0  0  0  0  0  0  0  0  0  0  0  0  # atno 10765 bound_to 10752
  140.7601  133.8522  155.9117 H   0  0  0  0  0  0  0  0  0  0  0  0  # atno 11005 bound_to 11000
  145.1466  139.2540  143.5462 LP  0  0  0  0  0  0  0  0  0  0  0  0  # atno 17320 bound_to 7965
  146.3521  140.1157  142.8602 LP  0  0  0  0  0  0  0  0  0  0  0  0  # atno 17321 bound_to 7965
  139.5236  144.7073  151.5315 LP  0  0  0  0  0  0  0  0  0  0  0  0  # atno 17342 bound_to 10162
  140.6422  143.8866  150.6703 LP  0  0  0  0  0  0  0  0  0  0  0  0  # atno 17343 bound_to 10162
  157.5415  131.0941  150.9820 LP  0  0  0  0  0  0  0  0  0  0  0  0  # atno 17370 bound_to 10713
  157.0102  130.5633  149.5320 LP  0  0  0  0  0  0  0  0  0  0  0  0  # atno 17371 bound_to 10713
  140.9671  134.1580  157.4607 LP  0  0  0  0  0  0  0  0  0  0  0  0  # atno 17394 bound_to 11000
  139.8772  134.9965  156.5800 LP  0  0  0  0  0  0  0  0  0  0  0  0  # atno 17395 bound_to 11000

$$$$
