AV-unprocessed.smi:1047|AV-procd|sdf|4567|dock6
  -GOLD-   22720 3 13D 1   1.00000     0.00000
 Structure written by MMmdl.
 57 59  0  0  0  0  0  0  0  0  3 V2000
  145.7501  143.9196  161.4753 C   0  0  0  0  0  0  0  0  0  0  0  0
  146.4709  144.8951  160.5337 C   0  0  0  0  0  0  0  0  0  0  0  0
  145.9106  144.8821  159.1590 N   0  3  2  0  0  0  0  0  0  0  0  0
  144.4492  145.1310  159.1447 C   0  0  0  0  0  0  0  0  0  0  0  0
  143.9223  145.1740  157.7005 C   0  0  0  0  0  0  0  0  0  0  0  0
  144.2404  143.9565  157.0369 O   0  0  0  0  0  0  0  0  0  0  0  0
  145.6441  143.7299  156.9698 C   0  0  2  0  0  0  0  0  0  0  0  0
  145.9061  142.4716  156.1238 C   0  0  0  0  0  0  0  0  0  0  0  0
  147.3494  142.2040  155.9515 N   0  3  0  0  0  0  0  0  0  0  0  0
  147.6669  141.3145  154.8160 C   0  0  0  0  0  0  0  0  0  0  0  0
  148.9703  140.5389  155.0659 C   0  0  1  0  0  0  0  0  0  0  0  0
  149.1768  139.6391  153.9931 O   0  0  0  0  0  0  0  0  0  0  0  0
  150.1861  141.4771  155.1951 C   0  0  0  0  0  0  0  0  0  0  0  0
  151.1160  141.0414  156.2218 N   0  0  0  0  0  0  0  0  0  0  0  0
  151.8301  139.8993  156.2355 C   0  0  0  0  0  0  0  0  0  0  0  0
  152.6338  139.6959  157.2750 N   0  0  0  0  0  0  0  0  0  0  0  0
  152.4130  140.8378  158.0259 C   0  0  0  0  0  0  0  0  0  0  0  0
  152.9659  141.2440  159.2600 C   0  0  0  0  0  0  0  0  0  0  0  0
  152.5887  142.4688  159.8553 C   0  0  0  0  0  0  0  0  0  0  0  0
  153.2070  142.8643  161.1848 C   0  0  0  0  0  0  0  0  0  0  0  0
  151.6424  143.3084  159.2145 C   0  0  0  0  0  0  0  0  0  0  0  0
  151.2155  144.6249  159.8390 C   0  0  0  0  0  0  0  0  0  0  0  0
  151.0835  142.9199  157.9790 C   0  0  0  0  0  0  0  0  0  0  0  0
  151.4667  141.6986  157.3966 C   0  0  0  0  0  0  0  0  0  0  0  0
  146.2309  143.6500  158.3955 C   0  0  0  0  0  0  0  0  0  0  0  0
  146.2535  143.8785  162.4417 H   0  0  0  0  0  0  0  0  0  0  0  0
  145.7411  142.9089  161.0661 H   0  0  0  0  0  0  0  0  0  0  0  0
  144.7192  144.2178  161.6635 H   0  0  0  0  0  0  0  0  0  0  0  0
  146.4489  145.9075  160.9396 H   0  0  0  0  0  0  0  0  0  0  0  0
  147.5208  144.6021  160.4902 H   0  0  0  0  0  0  0  0  0  0  0  0
  143.9379  144.3477  159.7067 H   0  0  0  0  0  0  0  0  0  0  0  0
  144.2286  146.0769  159.6409 H   0  0  0  0  0  0  0  0  0  0  0  0
  142.8399  145.3038  157.6995 H   0  0  0  0  0  0  0  0  0  0  0  0
  144.3440  146.0210  157.1567 H   0  0  0  0  0  0  0  0  0  0  0  0
  146.1039  144.5733  156.4511 H   0  0  0  0  0  0  0  0  0  0  0  0
  145.4422  141.6078  156.6018 H   0  0  0  0  0  0  0  0  0  0  0  0
  145.4397  142.5803  155.1436 H   0  0  0  0  0  0  0  0  0  0  0  0
  147.8326  143.0803  155.8147 H   0  0  0  0  0  0  0  0  0  0  0  0
  146.8399  140.6249  154.6392 H   0  0  0  0  0  0  0  0  0  0  0  0
  147.7690  141.9274  153.9195 H   0  0  0  0  0  0  0  0  0  0  0  0
  148.8741  139.9571  155.9840 H   0  0  0  0  0  0  0  0  0  0  0  0
  149.2074  140.1298  153.1856 H   0  0  0  0  0  0  0  0  0  0  0  0
  150.7193  141.5473  154.2463 H   0  0  0  0  0  0  0  0  0  0  0  0
  149.8579  142.4878  155.4415 H   0  0  0  0  0  0  0  0  0  0  0  0
  151.7585  139.1779  155.4346 H   0  0  0  0  0  0  0  0  0  0  0  0
  153.6848  140.6030  159.7487 H   0  0  0  0  0  0  0  0  0  0  0  0
  152.4447  142.8983  161.9631 H   0  0  0  0  0  0  0  0  0  0  0  0
  153.6754  143.8460  161.1149 H   0  0  0  0  0  0  0  0  0  0  0  0
  153.9721  142.1524  161.4949 H   0  0  0  0  0  0  0  0  0  0  0  0
  150.4420  145.1139  159.2465 H   0  0  0  0  0  0  0  0  0  0  0  0
  152.0638  145.3058  159.9113 H   0  0  0  0  0  0  0  0  0  0  0  0
  150.8150  144.4615  160.8398 H   0  0  0  0  0  0  0  0  0  0  0  0
  150.3638  143.5524  157.4808 H   0  0  0  0  0  0  0  0  0  0  0  0
  147.3103  143.5155  158.3314 H   0  0  0  0  0  0  0  0  0  0  0  0
  145.8314  142.7854  158.9274 H   0  0  0  0  0  0  0  0  0  0  0  0
  147.6998  141.7723  156.7956 H   0  0  0  0  0  0  0  0  0  0  0  0
  146.3350  145.6570  158.6689 H   0  0  0  0  0  0  0  0  0  0  0  0
  1  2  1  0  0  0  0
  1 26  1  0  0  0  0
  1 27  1  0  0  0  0
  1 28  1  0  0  0  0
  2  3  1  0  0  0  0
  2 29  1  0  0  0  0
  2 30  1  0  0  0  0
  3 25  1  0  0  0  0
  3  4  1  0  0  0  0
  3 57  1  0  0  0  0
  4  5  1  0  0  0  0
  4 31  1  0  0  0  0
  4 32  1  0  0  0  0
  5  6  1  0  0  0  0
  5 33  1  0  0  0  0
  5 34  1  0  0  0  0
  6  7  1  0  0  0  0
  7  8  1  0  0  0  0
  7 25  1  0  0  0  0
  7 35  1  0  0  0  0
  8  9  1  0  0  0  0
  8 36  1  0  0  0  0
  8 37  1  0  0  0  0
  9 10  1  0  0  0  0
  9 38  1  0  0  0  0
  9 56  1  0  0  0  0
 10 11  1  0  0  0  0
 10 39  1  0  0  0  0
 10 40  1  0  0  0  0
 11 12  1  0  0  0  0
 11 13  1  0  0  0  0
 11 41  1  0  0  0  0
 12 42  1  0  0  0  0
 13 14  1  0  0  0  0
 13 43  1  0  0  0  0
 13 44  1  0  0  0  0
 14 24  1  0  0  0  0
 14 15  1  0  0  0  0
 15 16  2  0  0  0  0
 15 45  1  0  0  0  0
 16 17  1  0  0  0  0
 17 24  2  0  0  0  0
 17 18  1  0  0  0  0
 18 19  2  0  0  0  0
 18 46  1  0  0  0  0
 19 20  1  0  0  0  0
 19 21  1  0  0  0  0
 20 47  1  0  0  0  0
 20 48  1  0  0  0  0
 20 49  1  0  0  0  0
 21 22  1  0  0  0  0
 21 23  2  0  0  0  0
 22 50  1  0  0  0  0
 22 51  1  0  0  0  0
 22 52  1  0  0  0  0
 23 24  1  0  0  0  0
 23 53  1  0  0  0  0
 25 54  1  0  0  0  0
 25 55  1  0  0  0  0
M  CHG  1   3   1
M  CHG  1   9   1
M  END
> <s_m_source_file>
AV-unprocessed.smi

> <i_m_source_file_index>
1047

> <i_lp_mmshare_version>
43012

> <i_f3d_flags>
0

> <s_epik_input>
W0NIM11bQ0gyXU4xW0NIMl1bQ0gyXU9bQ0BIXShbQ0gyXTEpW0NIMl1bTkhdW0NIMl1bQ0BIXShbT0hdKVtDSDJdbihbY0hdbjIpYyhjMjMpW2NIXWMoW0NIM10pYyhbY0hdMylbQ0gzXQ==

> <s_epik_cmdline>
J2VwaWtfcHl0aG9uJywgJy1waCcsICc3LjAnLCAnLXRuJywgJzgnLCAnLW1hJywgJzIwMCcsICctbWV0YWxfYmluZGluZycsICctaW1hZScsICc8aW5maWxlLm1hZT4nLCAnLW9tYWUnLCAnPG91dGZpbGUubWFlPic=

> <r_epik_Ionization_Penalty>
0.528991

> <r_epik_Ionization_Penalty_Charging>
0.438567

> <r_epik_Ionization_Penalty_Neutral>
0.0904237

> <r_epik_State_Penalty>
0.533036

> <r_epik_Charging_Adjusted_Penalty>
0.971603

> <i_epik_Tot_Q>
2

> <i_epik_Tot_abs_Q>
2

> <r_epik_Metal_State_Penalty>
0.448985

> <b_epik_Metal_Only>
0

> <s_lp_Force_Field>
OPLS_2005

> <r_lp_Energy>
32.051

> <b_lp_Chiralities_Consistent>
1

> <s_lp_Variant>
AV-unprocessed.smi:1047-8

> <Gold.Version>
5.8.1

> <Gold.Id.Protein>
6NUR|6NUR_protein|mol2

> <Gold.PLP.Fitness>
59.4647

> <Gold.PLP.PLP>
-44.7071

> <Gold.PLP.part.hbond>
-4.0000

> <Gold.PLP.part.metal>
0.0000

> <Gold.PLP.part.buried>
-3.5610

> <Gold.PLP.part.nonpolar>
-35.0990

> <Gold.PLP.part.repulsive>
0.0846

> <Gold.PLP.ligand.clash>
0.0000

> <Gold.PLP.ligand.torsion>
0.8566

> <Gold.PLP.Chemscore.Hbond>
5.4346

> <Gold.PLP.Chemscore.CHOScore>
0.0000

> <Gold.PLP.Chemscore.Metal>
0.0000

> <Gold.Chemscore.Hbonds>
donor molecule, donor type, donor heavy atom, donor atom, acceptor molecule, acceptor atom, score
      L1  H     3    57       P1  8029  1.40
      L1  H     9    38       P1  8028  2.00
      L1  H    12    42       P1  7957  0.83
      P1  H  7997  8008       L1    16  0.95

> <Gold.PLP.Chemscore.Internal.Correction>
0.1671

> <Gold.Rescore>
     Score         DG    S(hbond)    S(metal)    S(lipo)     H(rot)  DE(clash)    DE(int)     intcor
     18.68     -20.39       2.48        0.00     115.68       2.70       0.78       0.93       ----

> <Gold.Chemscore.Fitness>
18.6761

> <Gold.Chemscore.DG>
-20.3933

> <Gold.Chemscore.ZeroCoef>
-5.4800

> <Gold.Chemscore.Hbond>
2.4811

> <Gold.Chemscore.Metal>
0.0000

> <Gold.Chemscore.Lipo>
115.6806

> <Gold.Chemscore.Internal_Hbond>
0.0000

> <Gold.Chemscore.DEClash>
0.7827

> <Gold.Chemscore.DEInternal>
0.9344

> <Gold.Chemscore.Rot>
2.6985

> <Gold.Chemscore.Internal.Correction>
   9.000000E+99

> <Gold.Chemscore.Hbonds>
donor molecule, donor type, donor heavy atom, donor atom, acceptor molecule, acceptor atom, score
      L1  H     3    57       P1  8029  0.68
      L1  H     9    38       P1  8028  0.45
      L1  H    12    42       P1  7957  0.77
      P1  H  7997  8008       L1    16  0.10

> <Gold.Chemscore.Hbond.Weighted>
-8.2868

> <Gold.Chemscore.Metal.Weighted>
-0.0000

> <Gold.Chemscore.Lipo.Weighted>
-13.5346

> <Gold.Chemscore.Internal_Hbond.Weighted>
0.0000

> <Gold.Chemscore.DEClash.Weighted>
0.7827

> <Gold.Chemscore.DEInternal.Weighted>
0.9344

> <Gold.Chemscore.Rot.Weighted>
6.9081

> <Gold.Chemscore.Internal.Correction.Weighted>
   9.000000E+99

> <Gold.Protein.RotatedTorsions>
[ 6907 6896 6895 6894 ] final  172.85 input  -60.11 | X-H torsion
[ 7974 7965 7964 7962 ] final  -23.28 input  175.53 | X-H torsion
[ 8008 7997 7996 7995 ] final  -57.76 input   59.86 | X-H torsion
[ 10167 10162 10161 10158 ] final -170.14 input  -65.29 | X-H torsion
[ 10718 10713 10712 10709 ] final  -28.64 input   66.30 | X-H torsion
[ 10763 10752 10751 10750 ] final   95.95 input  -60.55 | X-H torsion
[ 11005 11000 10999 10996 ] final  129.32 input  -57.11 | X-H torsion

> <Gold.Protein.ActiveResidues>
 VAL166  LYS551  ARG553  GLY616  TRP617  ASP618  TYR619  PRO620  LYS621  CYS622 
 ASP623  PHE694  ASN695  SER759  ASP760  ASP761  ALA762  ILE779  LEU786  VAL792 
 PHE793  MET794  SER795  GLU796  ALA797  LYS798  CYS799  TRP800  GLU811  SER814 

> <Gold.Protein.RotatedAtoms>
  151.7777  133.3347  159.3462 H   0  0  0  0  0  0  0  0  0  0  0  0  # atno 6907 bound_to 6896
  150.7438  134.5960  159.6021 H   0  0  0  0  0  0  0  0  0  0  0  0  # atno 6908 bound_to 6896
  152.3298  134.7276  160.0344 H   0  0  0  0  0  0  0  0  0  0  0  0  # atno 6909 bound_to 6896
  146.1626  140.4594  142.8565 H   0  0  0  0  0  0  0  0  0  0  0  0  # atno 7974 bound_to 7965
  154.4281  140.1099  156.5848 H   0  0  0  0  0  0  0  0  0  0  0  0  # atno 8008 bound_to 7997
  155.6074  140.3494  155.4593 H   0  0  0  0  0  0  0  0  0  0  0  0  # atno 8009 bound_to 7997
  156.0126  140.1222  157.0428 H   0  0  0  0  0  0  0  0  0  0  0  0  # atno 8010 bound_to 7997
  139.5880  144.1277  152.1599 H   0  0  0  0  0  0  0  0  0  0  0  0  # atno 10167 bound_to 10162
  156.4226  130.4429  149.7173 H   0  0  0  0  0  0  0  0  0  0  0  0  # atno 10718 bound_to 10713
  153.2592  135.4236  155.0877 H   0  0  0  0  0  0  0  0  0  0  0  0  # atno 10763 bound_to 10752
  154.8413  135.3445  154.6402 H   0  0  0  0  0  0  0  0  0  0  0  0  # atno 10764 bound_to 10752
  153.6822  135.7038  153.5171 H   0  0  0  0  0  0  0  0  0  0  0  0  # atno 10765 bound_to 10752
  139.9609  134.9602  156.9131 H   0  0  0  0  0  0  0  0  0  0  0  0  # atno 11005 bound_to 11000
  144.8047  140.6278  143.6454 LP  0  0  0  0  0  0  0  0  0  0  0  0  # atno 17320 bound_to 7965
  145.4550  139.1519  143.3897 LP  0  0  0  0  0  0  0  0  0  0  0  0  # atno 17321 bound_to 7965
  140.0844  144.5673  150.7099 LP  0  0  0  0  0  0  0  0  0  0  0  0  # atno 17342 bound_to 10162
  140.7148  143.2535  151.4469 LP  0  0  0  0  0  0  0  0  0  0  0  0  # atno 17343 bound_to 10162
  156.4107  130.7721  151.2734 LP  0  0  0  0  0  0  0  0  0  0  0  0  # atno 17370 bound_to 10713
  157.7508  131.0212  150.3740 LP  0  0  0  0  0  0  0  0  0  0  0  0  # atno 17371 bound_to 10713
  140.5503  134.0634  155.7367 LP  0  0  0  0  0  0  0  0  0  0  0  0  # atno 17394 bound_to 11000
  141.1286  133.9341  157.2584 LP  0  0  0  0  0  0  0  0  0  0  0  0  # atno 17395 bound_to 11000

$$$$
