AV-unprocessed.smi:189|AV-procd|sdf|1484|dock3
  -GOLD-   2262019303D 1   1.00000     0.00000
 Structure written by MMmdl.
 53 57  0  0  0  0  0  0  0  0  1 V2000
  156.2646  144.0152  162.7506 C   0  0  0  0  0  0  0  0  0  0  0  0
  155.4376  144.7821  161.7009 C   0  0  1  0  0  0  0  0  0  0  0  0
  155.5317  144.2487  160.2669 C   0  0  0  0  0  0  0  0  0  0  0  0
  154.3291  144.9071  159.5741 C   0  0  1  0  0  0  0  0  0  0  0  0
  153.5466  143.9881  158.6196 C   0  0  0  0  0  0  0  0  0  0  0  0
  152.2937  144.6846  158.0447 C   0  0  0  0  0  0  0  0  0  0  0  0
  151.5795  145.6176  159.0498 C   0  0  0  0  0  0  0  0  0  0  0  0
  151.9282  145.2807  160.5061 C   0  0  0  0  0  0  0  0  0  0  0  0
  153.4545  145.4419  160.7324 C   0  0  1  0  0  0  0  0  0  0  0  0
  154.0071  144.9098  161.9826 N   0  0  0  0  0  0  0  0  0  0  0  0
  153.3535  143.8561  162.5349 C   0  0  0  0  0  0  0  0  0  0  0  0
  153.1125  142.7232  161.8223 N   0  0  0  0  0  0  0  0  0  0  0  0
  152.4359  141.7136  162.3775 C   0  0  0  0  0  0  0  0  0  0  0  0
  151.9108  141.6344  163.6021 N   0  0  0  0  0  0  0  0  0  0  0  0
  152.1389  142.7758  164.3135 C   0  0  0  0  0  0  0  0  0  0  0  0
  152.8495  143.9214  163.8599 C   0  0  0  0  0  0  0  0  0  0  0  0
  152.8835  144.8891  164.8553 N   0  0  0  0  0  0  0  0  0  0  0  0
  152.2262  144.3467  165.8437 C   0  0  0  0  0  0  0  0  0  0  0  0
  151.7332  143.0838  165.6004 N   0  0  0  0  0  0  0  0  0  0  0  0
  150.9551  142.2615  166.5135 C   0  0  0  0  0  0  0  0  0  0  0  0
  151.7881  141.1548  167.2024 C   0  0  2  0  0  0  0  0  0  0  0  0
  151.6443  139.9463  166.4769 O   0  0  0  0  0  0  0  0  0  0  0  0
  151.3997  140.8941  168.6558 C   0  0  0  0  0  0  0  0  0  0  0  0
  152.7231  140.5020  169.2971 C   0  0  0  0  0  0  0  0  0  0  0  0
  153.6382  141.3851  168.6725 O   0  0  0  0  0  0  0  0  0  0  0  0
  153.2899  141.4918  167.2959 C   0  0  0  0  0  0  0  0  0  0  0  0
  157.3278  144.0796  162.5197 H   0  0  0  0  0  0  0  0  0  0  0  0
  156.0089  142.9567  162.7908 H   0  0  0  0  0  0  0  0  0  0  0  0
  156.1184  144.4338  163.7466 H   0  0  0  0  0  0  0  0  0  0  0  0
  155.8211  145.8038  161.6960 H   0  0  0  0  0  0  0  0  0  0  0  0
  156.4791  144.5055  159.7922 H   0  0  0  0  0  0  0  0  0  0  0  0
  155.4417  143.1620  160.2534 H   0  0  0  0  0  0  0  0  0  0  0  0
  154.6852  145.7645  159.0009 H   0  0  0  0  0  0  0  0  0  0  0  0
  154.1882  143.6434  157.8081 H   0  0  0  0  0  0  0  0  0  0  0  0
  153.2369  143.0932  159.1610 H   0  0  0  0  0  0  0  0  0  0  0  0
  152.5674  145.2643  157.1624 H   0  0  0  0  0  0  0  0  0  0  0  0
  151.5999  143.9196  157.6951 H   0  0  0  0  0  0  0  0  0  0  0  0
  151.8712  146.6497  158.8519 H   0  0  0  0  0  0  0  0  0  0  0  0
  150.5009  145.5741  158.8964 H   0  0  0  0  0  0  0  0  0  0  0  0
  151.3782  145.9248  161.1930 H   0  0  0  0  0  0  0  0  0  0  0  0
  151.5900  144.2621  160.6986 H   0  0  0  0  0  0  0  0  0  0  0  0
  153.6367  146.5164  160.7856 H   0  0  0  0  0  0  0  0  0  0  0  0
  152.2911  140.8473  161.7491 H   0  0  0  0  0  0  0  0  0  0  0  0
  152.0750  144.8608  166.7816 H   0  0  0  0  0  0  0  0  0  0  0  0
  150.4955  142.9112  167.2594 H   0  0  0  0  0  0  0  0  0  0  0  0
  150.1346  141.8156  165.9497 H   0  0  0  0  0  0  0  0  0  0  0  0
  150.7311  139.7032  166.4754 H   0  0  0  0  0  0  0  0  0  0  0  0
  151.0467  141.8143  169.1227 H   0  0  0  0  0  0  0  0  0  0  0  0
  150.6209  140.1399  168.7778 H   0  0  0  0  0  0  0  0  0  0  0  0
  152.7208  140.6221  170.3807 H   0  0  0  0  0  0  0  0  0  0  0  0
  152.9853  139.4694  169.0615 H   0  0  0  0  0  0  0  0  0  0  0  0
  153.9031  140.8027  166.7124 H   0  0  0  0  0  0  0  0  0  0  0  0
  153.5132  142.5007  166.9476 H   0  0  0  0  0  0  0  0  0  0  0  0
  1  2  1  0  0  0  0
  1 27  1  0  0  0  0
  1 28  1  0  0  0  0
  1 29  1  0  0  0  0
  2 10  1  0  0  0  0
  2  3  1  0  0  0  0
  2 30  1  0  0  0  0
  3  4  1  0  0  0  0
  3 31  1  0  0  0  0
  3 32  1  0  0  0  0
  4  9  1  0  0  0  0
  4  5  1  0  0  0  0
  4 33  1  0  0  0  0
  5  6  1  0  0  0  0
  5 34  1  0  0  0  0
  5 35  1  0  0  0  0
  6  7  1  0  0  0  0
  6 36  1  0  0  0  0
  6 37  1  0  0  0  0
  7  8  1  0  0  0  0
  7 38  1  0  0  0  0
  7 39  1  0  0  0  0
  8  9  1  0  0  0  0
  8 40  1  0  0  0  0
  8 41  1  0  0  0  0
  9 10  1  0  0  0  0
  9 42  1  0  0  0  0
 10 11  1  0  0  0  0
 11 16  1  0  0  0  0
 11 12  2  0  0  0  0
 12 13  1  0  0  0  0
 13 14  2  0  0  0  0
 13 43  1  0  0  0  0
 14 15  1  0  0  0  0
 15 19  1  0  0  0  0
 15 16  2  0  0  0  0
 16 17  1  0  0  0  0
 17 18  2  0  0  0  0
 18 19  1  0  0  0  0
 18 44  1  0  0  0  0
 19 20  1  0  0  0  0
 20 21  1  0  0  0  0
 20 45  1  0  0  0  0
 20 46  1  0  0  0  0
 21 26  1  0  0  0  0
 21 22  1  0  0  0  0
 21 23  1  0  0  0  0
 22 47  1  0  0  0  0
 23 24  1  0  0  0  0
 23 48  1  0  0  0  0
 23 49  1  0  0  0  0
 24 25  1  0  0  0  0
 24 50  1  0  0  0  0
 24 51  1  0  0  0  0
 25 26  1  0  0  0  0
 26 52  1  0  0  0  0
 26 53  1  0  0  0  0
M  END
> <s_m_source_file>
AV-unprocessed.smi

> <i_m_source_file_index>
189

> <i_lp_mmshare_version>
43012

> <i_f3d_flags>
0

> <s_epik_input>
W0NIMl0xW0NIMl1bQ0gyXVtDSDJdW0NASF0oW0NASF0xMilOKFtDQEhdKFtDSDNdKVtDSDJdMiljKG5bY0hdbjMpYyhjMzQpbltjSF1uNFtDSDJdW0NAQF01KFtPSF0pW0NIMl1bQ0gyXU9bQ0gyXTU=

> <s_epik_cmdline>
J2VwaWtfcHl0aG9uJywgJy1waCcsICc3LjAnLCAnLXRuJywgJzgnLCAnLW1hJywgJzIwMCcsICctbWV0YWxfYmluZGluZycsICctaW1hZScsICc8aW5maWxlLm1hZT4nLCAnLW9tYWUnLCAnPG91dGZpbGUubWFlPic=

> <r_lp_tautomer_probability>
1

> <r_epik_Ionization_Penalty>
0.00594261

> <r_epik_Ionization_Penalty_Charging>
0

> <r_epik_Ionization_Penalty_Neutral>
0.00594261

> <r_epik_State_Penalty>
0.00429776

> <r_epik_Charging_Adjusted_Penalty>
0.00429776

> <i_epik_Tot_Q>
0

> <i_epik_Tot_abs_Q>
0

> <r_epik_Metal_State_Penalty>
-0

> <b_epik_Metal_Only>
0

> <s_lp_Force_Field>
OPLS_2005

> <r_lp_Energy>
66.1404

> <b_lp_Chiralities_Consistent>
1

> <s_lp_Variant>
AV-unprocessed.smi:189-10

> <Gold.Version>
5.8.1

> <Gold.Id.Protein>
6NUR|6NUR_protein|mol2

> <Gold.PLP.Fitness>
42.5430

> <Gold.PLP.PLP>
-40.5313

> <Gold.PLP.part.hbond>
-4.8615

> <Gold.PLP.part.metal>
0.0000

> <Gold.PLP.part.buried>
-3.9221

> <Gold.PLP.part.nonpolar>
-30.9618

> <Gold.PLP.part.repulsive>
0.0000

> <Gold.PLP.ligand.clash>
0.0000

> <Gold.PLP.ligand.torsion>
1.0820

> <Gold.PLP.Chemscore.Hbond>
1.3794

> <Gold.PLP.Chemscore.CHOScore>
0.0000

> <Gold.PLP.Chemscore.Metal>
0.0000

> <Gold.PLP.Chemscore.Internal.Correction>
0.0374

> <Gold.Rescore>
     Score         DG    S(hbond)    S(metal)    S(lipo)     H(rot)  DE(clash)    DE(int)     intcor
     16.49     -17.81       1.21        0.00     115.33       2.03       0.24       1.08       ----

> <Gold.Chemscore.Fitness>
16.4890

> <Gold.Chemscore.DG>
-17.8077

> <Gold.Chemscore.ZeroCoef>
-5.4800

> <Gold.Chemscore.Hbond>
1.2066

> <Gold.Chemscore.Metal>
0.0000

> <Gold.Chemscore.Lipo>
115.3286

> <Gold.Chemscore.Internal_Hbond>
0.0000

> <Gold.Chemscore.DEClash>
0.2406

> <Gold.Chemscore.DEInternal>
1.0781

> <Gold.Chemscore.Rot>
2.0297

> <Gold.Chemscore.Internal.Correction>
   9.000000E+99

> <Gold.Chemscore.Hbond.Weighted>
-4.0302

> <Gold.Chemscore.Metal.Weighted>
-0.0000

> <Gold.Chemscore.Lipo.Weighted>
-13.4935

> <Gold.Chemscore.Internal_Hbond.Weighted>
0.0000

> <Gold.Chemscore.DEClash.Weighted>
0.2406

> <Gold.Chemscore.DEInternal.Weighted>
1.0781

> <Gold.Chemscore.Rot.Weighted>
5.1960

> <Gold.Chemscore.Internal.Correction.Weighted>
   9.000000E+99

> <Gold.Protein.RotatedTorsions>
[ 6907 6896 6895 6894 ] final -169.97 input  -60.11 | X-H torsion
[ 7974 7965 7964 7962 ] final  -27.99 input  175.53 | X-H torsion
[ 8008 7997 7996 7995 ] final  -79.13 input   59.86 | X-H torsion
[ 10167 10162 10161 10158 ] final  171.97 input  -65.29 | X-H torsion
[ 10718 10713 10712 10709 ] final  168.40 input   66.30 | X-H torsion
[ 10763 10752 10751 10750 ] final  -72.03 input  -60.55 | X-H torsion
[ 11005 11000 10999 10996 ] final   69.75 input  -57.11 | X-H torsion

> <Gold.Protein.ActiveResidues>
 VAL166  LYS551  ARG553  GLY616  TRP617  ASP618  TYR619  PRO620  LYS621  CYS622 
 ASP623  PHE694  ASN695  SER759  ASP760  ASP761  ALA762  ILE779  LEU786  VAL792 
 PHE793  MET794  SER795  GLU796  ALA797  LYS798  CYS799  TRP800  GLU811  SER814 

> <Gold.Protein.RotatedAtoms>
  151.5001  133.3506  159.2867 H   0  0  0  0  0  0  0  0  0  0  0  0  # atno 6907 bound_to 6896
  150.8778  134.8166  159.7213 H   0  0  0  0  0  0  0  0  0  0  0  0  # atno 6908 bound_to 6896
  152.4742  134.4895  159.9742 H   0  0  0  0  0  0  0  0  0  0  0  0  # atno 6909 bound_to 6896
  146.1319  140.5224  142.8689 H   0  0  0  0  0  0  0  0  0  0  0  0  # atno 7974 bound_to 7965
  154.5755  140.0683  156.9028 H   0  0  0  0  0  0  0  0  0  0  0  0  # atno 8008 bound_to 7997
  155.2557  140.3355  155.4259 H   0  0  0  0  0  0  0  0  0  0  0  0  # atno 8009 bound_to 7997
  156.2151  140.1775  156.7593 H   0  0  0  0  0  0  0  0  0  0  0  0  # atno 8010 bound_to 7997
  139.5062  144.3426  152.0003 H   0  0  0  0  0  0  0  0  0  0  0  0  # atno 10167 bound_to 10162
  157.0376  131.0277  151.2724 H   0  0  0  0  0  0  0  0  0  0  0  0  # atno 10718 bound_to 10713
  154.4401  135.5943  153.6124 H   0  0  0  0  0  0  0  0  0  0  0  0  # atno 10763 bound_to 10752
  152.9805  135.5996  154.3733 H   0  0  0  0  0  0  0  0  0  0  0  0  # atno 10764 bound_to 10752
  154.3582  135.2841  155.2313 H   0  0  0  0  0  0  0  0  0  0  0  0  # atno 10765 bound_to 10752
  139.9636  134.7019  156.0593 H   0  0  0  0  0  0  0  0  0  0  0  0  # atno 11005 bound_to 11000
  144.7699  140.5615  143.6677 LP  0  0  0  0  0  0  0  0  0  0  0  0  # atno 17320 bound_to 7965
  145.5241  139.1476  143.3536 LP  0  0  0  0  0  0  0  0  0  0  0  0  # atno 17321 bound_to 7965
  140.2864  144.3803  150.6102 LP  0  0  0  0  0  0  0  0  0  0  0  0  # atno 17342 bound_to 10162
  140.5980  143.2167  151.7128 LP  0  0  0  0  0  0  0  0  0  0  0  0  # atno 17343 bound_to 10162
  157.5129  130.7950  149.7725 LP  0  0  0  0  0  0  0  0  0  0  0  0  # atno 17370 bound_to 10713
  156.0048  130.3861  150.2470 LP  0  0  0  0  0  0  0  0  0  0  0  0  # atno 17371 bound_to 10713
  141.1315  133.6585  156.3476 LP  0  0  0  0  0  0  0  0  0  0  0  0  # atno 17394 bound_to 11000
  140.5446  134.6087  157.5390 LP  0  0  0  0  0  0  0  0  0  0  0  0  # atno 17395 bound_to 11000

$$$$
