AV-unprocessed.smi:1|AV-procd|sdf|12|dock9
  -GOLD-   2262015103D 1   1.00000     0.00000
 Structure written by MMmdl.
 57 62  0  0  0  0  0  0  0  0  1 V2000
  150.1767  141.8645  155.9188 O   0  0  0  0  0  0  0  0  0  0  0  0
  150.4795  141.4132  157.0267 C   0  0  0  0  0  0  0  0  0  0  0  0
  150.1397  140.1909  157.5917 N   0  0  0  0  0  0  0  0  0  0  0  0
  149.8757  139.1718  156.8311 C   0  0  0  0  0  0  0  0  0  0  0  0
  149.8510  139.0112  155.4401 N   0  0  0  0  0  0  0  0  0  0  0  0
  149.5469  137.8257  154.7545 C   0  0  0  0  0  0  0  0  0  0  0  0
  149.2406  136.6915  155.3247 N   0  0  0  0  0  0  0  0  0  0  0  0
  149.2457  136.7931  156.7086 C   0  0  0  0  0  0  0  0  0  0  0  0
  149.5245  137.8948  157.4901 C   0  0  0  0  0  0  0  0  0  0  0  0
  149.4164  137.5846  158.8409 N   0  0  0  0  0  0  0  0  0  0  0  0
  149.0746  136.2997  158.8169 C   0  0  0  0  0  0  0  0  0  0  0  0
  148.9586  135.7523  157.5924 N   0  0  0  0  0  0  0  0  0  0  0  0
  148.5749  134.3339  157.3043 C   0  0  1  0  0  0  0  0  0  0  0  0
  149.2244  133.9086  156.1426 O   0  0  0  0  0  0  0  0  0  0  0  0
  150.1084  132.8264  156.4240 C   0  0  2  0  0  0  0  0  0  0  0  0
  150.2174  131.8784  155.2242 C   0  0  0  0  0  0  0  0  0  0  0  0
  149.1316  132.1211  154.3455 O   0  0  0  0  0  0  0  0  0  0  0  0
  148.4350  131.0896  153.8318 C   0  0  0  0  0  0  0  0  0  0  0  0
  148.5974  129.9174  154.1770 O   0  0  0  0  0  0  0  0  0  0  0  0
  147.4441  131.5155  152.8016 C   0  0  0  0  0  0  0  0  0  0  0  0
  147.4213  132.8650  152.3782 C   0  0  0  0  0  0  0  0  0  0  0  0
  146.5003  133.2955  151.4036 C   0  0  0  0  0  0  0  0  0  0  0  0
  145.5906  132.3818  150.8403 C   0  0  0  0  0  0  0  0  0  0  0  0
  145.6027  131.0369  151.2535 C   0  0  0  0  0  0  0  0  0  0  0  0
  146.5228  130.6043  152.2283 C   0  0  0  0  0  0  0  0  0  0  0  0
  149.5309  132.1880  157.6860 C   0  0  2  0  0  0  0  0  0  0  0  0
  148.4554  131.3162  157.3784 O   0  0  0  0  0  0  0  0  0  0  0  0
  147.2307  131.5806  158.4829 S   0  0  0  0  0  0  0  0  0  0  0  0
  146.0080  131.9242  157.7412 O   0  0  0  0  0  0  0  0  0  0  0  0
  147.2737  130.5066  159.4869 O   0  0  0  0  0  0  0  0  0  0  0  0
  147.8315  132.9748  159.1831 O   0  0  0  0  0  0  0  0  0  0  0  0
  148.9709  133.3910  158.4504 C   0  0  2  0  0  0  0  0  0  0  0  0
  151.3032  142.2721  157.9298 C   0  0  0  0  0  0  0  0  0  0  0  0
  151.5277  143.6272  157.6069 C   0  0  0  0  0  0  0  0  0  0  0  0
  152.2996  144.4383  158.4616 C   0  0  0  0  0  0  0  0  0  0  0  0
  152.8470  143.8982  159.6415 C   0  0  0  0  0  0  0  0  0  0  0  0
  152.6221  142.5467  159.9676 C   0  0  0  0  0  0  0  0  0  0  0  0
  151.8505  141.7342  159.1138 C   0  0  0  0  0  0  0  0  0  0  0  0
  149.5854  137.9188  153.6683 H   0  0  0  0  0  0  0  0  0  0  0  0
  148.9034  135.7371  159.7229 H   0  0  0  0  0  0  0  0  0  0  0  0
  147.4997  134.3628  157.1213 H   0  0  0  0  0  0  0  0  0  0  0  0
  151.0938  133.2266  156.6606 H   0  0  0  0  0  0  0  0  0  0  0  0
  151.1527  132.0595  154.6925 H   0  0  0  0  0  0  0  0  0  0  0  0
  150.2193  130.8383  155.5535 H   0  0  0  0  0  0  0  0  0  0  0  0
  148.1108  133.5846  152.7956 H   0  0  0  0  0  0  0  0  0  0  0  0
  146.4931  134.3283  151.0875 H   0  0  0  0  0  0  0  0  0  0  0  0
  144.8856  132.7125  150.0920 H   0  0  0  0  0  0  0  0  0  0  0  0
  144.9054  130.3343  150.8213 H   0  0  0  0  0  0  0  0  0  0  0  0
  146.5058  129.5648  152.5218 H   0  0  0  0  0  0  0  0  0  0  0  0
  150.2809  131.6413  158.2586 H   0  0  0  0  0  0  0  0  0  0  0  0
  149.7261  133.8434  159.0933 H   0  0  0  0  0  0  0  0  0  0  0  0
  151.1101  144.0490  156.7041 H   0  0  0  0  0  0  0  0  0  0  0  0
  152.4714  145.4751  158.2126 H   0  0  0  0  0  0  0  0  0  0  0  0
  153.4385  144.5208  160.2963 H   0  0  0  0  0  0  0  0  0  0  0  0
  153.0413  142.1330  160.8728 H   0  0  0  0  0  0  0  0  0  0  0  0
  151.6807  140.6987  159.3715 H   0  0  0  0  0  0  0  0  0  0  0  0
  150.0733  139.8234  154.8821 H   0  0  0  0  0  0  0  0  0  0  0  0
  1  2  2  0  0  0  0
  2  3  1  0  0  0  0
  2 33  1  0  0  0  0
  3  4  2  0  0  0  0
  4  9  1  0  0  0  0
  4  5  1  0  0  0  0
  5  6  1  0  0  0  0
  5 57  1  0  0  0  0
  6  7  2  0  0  0  0
  6 39  1  0  0  0  0
  7  8  1  0  0  0  0
  8 12  1  0  0  0  0
  8  9  2  0  0  0  0
  9 10  1  0  0  0  0
 10 11  2  0  0  0  0
 11 12  1  0  0  0  0
 11 40  1  0  0  0  0
 12 13  1  0  0  0  0
 13 32  1  0  0  0  0
 13 14  1  0  0  0  0
 13 41  1  0  0  0  0
 14 15  1  0  0  0  0
 15 16  1  0  0  0  0
 15 26  1  0  0  0  0
 15 42  1  0  0  0  0
 16 17  1  0  0  0  0
 16 43  1  0  0  0  0
 16 44  1  0  0  0  0
 17 18  1  0  0  0  0
 18 19  2  0  0  0  0
 18 20  1  0  0  0  0
 20 25  1  0  0  0  0
 20 21  2  0  0  0  0
 21 22  1  0  0  0  0
 21 45  1  0  0  0  0
 22 23  2  0  0  0  0
 22 46  1  0  0  0  0
 23 24  1  0  0  0  0
 23 47  1  0  0  0  0
 24 25  2  0  0  0  0
 24 48  1  0  0  0  0
 25 49  1  0  0  0  0
 26 32  1  0  0  0  0
 26 27  1  0  0  0  0
 26 50  1  0  0  0  0
 27 28  1  0  0  0  0
 28 29  2  0  0  0  0
 28 30  2  0  0  0  0
 28 31  1  0  0  0  0
 31 32  1  0  0  0  0
 32 51  1  0  0  0  0
 33 38  1  0  0  0  0
 33 34  2  0  0  0  0
 34 35  1  0  0  0  0
 34 52  1  0  0  0  0
 35 36  2  0  0  0  0
 35 53  1  0  0  0  0
 36 37  1  0  0  0  0
 36 54  1  0  0  0  0
 37 38  2  0  0  0  0
 37 55  1  0  0  0  0
 38 56  1  0  0  0  0
M  END
> <s_m_source_file>
AV-unprocessed.smi

> <i_m_source_file_index>
1

> <i_lp_mmshare_version>
43012

> <i_f3d_flags>
0

> <s_epik_input>
W2NIXTFbY0hdW2NIXVtjSF1bY0hdYzFDKD1PKVtOSF1jKG5bY0hdbjIpYyhjMjMpbltjSF1uM1tDQEBIXShbQ0BIXShbQ0BIXTQ1KU9TKE81KSg9Tyk9TylPW0NASF00W0NIMl1PQyg9TyljNltjSF1bY0hdW2NIXVtjSF1bY0hdNg==

> <s_epik_cmdline>
J2VwaWtfcHl0aG9uJywgJy1waCcsICc3LjAnLCAnLXRuJywgJzgnLCAnLW1hJywgJzIwMCcsICctbWV0YWxfYmluZGluZycsICctaW1hZScsICc8aW5maWxlLm1hZT4nLCAnLW9tYWUnLCAnPG91dGZpbGUubWFlPic=

> <r_epik_Ionization_Penalty>
0.122545

> <r_epik_Ionization_Penalty_Charging>
0.122545

> <r_epik_Ionization_Penalty_Neutral>
7.8935e-16

> <r_epik_State_Penalty>
2.69178

> <r_epik_Charging_Adjusted_Penalty>
2.81433

> <i_epik_Tot_Q>
0

> <i_epik_Tot_abs_Q>
0

> <r_epik_Metal_State_Penalty>
3.02665

> <b_epik_Metal_Only>
0

> <s_epik_Chemistry_Notes>
This compound has an ester and may undergo hydrolysis at high or low pH. This compound contains an acetal/aminal-like group ( X-CH(R)-Y where X, Y are N, S, or O) that may be acid/base labile, releasing an aldehyde.

> <s_lp_Force_Field>
OPLS_2005

> <r_lp_Energy>
62.4663

> <b_lp_Chiralities_Consistent>
1

> <s_lp_Variant>
AV-unprocessed.smi:1-12

> <Gold.Version>
5.8.1

> <Gold.Id.Protein>
6NUR|6NUR_protein|mol2

> <Gold.PLP.Fitness>
46.2631

> <Gold.PLP.PLP>
-46.8299

> <Gold.PLP.part.hbond>
0.0000

> <Gold.PLP.part.metal>
0.0000

> <Gold.PLP.part.buried>
-6.3779

> <Gold.PLP.part.nonpolar>
-41.5597

> <Gold.PLP.part.repulsive>
0.3822

> <Gold.PLP.ligand.clash>
0.0000

> <Gold.PLP.ligand.torsion>
1.9042

> <Gold.PLP.Chemscore.Hbond>
0.0000

> <Gold.PLP.Chemscore.CHOScore>
1.0000

> <Gold.PLP.Chemscore.Metal>
0.0000

> <Gold.Chemscore.Hbonds>
donor molecule, donor type, donor heavy atom, donor atom, acceptor molecule, acceptor atom, score
      L1  C     6    39       P1  7948  1.00

> <Gold.PLP.Chemscore.Internal.Correction>
0.2416

> <Gold.Rescore>
     Score         DG    S(hbond)    S(metal)    S(lipo)     H(rot)  DE(clash)    DE(int)     intcor
     11.97     -15.27       0.00        0.00     130.33       2.13       0.09       3.20       ----

> <Gold.Chemscore.Fitness>
11.9741

> <Gold.Chemscore.DG>
-15.2673

> <Gold.Chemscore.ZeroCoef>
-5.4800

> <Gold.Chemscore.Hbond>
0.0000

> <Gold.Chemscore.Metal>
0.0000

> <Gold.Chemscore.Lipo>
130.3309

> <Gold.Chemscore.Internal_Hbond>
0.0000

> <Gold.Chemscore.DEClash>
0.0944

> <Gold.Chemscore.DEInternal>
3.1989

> <Gold.Chemscore.Rot>
2.1333

> <Gold.Chemscore.Internal.Correction>
   9.000000E+99

> <Gold.Chemscore.Hbond.Weighted>
-0.0000

> <Gold.Chemscore.Metal.Weighted>
-0.0000

> <Gold.Chemscore.Lipo.Weighted>
-15.2487

> <Gold.Chemscore.Internal_Hbond.Weighted>
0.0000

> <Gold.Chemscore.DEClash.Weighted>
0.0944

> <Gold.Chemscore.DEInternal.Weighted>
3.1989

> <Gold.Chemscore.Rot.Weighted>
5.4614

> <Gold.Chemscore.Internal.Correction.Weighted>
   9.000000E+99

> <Gold.Protein.RotatedTorsions>
[ 6907 6896 6895 6894 ] final  156.55 input  -60.11 | X-H torsion
[ 7974 7965 7964 7962 ] final  102.97 input  175.53 | X-H torsion
[ 8008 7997 7996 7995 ] final  140.38 input   59.86 | X-H torsion
[ 10167 10162 10161 10158 ] final -128.44 input  -65.29 | X-H torsion
[ 10718 10713 10712 10709 ] final   22.70 input   66.30 | X-H torsion
[ 10763 10752 10751 10750 ] final  154.66 input  -60.55 | X-H torsion
[ 11005 11000 10999 10996 ] final  -99.55 input  -57.11 | X-H torsion

> <Gold.Protein.ActiveResidues>
 VAL166  LYS551  ARG553  GLY616  TRP617  ASP618  TYR619  PRO620  LYS621  CYS622 
 ASP623  PHE694  ASN695  SER759  ASP760  ASP761  ALA762  ILE779  LEU786  VAL792 
 PHE793  MET794  SER795  GLU796  ALA797  LYS798  CYS799  TRP800  GLU811  SER814 

> <Gold.Protein.RotatedAtoms>
  152.0281  133.3926  159.4285 H   0  0  0  0  0  0  0  0  0  0  0  0  # atno 6907 bound_to 6896
  150.6884  134.3551  159.4935 H   0  0  0  0  0  0  0  0  0  0  0  0  # atno 6908 bound_to 6896
  152.1334  134.9117  160.0608 H   0  0  0  0  0  0  0  0  0  0  0  0  # atno 6909 bound_to 6896
  145.3521  139.2437  143.3552 H   0  0  0  0  0  0  0  0  0  0  0  0  # atno 7974 bound_to 7965
  156.2979  140.2343  156.4392 H   0  0  0  0  0  0  0  0  0  0  0  0  # atno 8008 bound_to 7997
  154.8201  140.0438  157.1425 H   0  0  0  0  0  0  0  0  0  0  0  0  # atno 8009 bound_to 7997
  154.9325  140.3018  155.5164 H   0  0  0  0  0  0  0  0  0  0  0  0  # atno 8010 bound_to 7997
  139.9503  143.6063  152.2477 H   0  0  0  0  0  0  0  0  0  0  0  0  # atno 10167 bound_to 10162
  157.1559  130.6695  149.6027 H   0  0  0  0  0  0  0  0  0  0  0  0  # atno 10718 bound_to 10713
  154.1559  135.2812  155.3122 H   0  0  0  0  0  0  0  0  0  0  0  0  # atno 10763 bound_to 10752
  154.6183  135.5476  153.7551 H   0  0  0  0  0  0  0  0  0  0  0  0  # atno 10764 bound_to 10752
  153.0207  135.6432  154.1702 H   0  0  0  0  0  0  0  0  0  0  0  0  # atno 10765 bound_to 10752
  141.1304  133.8330  157.0986 H   0  0  0  0  0  0  0  0  0  0  0  0  # atno 11005 bound_to 11000
  146.2963  140.4139  142.8720 LP  0  0  0  0  0  0  0  0  0  0  0  0  # atno 17320 bound_to 7965
  144.8710  140.7272  143.6047 LP  0  0  0  0  0  0  0  0  0  0  0  0  # atno 17321 bound_to 7965
  139.6634  144.7662  151.1919 LP  0  0  0  0  0  0  0  0  0  0  0  0  # atno 17342 bound_to 10162
  140.7585  143.5975  150.8733 LP  0  0  0  0  0  0  0  0  0  0  0  0  # atno 17343 bound_to 10162
  155.9762  130.4728  150.6513 LP  0  0  0  0  0  0  0  0  0  0  0  0  # atno 17370 bound_to 10713
  157.4177  131.0832  151.1160 LP  0  0  0  0  0  0  0  0  0  0  0  0  # atno 17371 bound_to 10713
  140.0347  134.9884  157.0849 LP  0  0  0  0  0  0  0  0  0  0  0  0  # atno 17394 bound_to 11000
  140.4229  134.1862  155.7165 LP  0  0  0  0  0  0  0  0  0  0  0  0  # atno 17395 bound_to 11000

$$$$
