AV-unprocessed.smi:157|AV-procd|sdf|1292|dock9
  -GOLD-   2262018573D 1   1.00000     0.00000
 Structure written by MMmdl.
 35 37  0  0  0  0  0  0  0  0  1 V2000
  152.0599  137.2323  153.7412 O   0  0  0  0  0  0  0  0  0  0  0  0
  151.2258  137.4858  154.8516 C   0  0  0  0  0  0  0  0  0  0  0  0
  151.5379  138.8666  155.4546 C   0  0  2  0  0  0  0  0  0  0  0  0
  150.9469  139.0042  156.7432 O   0  0  0  0  0  0  0  0  0  0  0  0
  150.6198  140.3409  156.9884 C   0  0  1  0  0  0  0  0  0  0  0  0
  151.3870  140.8103  158.1861 N   0  0  0  0  0  0  0  0  0  0  0  0
  152.2418  140.0822  158.9170 C   0  0  0  0  0  0  0  0  0  0  0  0
  152.8002  140.7350  159.9221 N   0  0  0  0  0  0  0  0  0  0  0  0
  152.2537  142.0142  159.8365 C   0  0  0  0  0  0  0  0  0  0  0  0
  151.3760  142.0830  158.7637 C   0  0  0  0  0  0  0  0  0  0  0  0
  150.5806  143.0568  158.1908 N   0  0  0  0  0  0  0  0  0  0  0  0
  150.2787  144.0929  158.9078 C   0  0  0  0  0  0  0  0  0  0  0  0
  150.7091  144.4591  160.1750 N   0  0  0  0  0  0  0  0  0  0  0  0
  152.1083  144.4683  160.5667 C   0  0  0  0  0  0  0  0  0  0  0  0
  152.6855  143.0689  160.8147 C   0  0  1  0  0  0  0  0  0  0  0  0
  152.2952  142.6257  162.0985 O   0  0  0  0  0  0  0  0  0  0  0  0
  151.0205  141.1536  155.7528 C   0  0  0  0  0  0  0  0  0  0  0  0
  151.0513  140.0939  154.6710 C   0  0  2  0  0  0  0  0  0  0  0  0
  149.7634  139.9042  154.1155 O   0  0  0  0  0  0  0  0  0  0  0  0
  152.6161  138.9562  155.5991 H   0  0  0  0  0  0  0  0  0  0  0  0
  149.5638  140.4189  157.2483 H   0  0  0  0  0  0  0  0  0  0  0  0
  153.7733  143.1416  160.8242 H   0  0  0  0  0  0  0  0  0  0  0  0
  151.7377  140.3567  153.8655 H   0  0  0  0  0  0  0  0  0  0  0  0
  151.5182  136.9614  153.0157 H   0  0  0  0  0  0  0  0  0  0  0  0
  150.1801  137.4042  154.5545 H   0  0  0  0  0  0  0  0  0  0  0  0
  151.4040  136.7092  155.5957 H   0  0  0  0  0  0  0  0  0  0  0  0
  152.4653  139.0471  158.7046 H   0  0  0  0  0  0  0  0  0  0  0  0
  149.5861  144.8265  158.4927 H   0  0  0  0  0  0  0  0  0  0  0  0
  150.1841  145.1603  160.6771 H   0  0  0  0  0  0  0  0  0  0  0  0
  152.6667  144.9391  159.7563 H   0  0  0  0  0  0  0  0  0  0  0  0
  152.2460  145.1060  161.4404 H   0  0  0  0  0  0  0  0  0  0  0  0
  152.2449  141.6821  162.0815 H   0  0  0  0  0  0  0  0  0  0  0  0
  150.3218  141.9705  155.5677 H   0  0  0  0  0  0  0  0  0  0  0  0
  152.0194  141.5702  155.8927 H   0  0  0  0  0  0  0  0  0  0  0  0
  149.8442  139.8909  153.1740 H   0  0  0  0  0  0  0  0  0  0  0  0
  1  2  1  0  0  0  0
  1 24  1  0  0  0  0
  2  3  1  0  0  0  0
  2 25  1  0  0  0  0
  2 26  1  0  0  0  0
  3 20  1  0  0  0  0
  3 18  1  0  0  0  0
  3  4  1  0  0  0  0
  4  5  1  0  0  0  0
  5 21  1  0  0  0  0
  5  6  1  0  0  0  0
  5 17  1  0  0  0  0
  6 10  1  0  0  0  0
  6  7  1  0  0  0  0
  7  8  2  0  0  0  0
  7 27  1  0  0  0  0
  8  9  1  0  0  0  0
  9 15  1  0  0  0  0
  9 10  2  0  0  0  0
 10 11  1  0  0  0  0
 11 12  2  0  0  0  0
 12 13  1  0  0  0  0
 12 28  1  0  0  0  0
 13 14  1  0  0  0  0
 13 29  1  0  0  0  0
 14 15  1  0  0  0  0
 14 30  1  0  0  0  0
 14 31  1  0  0  0  0
 15 22  1  0  0  0  0
 15 16  1  0  0  0  0
 16 32  1  0  0  0  0
 17 18  1  0  0  0  0
 17 33  1  0  0  0  0
 17 34  1  0  0  0  0
 18 23  1  0  0  0  0
 18 19  1  0  0  0  0
 19 35  1  0  0  0  0
M  END
> <s_m_source_file>
AV-unprocessed.smi

> <i_m_source_file_index>
157

> <i_lp_mmshare_version>
43012

> <i_f3d_flags>
0

> <s_epik_input>
W09IXVtDSDJdW0NASF0xT1tDQEhdKFtDSDJdW0NAQEhdMVtPSF0pbihbY0hdbjIpYyhjMjMpTj1bQ0hdW05IXVtDSDJdW0NASF0zW09IXQ==

> <s_epik_cmdline>
J2VwaWtfcHl0aG9uJywgJy1waCcsICc3LjAnLCAnLXRuJywgJzgnLCAnLW1hJywgJzIwMCcsICctbWV0YWxfYmluZGluZycsICctaW1hZScsICc8aW5maWxlLm1hZT4nLCAnLW9tYWUnLCAnPG91dGZpbGUubWFlPic=

> <r_lp_tautomer_probability>
1

> <r_epik_Ionization_Penalty>
0.0357149

> <r_epik_Ionization_Penalty_Charging>
0.0355056

> <r_epik_Ionization_Penalty_Neutral>
0.000209255

> <r_epik_State_Penalty>
0.0296046

> <r_epik_Charging_Adjusted_Penalty>
0.0651102

> <i_epik_Tot_Q>
0

> <i_epik_Tot_abs_Q>
0

> <r_epik_Metal_State_Penalty>
3.03559e-05

> <b_epik_Metal_Only>
0

> <s_epik_Chemistry_Notes>
This compound has an imine and may undergo hydrolysis. This compound contains an acetal/aminal-like group ( X-CH(R)-Y where X, Y are N, S, or O) that may be acid/base labile, releasing an aldehyde.

> <s_lp_Force_Field>
OPLS_2005

> <r_lp_Energy>
45.9661

> <b_lp_Chiralities_Consistent>
1

> <s_lp_Variant>
AV-unprocessed.smi:157-2

> <Gold.Version>
5.8.1

> <Gold.Id.Protein>
6NUR|6NUR_protein|mol2

> <Gold.PLP.Fitness>
46.3800

> <Gold.PLP.PLP>
-34.5619

> <Gold.PLP.part.hbond>
-4.3643

> <Gold.PLP.part.metal>
0.0000

> <Gold.PLP.part.buried>
-2.4349

> <Gold.PLP.part.nonpolar>
-26.7201

> <Gold.PLP.part.repulsive>
0.2782

> <Gold.PLP.ligand.clash>
0.0000

> <Gold.PLP.ligand.torsion>
0.1000

> <Gold.PLP.Chemscore.Hbond>
3.0000

> <Gold.PLP.Chemscore.CHOScore>
1.0042

> <Gold.PLP.Chemscore.Metal>
0.0000

> <Gold.Chemscore.Hbonds>
donor molecule, donor type, donor heavy atom, donor atom, acceptor molecule, acceptor atom, score
      L1  H     1    24       P1  7949  1.00
      L1  H    19    35       P1  7957  1.00
      P1  H 10752 10763       L1     1  1.00
      L1  C    12    28       P1  8028  0.01
      L1  C    12    28       P1  8029  1.00

> <Gold.PLP.Chemscore.Internal.Correction>
0.0055

> <Gold.Rescore>
     Score         DG    S(hbond)    S(metal)    S(lipo)     H(rot)  DE(clash)    DE(int)     intcor
     10.00     -12.91       2.72        0.00      65.34       3.64       2.69       0.22       ----

> <Gold.Chemscore.Fitness>
9.9982

> <Gold.Chemscore.DG>
-12.9089

> <Gold.Chemscore.ZeroCoef>
-5.4800

> <Gold.Chemscore.Hbond>
2.7226

> <Gold.Chemscore.Metal>
0.0000

> <Gold.Chemscore.Lipo>
65.3359

> <Gold.Chemscore.Internal_Hbond>
0.0000

> <Gold.Chemscore.DEClash>
2.6885

> <Gold.Chemscore.DEInternal>
0.2221

> <Gold.Chemscore.Rot>
3.6362

> <Gold.Chemscore.Internal.Correction>
   9.000000E+99

> <Gold.Chemscore.Hbonds>
donor molecule, donor type, donor heavy atom, donor atom, acceptor molecule, acceptor atom, score
      L1  H     1    24       P1  7949  0.90
      L1  H    19    35       P1  7957  0.93
      P1  H 10752 10763       L1     1  0.22

> <Gold.Chemscore.Hbond.Weighted>
-9.0933

> <Gold.Chemscore.Metal.Weighted>
-0.0000

> <Gold.Chemscore.Lipo.Weighted>
-7.6443

> <Gold.Chemscore.Internal_Hbond.Weighted>
0.0000

> <Gold.Chemscore.DEClash.Weighted>
2.6885

> <Gold.Chemscore.DEInternal.Weighted>
0.2221

> <Gold.Chemscore.Rot.Weighted>
9.3087

> <Gold.Chemscore.Internal.Correction.Weighted>
   9.000000E+99

> <Gold.Protein.RotatedTorsions>
[ 6907 6896 6895 6894 ] final  127.95 input  -60.11 | X-H torsion
[ 7974 7965 7964 7962 ] final  152.19 input  175.53 | X-H torsion
[ 8008 7997 7996 7995 ] final  113.93 input   59.86 | X-H torsion
[ 10167 10162 10161 10158 ] final  118.95 input  -65.29 | X-H torsion
[ 10718 10713 10712 10709 ] final  -38.89 input   66.30 | X-H torsion
[ 10763 10752 10751 10750 ] final   30.71 input  -60.55 | X-H torsion
[ 11005 11000 10999 10996 ] final  158.59 input  -57.11 | X-H torsion

> <Gold.Protein.ActiveResidues>
 VAL166  LYS551  ARG553  GLY616  TRP617  ASP618  TYR619  PRO620  LYS621  CYS622 
 ASP623  PHE694  ASN695  SER759  ASP760  ASP761  ALA762  ILE779  LEU786  VAL792 
 PHE793  MET794  SER795  GLU796  ALA797  LYS798  CYS799  TRP800  GLU811  SER814 

> <Gold.Protein.RotatedAtoms>
  152.3765  133.6488  159.6127 H   0  0  0  0  0  0  0  0  0  0  0  0  # atno 6907 bound_to 6896
  150.7707  133.9185  159.3399 H   0  0  0  0  0  0  0  0  0  0  0  0  # atno 6908 bound_to 6896
  151.6999  135.0933  160.0300 H   0  0  0  0  0  0  0  0  0  0  0  0  # atno 6909 bound_to 6896
  144.8240  139.6636  143.6088 H   0  0  0  0  0  0  0  0  0  0  0  0  # atno 7974 bound_to 7965
  156.2289  140.2969  156.0138 H   0  0  0  0  0  0  0  0  0  0  0  0  # atno 8008 bound_to 7997
  155.2279  140.0418  157.2975 H   0  0  0  0  0  0  0  0  0  0  0  0  # atno 8009 bound_to 7997
  154.5962  140.2415  155.7861 H   0  0  0  0  0  0  0  0  0  0  0  0  # atno 8010 bound_to 7997
  139.6078  144.7074  151.2913 H   0  0  0  0  0  0  0  0  0  0  0  0  # atno 10167 bound_to 10162
  156.2986  130.4237  149.8165 H   0  0  0  0  0  0  0  0  0  0  0  0  # atno 10718 bound_to 10713
  153.0356  135.6457  154.1087 H   0  0  0  0  0  0  0  0  0  0  0  0  # atno 10763 bound_to 10752
  154.0802  135.2874  155.3293 H   0  0  0  0  0  0  0  0  0  0  0  0  # atno 10764 bound_to 10752
  154.6535  135.5417  153.7994 H   0  0  0  0  0  0  0  0  0  0  0  0  # atno 10765 bound_to 10752
  140.1880  134.8428  157.2880 H   0  0  0  0  0  0  0  0  0  0  0  0  # atno 11005 bound_to 11000
  146.2545  139.6272  142.9404 LP  0  0  0  0  0  0  0  0  0  0  0  0  # atno 17320 bound_to 7965
  145.5042  141.0437  143.2523 LP  0  0  0  0  0  0  0  0  0  0  0  0  # atno 17321 bound_to 7965
  140.7297  143.6899  150.7930 LP  0  0  0  0  0  0  0  0  0  0  0  0  # atno 17342 bound_to 10162
  140.0488  143.5270  152.2683 LP  0  0  0  0  0  0  0  0  0  0  0  0  # atno 17343 bound_to 10162
  156.5552  130.8359  151.3312 LP  0  0  0  0  0  0  0  0  0  0  0  0  # atno 17370 bound_to 10713
  157.7362  130.9775  150.2123 LP  0  0  0  0  0  0  0  0  0  0  0  0  # atno 17371 bound_to 10713
  140.2192  134.4044  155.7574 LP  0  0  0  0  0  0  0  0  0  0  0  0  # atno 17394 bound_to 11000
  141.2225  133.7157  156.8462 LP  0  0  0  0  0  0  0  0  0  0  0  0  # atno 17395 bound_to 11000

$$$$
