AV-unprocessed.smi:705|AV-procd|sdf|3446|dock4
  -GOLD-   22720 0433D 1   1.00000     0.00000
 Structure written by MMmdl.
 29 30  0  0  0  0  0  0  0  0  2 V2000
  150.3150  138.0898  153.6647 N   0  0  0  0  0  0  0  0  0  0  0  0
  151.0916  137.5871  154.6289 C   0  0  0  0  0  0  0  0  0  0  0  0
  151.3982  136.3972  154.6684 O   0  0  0  0  0  0  0  0  0  0  0  0
  151.6051  138.5391  155.6356 C   0  0  0  0  0  0  0  0  0  0  0  0
  151.2241  139.8417  155.7896 C   0  0  0  0  0  0  0  0  0  0  0  0
  152.0062  140.2707  156.9050 C   0  0  0  0  0  0  0  0  0  0  0  0
  152.0260  141.6402  157.5350 C   0  0  2  0  0  0  0  0  0  0  0  0
  151.8227  141.5762  159.0613 C   0  0  0  0  0  0  0  0  0  0  0  0
  151.8450  142.9888  159.6650 C   0  0  0  0  0  0  0  0  0  0  0  0
  150.8204  143.8997  158.9681 C   0  0  0  0  0  0  0  0  0  0  0  0
  151.0565  143.9342  157.5081 N   0  3  0  0  0  0  0  0  0  0  0  0
  151.0047  142.5948  156.8812 C   0  0  0  0  0  0  0  0  0  0  0  0
  152.7826  139.3030  157.3908 N   0  0  0  0  0  0  0  0  0  0  0  0
  152.5231  138.2365  156.6090 N   0  0  0  0  0  0  0  0  0  0  0  0
  152.9711  137.3411  156.7451 H   0  0  0  0  0  0  0  0  0  0  0  0
  149.9437  137.4798  152.9509 H   0  0  0  0  0  0  0  0  0  0  0  0
  150.1059  139.0771  153.6500 H   0  0  0  0  0  0  0  0  0  0  0  0
  150.5099  140.4043  155.2064 H   0  0  0  0  0  0  0  0  0  0  0  0
  153.0156  142.0668  157.3631 H   0  0  0  0  0  0  0  0  0  0  0  0
  150.8694  141.0989  159.2933 H   0  0  0  0  0  0  0  0  0  0  0  0
  152.5985  140.9627  159.5210 H   0  0  0  0  0  0  0  0  0  0  0  0
  151.6348  142.9402  160.7338 H   0  0  0  0  0  0  0  0  0  0  0  0
  152.8444  143.4149  159.5658 H   0  0  0  0  0  0  0  0  0  0  0  0
  149.8062  143.5465  159.1594 H   0  0  0  0  0  0  0  0  0  0  0  0
  150.8854  144.9138  159.3634 H   0  0  0  0  0  0  0  0  0  0  0  0
  150.3593  144.5243  157.0769 H   0  0  0  0  0  0  0  0  0  0  0  0
  151.2083  142.6976  155.8149 H   0  0  0  0  0  0  0  0  0  0  0  0
  149.9914  142.2017  156.9758 H   0  0  0  0  0  0  0  0  0  0  0  0
  151.9694  144.3319  157.3401 H   0  0  0  0  0  0  0  0  0  0  0  0
  1  2  1  0  0  0  0
  1 16  1  0  0  0  0
  1 17  1  0  0  0  0
  2  3  2  0  0  0  0
  2  4  1  0  0  0  0
  4 14  1  0  0  0  0
  4  5  2  0  0  0  0
  5  6  1  0  0  0  0
  5 18  1  0  0  0  0
  6  7  1  0  0  0  0
  6 13  2  0  0  0  0
  7 12  1  0  0  0  0
  7  8  1  0  0  0  0
  7 19  1  0  0  0  0
  8  9  1  0  0  0  0
  8 20  1  0  0  0  0
  8 21  1  0  0  0  0
  9 10  1  0  0  0  0
  9 22  1  0  0  0  0
  9 23  1  0  0  0  0
 10 11  1  0  0  0  0
 10 24  1  0  0  0  0
 10 25  1  0  0  0  0
 11 12  1  0  0  0  0
 11 26  1  0  0  0  0
 11 29  1  0  0  0  0
 12 27  1  0  0  0  0
 12 28  1  0  0  0  0
 13 14  1  0  0  0  0
 14 15  1  0  0  0  0
M  CHG  1  11   1
M  END
> <s_m_source_file>
AV-unprocessed.smi

> <i_m_source_file_index>
705

> <i_lp_mmshare_version>
43012

> <i_f3d_flags>
0

> <s_epik_input>
W05IMl1DKD1PKWMxW2NIXWMoW25IXW4xKVtDQEBIXTJbQ0gyXVtDSDJdW0NIMl1bTkhdW0NIMl0y

> <s_epik_cmdline>
J2VwaWtfcHl0aG9uJywgJy1waCcsICc3LjAnLCAnLXRuJywgJzgnLCAnLW1hJywgJzIwMCcsICctbWV0YWxfYmluZGluZycsICctaW1hZScsICc8aW5maWxlLm1hZT4nLCAnLW9tYWUnLCAnPG91dGZpbGUubWFlPic=

> <r_lp_tautomer_probability>
0.5

> <r_epik_Ionization_Penalty>
0.000242638

> <r_epik_Ionization_Penalty_Charging>
0.000157527

> <r_epik_Ionization_Penalty_Neutral>
8.51112e-05

> <r_epik_State_Penalty>
0.41068

> <r_epik_Charging_Adjusted_Penalty>
0.410837

> <i_epik_Tot_Q>
1

> <i_epik_Tot_abs_Q>
1

> <r_epik_Metal_State_Penalty>
0.446108

> <b_epik_Metal_Only>
0

> <s_lp_Force_Field>
OPLS_2005

> <r_lp_Energy>
10.1374

> <b_lp_Chiralities_Consistent>
1

> <s_lp_Variant>
AV-unprocessed.smi:705-1

> <Gold.Version>
5.8.1

> <Gold.Id.Protein>
6NUR|6NUR_protein|mol2

> <Gold.PLP.Fitness>
38.7001

> <Gold.PLP.PLP>
-23.9400

> <Gold.PLP.part.hbond>
-4.9920

> <Gold.PLP.part.metal>
0.0000

> <Gold.PLP.part.buried>
-4.6758

> <Gold.PLP.part.nonpolar>
-15.7340

> <Gold.PLP.part.repulsive>
0.3922

> <Gold.PLP.ligand.clash>
0.0000

> <Gold.PLP.ligand.torsion>
0.1123

> <Gold.PLP.Chemscore.Hbond>
4.9840

> <Gold.PLP.Chemscore.CHOScore>
0.0000

> <Gold.PLP.Chemscore.Metal>
0.0000

> <Gold.Chemscore.Hbonds>
donor molecule, donor type, donor heavy atom, donor atom, acceptor molecule, acceptor atom, score
      L1  H     1    16       P1  7948  0.95
      L1  H    11    26       P1  8028  1.98
      P1  H  7997  8009       L1    13  1.00
      P1  H 10752 10763       L1     3  1.00

> <Gold.PLP.Chemscore.Internal.Correction>
0.0328

> <Gold.Rescore>
     Score         DG    S(hbond)    S(metal)    S(lipo)     H(rot)  DE(clash)    DE(int)     intcor
     20.89     -22.34       3.52        0.00      65.46       1.00       1.42       0.03       ----

> <Gold.Chemscore.Fitness>
20.8880

> <Gold.Chemscore.DG>
-22.3412

> <Gold.Chemscore.ZeroCoef>
-5.4800

> <Gold.Chemscore.Hbond>
3.5216

> <Gold.Chemscore.Metal>
0.0000

> <Gold.Chemscore.Lipo>
65.4626

> <Gold.Chemscore.Internal_Hbond>
0.0000

> <Gold.Chemscore.DEClash>
1.4230

> <Gold.Chemscore.DEInternal>
0.0302

> <Gold.Chemscore.Rot>
1.0000

> <Gold.Chemscore.Internal.Correction>
   9.000000E+99

> <Gold.Chemscore.Hbonds>
donor molecule, donor type, donor heavy atom, donor atom, acceptor molecule, acceptor atom, score
      L1  H     1    16       P1  7948  0.22
      L1  H    11    26       P1  8028  0.66
      P1  H  7997  8009       L1    13  0.25
      P1  H 10752 10763       L1     3  1.00

> <Gold.Chemscore.Hbond.Weighted>
-11.7621

> <Gold.Chemscore.Metal.Weighted>
-0.0000

> <Gold.Chemscore.Lipo.Weighted>
-7.6591

> <Gold.Chemscore.Internal_Hbond.Weighted>
0.0000

> <Gold.Chemscore.DEClash.Weighted>
1.4230

> <Gold.Chemscore.DEInternal.Weighted>
0.0302

> <Gold.Chemscore.Rot.Weighted>
2.5600

> <Gold.Chemscore.Internal.Correction.Weighted>
   9.000000E+99

> <Gold.Protein.RotatedTorsions>
[ 6907 6896 6895 6894 ] final -114.74 input  -60.11 | X-H torsion
[ 7974 7965 7964 7962 ] final   48.56 input  175.53 | X-H torsion
[ 8008 7997 7996 7995 ] final  151.98 input   59.86 | X-H torsion
[ 10167 10162 10161 10158 ] final   88.91 input  -65.29 | X-H torsion
[ 10718 10713 10712 10709 ] final  -32.03 input   66.30 | X-H torsion
[ 10763 10752 10751 10750 ] final   59.50 input  -60.55 | X-H torsion
[ 11005 11000 10999 10996 ] final  -76.86 input  -57.11 | X-H torsion

> <Gold.Protein.ActiveResidues>
 VAL166  LYS551  ARG553  GLY616  TRP617  ASP618  TYR619  PRO620  LYS621  CYS622 
 ASP623  PHE694  ASN695  SER759  ASP760  ASP761  ALA762  ILE779  LEU786  VAL792 
 PHE793  MET794  SER795  GLU796  ALA797  LYS798  CYS799  TRP800  GLU811  SER814 

> <Gold.Protein.RotatedAtoms>
  150.7925  133.8758  159.3271 H   0  0  0  0  0  0  0  0  0  0  0  0  # atno 6907 bound_to 6896
  151.6592  135.0990  160.0185 H   0  0  0  0  0  0  0  0  0  0  0  0  # atno 6908 bound_to 6896
  152.4001  133.6766  159.6345 H   0  0  0  0  0  0  0  0  0  0  0  0  # atno 6909 bound_to 6896
  146.0193  139.4632  142.9907 H   0  0  0  0  0  0  0  0  0  0  0  0  # atno 7974 bound_to 7965
  156.2650  140.2033  156.6261 H   0  0  0  0  0  0  0  0  0  0  0  0  # atno 8008 bound_to 7997
  154.6719  140.0549  157.0199 H   0  0  0  0  0  0  0  0  0  0  0  0  # atno 8009 bound_to 7997
  155.1125  140.3217  155.4521 H   0  0  0  0  0  0  0  0  0  0  0  0  # atno 8010 bound_to 7997
  139.8625  144.6536  150.9042 H   0  0  0  0  0  0  0  0  0  0  0  0  # atno 10167 bound_to 10162
  156.3799  130.4354  149.7477 H   0  0  0  0  0  0  0  0  0  0  0  0  # atno 10718 bound_to 10713
  152.9896  135.5569  154.5722 H   0  0  0  0  0  0  0  0  0  0  0  0  # atno 10763 bound_to 10752
  154.5120  135.2803  155.1336 H   0  0  0  0  0  0  0  0  0  0  0  0  # atno 10764 bound_to 10752
  154.2724  135.6360  153.5368 H   0  0  0  0  0  0  0  0  0  0  0  0  # atno 10765 bound_to 10752
  141.1657  133.7000  156.7734 H   0  0  0  0  0  0  0  0  0  0  0  0  # atno 11005 bound_to 11000
  145.7219  141.0072  143.1398 LP  0  0  0  0  0  0  0  0  0  0  0  0  # atno 17320 bound_to 7965
  144.6983  139.8880  143.7451 LP  0  0  0  0  0  0  0  0  0  0  0  0  # atno 17321 bound_to 7965
  140.7773  143.3732  151.1611 LP  0  0  0  0  0  0  0  0  0  0  0  0  # atno 17342 bound_to 10162
  139.7360  143.8998  152.3035 LP  0  0  0  0  0  0  0  0  0  0  0  0  # atno 17343 bound_to 10162
  156.4571  130.7934  151.2955 LP  0  0  0  0  0  0  0  0  0  0  0  0  # atno 17370 bound_to 10713
  157.7491  131.0077  150.3201 LP  0  0  0  0  0  0  0  0  0  0  0  0  # atno 17371 bound_to 10713
  140.2448  134.8586  157.3609 LP  0  0  0  0  0  0  0  0  0  0  0  0  # atno 17394 bound_to 11000
  140.1761  134.4548  155.7801 LP  0  0  0  0  0  0  0  0  0  0  0  0  # atno 17395 bound_to 11000

$$$$
