AV-unprocessed.smi:2775|AV-procd|sdf|10698|dock4
  -GOLD-   2272015133D 1   1.00000     0.00000
 Structure written by MMmdl.
 43 46  0  0  0  0  0  0  0  0  2 V2000
  148.8247  130.1010  153.3090 C   0  0  0  0  0  0  0  0  0  0  0  0
  149.3418  131.2216  154.1906 C   0  0  0  0  0  0  0  0  0  0  0  0
  150.0257  130.8804  155.3048 N   0  3  0  0  0  0  0  0  0  0  0  0
  150.5275  131.7892  156.1664 C   0  0  0  0  0  0  0  0  0  0  0  0
  150.3528  133.1647  155.9187 C   0  0  0  0  0  0  0  0  0  0  0  0
  149.6552  133.5797  154.7558 C   0  0  0  0  0  0  0  0  0  0  0  0
  149.4168  134.9424  154.4251 N   0  0  0  0  0  0  0  0  0  0  0  0
  149.3895  136.0289  155.2208 C   0  0  0  0  0  0  0  0  0  0  0  0
  149.5690  136.0161  156.4363 O   0  0  0  0  0  0  0  0  0  0  0  0
  149.1511  137.1764  154.5621 N   0  0  0  0  0  0  0  0  0  0  0  0
  149.0590  138.5222  155.1308 C   0  0  2  0  0  0  0  0  0  0  0  0
  148.6948  139.5828  154.0750 C   0  0  1  0  0  0  0  0  0  0  0  0
  147.4002  140.3414  154.1926 C   0  0  0  0  0  0  0  0  0  0  0  0
  147.8301  141.6498  154.8615 C   0  0  0  0  0  0  0  0  0  0  0  0
  149.0523  141.3307  155.5225 O   0  0  0  0  0  0  0  0  0  0  0  0
  149.7897  140.4654  154.6643 C   0  0  1  0  0  0  0  0  0  0  0  0
  150.4125  139.2356  155.3361 C   0  0  0  0  0  0  0  0  0  0  0  0
  151.7475  138.6699  154.8148 C   0  0  0  0  0  0  0  0  0  0  0  0
  152.1258  138.3340  156.2599 C   0  0  0  0  0  0  0  0  0  0  0  0
  151.0606  139.3317  156.7244 C   0  0  0  0  0  0  0  0  0  0  0  0
  149.1329  132.5879  153.8889 C   0  0  0  0  0  0  0  0  0  0  0  0
  148.2491  133.0386  152.4687 Cl  0  0  0  0  0  0  0  0  0  0  0  0
  149.2273  130.1953  152.3000 H   0  0  0  0  0  0  0  0  0  0  0  0
  147.7364  130.1359  153.2507 H   0  0  0  0  0  0  0  0  0  0  0  0
  149.1122  129.1230  153.6971 H   0  0  0  0  0  0  0  0  0  0  0  0
  151.0473  131.3916  157.0261 H   0  0  0  0  0  0  0  0  0  0  0  0
  150.7488  133.8692  156.6329 H   0  0  0  0  0  0  0  0  0  0  0  0
  149.3089  135.1280  153.4384 H   0  0  0  0  0  0  0  0  0  0  0  0
  149.0103  137.1076  153.5643 H   0  0  0  0  0  0  0  0  0  0  0  0
  148.4154  138.6017  156.0097 H   0  0  0  0  0  0  0  0  0  0  0  0
  148.9463  139.2678  153.0605 H   0  0  0  0  0  0  0  0  0  0  0  0
  146.9281  140.5203  153.2262 H   0  0  0  0  0  0  0  0  0  0  0  0
  146.6884  139.8024  154.8185 H   0  0  0  0  0  0  0  0  0  0  0  0
  148.0230  142.4180  154.1111 H   0  0  0  0  0  0  0  0  0  0  0  0
  147.0838  142.0323  155.5577 H   0  0  0  0  0  0  0  0  0  0  0  0
  150.4010  140.9800  153.9217 H   0  0  0  0  0  0  0  0  0  0  0  0
  151.6791  137.8082  154.1510 H   0  0  0  0  0  0  0  0  0  0  0  0
  152.3906  139.4421  154.3903 H   0  0  0  0  0  0  0  0  0  0  0  0
  151.8911  137.3044  156.5309 H   0  0  0  0  0  0  0  0  0  0  0  0
  153.1469  138.6001  156.5346 H   0  0  0  0  0  0  0  0  0  0  0  0
  151.4726  140.3212  156.9281 H   0  0  0  0  0  0  0  0  0  0  0  0
  150.4368  138.9785  157.5457 H   0  0  0  0  0  0  0  0  0  0  0  0
  150.1654  129.8901  155.5064 H   0  0  0  0  0  0  0  0  0  0  0  0
  1  2  1  0  0  0  0
  1 23  1  0  0  0  0
  1 24  1  0  0  0  0
  1 25  1  0  0  0  0
  2 21  1  0  0  0  0
  2  3  2  0  0  0  0
  3  4  1  0  0  0  0
  3 43  1  0  0  0  0
  4  5  2  0  0  0  0
  4 26  1  0  0  0  0
  5  6  1  0  0  0  0
  5 27  1  0  0  0  0
  6  7  1  0  0  0  0
  6 21  2  0  0  0  0
  7  8  1  0  0  0  0
  7 28  1  0  0  0  0
  8  9  2  0  0  0  0
  8 10  1  0  0  0  0
 10 11  1  0  0  0  0
 10 29  1  0  0  0  0
 11 17  1  0  0  0  0
 11 12  1  0  0  0  0
 11 30  1  0  0  0  0
 12 16  1  0  0  0  0
 12 13  1  0  0  0  0
 12 31  1  0  0  0  0
 13 14  1  0  0  0  0
 13 32  1  0  0  0  0
 13 33  1  0  0  0  0
 14 15  1  0  0  0  0
 14 34  1  0  0  0  0
 14 35  1  0  0  0  0
 15 16  1  0  0  0  0
 16 17  1  0  0  0  0
 16 36  1  0  0  0  0
 17 20  1  0  0  0  0
 17 18  1  0  0  0  0
 18 19  1  0  0  0  0
 18 37  1  0  0  0  0
 18 38  1  0  0  0  0
 19 20  1  0  0  0  0
 19 39  1  0  0  0  0
 19 40  1  0  0  0  0
 20 41  1  0  0  0  0
 20 42  1  0  0  0  0
 21 22  1  0  0  0  0
M  CHG  1   3   1
M  END
> <s_m_source_file>
AV-unprocessed.smi

> <i_m_source_file_index>
2775

> <i_lp_mmshare_version>
43012

> <i_f3d_flags>
0

> <s_epik_input>
W0NIM11jMW5bY0hdW2NIXWMoYzFDbClbTkhdQyg9TylbTkhdW0NAQEhdMltDQEhdKFtDSDJdW0NIMl1PMylbQ0BASF0zQzI0W0NIMl1bQ0gyXVtDSDJdNA==

> <s_epik_cmdline>
J2VwaWtfcHl0aG9uJywgJy1waCcsICc3LjAnLCAnLXRuJywgJzgnLCAnLW1hJywgJzIwMCcsICctbWV0YWxfYmluZGluZycsICctaW1hZScsICc8aW5maWxlLm1hZT4nLCAnLW9tYWUnLCAnPG91dGZpbGUubWFlPic=

> <r_epik_Ionization_Penalty>
2.4104

> <r_epik_Ionization_Penalty_Charging>
2.41038

> <r_epik_Ionization_Penalty_Neutral>
1.9872e-05

> <r_epik_State_Penalty>
2.56896

> <r_epik_Charging_Adjusted_Penalty>
4.97934

> <i_epik_Tot_Q>
1

> <i_epik_Tot_abs_Q>
1

> <r_epik_Metal_State_Penalty>
2.57906

> <b_epik_Metal_Only>
0

> <s_lp_Force_Field>
OPLS_2005

> <r_lp_Energy>
60.4392

> <b_lp_Chiralities_Consistent>
1

> <s_lp_Variant>
AV-unprocessed.smi:2775-11

> <Gold.Version>
5.8.1

> <Gold.Id.Protein>
6NUR|6NUR_protein|mol2

> <Gold.PLP.Fitness>
42.6156

> <Gold.PLP.PLP>
-37.3031

> <Gold.PLP.part.hbond>
-2.0000

> <Gold.PLP.part.metal>
0.0000

> <Gold.PLP.part.buried>
-1.4443

> <Gold.PLP.part.nonpolar>
-33.4536

> <Gold.PLP.part.repulsive>
0.1680

> <Gold.PLP.ligand.clash>
0.0000

> <Gold.PLP.ligand.torsion>
0.2904

> <Gold.PLP.Chemscore.Hbond>
1.9000

> <Gold.PLP.Chemscore.CHOScore>
0.0000

> <Gold.PLP.Chemscore.Metal>
0.0000

> <Gold.Chemscore.Hbonds>
donor molecule, donor type, donor heavy atom, donor atom, acceptor molecule, acceptor atom, score
      L1  H     7    28       P1  7948  0.80
      L1  H    10    29       P1  7948  1.00

> <Gold.PLP.Chemscore.Internal.Correction>
0.1933

> <Gold.Rescore>
     Score         DG    S(hbond)    S(metal)    S(lipo)     H(rot)  DE(clash)    DE(int)     intcor
     16.49     -17.39       1.02        0.00      94.62       1.00       0.36       0.53       ----

> <Gold.Chemscore.Fitness>
16.4949

> <Gold.Chemscore.DG>
-17.3881

> <Gold.Chemscore.ZeroCoef>
-5.4800

> <Gold.Chemscore.Hbond>
1.0172

> <Gold.Chemscore.Metal>
0.0000

> <Gold.Chemscore.Lipo>
94.6211

> <Gold.Chemscore.Internal_Hbond>
0.0000

> <Gold.Chemscore.DEClash>
0.3642

> <Gold.Chemscore.DEInternal>
0.5290

> <Gold.Chemscore.Rot>
1.0000

> <Gold.Chemscore.Internal.Correction>
   9.000000E+99

> <Gold.Chemscore.Hbonds>
donor molecule, donor type, donor heavy atom, donor atom, acceptor molecule, acceptor atom, score
      L1  H     7    28       P1  7948  0.12
      L1  H    10    29       P1  7948  0.98

> <Gold.Chemscore.Hbond.Weighted>
-3.3974

> <Gold.Chemscore.Metal.Weighted>
-0.0000

> <Gold.Chemscore.Lipo.Weighted>
-11.0707

> <Gold.Chemscore.Internal_Hbond.Weighted>
0.0000

> <Gold.Chemscore.DEClash.Weighted>
0.3642

> <Gold.Chemscore.DEInternal.Weighted>
0.5290

> <Gold.Chemscore.Rot.Weighted>
2.5600

> <Gold.Chemscore.Internal.Correction.Weighted>
   9.000000E+99

> <Gold.Protein.RotatedTorsions>
[ 6907 6896 6895 6894 ] final   89.75 input  -60.11 | X-H torsion
[ 7974 7965 7964 7962 ] final -133.48 input  175.53 | X-H torsion
[ 8008 7997 7996 7995 ] final  166.78 input   59.86 | X-H torsion
[ 10167 10162 10161 10158 ] final  106.23 input  -65.29 | X-H torsion
[ 10718 10713 10712 10709 ] final   20.19 input   66.30 | X-H torsion
[ 10763 10752 10751 10750 ] final -119.34 input  -60.55 | X-H torsion
[ 11005 11000 10999 10996 ] final -103.88 input  -57.11 | X-H torsion

> <Gold.Protein.ActiveResidues>
 VAL166  LYS551  ARG553  GLY616  TRP617  ASP618  TYR619  PRO620  LYS621  CYS622 
 ASP623  PHE694  ASN695  SER759  ASP760  ASP761  ALA762  ILE779  LEU786  VAL792 
 PHE793  MET794  SER795  GLU796  ALA797  LYS798  CYS799  TRP800  GLU811  SER814 

> <Gold.Protein.RotatedAtoms>
  152.5439  134.1918  159.8676 H   0  0  0  0  0  0  0  0  0  0  0  0  # atno 6907 bound_to 6896
  151.1913  133.4659  159.2602 H   0  0  0  0  0  0  0  0  0  0  0  0  # atno 6908 bound_to 6896
  151.1080  135.0023  159.8536 H   0  0  0  0  0  0  0  0  0  0  0  0  # atno 6909 bound_to 6896
  144.9190  140.6990  143.4977 H   0  0  0  0  0  0  0  0  0  0  0  0  # atno 7974 bound_to 7965
  156.1689  140.1634  156.8482 H   0  0  0  0  0  0  0  0  0  0  0  0  # atno 8008 bound_to 7997
  154.5236  140.0772  156.8253 H   0  0  0  0  0  0  0  0  0  0  0  0  # atno 8009 bound_to 7997
  155.3553  140.3392  155.4242 H   0  0  0  0  0  0  0  0  0  0  0  0  # atno 8010 bound_to 7997
  139.7026  144.7091  151.1160 H   0  0  0  0  0  0  0  0  0  0  0  0  # atno 10167 bound_to 10162
  157.1210  130.6549  149.5924 H   0  0  0  0  0  0  0  0  0  0  0  0  # atno 10718 bound_to 10713
  154.8614  135.4242  154.2283 H   0  0  0  0  0  0  0  0  0  0  0  0  # atno 10763 bound_to 10752
  153.3274  135.6986  153.6983 H   0  0  0  0  0  0  0  0  0  0  0  0  # atno 10764 bound_to 10752
  153.6014  135.3536  155.2920 H   0  0  0  0  0  0  0  0  0  0  0  0  # atno 10765 bound_to 10752
  141.1126  133.8677  157.1541 H   0  0  0  0  0  0  0  0  0  0  0  0  # atno 11005 bound_to 11000
  145.3328  139.1754  143.4527 LP  0  0  0  0  0  0  0  0  0  0  0  0  # atno 17320 bound_to 7965
  146.3195  140.3360  142.8644 LP  0  0  0  0  0  0  0  0  0  0  0  0  # atno 17321 bound_to 7965
  140.7713  143.5403  150.9321 LP  0  0  0  0  0  0  0  0  0  0  0  0  # atno 17342 bound_to 10162
  139.9085  143.6749  152.3119 LP  0  0  0  0  0  0  0  0  0  0  0  0  # atno 17343 bound_to 10162
  155.9828  130.4844  150.6903 LP  0  0  0  0  0  0  0  0  0  0  0  0  # atno 17370 bound_to 10713
  157.4476  131.0869  151.0879 LP  0  0  0  0  0  0  0  0  0  0  0  0  # atno 17371 bound_to 10713
  140.0028  135.0021  157.0227 LP  0  0  0  0  0  0  0  0  0  0  0  0  # atno 17394 bound_to 11000
  140.4734  134.1363  155.7206 LP  0  0  0  0  0  0  0  0  0  0  0  0  # atno 17395 bound_to 11000

$$$$
