AV-unprocessed.smi:1592|AV-procd|sdf|6403|dock1
  -GOLD-   22720 7 43D 1   1.00000     0.00000
 Structure written by MMmdl.
 27 28  0  0  0  0  0  0  0  0  3 V2000
  151.7048  141.0873  158.9389 O   0  0  0  0  0  0  0  0  0  0  0  0
  151.9169  142.1570  158.3649 C   0  0  0  0  0  0  0  0  0  0  0  0
  151.5164  142.4460  157.1128 N   0  0  0  0  0  0  0  0  0  0  0  0
  150.8056  141.6256  156.1929 C   0  0  0  0  0  0  0  0  0  0  0  0
  149.6795  142.0506  155.5668 N   0  3  0  0  0  0  0  0  0  0  0  0
  148.9832  141.2979  154.6880 C   0  0  0  0  0  0  0  0  0  0  0  0
  149.4206  139.9953  154.3815 C   0  0  0  0  0  0  0  0  0  0  0  0
  150.5848  139.5028  155.0036 C   0  0  0  0  0  0  0  0  0  0  0  0
  151.2838  140.3217  155.9158 C   0  0  0  0  0  0  0  0  0  0  0  0
  152.4130  139.8423  156.5192 O   0  5  0  0  0  0  0  0  0  0  0  0
  152.6711  143.2752  159.0930 C   0  0  2  0  0  0  0  0  0  0  0  0
  153.0480  142.9346  160.5475 C   0  0  0  0  0  0  0  0  0  0  0  0
  152.1896  143.8728  161.3741 C   0  0  0  0  0  0  0  0  0  0  0  0
  152.0020  145.0473  160.4251 C   0  0  0  0  0  0  0  0  0  0  0  0
  151.8127  144.4113  159.1714 O   0  0  0  0  0  0  0  0  0  0  0  0
  151.7518  143.3653  156.7663 H   0  0  0  0  0  0  0  0  0  0  0  0
  148.1045  141.7581  154.2606 H   0  0  0  0  0  0  0  0  0  0  0  0
  148.8734  139.3826  153.6804 H   0  0  0  0  0  0  0  0  0  0  0  0
  150.9372  138.5060  154.7818 H   0  0  0  0  0  0  0  0  0  0  0  0
  149.3425  142.9919  155.7718 H   0  0  0  0  0  0  0  0  0  0  0  0
  153.5699  143.5501  158.5380 H   0  0  0  0  0  0  0  0  0  0  0  0
  152.8864  141.8905  160.8195 H   0  0  0  0  0  0  0  0  0  0  0  0
  154.1039  143.1525  160.7130 H   0  0  0  0  0  0  0  0  0  0  0  0
  151.2256  143.4087  161.5871 H   0  0  0  0  0  0  0  0  0  0  0  0
  152.6516  144.1560  162.3203 H   0  0  0  0  0  0  0  0  0  0  0  0
  151.1515  145.6754  160.6909 H   0  0  0  0  0  0  0  0  0  0  0  0
  152.8973  145.6699  160.3901 H   0  0  0  0  0  0  0  0  0  0  0  0
  1  2  2  0  0  0  0
  2  3  1  0  0  0  0
  2 11  1  0  0  0  0
  3 16  1  0  0  0  0
  3  4  1  0  0  0  0
  4  9  2  0  0  0  0
  4  5  1  0  0  0  0
  5 20  1  0  0  0  0
  5  6  2  0  0  0  0
  6 17  1  0  0  0  0
  6  7  1  0  0  0  0
  7 18  1  0  0  0  0
  7  8  2  0  0  0  0
  8  9  1  0  0  0  0
  8 19  1  0  0  0  0
  9 10  1  0  0  0  0
 11 15  1  0  0  0  0
 11 12  1  0  0  0  0
 11 21  1  0  0  0  0
 12 13  1  0  0  0  0
 12 22  1  0  0  0  0
 12 23  1  0  0  0  0
 13 14  1  0  0  0  0
 13 24  1  0  0  0  0
 13 25  1  0  0  0  0
 14 15  1  0  0  0  0
 14 26  1  0  0  0  0
 14 27  1  0  0  0  0
M  CHG  1   5   1
M  CHG  1  10  -1
M  END
> <s_m_source_file>
AV-unprocessed.smi

> <i_m_source_file_index>
1592

> <i_lp_mmshare_version>
43012

> <i_f3d_flags>
0

> <s_epik_input>
TzFbQ0gyXVtDSDJdW0NIMl1bQ0BIXTFDKD1PKVtOSF1jMm5bY0hdW2NIXVtjSF1jMltPSF0=

> <s_epik_cmdline>
J2VwaWtfcHl0aG9uJywgJy1waCcsICc3LjAnLCAnLXRuJywgJzgnLCAnLW1hJywgJzIwMCcsICctbWV0YWxfYmluZGluZycsICctaW1hZScsICc8aW5maWxlLm1hZT4nLCAnLW9tYWUnLCAnPG91dGZpbGUubWFlPic=

> <r_lp_tautomer_probability>
0.56342

> <r_epik_Ionization_Penalty>
0.215537

> <r_epik_Ionization_Penalty_Charging>
0.025819

> <r_epik_Ionization_Penalty_Neutral>
0.189718

> <r_epik_State_Penalty>
0.544343

> <r_epik_Charging_Adjusted_Penalty>
0.570162

> <i_epik_Tot_Q>
0

> <i_epik_Tot_abs_Q>
2

> <r_epik_Metal_State_Penalty>
2.6192

> <b_epik_Metal_Only>
0

> <s_lp_Force_Field>
OPLS_2005

> <r_lp_Energy>
19.357

> <b_lp_Chiralities_Consistent>
1

> <s_lp_Variant>
AV-unprocessed.smi:1592-3

> <Gold.Version>
5.8.1

> <Gold.Id.Protein>
6NUR|6NUR_protein|mol2

> <Gold.PLP.Fitness>
47.1001

> <Gold.PLP.PLP>
-35.5597

> <Gold.PLP.part.hbond>
-2.0000

> <Gold.PLP.part.metal>
0.0000

> <Gold.PLP.part.buried>
-2.8538

> <Gold.PLP.part.nonpolar>
-29.8818

> <Gold.PLP.part.repulsive>
0.2773

> <Gold.PLP.ligand.clash>
0.0000

> <Gold.PLP.ligand.torsion>
0.4692

> <Gold.PLP.Chemscore.Hbond>
4.0000

> <Gold.PLP.Chemscore.CHOScore>
0.0000

> <Gold.PLP.Chemscore.Metal>
0.0000

> <Gold.Chemscore.Hbonds>
donor molecule, donor type, donor heavy atom, donor atom, acceptor molecule, acceptor atom, score
      L1  H     5    20       P1  8028  2.00
      P1  H  7997  8010       L1    10  2.00

> <Gold.PLP.Chemscore.Internal.Correction>
0.4787

> <Gold.Rescore>
     Score         DG    S(hbond)    S(metal)    S(lipo)     H(rot)  DE(clash)    DE(int)     intcor
     16.93     -18.72       1.98        0.00      78.51       1.00       1.13       0.66       ----

> <Gold.Chemscore.Fitness>
16.9277

> <Gold.Chemscore.DG>
-18.7171

> <Gold.Chemscore.ZeroCoef>
-5.4800

> <Gold.Chemscore.Hbond>
1.9795

> <Gold.Chemscore.Metal>
0.0000

> <Gold.Chemscore.Lipo>
78.5101

> <Gold.Chemscore.Internal_Hbond>
0.0000

> <Gold.Chemscore.DEClash>
1.1254

> <Gold.Chemscore.DEInternal>
0.6640

> <Gold.Chemscore.Rot>
1.0000

> <Gold.Chemscore.Internal.Correction>
   9.000000E+99

> <Gold.Chemscore.Hbonds>
donor molecule, donor type, donor heavy atom, donor atom, acceptor molecule, acceptor atom, score
      L1  H     5    20       P1  8028  1.00
      P1  H  7997  8010       L1    10  0.99

> <Gold.Chemscore.Hbond.Weighted>
-6.6114

> <Gold.Chemscore.Metal.Weighted>
-0.0000

> <Gold.Chemscore.Lipo.Weighted>
-9.1857

> <Gold.Chemscore.Internal_Hbond.Weighted>
0.0000

> <Gold.Chemscore.DEClash.Weighted>
1.1254

> <Gold.Chemscore.DEInternal.Weighted>
0.6640

> <Gold.Chemscore.Rot.Weighted>
2.5600

> <Gold.Chemscore.Internal.Correction.Weighted>
   9.000000E+99

> <Gold.Protein.RotatedTorsions>
[ 6907 6896 6895 6894 ] final  -94.45 input  -60.11 | X-H torsion
[ 7974 7965 7964 7962 ] final -125.95 input  175.53 | X-H torsion
[ 8008 7997 7996 7995 ] final   68.94 input   59.86 | X-H torsion
[ 10167 10162 10161 10158 ] final  132.70 input  -65.29 | X-H torsion
[ 10718 10713 10712 10709 ] final -141.87 input   66.30 | X-H torsion
[ 10763 10752 10751 10750 ] final    6.03 input  -60.55 | X-H torsion
[ 11005 11000 10999 10996 ] final   78.92 input  -57.11 | X-H torsion

> <Gold.Protein.ActiveResidues>
 VAL166  LYS551  ARG553  GLY616  TRP617  ASP618  TYR619  PRO620  LYS621  CYS622 
 ASP623  PHE694  ASN695  SER759  ASP760  ASP761  ALA762  ILE779  LEU786  VAL792 
 PHE793  MET794  SER795  GLU796  ALA797  LYS798  CYS799  TRP800  GLU811  SER814 

> <Gold.Protein.RotatedAtoms>
  150.6942  134.1810  159.4248 H   0  0  0  0  0  0  0  0  0  0  0  0  # atno 6907 bound_to 6896
  151.9784  135.0038  160.0565 H   0  0  0  0  0  0  0  0  0  0  0  0  # atno 6908 bound_to 6896
  152.1777  133.4651  159.4979 H   0  0  0  0  0  0  0  0  0  0  0  0  # atno 6909 bound_to 6896
  144.9923  140.7744  143.4546 H   0  0  0  0  0  0  0  0  0  0  0  0  # atno 7974 bound_to 7965
  155.7160  140.3494  155.4995 H   0  0  0  0  0  0  0  0  0  0  0  0  # atno 8008 bound_to 7997
  155.9312  140.1084  157.1152 H   0  0  0  0  0  0  0  0  0  0  0  0  # atno 8009 bound_to 7997
  154.4086  140.1230  156.4792 H   0  0  0  0  0  0  0  0  0  0  0  0  # atno 8010 bound_to 7997
  139.5328  144.6650  151.4889 H   0  0  0  0  0  0  0  0  0  0  0  0  # atno 10167 bound_to 10162
  156.3392  130.7628  151.1761 H   0  0  0  0  0  0  0  0  0  0  0  0  # atno 10718 bound_to 10713
  153.2524  135.6915  153.7665 H   0  0  0  0  0  0  0  0  0  0  0  0  # atno 10763 bound_to 10752
  153.6754  135.3337  155.3165 H   0  0  0  0  0  0  0  0  0  0  0  0  # atno 10764 bound_to 10752
  154.8399  135.4510  154.1486 H   0  0  0  0  0  0  0  0  0  0  0  0  # atno 10765 bound_to 10752
  139.9193  134.7802  156.1712 H   0  0  0  0  0  0  0  0  0  0  0  0  # atno 11005 bound_to 11000
  145.2268  139.2133  143.5064 LP  0  0  0  0  0  0  0  0  0  0  0  0  # atno 17320 bound_to 7965
  146.3434  140.2137  142.8590 LP  0  0  0  0  0  0  0  0  0  0  0  0  # atno 17321 bound_to 7965
  140.6517  143.8682  150.6793 LP  0  0  0  0  0  0  0  0  0  0  0  0  # atno 17342 bound_to 10162
  140.2049  143.3930  152.1763 LP  0  0  0  0  0  0  0  0  0  0  0  0  # atno 17343 bound_to 10162
  157.7444  131.0459  150.4868 LP  0  0  0  0  0  0  0  0  0  0  0  0  # atno 17370 bound_to 10713
  156.5045  130.4125  149.6334 LP  0  0  0  0  0  0  0  0  0  0  0  0  # atno 17371 bound_to 10713
  141.0699  133.6801  156.2119 LP  0  0  0  0  0  0  0  0  0  0  0  0  # atno 17394 bound_to 11000
  140.6524  134.5053  157.5578 LP  0  0  0  0  0  0  0  0  0  0  0  0  # atno 17395 bound_to 11000

$$$$
