AV-unprocessed.smi:748|AV-procd|sdf|3582|dock10
  -GOLD-   22720 0573D 1   1.00000     0.00000
 Structure written by MMmdl.
 50 51  0  0  0  0  0  0  0  0  1 V2000
  144.0824  134.2073  152.3664 C   0  0  0  0  0  0  0  0  0  0  0  0
  145.1710  134.8680  151.5050 C   0  0  0  0  0  0  0  0  0  0  0  0
  146.3082  133.8887  151.1841 C   0  0  0  0  0  0  0  0  0  0  0  0
  145.7192  136.0423  152.1777 N   0  0  0  0  0  0  0  0  0  0  0  0
  145.0085  136.9495  152.8663 C   0  0  0  0  0  0  0  0  0  0  0  0
  143.7876  136.8860  153.0099 O   0  0  0  0  0  0  0  0  0  0  0  0
  145.7966  138.1072  153.4832 C   0  0  0  0  0  0  0  0  0  0  0  0
  146.9218  138.6063  152.5583 C   0  0  0  0  0  0  0  0  0  0  0  0
  148.1737  138.7648  153.2884 N   0  0  0  0  0  0  0  0  0  0  0  0
  148.4265  139.7296  154.1877 C   0  0  0  0  0  0  0  0  0  0  0  0
  147.6168  140.6081  154.4859 O   0  0  0  0  0  0  0  0  0  0  0  0
  149.8095  139.7225  154.7761 C   0  0  0  0  0  0  0  0  0  0  0  0
  150.7487  138.7210  154.4432 C   0  0  0  0  0  0  0  0  0  0  0  0
  152.0165  138.7619  155.0510 C   0  0  0  0  0  0  0  0  0  0  0  0
  152.3814  139.7073  155.9408 N   0  0  0  0  0  0  0  0  0  0  0  0
  151.4902  140.6721  156.2768 C   0  0  0  0  0  0  0  0  0  0  0  0
  151.8857  141.6477  157.2183 N   0  0  0  0  0  0  0  0  0  0  0  0
  151.0505  142.8378  157.3692 C   0  0  0  0  0  0  0  0  0  0  0  0
  151.7906  143.9103  158.1851 C   0  0  0  0  0  0  0  0  0  0  0  0
  152.2045  143.3629  159.4325 O   0  0  0  0  0  0  0  0  0  0  0  0
  153.1085  142.2739  159.2665 C   0  0  1  0  0  0  0  0  0  0  0  0
  153.5692  141.8151  160.6538 C   0  0  0  0  0  0  0  0  0  0  0  0
  152.4075  141.1445  158.4866 C   0  0  0  0  0  0  0  0  0  0  0  0
  150.1903  140.7053  155.7168 C   0  0  0  0  0  0  0  0  0  0  0  0
  143.6719  133.3276  151.8699 H   0  0  0  0  0  0  0  0  0  0  0  0
  143.2539  134.8909  152.5544 H   0  0  0  0  0  0  0  0  0  0  0  0
  144.4778  133.8899  153.3318 H   0  0  0  0  0  0  0  0  0  0  0  0
  144.7243  135.1811  150.5595 H   0  0  0  0  0  0  0  0  0  0  0  0
  145.9332  133.0140  150.6523 H   0  0  0  0  0  0  0  0  0  0  0  0
  146.8005  133.5392  152.0926 H   0  0  0  0  0  0  0  0  0  0  0  0
  147.0651  134.3566  150.5536 H   0  0  0  0  0  0  0  0  0  0  0  0
  146.7176  136.1774  152.1100 H   0  0  0  0  0  0  0  0  0  0  0  0
  145.1189  138.9303  153.7158 H   0  0  0  0  0  0  0  0  0  0  0  0
  146.2130  137.7686  154.4327 H   0  0  0  0  0  0  0  0  0  0  0  0
  147.0635  137.9292  151.7135 H   0  0  0  0  0  0  0  0  0  0  0  0
  146.6563  139.5762  152.1360 H   0  0  0  0  0  0  0  0  0  0  0  0
  148.9068  138.0991  153.0912 H   0  0  0  0  0  0  0  0  0  0  0  0
  150.5139  137.9301  153.7459 H   0  0  0  0  0  0  0  0  0  0  0  0
  152.7577  138.0115  154.8193 H   0  0  0  0  0  0  0  0  0  0  0  0
  150.7893  143.2461  156.3919 H   0  0  0  0  0  0  0  0  0  0  0  0
  150.1203  142.5641  157.8690 H   0  0  0  0  0  0  0  0  0  0  0  0
  152.6546  144.2891  157.6367 H   0  0  0  0  0  0  0  0  0  0  0  0
  151.1340  144.7605  158.3701 H   0  0  0  0  0  0  0  0  0  0  0  0
  153.9816  142.6167  158.7081 H   0  0  0  0  0  0  0  0  0  0  0  0
  154.2715  140.9847  160.5792 H   0  0  0  0  0  0  0  0  0  0  0  0
  152.7254  141.4869  161.2615 H   0  0  0  0  0  0  0  0  0  0  0  0
  154.0680  142.6256  161.1857 H   0  0  0  0  0  0  0  0  0  0  0  0
  151.5781  140.7431  159.0704 H   0  0  0  0  0  0  0  0  0  0  0  0
  153.1124  140.3279  158.3386 H   0  0  0  0  0  0  0  0  0  0  0  0
  149.4818  141.4648  156.0132 H   0  0  0  0  0  0  0  0  0  0  0  0
  1  2  1  0  0  0  0
  1 25  1  0  0  0  0
  1 26  1  0  0  0  0
  1 27  1  0  0  0  0
  2  3  1  0  0  0  0
  2  4  1  0  0  0  0
  2 28  1  0  0  0  0
  3 29  1  0  0  0  0
  3 30  1  0  0  0  0
  3 31  1  0  0  0  0
  4  5  1  0  0  0  0
  4 32  1  0  0  0  0
  5  6  2  0  0  0  0
  5  7  1  0  0  0  0
  7  8  1  0  0  0  0
  7 33  1  0  0  0  0
  7 34  1  0  0  0  0
  8  9  1  0  0  0  0
  8 35  1  0  0  0  0
  8 36  1  0  0  0  0
  9 10  1  0  0  0  0
  9 37  1  0  0  0  0
 10 11  2  0  0  0  0
 10 12  1  0  0  0  0
 12 24  1  0  0  0  0
 12 13  2  0  0  0  0
 13 14  1  0  0  0  0
 13 38  1  0  0  0  0
 14 15  2  0  0  0  0
 14 39  1  0  0  0  0
 15 16  1  0  0  0  0
 16 17  1  0  0  0  0
 16 24  2  0  0  0  0
 17 23  1  0  0  0  0
 17 18  1  0  0  0  0
 18 19  1  0  0  0  0
 18 40  1  0  0  0  0
 18 41  1  0  0  0  0
 19 20  1  0  0  0  0
 19 42  1  0  0  0  0
 19 43  1  0  0  0  0
 20 21  1  0  0  0  0
 21 22  1  0  0  0  0
 21 23  1  0  0  0  0
 21 44  1  0  0  0  0
 22 45  1  0  0  0  0
 22 46  1  0  0  0  0
 22 47  1  0  0  0  0
 23 48  1  0  0  0  0
 23 49  1  0  0  0  0
 24 50  1  0  0  0  0
M  END
> <s_m_source_file>
AV-unprocessed.smi

> <i_m_source_file_index>
748

> <i_lp_mmshare_version>
43012

> <i_f3d_flags>
0

> <s_epik_input>
W0NIM11bQ0hdKFtDSDNdKVtOSF1DKD1PKVtDSDJdW0NIMl1bTkhdQyg9TyljMVtjSF1bY0hdbmMoW2NIXTEpTjJbQ0gyXVtDSDJdT1tDQEBIXShbQ0gzXSlbQ0gyXTI=

> <s_epik_cmdline>
J2VwaWtfcHl0aG9uJywgJy1waCcsICc3LjAnLCAnLXRuJywgJzgnLCAnLW1hJywgJzIwMCcsICctbWV0YWxfYmluZGluZycsICctaW1hZScsICc8aW5maWxlLm1hZT4nLCAnLW9tYWUnLCAnPG91dGZpbGUubWFlPic=

> <r_lp_tautomer_probability>
1

> <r_epik_Ionization_Penalty>
1.38678e-05

> <r_epik_Ionization_Penalty_Charging>
0

> <r_epik_Ionization_Penalty_Neutral>
1.38678e-05

> <r_epik_State_Penalty>
-0

> <r_epik_Charging_Adjusted_Penalty>
0

> <i_epik_Tot_Q>
0

> <i_epik_Tot_abs_Q>
0

> <r_epik_Metal_State_Penalty>
-0

> <b_epik_Metal_Only>
0

> <s_lp_Force_Field>
OPLS_2005

> <r_lp_Energy>
16.8499

> <b_lp_Chiralities_Consistent>
1

> <s_lp_Variant>
AV-unprocessed.smi:748-1

> <Gold.Version>
5.8.1

> <Gold.Id.Protein>
6NUR|6NUR_protein|mol2

> <Gold.PLP.Fitness>
51.8425

> <Gold.PLP.PLP>
-46.2740

> <Gold.PLP.part.hbond>
-3.8894

> <Gold.PLP.part.metal>
0.0000

> <Gold.PLP.part.buried>
-2.4537

> <Gold.PLP.part.nonpolar>
-40.2698

> <Gold.PLP.part.repulsive>
0.4113

> <Gold.PLP.ligand.clash>
0.0000

> <Gold.PLP.ligand.torsion>
1.1249

> <Gold.PLP.Chemscore.Hbond>
2.4539

> <Gold.PLP.Chemscore.CHOScore>
0.0000

> <Gold.PLP.Chemscore.Metal>
0.0000

> <Gold.Chemscore.Hbonds>
donor molecule, donor type, donor heavy atom, donor atom, acceptor molecule, acceptor atom, score
      L1  H     4    32       P1  7948  0.50
      L1  H     9    37       P1  7948  0.36
      P1  H  7997  8009       L1    15  1.00

> <Gold.PLP.Chemscore.Internal.Correction>
0.4568

> <Gold.Rescore>
     Score         DG    S(hbond)    S(metal)    S(lipo)     H(rot)  DE(clash)    DE(int)     intcor
     17.84     -21.46       2.40        0.00     108.83       1.87       1.57       2.05       ----

> <Gold.Chemscore.Fitness>
17.8371

> <Gold.Chemscore.DG>
-21.4561

> <Gold.Chemscore.ZeroCoef>
-5.4800

> <Gold.Chemscore.Hbond>
2.4036

> <Gold.Chemscore.Metal>
0.0000

> <Gold.Chemscore.Lipo>
108.8308

> <Gold.Chemscore.Internal_Hbond>
0.0000

> <Gold.Chemscore.DEClash>
1.5691

> <Gold.Chemscore.DEInternal>
2.0499

> <Gold.Chemscore.Rot>
1.8692

> <Gold.Chemscore.Internal.Correction>
   9.000000E+99

> <Gold.Chemscore.Hbonds>
donor molecule, donor type, donor heavy atom, donor atom, acceptor molecule, acceptor atom, score
      L1  H     4    32       P1  7948  0.50
      L1  H     9    37       P1  7948  0.36
      P1  H  7997  8009       L1    15  0.85

> <Gold.Chemscore.Hbond.Weighted>
-8.0280

> <Gold.Chemscore.Metal.Weighted>
-0.0000

> <Gold.Chemscore.Lipo.Weighted>
-12.7332

> <Gold.Chemscore.Internal_Hbond.Weighted>
0.0000

> <Gold.Chemscore.DEClash.Weighted>
1.5691

> <Gold.Chemscore.DEInternal.Weighted>
2.0499

> <Gold.Chemscore.Rot.Weighted>
4.7852

> <Gold.Chemscore.Internal.Correction.Weighted>
   9.000000E+99

> <Gold.Protein.RotatedTorsions>
[ 6907 6896 6895 6894 ] final   81.34 input  -60.11 | X-H torsion
[ 7974 7965 7964 7962 ] final  125.80 input  175.53 | X-H torsion
[ 8008 7997 7996 7995 ] final -152.43 input   59.86 | X-H torsion
[ 10167 10162 10161 10158 ] final  145.24 input  -65.29 | X-H torsion
[ 10718 10713 10712 10709 ] final  -69.30 input   66.30 | X-H torsion
[ 10763 10752 10751 10750 ] final  144.69 input  -60.55 | X-H torsion
[ 11005 11000 10999 10996 ] final  124.98 input  -57.11 | X-H torsion

> <Gold.Protein.ActiveResidues>
 VAL166  LYS551  ARG553  GLY616  TRP617  ASP618  TYR619  PRO620  LYS621  CYS622 
 ASP623  PHE694  ASN695  SER759  ASP760  ASP761  ALA762  ILE779  LEU786  VAL792 
 PHE793  MET794  SER795  GLU796  ALA797  LYS798  CYS799  TRP800  GLU811  SER814 

> <Gold.Protein.RotatedAtoms>
  152.5265  134.3219  159.9151 H   0  0  0  0  0  0  0  0  0  0  0  0  # atno 6907 bound_to 6896
  151.3168  133.4050  159.2659 H   0  0  0  0  0  0  0  0  0  0  0  0  # atno 6908 bound_to 6896
  150.9992  134.9325  159.8002 H   0  0  0  0  0  0  0  0  0  0  0  0  # atno 6909 bound_to 6896
  145.0688  139.3746  143.4968 H   0  0  0  0  0  0  0  0  0  0  0  0  # atno 7974 bound_to 7965
  155.6551  140.0716  157.2573 H   0  0  0  0  0  0  0  0  0  0  0  0  # atno 8008 bound_to 7997
  154.4154  140.1726  156.1766 H   0  0  0  0  0  0  0  0  0  0  0  0  # atno 8009 bound_to 7997
  155.9745  140.3359  155.6609 H   0  0  0  0  0  0  0  0  0  0  0  0  # atno 8010 bound_to 7997
  139.4930  144.5915  151.6670 H   0  0  0  0  0  0  0  0  0  0  0  0  # atno 10167 bound_to 10162
  156.0462  130.4310  150.2127 H   0  0  0  0  0  0  0  0  0  0  0  0  # atno 10718 bound_to 10713
  153.9931  135.2930  155.3410 H   0  0  0  0  0  0  0  0  0  0  0  0  # atno 10763 bound_to 10752
  154.7203  135.5112  153.8805 H   0  0  0  0  0  0  0  0  0  0  0  0  # atno 10764 bound_to 10752
  153.0800  135.6676  154.0181 H   0  0  0  0  0  0  0  0  0  0  0  0  # atno 10765 bound_to 10752
  139.9384  134.9638  156.8490 H   0  0  0  0  0  0  0  0  0  0  0  0  # atno 11005 bound_to 11000
  146.3528  140.0423  142.8642 LP  0  0  0  0  0  0  0  0  0  0  0  0  # atno 17320 bound_to 7965
  145.1317  140.9522  143.4540 LP  0  0  0  0  0  0  0  0  0  0  0  0  # atno 17321 bound_to 7965
  140.5543  144.0373  150.6141 LP  0  0  0  0  0  0  0  0  0  0  0  0  # atno 17342 bound_to 10162
  140.3438  143.3003  152.0560 LP  0  0  0  0  0  0  0  0  0  0  0  0  # atno 17343 bound_to 10162
  157.0216  130.9981  151.3338 LP  0  0  0  0  0  0  0  0  0  0  0  0  # atno 17370 bound_to 10713
  157.5340  130.8077  149.7950 LP  0  0  0  0  0  0  0  0  0  0  0  0  # atno 17371 bound_to 10713
  140.6015  134.0168  155.7539 LP  0  0  0  0  0  0  0  0  0  0  0  0  # atno 17394 bound_to 11000
  141.1008  133.9770  157.3081 LP  0  0  0  0  0  0  0  0  0  0  0  0  # atno 17395 bound_to 11000

$$$$
