AV-unprocessed.smi:17|AV-procd|sdf|100|dock6
  -GOLD-   2262015243D 1   1.00000     0.00000
 Structure written by MMmdl.
 57 59  0  0  0  0  0  0  0  0  1 V2000
  156.5606  140.5475  159.6668 C   0  0  0  0  0  0  0  0  0  0  0  0
  155.9157  139.5028  160.5886 C   0  0  0  0  0  0  0  0  0  0  0  0
  154.7090  138.9118  160.0026 N   0  0  0  0  0  0  0  0  0  0  0  0
  153.6554  139.7224  159.7098 C   0  0  0  0  0  0  0  0  0  0  0  0
  153.7275  141.0284  160.0806 N   0  0  0  0  0  0  0  0  0  0  0  0
  152.7326  141.8730  159.7976 C   0  0  0  0  0  0  0  0  0  0  0  0
  151.5845  141.6264  159.1667 N   0  0  0  0  0  0  0  0  0  0  0  0
  151.4922  140.3144  158.8087 C   0  0  0  0  0  0  0  0  0  0  0  0
  152.4656  139.3011  159.0439 C   0  0  0  0  0  0  0  0  0  0  0  0
  151.9943  138.0842  158.5604 N   0  0  0  0  0  0  0  0  0  0  0  0
  150.8292  138.3673  158.0465 C   0  0  0  0  0  0  0  0  0  0  0  0
  150.4544  139.6869  158.1441 N   0  0  0  0  0  0  0  0  0  0  0  0
  149.2226  140.2838  157.6611 C   0  0  0  0  0  0  0  0  0  0  0  0
  149.2872  140.7373  156.1779 C   0  0  1  0  0  0  0  0  0  0  0  0
  149.4203  139.5398  155.2019 C   0  0  0  0  0  0  0  0  0  0  0  0
  150.2114  139.8613  154.0760 O   0  0  0  0  0  0  0  0  0  0  0  0
  148.0584  141.6148  155.8222 C   0  0  2  0  0  0  0  0  0  0  0  0
  146.7143  141.0344  156.2485 C   0  0  0  0  0  0  0  0  0  0  0  0
  145.7103  141.6244  155.2550 C   0  0  0  0  0  0  0  0  0  0  0  0
  146.4797  142.2726  154.2503 O   0  0  0  0  0  0  0  0  0  0  0  0
  147.8152  141.8034  154.3232 C   0  0  0  0  0  0  0  0  0  0  0  0
  154.6196  137.4699  159.7450 C   0  0  2  0  0  0  0  0  0  0  0  0
  154.6368  136.6703  161.0581 C   0  0  0  0  0  0  0  0  0  0  0  0
  155.6952  136.9699  158.7562 C   0  0  0  0  0  0  0  0  0  0  0  0
  155.3980  135.2389  158.1670 S   0  0  0  0  0  0  0  0  0  0  0  0
  156.8755  134.3386  158.7944 C   0  0  0  0  0  0  0  0  0  0  0  0
  154.2253  134.7123  158.8810 O   0  0  0  0  0  0  0  0  0  0  0  0
  155.4316  135.2103  156.6965 O   0  0  0  0  0  0  0  0  0  0  0  0
  157.4343  140.9933  160.1420 H   0  0  0  0  0  0  0  0  0  0  0  0
  155.8629  141.3520  159.4331 H   0  0  0  0  0  0  0  0  0  0  0  0
  156.8878  140.1031  158.7266 H   0  0  0  0  0  0  0  0  0  0  0  0
  156.6386  138.7257  160.8375 H   0  0  0  0  0  0  0  0  0  0  0  0
  155.6646  139.9831  161.5336 H   0  0  0  0  0  0  0  0  0  0  0  0
  152.8784  142.8928  160.1214 H   0  0  0  0  0  0  0  0  0  0  0  0
  150.2111  137.6179  157.5740 H   0  0  0  0  0  0  0  0  0  0  0  0
  148.4118  139.5677  157.8003 H   0  0  0  0  0  0  0  0  0  0  0  0
  149.0041  141.1272  158.3154 H   0  0  0  0  0  0  0  0  0  0  0  0
  150.1703  141.3666  156.0558 H   0  0  0  0  0  0  0  0  0  0  0  0
  149.8394  138.6701  155.7087 H   0  0  0  0  0  0  0  0  0  0  0  0
  148.4496  139.2363  154.8127 H   0  0  0  0  0  0  0  0  0  0  0  0
  149.7013  139.7108  153.2947 H   0  0  0  0  0  0  0  0  0  0  0  0
  148.1710  142.6008  156.2761 H   0  0  0  0  0  0  0  0  0  0  0  0
  146.7205  139.9474  156.1558 H   0  0  0  0  0  0  0  0  0  0  0  0
  146.4599  141.2798  157.2800 H   0  0  0  0  0  0  0  0  0  0  0  0
  145.0935  140.8421  154.8114 H   0  0  0  0  0  0  0  0  0  0  0  0
  145.0490  142.3494  155.7302 H   0  0  0  0  0  0  0  0  0  0  0  0
  148.4986  142.5195  153.8667 H   0  0  0  0  0  0  0  0  0  0  0  0
  147.8978  140.8562  153.7874 H   0  0  0  0  0  0  0  0  0  0  0  0
  153.6690  137.2452  159.2665 H   0  0  0  0  0  0  0  0  0  0  0  0
  154.4843  135.6074  160.8706 H   0  0  0  0  0  0  0  0  0  0  0  0
  153.8426  137.0012  161.7280 H   0  0  0  0  0  0  0  0  0  0  0  0
  155.5845  136.7791  161.5855 H   0  0  0  0  0  0  0  0  0  0  0  0
  155.8165  137.6235  157.8934 H   0  0  0  0  0  0  0  0  0  0  0  0
  156.6584  136.9519  159.2669 H   0  0  0  0  0  0  0  0  0  0  0  0
  156.7688  133.2770  158.5736 H   0  0  0  0  0  0  0  0  0  0  0  0
  156.9588  134.4754  159.8720 H   0  0  0  0  0  0  0  0  0  0  0  0
  157.7749  134.7103  158.3095 H   0  0  0  0  0  0  0  0  0  0  0  0
  1  2  1  0  0  0  0
  1 29  1  0  0  0  0
  1 30  1  0  0  0  0
  1 31  1  0  0  0  0
  2  3  1  0  0  0  0
  2 32  1  0  0  0  0
  2 33  1  0  0  0  0
  3  4  1  0  0  0  0
  3 22  1  0  0  0  0
  4  9  1  0  0  0  0
  4  5  2  0  0  0  0
  5  6  1  0  0  0  0
  6  7  2  0  0  0  0
  6 34  1  0  0  0  0
  7  8  1  0  0  0  0
  8 12  1  0  0  0  0
  8  9  2  0  0  0  0
  9 10  1  0  0  0  0
 10 11  2  0  0  0  0
 11 12  1  0  0  0  0
 11 35  1  0  0  0  0
 12 13  1  0  0  0  0
 13 14  1  0  0  0  0
 13 36  1  0  0  0  0
 13 37  1  0  0  0  0
 14 15  1  0  0  0  0
 14 17  1  0  0  0  0
 14 38  1  0  0  0  0
 15 16  1  0  0  0  0
 15 39  1  0  0  0  0
 15 40  1  0  0  0  0
 16 41  1  0  0  0  0
 17 21  1  0  0  0  0
 17 18  1  0  0  0  0
 17 42  1  0  0  0  0
 18 19  1  0  0  0  0
 18 43  1  0  0  0  0
 18 44  1  0  0  0  0
 19 20  1  0  0  0  0
 19 45  1  0  0  0  0
 19 46  1  0  0  0  0
 20 21  1  0  0  0  0
 21 47  1  0  0  0  0
 21 48  1  0  0  0  0
 22 23  1  0  0  0  0
 22 24  1  0  0  0  0
 22 49  1  0  0  0  0
 23 50  1  0  0  0  0
 23 51  1  0  0  0  0
 23 52  1  0  0  0  0
 24 25  1  0  0  0  0
 24 53  1  0  0  0  0
 24 54  1  0  0  0  0
 25 26  1  0  0  0  0
 25 27  2  0  0  0  0
 25 28  2  0  0  0  0
 26 55  1  0  0  0  0
 26 56  1  0  0  0  0
 26 57  1  0  0  0  0
M  END
> <s_m_source_file>
AV-unprocessed.smi

> <i_m_source_file_index>
17

> <i_lp_mmshare_version>
43012

> <i_f3d_flags>
0

> <s_epik_input>
W0NIM11TKD1PKSg9TylbQ0gyXVtDQEBIXShbQ0gzXSlOKFtDSDJdW0NIM10pYyhuW2NIXW4xKWMoYzEyKW5bY0hdbjJbQ0gyXVtDQEhdKFtDSDJdW09IXSlbQ0BASF0zW0NIMl1bQ0gyXU9bQ0gyXTM=

> <s_epik_cmdline>
J2VwaWtfcHl0aG9uJywgJy1waCcsICc3LjAnLCAnLXRuJywgJzgnLCAnLW1hJywgJzIwMCcsICctbWV0YWxfYmluZGluZycsICctaW1hZScsICc8aW5maWxlLm1hZT4nLCAnLW9tYWUnLCAnPG91dGZpbGUubWFlPic=

> <r_lp_tautomer_probability>
1

> <r_epik_Ionization_Penalty>
0.00119955

> <r_epik_Ionization_Penalty_Charging>
0

> <r_epik_Ionization_Penalty_Neutral>
0.00119955

> <r_epik_State_Penalty>
0.000665399

> <r_epik_Charging_Adjusted_Penalty>
0.000665399

> <i_epik_Tot_Q>
0

> <i_epik_Tot_abs_Q>
0

> <r_epik_Metal_State_Penalty>
-0

> <b_epik_Metal_Only>
0

> <s_lp_Force_Field>
OPLS_2005

> <r_lp_Energy>
33.0306

> <b_lp_Chiralities_Consistent>
1

> <s_lp_Variant>
AV-unprocessed.smi:17-2

> <Gold.Version>
5.8.1

> <Gold.Id.Protein>
6NUR|6NUR_protein|mol2

> <Gold.PLP.Fitness>
44.5108

> <Gold.PLP.PLP>
-34.3609

> <Gold.PLP.part.hbond>
-4.0000

> <Gold.PLP.part.metal>
0.0000

> <Gold.PLP.part.buried>
-6.3135

> <Gold.PLP.part.nonpolar>
-24.1048

> <Gold.PLP.part.repulsive>
0.1822

> <Gold.PLP.ligand.clash>
0.0000

> <Gold.PLP.ligand.torsion>
1.2141

> <Gold.PLP.Chemscore.Hbond>
4.0000

> <Gold.PLP.Chemscore.CHOScore>
0.0000

> <Gold.PLP.Chemscore.Metal>
0.0000

> <Gold.Chemscore.Hbonds>
donor molecule, donor type, donor heavy atom, donor atom, acceptor molecule, acceptor atom, score
      L1  H    16    41       P1  7957  0.60
      P1  H  6896  6908       L1    27  1.00
      P1  H  7989  7998       L1    16  1.00
      P1  H 10752 10763       L1    28  1.00

> <Gold.PLP.Chemscore.Internal.Correction>
0.5781

> <Gold.Rescore>
     Score         DG    S(hbond)    S(metal)    S(lipo)     H(rot)  DE(clash)    DE(int)     intcor
     11.49     -15.63       3.58        0.00      61.14       3.51       0.06       4.09       ----

> <Gold.Chemscore.Fitness>
11.4851

> <Gold.Chemscore.DG>
-15.6275

> <Gold.Chemscore.ZeroCoef>
-5.4800

> <Gold.Chemscore.Hbond>
3.5836

> <Gold.Chemscore.Metal>
0.0000

> <Gold.Chemscore.Lipo>
61.1375

> <Gold.Chemscore.Internal_Hbond>
0.0000

> <Gold.Chemscore.DEClash>
0.0555

> <Gold.Chemscore.DEInternal>
4.0869

> <Gold.Chemscore.Rot>
3.5059

> <Gold.Chemscore.Internal.Correction>
   9.000000E+99

> <Gold.Chemscore.Hbonds>
donor molecule, donor type, donor heavy atom, donor atom, acceptor molecule, acceptor atom, score
      L1  H    16    41       P1  7957  0.58
      P1  H  6896  6908       L1    27  0.96
      P1  H  7989  7998       L1    16  0.38
      P1  H 10752 10763       L1    28  1.00

> <Gold.Chemscore.Hbond.Weighted>
-11.9694

> <Gold.Chemscore.Metal.Weighted>
-0.0000

> <Gold.Chemscore.Lipo.Weighted>
-7.1531

> <Gold.Chemscore.Internal_Hbond.Weighted>
0.0000

> <Gold.Chemscore.DEClash.Weighted>
0.0555

> <Gold.Chemscore.DEInternal.Weighted>
4.0869

> <Gold.Chemscore.Rot.Weighted>
8.9750

> <Gold.Chemscore.Internal.Correction.Weighted>
   9.000000E+99

> <Gold.Protein.RotatedTorsions>
[ 6907 6896 6895 6894 ] final  -26.55 input  -60.11 | X-H torsion
[ 7974 7965 7964 7962 ] final -137.50 input  175.53 | X-H torsion
[ 8008 7997 7996 7995 ] final    2.98 input   59.86 | X-H torsion
[ 10167 10162 10161 10158 ] final -115.51 input  -65.29 | X-H torsion
[ 10718 10713 10712 10709 ] final  153.74 input   66.30 | X-H torsion
[ 10763 10752 10751 10750 ] final  170.21 input  -60.55 | X-H torsion
[ 11005 11000 10999 10996 ] final    5.07 input  -57.11 | X-H torsion

> <Gold.Protein.ActiveResidues>
 VAL166  LYS551  ARG553  GLY616  TRP617  ASP618  TYR619  PRO620  LYS621  CYS622 
 ASP623  PHE694  ASN695  SER759  ASP760  ASP761  ALA762  ILE779  LEU786  VAL792 
 PHE793  MET794  SER795  GLU796  ALA797  LYS798  CYS799  TRP800  GLU811  SER814 

> <Gold.Protein.RotatedAtoms>
  151.1593  135.0265  159.8702 H   0  0  0  0  0  0  0  0  0  0  0  0  # atno 6907 bound_to 6896
  152.5452  134.1297  159.8444 H   0  0  0  0  0  0  0  0  0  0  0  0  # atno 6908 bound_to 6896
  151.1391  133.4938  159.2630 H   0  0  0  0  0  0  0  0  0  0  0  0  # atno 6909 bound_to 6896
  144.8836  140.6543  143.5190 H   0  0  0  0  0  0  0  0  0  0  0  0  # atno 7974 bound_to 7965
  154.6982  140.2667  155.6746 H   0  0  0  0  0  0  0  0  0  0  0  0  # atno 8008 bound_to 7997
  156.2756  140.2777  156.1507 H   0  0  0  0  0  0  0  0  0  0  0  0  # atno 8009 bound_to 7997
  155.0802  140.0372  157.2626 H   0  0  0  0  0  0  0  0  0  0  0  0  # atno 8010 bound_to 7997
  140.0893  143.4715  152.1879 H   0  0  0  0  0  0  0  0  0  0  0  0  # atno 10167 bound_to 10162
  157.2408  131.0759  151.1793 H   0  0  0  0  0  0  0  0  0  0  0  0  # atno 10718 bound_to 10713
  154.3943  135.2754  155.2136 H   0  0  0  0  0  0  0  0  0  0  0  0  # atno 10763 bound_to 10752
  154.4188  135.6005  153.6001 H   0  0  0  0  0  0  0  0  0  0  0  0  # atno 10764 bound_to 10752
  152.9831  135.5967  154.4202 H   0  0  0  0  0  0  0  0  0  0  0  0  # atno 10765 bound_to 10752
  140.5748  134.0068  155.8023 H   0  0  0  0  0  0  0  0  0  0  0  0  # atno 11005 bound_to 11000
  145.3909  139.1617  143.4230 LP  0  0  0  0  0  0  0  0  0  0  0  0  # atno 17320 bound_to 7965
  146.3010  140.3998  142.8704 LP  0  0  0  0  0  0  0  0  0  0  0  0  # atno 17321 bound_to 7965
  139.5734  144.7475  151.3830 LP  0  0  0  0  0  0  0  0  0  0  0  0  # atno 17342 bound_to 10162
  140.7037  143.7568  150.7445 LP  0  0  0  0  0  0  0  0  0  0  0  0  # atno 17343 bound_to 10162
  157.3380  130.7019  149.6364 LP  0  0  0  0  0  0  0  0  0  0  0  0  # atno 17370 bound_to 10713
  155.9670  130.4288  150.4804 LP  0  0  0  0  0  0  0  0  0  0  0  0  # atno 17371 bound_to 10713
  141.1033  133.9733  157.3040 LP  0  0  0  0  0  0  0  0  0  0  0  0  # atno 17394 bound_to 11000
  139.9345  135.0197  156.8509 LP  0  0  0  0  0  0  0  0  0  0  0  0  # atno 17395 bound_to 11000

$$$$
