AV-unprocessed.smi:828|AV-procd|sdf|3858|dock3
  -GOLD-   22720 1313D 1   1.00000     0.00000
 Structure written by MMmdl.
 35 36  0  0  0  0  0  0  0  0  2 V2000
  154.9247  140.7927  161.5367 C   0  0  0  0  0  0  0  0  0  0  0  0
  154.0342  140.8295  160.3421 C   0  0  0  0  0  0  0  0  0  0  0  0
  154.1128  139.9306  159.3531 N   0  0  0  0  0  0  0  0  0  0  0  0
  153.1864  140.1717  158.3482 N   0  0  0  0  0  0  0  0  0  0  0  0
  152.4344  141.2496  158.6099 C   0  0  0  0  0  0  0  0  0  0  0  0
  151.4118  141.7259  157.7470 N   0  0  0  0  0  0  0  0  0  0  0  0
  151.0062  141.2092  156.5738 C   0  0  0  0  0  0  0  0  0  0  0  0
  151.4552  140.1896  156.0493 O   0  0  0  0  0  0  0  0  0  0  0  0
  150.0332  141.9499  156.0239 N   0  0  0  0  0  0  0  0  0  0  0  0
  149.3828  141.6528  154.7516 C   0  0  0  0  0  0  0  0  0  0  0  0
  147.8881  141.3086  154.9201 C   0  0  2  0  0  0  0  0  0  0  0  0
  147.0968  141.3261  153.5962 C   0  0  0  0  0  0  0  0  0  0  0  0
  146.2116  142.5654  153.6792 C   0  0  0  0  0  0  0  0  0  0  0  0
  145.9606  142.7053  155.1750 C   0  0  0  0  0  0  0  0  0  0  0  0
  147.2288  142.2971  155.8092 N   0  3  1  0  0  0  0  0  0  0  0  0
  147.0871  141.8621  157.2152 C   0  0  0  0  0  0  0  0  0  0  0  0
  152.8023  142.0659  160.1196 S   0  0  0  0  0  0  0  0  0  0  0  0
  155.2360  139.7695  161.7492 H   0  0  0  0  0  0  0  0  0  0  0  0
  154.4013  141.1848  162.4089 H   0  0  0  0  0  0  0  0  0  0  0  0
  155.8123  141.3996  161.3576 H   0  0  0  0  0  0  0  0  0  0  0  0
  150.9398  142.5619  158.0580 H   0  0  0  0  0  0  0  0  0  0  0  0
  149.7181  142.7711  156.5199 H   0  0  0  0  0  0  0  0  0  0  0  0
  149.5037  142.5028  154.0779 H   0  0  0  0  0  0  0  0  0  0  0  0
  149.9086  140.8172  154.2883 H   0  0  0  0  0  0  0  0  0  0  0  0
  147.7927  140.3137  155.3588 H   0  0  0  0  0  0  0  0  0  0  0  0
  147.7278  141.3339  152.7070 H   0  0  0  0  0  0  0  0  0  0  0  0
  146.4688  140.4362  153.5381 H   0  0  0  0  0  0  0  0  0  0  0  0
  146.7561  143.4359  153.3107 H   0  0  0  0  0  0  0  0  0  0  0  0
  145.2919  142.4717  153.1007 H   0  0  0  0  0  0  0  0  0  0  0  0
  145.6746  143.7176  155.4615 H   0  0  0  0  0  0  0  0  0  0  0  0
  145.1599  142.0279  155.4765 H   0  0  0  0  0  0  0  0  0  0  0  0
  146.4528  140.9780  157.2926 H   0  0  0  0  0  0  0  0  0  0  0  0
  146.6438  142.6561  157.8167 H   0  0  0  0  0  0  0  0  0  0  0  0
  148.0622  141.6218  157.6400 H   0  0  0  0  0  0  0  0  0  0  0  0
  147.8210  143.1154  155.8040 H   0  0  0  0  0  0  0  0  0  0  0  0
  1  2  1  0  0  0  0
  1 18  1  0  0  0  0
  1 19  1  0  0  0  0
  1 20  1  0  0  0  0
  2 17  1  0  0  0  0
  2  3  2  0  0  0  0
  3  4  1  0  0  0  0
  4  5  2  0  0  0  0
  5  6  1  0  0  0  0
  5 17  1  0  0  0  0
  6  7  1  0  0  0  0
  6 21  1  0  0  0  0
  7  8  2  0  0  0  0
  7  9  1  0  0  0  0
  9 10  1  0  0  0  0
  9 22  1  0  0  0  0
 10 11  1  0  0  0  0
 10 23  1  0  0  0  0
 10 24  1  0  0  0  0
 11 15  1  0  0  0  0
 11 12  1  0  0  0  0
 11 25  1  0  0  0  0
 12 13  1  0  0  0  0
 12 26  1  0  0  0  0
 12 27  1  0  0  0  0
 13 14  1  0  0  0  0
 13 28  1  0  0  0  0
 13 29  1  0  0  0  0
 14 15  1  0  0  0  0
 14 30  1  0  0  0  0
 14 31  1  0  0  0  0
 15 16  1  0  0  0  0
 15 35  1  0  0  0  0
 16 32  1  0  0  0  0
 16 33  1  0  0  0  0
 16 34  1  0  0  0  0
M  CHG  1  15   1
M  END
> <s_m_source_file>
AV-unprocessed.smi

> <i_m_source_file_index>
828

> <i_lp_mmshare_version>
43012

> <i_f3d_flags>
0

> <s_epik_input>
W0NIM11jMW5uYyhzMSlbTkhdQyg9TylbTkhdW0NIMl1bQ0BASF0yW0NIMl1bQ0gyXVtDSDJdTjJbQ0gzXQ==

> <s_epik_cmdline>
J2VwaWtfcHl0aG9uJywgJy1waCcsICc3LjAnLCAnLXRuJywgJzgnLCAnLW1hJywgJzIwMCcsICctbWV0YWxfYmluZGluZycsICctaW1hZScsICc8aW5maWxlLm1hZT4nLCAnLW9tYWUnLCAnPG91dGZpbGUubWFlPic=

> <r_lp_tautomer_probability>
1

> <r_epik_Ionization_Penalty>
0.00466477

> <r_epik_Ionization_Penalty_Charging>
0.00372199

> <r_epik_Ionization_Penalty_Neutral>
0.000942783

> <r_epik_State_Penalty>
-0

> <r_epik_Charging_Adjusted_Penalty>
0.00372199

> <i_epik_Tot_Q>
1

> <i_epik_Tot_abs_Q>
1

> <r_epik_Metal_State_Penalty>
0.28212

> <b_epik_Metal_Only>
0

> <s_lp_Force_Field>
OPLS_2005

> <r_lp_Energy>
24.623

> <b_lp_Chiralities_Consistent>
1

> <s_lp_Variant>
AV-unprocessed.smi:828-1

> <Gold.Version>
5.8.1

> <Gold.Id.Protein>
6NUR|6NUR_protein|mol2

> <Gold.PLP.Fitness>
41.1016

> <Gold.PLP.PLP>
-32.3468

> <Gold.PLP.part.hbond>
-3.3468

> <Gold.PLP.part.metal>
0.0000

> <Gold.PLP.part.buried>
-2.6694

> <Gold.PLP.part.nonpolar>
-24.7680

> <Gold.PLP.part.repulsive>
0.2193

> <Gold.PLP.ligand.clash>
0.0000

> <Gold.PLP.ligand.torsion>
0.1056

> <Gold.PLP.Chemscore.Hbond>
2.9882

> <Gold.PLP.Chemscore.CHOScore>
0.0000

> <Gold.PLP.Chemscore.Metal>
0.0000

> <Gold.Chemscore.Hbonds>
donor molecule, donor type, donor heavy atom, donor atom, acceptor molecule, acceptor atom, score
      L1  H     9    22       P1  8028  0.21
      L1  H    15    35       P1  8028  2.00
      P1  H  7997  8008       L1     4  0.67

> <Gold.PLP.Chemscore.Internal.Correction>
0.0016

> <Gold.Rescore>
     Score         DG    S(hbond)    S(metal)    S(lipo)     H(rot)  DE(clash)    DE(int)     intcor
     11.29     -14.19       1.23        0.00      68.51       1.33       1.56       1.34       ----

> <Gold.Chemscore.Fitness>
11.2916

> <Gold.Chemscore.DG>
-14.1869

> <Gold.Chemscore.ZeroCoef>
-5.4800

> <Gold.Chemscore.Hbond>
1.2261

> <Gold.Chemscore.Metal>
0.0000

> <Gold.Chemscore.Lipo>
68.5051

> <Gold.Chemscore.Internal_Hbond>
0.0000

> <Gold.Chemscore.DEClash>
1.5568

> <Gold.Chemscore.DEInternal>
1.3385

> <Gold.Chemscore.Rot>
1.3294

> <Gold.Chemscore.Internal.Correction>
   9.000000E+99

> <Gold.Chemscore.Hbonds>
donor molecule, donor type, donor heavy atom, donor atom, acceptor molecule, acceptor atom, score
      L1  H     9    22       P1  8028  0.20
      L1  H    15    35       P1  8028  0.40
      P1  H  7997  8008       L1     4  0.08

> <Gold.Chemscore.Hbond.Weighted>
-4.0951

> <Gold.Chemscore.Metal.Weighted>
-0.0000

> <Gold.Chemscore.Lipo.Weighted>
-8.0151

> <Gold.Chemscore.Internal_Hbond.Weighted>
0.0000

> <Gold.Chemscore.DEClash.Weighted>
1.5568

> <Gold.Chemscore.DEInternal.Weighted>
1.3385

> <Gold.Chemscore.Rot.Weighted>
3.4033

> <Gold.Chemscore.Internal.Correction.Weighted>
   9.000000E+99

> <Gold.Protein.RotatedTorsions>
[ 6907 6896 6895 6894 ] final  167.76 input  -60.11 | X-H torsion
[ 7974 7965 7964 7962 ] final -139.80 input  175.53 | X-H torsion
[ 8008 7997 7996 7995 ] final  -74.55 input   59.86 | X-H torsion
[ 10167 10162 10161 10158 ] final -107.64 input  -65.29 | X-H torsion
[ 10718 10713 10712 10709 ] final -133.66 input   66.30 | X-H torsion
[ 10763 10752 10751 10750 ] final   87.25 input  -60.55 | X-H torsion
[ 11005 11000 10999 10996 ] final  -70.46 input  -57.11 | X-H torsion

> <Gold.Protein.ActiveResidues>
 VAL166  LYS551  ARG553  GLY616  TRP617  ASP618  TYR619  PRO620  LYS621  CYS622 
 ASP623  PHE694  ASN695  SER759  ASP760  ASP761  ALA762  ILE779  LEU786  VAL792 
 PHE793  MET794  SER795  GLU796  ALA797  LYS798  CYS799  TRP800  GLU811  SER814 

> <Gold.Protein.RotatedAtoms>
  151.8582  133.3452  159.3695 H   0  0  0  0  0  0  0  0  0  0  0  0  # atno 6907 bound_to 6896
  150.7186  134.5232  159.5673 H   0  0  0  0  0  0  0  0  0  0  0  0  # atno 6908 bound_to 6896
  152.2740  134.7903  160.0460 H   0  0  0  0  0  0  0  0  0  0  0  0  # atno 6909 bound_to 6896
  144.8648  140.6275  143.5305 H   0  0  0  0  0  0  0  0  0  0  0  0  # atno 7974 bound_to 7965
  154.5340  140.0759  156.8395 H   0  0  0  0  0  0  0  0  0  0  0  0  # atno 8008 bound_to 7997
  155.3316  140.3402  155.4221 H   0  0  0  0  0  0  0  0  0  0  0  0  # atno 8009 bound_to 7997
  156.1810  140.1652  156.8261 H   0  0  0  0  0  0  0  0  0  0  0  0  # atno 8010 bound_to 7997
  140.1747  143.4014  152.1327 H   0  0  0  0  0  0  0  0  0  0  0  0  # atno 10167 bound_to 10162
  156.2473  130.7132  151.1017 H   0  0  0  0  0  0  0  0  0  0  0  0  # atno 10718 bound_to 10713
  153.1650  135.4550  154.9825 H   0  0  0  0  0  0  0  0  0  0  0  0  # atno 10763 bound_to 10752
  154.7925  135.3226  154.7746 H   0  0  0  0  0  0  0  0  0  0  0  0  # atno 10764 bound_to 10752
  153.8230  135.6945  153.4879 H   0  0  0  0  0  0  0  0  0  0  0  0  # atno 10765 bound_to 10752
  141.1574  133.6791  156.6757 H   0  0  0  0  0  0  0  0  0  0  0  0  # atno 11005 bound_to 11000
  145.4243  139.1559  143.4057 LP  0  0  0  0  0  0  0  0  0  0  0  0  # atno 17320 bound_to 7965
  146.2887  140.4355  142.8748 LP  0  0  0  0  0  0  0  0  0  0  0  0  # atno 17321 bound_to 7965
  139.5322  144.7171  151.5016 LP  0  0  0  0  0  0  0  0  0  0  0  0  # atno 17342 bound_to 10162
  140.6559  143.8601  150.6834 LP  0  0  0  0  0  0  0  0  0  0  0  0  # atno 17343 bound_to 10162
  157.7200  131.0687  150.6174 LP  0  0  0  0  0  0  0  0  0  0  0  0  # atno 17370 bound_to 10713
  156.6252  130.4416  149.5807 LP  0  0  0  0  0  0  0  0  0  0  0  0  # atno 17371 bound_to 10713
  140.3141  134.8062  157.4200 LP  0  0  0  0  0  0  0  0  0  0  0  0  # atno 17394 bound_to 11000
  140.1153  134.5291  155.8230 LP  0  0  0  0  0  0  0  0  0  0  0  0  # atno 17395 bound_to 11000

$$$$
