AV-unprocessed.smi:2926|AV-procd|sdf|11226|dock7
  -GOLD-   2272016113D 1   1.00000     0.00000
 Structure written by MMmdl.
 32 32  0  0  0  0  0  0  0  0  1 V2000
  152.8106  144.6105  158.1817 C   0  0  0  0  0  0  0  0  0  0  0  0
  151.7355  143.5362  158.4417 C   0  0  0  0  0  0  0  0  0  0  0  0
  150.4957  144.2180  159.0512 C   0  0  0  0  0  0  0  0  0  0  0  0
  152.2786  142.3730  159.3182 C   0  0  1  0  0  0  0  0  0  0  0  0
  152.7642  142.8109  160.7174 C   0  0  0  0  0  0  0  0  0  0  0  0
  151.6622  143.0177  161.5758 O   0  0  0  0  0  0  0  0  0  0  0  0
  151.2119  141.3808  159.5059 N   0  0  0  0  0  0  0  0  0  0  0  0
  150.6282  140.5140  158.1321 S   0  0  0  0  0  0  0  0  0  0  0  0
  149.5505  139.6213  158.5863 O   0  0  0  0  0  0  0  0  0  0  0  0
  150.3709  141.4927  157.0647 O   0  0  0  0  0  0  0  0  0  0  0  0
  152.0826  139.4828  157.6680 C   0  0  0  0  0  0  0  0  0  0  0  0
  151.7303  138.6070  156.4990 C   0  0  0  0  0  0  0  0  0  0  0  0
  151.2910  138.9948  155.2025 C   0  0  0  0  0  0  0  0  0  0  0  0
  151.1234  137.8056  154.5536 C   0  0  0  0  0  0  0  0  0  0  0  0
  151.4358  136.7694  155.3722 O   0  0  0  0  0  0  0  0  0  0  0  0
  151.8240  137.2913  156.6113 N   0  0  0  0  0  0  0  0  0  0  0  0
  153.1130  141.9133  158.7857 H   0  0  0  0  0  0  0  0  0  0  0  0
  153.1763  145.0375  159.1162 H   0  0  0  0  0  0  0  0  0  0  0  0
  152.4141  145.4272  157.5779 H   0  0  0  0  0  0  0  0  0  0  0  0
  153.6684  144.2083  157.6424 H   0  0  0  0  0  0  0  0  0  0  0  0
  151.4410  143.1272  157.4741 H   0  0  0  0  0  0  0  0  0  0  0  0
  150.6900  144.5550  160.0699 H   0  0  0  0  0  0  0  0  0  0  0  0
  149.6301  143.5575  159.0722 H   0  0  0  0  0  0  0  0  0  0  0  0
  150.2014  145.0903  158.4667 H   0  0  0  0  0  0  0  0  0  0  0  0
  153.3723  142.0428  161.1909 H   0  0  0  0  0  0  0  0  0  0  0  0
  153.3743  143.7135  160.6654 H   0  0  0  0  0  0  0  0  0  0  0  0
  151.2768  143.8567  161.3751 H   0  0  0  0  0  0  0  0  0  0  0  0
  151.4399  140.7443  160.2693 H   0  0  0  0  0  0  0  0  0  0  0  0
  152.9132  140.1448  157.4254 H   0  0  0  0  0  0  0  0  0  0  0  0
  152.3705  138.8907  158.5375 H   0  0  0  0  0  0  0  0  0  0  0  0
  151.1211  139.9877  154.8132 H   0  0  0  0  0  0  0  0  0  0  0  0
  150.8038  137.5430  153.5561 H   0  0  0  0  0  0  0  0  0  0  0  0
  1  2  1  0  0  0  0
  1 18  1  0  0  0  0
  1 19  1  0  0  0  0
  1 20  1  0  0  0  0
  2  3  1  0  0  0  0
  2  4  1  0  0  0  0
  2 21  1  0  0  0  0
  3 22  1  0  0  0  0
  3 23  1  0  0  0  0
  3 24  1  0  0  0  0
  4 17  1  0  0  0  0
  4  5  1  0  0  0  0
  4  7  1  0  0  0  0
  5  6  1  0  0  0  0
  5 25  1  0  0  0  0
  5 26  1  0  0  0  0
  6 27  1  0  0  0  0
  7  8  1  0  0  0  0
  7 28  1  0  0  0  0
  8  9  2  0  0  0  0
  8 10  2  0  0  0  0
  8 11  1  0  0  0  0
 11 12  1  0  0  0  0
 11 29  1  0  0  0  0
 11 30  1  0  0  0  0
 12 16  2  0  0  0  0
 12 13  1  0  0  0  0
 13 14  2  0  0  0  0
 13 31  1  0  0  0  0
 14 15  1  0  0  0  0
 14 32  1  0  0  0  0
 15 16  1  0  0  0  0
M  END
> <s_m_source_file>
AV-unprocessed.smi

> <i_m_source_file_index>
2926

> <i_lp_mmshare_version>
43012

> <i_f3d_flags>
0

> <s_epik_input>
W0NIM11bQ0hdKFtDSDNdKVtDQEBIXShbQ0gyXVtPSF0pW05IXVMoPU8pKD1PKVtDSDJdYzFbY0hdW2NIXW9uMQ==

> <s_epik_cmdline>
J2VwaWtfcHl0aG9uJywgJy1waCcsICc3LjAnLCAnLXRuJywgJzgnLCAnLW1hJywgJzIwMCcsICctbWV0YWxfYmluZGluZycsICctaW1hZScsICc8aW5maWxlLm1hZT4nLCAnLW9tYWUnLCAnPG91dGZpbGUubWFlPic=

> <r_lp_tautomer_probability>
1

> <r_epik_Ionization_Penalty>
0.000193122

> <r_epik_Ionization_Penalty_Charging>
0

> <r_epik_Ionization_Penalty_Neutral>
0.000193122

> <r_epik_State_Penalty>
-0

> <r_epik_Charging_Adjusted_Penalty>
0

> <i_epik_Tot_Q>
0

> <i_epik_Tot_abs_Q>
0

> <r_epik_Metal_State_Penalty>
0.130256

> <b_epik_Metal_Only>
0

> <s_lp_Force_Field>
OPLS_2005

> <r_lp_Energy>
6.6882

> <b_lp_Chiralities_Consistent>
1

> <s_lp_Variant>
AV-unprocessed.smi:2926-1

> <Gold.Version>
5.8.1

> <Gold.Id.Protein>
6NUR|6NUR_protein|mol2

> <Gold.PLP.Fitness>
40.9420

> <Gold.PLP.PLP>
-33.6390

> <Gold.PLP.part.hbond>
-2.8994

> <Gold.PLP.part.metal>
0.0000

> <Gold.PLP.part.buried>
-4.9655

> <Gold.PLP.part.nonpolar>
-25.9058

> <Gold.PLP.part.repulsive>
0.1569

> <Gold.PLP.ligand.clash>
0.0000

> <Gold.PLP.ligand.torsion>
0.3129

> <Gold.PLP.Chemscore.Hbond>
1.5760

> <Gold.PLP.Chemscore.CHOScore>
1.0000

> <Gold.PLP.Chemscore.Metal>
0.0000

> <Gold.Chemscore.Hbonds>
donor molecule, donor type, donor heavy atom, donor atom, acceptor molecule, acceptor atom, score
      P1  H  6933  6945       L1     6  0.42
      P1  H 10752 10764       L1    15  0.91
      L1  C    14    32       P1  7948  0.19
      L1  C    14    32       P1  7949  0.70

> <Gold.PLP.Chemscore.Internal.Correction>
0.2007

> <Gold.Rescore>
     Score         DG    S(hbond)    S(metal)    S(lipo)     H(rot)  DE(clash)    DE(int)     intcor
     10.18     -12.03       1.25        0.00      84.99       2.96       0.05       1.80       ----

> <Gold.Chemscore.Fitness>
10.1786

> <Gold.Chemscore.DG>
-12.0326

> <Gold.Chemscore.ZeroCoef>
-5.4800

> <Gold.Chemscore.Hbond>
1.2508

> <Gold.Chemscore.Metal>
0.0000

> <Gold.Chemscore.Lipo>
84.9862

> <Gold.Chemscore.Internal_Hbond>
0.0000

> <Gold.Chemscore.DEClash>
0.0524

> <Gold.Chemscore.DEInternal>
1.8016

> <Gold.Chemscore.Rot>
2.9564

> <Gold.Chemscore.Internal.Correction>
   9.000000E+99

> <Gold.Chemscore.Hbonds>
donor molecule, donor type, donor heavy atom, donor atom, acceptor molecule, acceptor atom, score
      P1  H  6933  6945       L1     6  0.23
      P1  H 10752 10764       L1    15  0.53

> <Gold.Chemscore.Hbond.Weighted>
-4.1778

> <Gold.Chemscore.Metal.Weighted>
-0.0000

> <Gold.Chemscore.Lipo.Weighted>
-9.9434

> <Gold.Chemscore.Internal_Hbond.Weighted>
0.0000

> <Gold.Chemscore.DEClash.Weighted>
0.0524

> <Gold.Chemscore.DEInternal.Weighted>
1.8016

> <Gold.Chemscore.Rot.Weighted>
7.5685

> <Gold.Chemscore.Internal.Correction.Weighted>
   9.000000E+99

> <Gold.Protein.RotatedTorsions>
[ 6907 6896 6895 6894 ] final   92.76 input  -60.11 | X-H torsion
[ 7974 7965 7964 7962 ] final   16.08 input  175.53 | X-H torsion
[ 8008 7997 7996 7995 ] final   11.80 input   59.86 | X-H torsion
[ 10167 10162 10161 10158 ] final   64.63 input  -65.29 | X-H torsion
[ 10718 10713 10712 10709 ] final  169.37 input   66.30 | X-H torsion
[ 10763 10752 10751 10750 ] final  -63.44 input  -60.55 | X-H torsion
[ 11005 11000 10999 10996 ] final  135.40 input  -57.11 | X-H torsion

> <Gold.Protein.ActiveResidues>
 VAL166  LYS551  ARG553  GLY616  TRP617  ASP618  TYR619  PRO620  LYS621  CYS622 
 ASP623  PHE694  ASN695  SER759  ASP760  ASP761  ALA762  ILE779  LEU786  VAL792 
 PHE793  MET794  SER795  GLU796  ALA797  LYS798  CYS799  TRP800  GLU811  SER814 

> <Gold.Protein.RotatedAtoms>
  152.5453  134.1452  159.8495 H   0  0  0  0  0  0  0  0  0  0  0  0  # atno 6907 bound_to 6896
  151.1484  133.4916  159.2603 H   0  0  0  0  0  0  0  0  0  0  0  0  # atno 6908 bound_to 6896
  151.1498  135.0232  159.8718 H   0  0  0  0  0  0  0  0  0  0  0  0  # atno 6909 bound_to 6896
  146.2260  139.8801  142.8572 H   0  0  0  0  0  0  0  0  0  0  0  0  # atno 7974 bound_to 7965
  154.8119  140.2869  155.5847 H   0  0  0  0  0  0  0  0  0  0  0  0  # atno 8008 bound_to 7997
  156.2989  140.2566  156.2939 H   0  0  0  0  0  0  0  0  0  0  0  0  # atno 8009 bound_to 7997
  154.9437  140.0381  157.2099 H   0  0  0  0  0  0  0  0  0  0  0  0  # atno 8010 bound_to 7997
  140.1201  144.4739  150.6926 H   0  0  0  0  0  0  0  0  0  0  0  0  # atno 10167 bound_to 10162
  157.0236  131.0239  151.2767 H   0  0  0  0  0  0  0  0  0  0  0  0  # atno 10718 bound_to 10713
  154.3150  135.6208  153.5482 H   0  0  0  0  0  0  0  0  0  0  0  0  # atno 10763 bound_to 10752
  152.9825  135.5710  154.5134 H   0  0  0  0  0  0  0  0  0  0  0  0  # atno 10764 bound_to 10752
  154.4791  135.2862  155.1561 H   0  0  0  0  0  0  0  0  0  0  0  0  # atno 10765 bound_to 10752
  139.9977  134.9491  157.0001 H   0  0  0  0  0  0  0  0  0  0  0  0  # atno 11005 bound_to 11000
  145.2521  141.0048  143.3875 LP  0  0  0  0  0  0  0  0  0  0  0  0  # atno 17320 bound_to 7965
  144.9366  139.4237  143.6469 LP  0  0  0  0  0  0  0  0  0  0  0  0  # atno 17321 bound_to 7965
  140.6877  143.2359  151.5216 LP  0  0  0  0  0  0  0  0  0  0  0  0  # atno 17342 bound_to 10162
  139.5573  144.2243  152.1634 LP  0  0  0  0  0  0  0  0  0  0  0  0  # atno 17343 bound_to 10162
  157.5231  130.8011  149.7831 LP  0  0  0  0  0  0  0  0  0  0  0  0  # atno 17370 bound_to 10713
  156.0094  130.3840  150.2318 LP  0  0  0  0  0  0  0  0  0  0  0  0  # atno 17371 bound_to 10713
  140.4787  134.1312  155.7213 LP  0  0  0  0  0  0  0  0  0  0  0  0  # atno 17394 bound_to 11000
  141.1617  133.8780  157.1828 LP  0  0  0  0  0  0  0  0  0  0  0  0  # atno 17395 bound_to 11000

$$$$
