AV-unprocessed.smi:102|AV-procd|sdf|955|dock6
  -GOLD-   2262017493D 1   1.00000     0.00000
 Structure written by MMmdl.
 44 45  0  0  0  0  0  0  0  0  1 V2000
  148.1435  134.9574  159.1489 C   0  0  0  0  0  0  0  0  0  0  0  0
  147.8148  136.4412  159.0533 C   0  0  0  0  0  0  0  0  0  0  0  0
  147.7070  137.1433  160.0585 O   0  0  0  0  0  0  0  0  0  0  0  0
  147.6700  136.8500  157.7858 O   0  0  0  0  0  0  0  0  0  0  0  0
  147.5716  138.2358  157.4938 C   0  0  0  0  0  0  0  0  0  0  0  0
  148.9665  138.8296  157.2385 C   0  0  2  0  0  0  0  0  0  0  0  0
  149.3255  139.7530  158.2513 O   0  0  0  0  0  0  0  0  0  0  0  0
  150.3663  140.5445  157.7757 C   0  0  2  0  0  0  0  0  0  0  0  0
  150.2538  141.9053  158.4224 N   0  0  0  0  0  0  0  0  0  0  0  0
  151.1276  142.2727  159.4362 C   0  0  0  0  0  0  0  0  0  0  0  0
  151.0512  143.4607  160.0814 C   0  0  0  0  0  0  0  0  0  0  0  0
  151.9373  143.7479  161.0499 F   0  0  0  0  0  0  0  0  0  0  0  0
  150.0123  144.4281  159.7398 C   0  0  0  0  0  0  0  0  0  0  0  0
  149.8649  145.5307  160.2630 O   0  0  0  0  0  0  0  0  0  0  0  0
  149.1398  144.0060  158.7326 N   0  0  0  0  0  0  0  0  0  0  0  0
  149.2031  142.7823  158.0645 C   0  0  0  0  0  0  0  0  0  0  0  0
  148.3611  142.5078  157.2109 O   0  0  0  0  0  0  0  0  0  0  0  0
  150.2627  140.6057  156.2386 C   0  0  1  0  0  0  0  0  0  0  0  0
  151.5141  140.2781  155.6484 O   0  0  0  0  0  0  0  0  0  0  0  0
  151.9944  139.0254  155.7402 C   0  0  0  0  0  0  0  0  0  0  0  0
  153.2882  138.8405  154.9590 C   0  0  0  0  0  0  0  0  0  0  0  0
  151.4890  138.1006  156.3765 O   0  0  0  0  0  0  0  0  0  0  0  0
  149.2041  139.5568  155.9037 C   0  0  2  0  0  0  0  0  0  0  0  0
  148.0623  140.2306  155.3846 O   0  0  0  0  0  0  0  0  0  0  0  0
  148.1790  141.1187  154.3817 C   0  0  0  0  0  0  0  0  0  0  0  0
  146.8300  141.6661  153.9356 C   0  0  0  0  0  0  0  0  0  0  0  0
  149.2269  141.4757  153.8439 O   0  0  0  0  0  0  0  0  0  0  0  0
  148.3951  144.6364  158.4732 H   0  0  0  0  0  0  0  0  0  0  0  0
  148.7851  134.6536  158.3212 H   0  0  0  0  0  0  0  0  0  0  0  0
  147.2288  134.3658  159.1139 H   0  0  0  0  0  0  0  0  0  0  0  0
  148.6614  134.7412  160.0836 H   0  0  0  0  0  0  0  0  0  0  0  0
  146.9439  138.3662  156.6116 H   0  0  0  0  0  0  0  0  0  0  0  0
  147.0912  138.7677  158.3165 H   0  0  0  0  0  0  0  0  0  0  0  0
  149.6920  138.0168  157.2945 H   0  0  0  0  0  0  0  0  0  0  0  0
  151.3102  140.1136  158.1141 H   0  0  0  0  0  0  0  0  0  0  0  0
  151.9122  141.5908  159.7316 H   0  0  0  0  0  0  0  0  0  0  0  0
  149.9489  141.6033  155.9281 H   0  0  0  0  0  0  0  0  0  0  0  0
  153.1749  139.2134  153.9410 H   0  0  0  0  0  0  0  0  0  0  0  0
  153.5596  137.7857  154.9119 H   0  0  0  0  0  0  0  0  0  0  0  0
  154.1008  139.3850  155.4403 H   0  0  0  0  0  0  0  0  0  0  0  0
  149.5927  138.8515  155.1675 H   0  0  0  0  0  0  0  0  0  0  0  0
  146.0673  140.8884  153.9817 H   0  0  0  0  0  0  0  0  0  0  0  0
  146.8866  142.0318  152.9102 H   0  0  0  0  0  0  0  0  0  0  0  0
  146.5258  142.4894  154.5818 H   0  0  0  0  0  0  0  0  0  0  0  0
  1  2  1  0  0  0  0
  1 29  1  0  0  0  0
  1 30  1  0  0  0  0
  1 31  1  0  0  0  0
  2  3  2  0  0  0  0
  2  4  1  0  0  0  0
  4  5  1  0  0  0  0
  5  6  1  0  0  0  0
  5 32  1  0  0  0  0
  5 33  1  0  0  0  0
  6 23  1  0  0  0  0
  6  7  1  0  0  0  0
  6 34  1  0  0  0  0
  7  8  1  0  0  0  0
  8  9  1  0  0  0  0
  8 18  1  0  0  0  0
  8 35  1  0  0  0  0
  9 16  1  0  0  0  0
  9 10  1  0  0  0  0
 10 11  2  0  0  0  0
 10 36  1  0  0  0  0
 11 12  1  0  0  0  0
 11 13  1  0  0  0  0
 13 14  2  0  0  0  0
 13 15  1  0  0  0  0
 15 28  1  0  0  0  0
 15 16  1  0  0  0  0
 16 17  2  0  0  0  0
 18 19  1  0  0  0  0
 18 23  1  0  0  0  0
 18 37  1  0  0  0  0
 19 20  1  0  0  0  0
 20 21  1  0  0  0  0
 20 22  2  0  0  0  0
 21 38  1  0  0  0  0
 21 39  1  0  0  0  0
 21 40  1  0  0  0  0
 23 24  1  0  0  0  0
 23 41  1  0  0  0  0
 24 25  1  0  0  0  0
 25 26  1  0  0  0  0
 25 27  2  0  0  0  0
 26 42  1  0  0  0  0
 26 43  1  0  0  0  0
 26 44  1  0  0  0  0
M  END
> <s_m_source_file>
AV-unprocessed.smi

> <i_m_source_file_index>
102

> <i_lp_mmshare_version>
43012

> <i_f3d_flags>
0

> <s_epik_input>
W0NIM11DKD1PKU9bQ0gyXVtDQEBIXTFPW0NASF0oW0NAQEhdKE9DKD1PKVtDSDNdKVtDQEhdMU9DKD1PKVtDSDNdKW4yW2NIXWMoRiljKD1PKVtuSF1jMj1P

> <s_epik_cmdline>
J2VwaWtfcHl0aG9uJywgJy1waCcsICc3LjAnLCAnLXRuJywgJzgnLCAnLW1hJywgJzIwMCcsICctbWV0YWxfYmluZGluZycsICctaW1hZScsICc8aW5maWxlLm1hZT4nLCAnLW9tYWUnLCAnPG91dGZpbGUubWFlPic=

> <r_lp_tautomer_probability>
0.999537

> <r_epik_Ionization_Penalty>
0.058267

> <r_epik_Ionization_Penalty_Charging>
0.058267

> <r_epik_Ionization_Penalty_Neutral>
6.57791e-16

> <r_epik_State_Penalty>
0.0503774

> <r_epik_Charging_Adjusted_Penalty>
0.108644

> <i_epik_Tot_Q>
0

> <i_epik_Tot_abs_Q>
0

> <r_epik_Metal_State_Penalty>
2.6644

> <b_epik_Metal_Only>
0

> <s_epik_Chemistry_Notes>
This compound has an ester and may undergo hydrolysis at high or low pH. This compound contains an acetal/aminal-like group ( X-CH(R)-Y where X, Y are N, S, or O) that may be acid/base labile, releasing an aldehyde.

> <s_lp_Force_Field>
OPLS_2005

> <r_lp_Energy>
7.073

> <b_lp_Chiralities_Consistent>
1

> <s_lp_Variant>
AV-unprocessed.smi:102-11

> <Gold.Version>
5.8.1

> <Gold.Id.Protein>
6NUR|6NUR_protein|mol2

> <Gold.PLP.Fitness>
43.7764

> <Gold.PLP.PLP>
-38.1293

> <Gold.PLP.part.hbond>
-7.6753

> <Gold.PLP.part.metal>
0.0000

> <Gold.PLP.part.buried>
-6.0172

> <Gold.PLP.part.nonpolar>
-28.4333

> <Gold.PLP.part.repulsive>
4.6288

> <Gold.PLP.ligand.clash>
0.0000

> <Gold.PLP.ligand.torsion>
1.4660

> <Gold.PLP.Chemscore.Hbond>
2.8345

> <Gold.PLP.Chemscore.CHOScore>
0.0000

> <Gold.PLP.Chemscore.Metal>
0.0000

> <Gold.Chemscore.Hbonds>
donor molecule, donor type, donor heavy atom, donor atom, acceptor molecule, acceptor atom, score
      L1  H    15    28       P1  8029  0.88
      P1  H  6934  6947       L1     3  0.66
      P1  H  8011  8017       L1    27  0.75

> <Gold.PLP.Chemscore.Internal.Correction>
0.0755

> <Gold.Rescore>
     Score         DG    S(hbond)    S(metal)    S(lipo)     H(rot)  DE(clash)    DE(int)     intcor
     -2.46      -9.59       2.64        0.00      48.50       4.05       2.70       9.35       ----

> <Gold.Chemscore.Fitness>
-2.4553

> <Gold.Chemscore.DG>
-9.5920

> <Gold.Chemscore.ZeroCoef>
-5.4800

> <Gold.Chemscore.Hbond>
2.6379

> <Gold.Chemscore.Metal>
0.0000

> <Gold.Chemscore.Lipo>
48.5019

> <Gold.Chemscore.Internal_Hbond>
0.0000

> <Gold.Chemscore.DEClash>
2.6965

> <Gold.Chemscore.DEInternal>
9.3509

> <Gold.Chemscore.Rot>
4.0520

> <Gold.Chemscore.Internal.Correction>
   9.000000E+99

> <Gold.Chemscore.Hbonds>
donor molecule, donor type, donor heavy atom, donor atom, acceptor molecule, acceptor atom, score
      L1  H    15    28       P1  8029  0.76
      P1  H  6931  6943       L1     3  0.01
      P1  H  6934  6947       L1     3  0.65
      P1  H  7989  7998       L1    27  0.01
      P1  H  8011  8017       L1    27  0.74

> <Gold.Chemscore.Hbond.Weighted>
-8.8105

> <Gold.Chemscore.Metal.Weighted>
-0.0000

> <Gold.Chemscore.Lipo.Weighted>
-5.6747

> <Gold.Chemscore.Internal_Hbond.Weighted>
0.0000

> <Gold.Chemscore.DEClash.Weighted>
2.6965

> <Gold.Chemscore.DEInternal.Weighted>
9.3509

> <Gold.Chemscore.Rot.Weighted>
10.3732

> <Gold.Chemscore.Internal.Correction.Weighted>
   9.000000E+99

> <Gold.Protein.RotatedTorsions>
[ 6907 6896 6895 6894 ] final -170.70 input  -60.11 | X-H torsion
[ 7974 7965 7964 7962 ] final   89.20 input  175.53 | X-H torsion
[ 8008 7997 7996 7995 ] final -154.33 input   59.86 | X-H torsion
[ 10167 10162 10161 10158 ] final -161.02 input  -65.29 | X-H torsion
[ 10718 10713 10712 10709 ] final   82.92 input   66.30 | X-H torsion
[ 10763 10752 10751 10750 ] final   -1.32 input  -60.55 | X-H torsion
[ 11005 11000 10999 10996 ] final  -98.15 input  -57.11 | X-H torsion

> <Gold.Protein.ActiveResidues>
 VAL166  LYS551  ARG553  GLY616  TRP617  ASP618  TYR619  PRO620  LYS621  CYS622 
 ASP623  PHE694  ASN695  SER759  ASP760  ASP761  ALA762  ILE779  LEU786  VAL792 
 PHE793  MET794  SER795  GLU796  ALA797  LYS798  CYS799  TRP800  GLU811  SER814 

> <Gold.Protein.RotatedAtoms>
  151.5119  133.3483  159.2886 H   0  0  0  0  0  0  0  0  0  0  0  0  # atno 6907 bound_to 6896
  150.8707  134.8082  159.7163 H   0  0  0  0  0  0  0  0  0  0  0  0  # atno 6908 bound_to 6896
  152.4696  134.5002  159.9774 H   0  0  0  0  0  0  0  0  0  0  0  0  # atno 6909 bound_to 6896
  145.5355  139.2285  143.2595 H   0  0  0  0  0  0  0  0  0  0  0  0  # atno 7974 bound_to 7965
  155.6846  140.0748  157.2471 H   0  0  0  0  0  0  0  0  0  0  0  0  # atno 8008 bound_to 7997
  154.4099  140.1675  156.2072 H   0  0  0  0  0  0  0  0  0  0  0  0  # atno 8009 bound_to 7997
  155.9505  140.3377  155.6406 H   0  0  0  0  0  0  0  0  0  0  0  0  # atno 8010 bound_to 7997
  139.6496  144.0108  152.2152 H   0  0  0  0  0  0  0  0  0  0  0  0  # atno 10167 bound_to 10162
  157.6868  131.0068  150.2446 H   0  0  0  0  0  0  0  0  0  0  0  0  # atno 10718 bound_to 10713
  153.3433  135.6982  153.6849 H   0  0  0  0  0  0  0  0  0  0  0  0  # atno 10763 bound_to 10752
  153.5605  135.3536  155.2798 H   0  0  0  0  0  0  0  0  0  0  0  0  # atno 10764 bound_to 10752
  154.8640  135.4248  154.2651 H   0  0  0  0  0  0  0  0  0  0  0  0  # atno 10765 bound_to 10752
  141.1355  133.8223  157.0801 H   0  0  0  0  0  0  0  0  0  0  0  0  # atno 11005 bound_to 11000
  146.2016  140.6173  142.9100 LP  0  0  0  0  0  0  0  0  0  0  0  0  # atno 17320 bound_to 7965
  144.7604  140.5408  143.6739 LP  0  0  0  0  0  0  0  0  0  0  0  0  # atno 17321 bound_to 7965
  139.9819  144.6422  150.7893 LP  0  0  0  0  0  0  0  0  0  0  0  0  # atno 17342 bound_to 10162
  140.7531  143.3003  151.3098 LP  0  0  0  0  0  0  0  0  0  0  0  0  # atno 17343 bound_to 10162
  156.3054  130.3764  149.7711 LP  0  0  0  0  0  0  0  0  0  0  0  0  # atno 17370 bound_to 10713
  156.5328  130.8265  151.3243 LP  0  0  0  0  0  0  0  0  0  0  0  0  # atno 17371 bound_to 10713
  140.0457  134.9831  157.1044 LP  0  0  0  0  0  0  0  0  0  0  0  0  # atno 17394 bound_to 11000
  140.4066  134.2025  155.7163 LP  0  0  0  0  0  0  0  0  0  0  0  0  # atno 17395 bound_to 11000

$$$$
