AV-unprocessed.smi:1389|AV-procd|sdf|5651|dock1
  -GOLD-   22720 5273D 1   1.00000     0.00000
 Structure written by MMmdl.
 52 54  0  0  0  0  0  0  0  0  2 V2000
  152.3985  138.6326  155.2043 C   0  0  0  0  0  0  0  0  0  0  0  0
  150.9464  138.4901  154.6809 C   0  0  1  0  0  0  0  0  0  0  0  0
  150.2773  137.2726  155.3832 C   0  0  0  0  0  0  0  0  0  0  0  0
  149.7838  136.2634  154.4500 N   0  0  0  0  0  0  0  0  0  0  0  0
  149.6093  134.9673  154.7425 C   0  0  0  0  0  0  0  0  0  0  0  0
  149.8594  134.4777  155.8438 O   0  0  0  0  0  0  0  0  0  0  0  0
  149.1095  134.2944  153.6928 N   0  0  0  0  0  0  0  0  0  0  0  0
  148.7627  132.9151  153.6168 C   0  0  0  0  0  0  0  0  0  0  0  0
  149.4132  131.9308  154.4048 C   0  0  0  0  0  0  0  0  0  0  0  0
  149.0355  130.5791  154.2893 C   0  0  0  0  0  0  0  0  0  0  0  0
  148.0205  130.2297  153.3814 C   0  0  0  0  0  0  0  0  0  0  0  0
  147.4338  131.1871  152.6334 N   0  3  0  0  0  0  0  0  0  0  0  0
  147.7544  132.5030  152.7026 C   0  0  0  0  0  0  0  0  0  0  0  0
  147.0897  133.4125  151.8522 N   0  0  0  0  0  0  0  0  0  0  0  0
  147.0816  133.0178  150.4453 C   0  0  0  0  0  0  0  0  0  0  0  0
  145.6953  133.3699  149.8987 C   0  0  0  0  0  0  0  0  0  0  0  0
  144.8147  133.3575  151.1419 C   0  0  0  0  0  0  0  0  0  0  0  0
  145.7588  133.8973  152.2132 C   0  0  0  0  0  0  0  0  0  0  0  0
  150.1657  139.7423  154.8105 N   0  0  0  0  0  0  0  0  0  0  0  0
  150.1850  140.2859  156.1738 C   0  0  0  0  0  0  0  0  0  0  0  0
  149.3485  141.5691  156.3183 C   0  0  0  0  0  0  0  0  0  0  0  0
  148.0104  141.3197  155.9106 O   0  0  0  0  0  0  0  0  0  0  0  0
  147.9390  140.8642  154.5669 C   0  0  0  0  0  0  0  0  0  0  0  0
  148.7628  139.5741  154.4135 C   0  0  0  0  0  0  0  0  0  0  0  0
  152.9531  137.6962  155.1572 H   0  0  0  0  0  0  0  0  0  0  0  0
  152.4117  138.9688  156.2417 H   0  0  0  0  0  0  0  0  0  0  0  0
  152.9835  139.3364  154.6143 H   0  0  0  0  0  0  0  0  0  0  0  0
  151.0150  138.2508  153.6184 H   0  0  0  0  0  0  0  0  0  0  0  0
  150.9914  136.7936  156.0539 H   0  0  0  0  0  0  0  0  0  0  0  0
  149.4296  137.5686  155.9996 H   0  0  0  0  0  0  0  0  0  0  0  0
  149.5487  136.5822  153.5213 H   0  0  0  0  0  0  0  0  0  0  0  0
  148.8618  134.8505  152.8877 H   0  0  0  0  0  0  0  0  0  0  0  0
  150.2062  132.1887  155.0902 H   0  0  0  0  0  0  0  0  0  0  0  0
  149.5217  129.8211  154.8860 H   0  0  0  0  0  0  0  0  0  0  0  0
  147.6685  129.2204  153.2246 H   0  0  0  0  0  0  0  0  0  0  0  0
  147.8658  133.5320  149.8895 H   0  0  0  0  0  0  0  0  0  0  0  0
  147.2560  131.9446  150.3529 H   0  0  0  0  0  0  0  0  0  0  0  0
  145.7106  134.3730  149.4700 H   0  0  0  0  0  0  0  0  0  0  0  0
  145.3552  132.6787  149.1273 H   0  0  0  0  0  0  0  0  0  0  0  0
  143.9092  133.9549  151.0322 H   0  0  0  0  0  0  0  0  0  0  0  0
  144.5220  132.3343  151.3816 H   0  0  0  0  0  0  0  0  0  0  0  0
  145.4318  133.6269  153.2171 H   0  0  0  0  0  0  0  0  0  0  0  0
  145.7812  134.9869  152.1729 H   0  0  0  0  0  0  0  0  0  0  0  0
  149.8208  139.5351  156.8768 H   0  0  0  0  0  0  0  0  0  0  0  0
  151.1993  140.5384  156.4757 H   0  0  0  0  0  0  0  0  0  0  0  0
  149.3470  141.9042  157.3557 H   0  0  0  0  0  0  0  0  0  0  0  0
  149.7748  142.3774  155.7220 H   0  0  0  0  0  0  0  0  0  0  0  0
  146.8961  140.6802  154.3089 H   0  0  0  0  0  0  0  0  0  0  0  0
  148.3037  141.6388  153.8905 H   0  0  0  0  0  0  0  0  0  0  0  0
  148.6917  139.2738  153.3699 H   0  0  0  0  0  0  0  0  0  0  0  0
  148.3039  138.7800  155.0045 H   0  0  0  0  0  0  0  0  0  0  0  0
  146.7090  130.9027  151.9743 H   0  0  0  0  0  0  0  0  0  0  0  0
  1  2  1  0  0  0  0
  1 25  1  0  0  0  0
  1 26  1  0  0  0  0
  1 27  1  0  0  0  0
  2  3  1  0  0  0  0
  2 19  1  0  0  0  0
  2 28  1  0  0  0  0
  3  4  1  0  0  0  0
  3 29  1  0  0  0  0
  3 30  1  0  0  0  0
  4  5  1  0  0  0  0
  4 31  1  0  0  0  0
  5  6  2  0  0  0  0
  5  7  1  0  0  0  0
  7  8  1  0  0  0  0
  7 32  1  0  0  0  0
  8 13  1  0  0  0  0
  8  9  2  0  0  0  0
  9 10  1  0  0  0  0
  9 33  1  0  0  0  0
 10 11  2  0  0  0  0
 10 34  1  0  0  0  0
 11 12  1  0  0  0  0
 11 35  1  0  0  0  0
 12 13  2  0  0  0  0
 12 52  1  0  0  0  0
 13 14  1  0  0  0  0
 14 18  1  0  0  0  0
 14 15  1  0  0  0  0
 15 16  1  0  0  0  0
 15 36  1  0  0  0  0
 15 37  1  0  0  0  0
 16 17  1  0  0  0  0
 16 38  1  0  0  0  0
 16 39  1  0  0  0  0
 17 18  1  0  0  0  0
 17 40  1  0  0  0  0
 17 41  1  0  0  0  0
 18 42  1  0  0  0  0
 18 43  1  0  0  0  0
 19 24  1  0  0  0  0
 19 20  1  0  0  0  0
 20 21  1  0  0  0  0
 20 44  1  0  0  0  0
 20 45  1  0  0  0  0
 21 22  1  0  0  0  0
 21 46  1  0  0  0  0
 21 47  1  0  0  0  0
 22 23  1  0  0  0  0
 23 24  1  0  0  0  0
 23 48  1  0  0  0  0
 23 49  1  0  0  0  0
 24 50  1  0  0  0  0
 24 51  1  0  0  0  0
M  CHG  1  12   1
M  END
> <s_m_source_file>
AV-unprocessed.smi

> <i_m_source_file_index>
1389

> <i_lp_mmshare_version>
43012

> <i_f3d_flags>
0

> <s_epik_input>
W0NIMl0xW0NIMl1PW0NIMl1bQ0gyXU4xW0NASF0oW0NIM10pW0NIMl1bTkhdQyg9TylbTkhdYzJbY0hdW2NIXVtjSF1uYzJOM1tDSDJdW0NIMl1bQ0gyXVtDSDJdMw==

> <s_epik_cmdline>
J2VwaWtfcHl0aG9uJywgJy1waCcsICc3LjAnLCAnLXRuJywgJzgnLCAnLW1hJywgJzIwMCcsICctbWV0YWxfYmluZGluZycsICctaW1hZScsICc8aW5maWxlLm1hZT4nLCAnLW9tYWUnLCAnPG91dGZpbGUubWFlPic=

> <r_epik_Ionization_Penalty>
1.37675

> <r_epik_Ionization_Penalty_Charging>
1.11074

> <r_epik_Ionization_Penalty_Neutral>
0.26601

> <r_epik_State_Penalty>
1.46015

> <r_epik_Charging_Adjusted_Penalty>
2.57089

> <i_epik_Tot_Q>
1

> <i_epik_Tot_abs_Q>
1

> <r_epik_Metal_State_Penalty>
1.54223

> <b_epik_Metal_Only>
0

> <s_lp_Force_Field>
OPLS_2005

> <r_lp_Energy>
63.8734

> <b_lp_Chiralities_Consistent>
1

> <s_lp_Variant>
AV-unprocessed.smi:1389-6

> <Gold.Version>
5.8.1

> <Gold.Id.Protein>
6NUR|6NUR_protein|mol2

> <Gold.PLP.Fitness>
49.8855

> <Gold.PLP.PLP>
-44.2080

> <Gold.PLP.part.hbond>
-3.8717

> <Gold.PLP.part.metal>
0.0000

> <Gold.PLP.part.buried>
-4.2150

> <Gold.PLP.part.nonpolar>
-36.8937

> <Gold.PLP.part.repulsive>
0.4761

> <Gold.PLP.ligand.clash>
0.0000

> <Gold.PLP.ligand.torsion>
1.5011

> <Gold.PLP.Chemscore.Hbond>
2.8100

> <Gold.PLP.Chemscore.CHOScore>
0.0000

> <Gold.PLP.Chemscore.Metal>
0.0000

> <Gold.Chemscore.Hbonds>
donor molecule, donor type, donor heavy atom, donor atom, acceptor molecule, acceptor atom, score
      L1  H     4    31       P1  7948  0.99
      L1  H     7    32       P1  7948  0.75
      P1  H  7989  7998       L1    19  0.24

> <Gold.PLP.Chemscore.Internal.Correction>
0.2497

> <Gold.Rescore>
     Score         DG    S(hbond)    S(metal)    S(lipo)     H(rot)  DE(clash)    DE(int)     intcor
     13.90     -15.97       1.41        0.00      84.62       1.60       0.05       2.02       ----

> <Gold.Chemscore.Fitness>
13.8978

> <Gold.Chemscore.DG>
-15.9687

> <Gold.Chemscore.ZeroCoef>
-5.4800

> <Gold.Chemscore.Hbond>
1.4051

> <Gold.Chemscore.Metal>
0.0000

> <Gold.Chemscore.Lipo>
84.6202

> <Gold.Chemscore.Internal_Hbond>
0.0000

> <Gold.Chemscore.DEClash>
0.0545

> <Gold.Chemscore.DEInternal>
2.0165

> <Gold.Chemscore.Rot>
1.6035

> <Gold.Chemscore.Internal.Correction>
   9.000000E+99

> <Gold.Chemscore.Hbonds>
donor molecule, donor type, donor heavy atom, donor atom, acceptor molecule, acceptor atom, score
      L1  H     4    31       P1  7948  0.66
      L1  H     7    32       P1  7948  0.09
      P1  H  7989  7998       L1    19  0.01

> <Gold.Chemscore.Hbond.Weighted>
-4.6931

> <Gold.Chemscore.Metal.Weighted>
-0.0000

> <Gold.Chemscore.Lipo.Weighted>
-9.9006

> <Gold.Chemscore.Internal_Hbond.Weighted>
0.0000

> <Gold.Chemscore.DEClash.Weighted>
0.0545

> <Gold.Chemscore.DEInternal.Weighted>
2.0165

> <Gold.Chemscore.Rot.Weighted>
4.1049

> <Gold.Chemscore.Internal.Correction.Weighted>
   9.000000E+99

> <Gold.Protein.RotatedTorsions>
[ 6907 6896 6895 6894 ] final   32.58 input  -60.11 | X-H torsion
[ 7974 7965 7964 7962 ] final -133.81 input  175.53 | X-H torsion
[ 8008 7997 7996 7995 ] final  -30.23 input   59.86 | X-H torsion
[ 10167 10162 10161 10158 ] final  -15.01 input  -65.29 | X-H torsion
[ 10718 10713 10712 10709 ] final   94.21 input   66.30 | X-H torsion
[ 10763 10752 10751 10750 ] final  153.85 input  -60.55 | X-H torsion
[ 11005 11000 10999 10996 ] final  140.18 input  -57.11 | X-H torsion

> <Gold.Protein.ActiveResidues>
 VAL166  LYS551  ARG553  GLY616  TRP617  ASP618  TYR619  PRO620  LYS621  CYS622 
 ASP623  PHE694  ASN695  SER759  ASP760  ASP761  ALA762  ILE779  LEU786  VAL792 
 PHE793  MET794  SER795  GLU796  ALA797  LYS798  CYS799  TRP800  GLU811  SER814 

> <Gold.Protein.RotatedAtoms>
  152.0765  134.9499  160.0573 H   0  0  0  0  0  0  0  0  0  0  0  0  # atno 6907 bound_to 6896
  152.0804  133.4145  159.4507 H   0  0  0  0  0  0  0  0  0  0  0  0  # atno 6908 bound_to 6896
  150.6836  134.2908  159.4709 H   0  0  0  0  0  0  0  0  0  0  0  0  # atno 6909 bound_to 6896
  144.9160  140.6955  143.4995 H   0  0  0  0  0  0  0  0  0  0  0  0  # atno 7974 bound_to 7965
  154.4258  140.1797  156.1375 H   0  0  0  0  0  0  0  0  0  0  0  0  # atno 8008 bound_to 7997
  156.0019  140.3359  155.6829 H   0  0  0  0  0  0  0  0  0  0  0  0  # atno 8009 bound_to 7997
  155.6231  140.0662  157.2662 H   0  0  0  0  0  0  0  0  0  0  0  0  # atno 8010 bound_to 7997
  140.7211  143.5262  150.9574 H   0  0  0  0  0  0  0  0  0  0  0  0  # atno 10167 bound_to 10162
  157.6949  131.0504  150.4151 H   0  0  0  0  0  0  0  0  0  0  0  0  # atno 10718 bound_to 10713
  154.1429  135.2819  155.3156 H   0  0  0  0  0  0  0  0  0  0  0  0  # atno 10763 bound_to 10752
  154.6274  135.5447  153.7645 H   0  0  0  0  0  0  0  0  0  0  0  0  # atno 10764 bound_to 10752
  153.0245  135.6454  154.1575 H   0  0  0  0  0  0  0  0  0  0  0  0  # atno 10765 bound_to 10752
  140.0308  134.9352  157.0659 H   0  0  0  0  0  0  0  0  0  0  0  0  # atno 11005 bound_to 11000
  145.3375  139.1741  143.4503 LP  0  0  0  0  0  0  0  0  0  0  0  0  # atno 17320 bound_to 7965
  146.3182  140.3412  142.8648 LP  0  0  0  0  0  0  0  0  0  0  0  0  # atno 17321 bound_to 7965
  139.8981  143.6869  152.3135 LP  0  0  0  0  0  0  0  0  0  0  0  0  # atno 17342 bound_to 10162
  139.7209  144.7603  151.0957 LP  0  0  0  0  0  0  0  0  0  0  0  0  # atno 17343 bound_to 10162
  156.4531  130.4016  149.6623 LP  0  0  0  0  0  0  0  0  0  0  0  0  # atno 17370 bound_to 10713
  156.3765  130.7557  151.2546 LP  0  0  0  0  0  0  0  0  0  0  0  0  # atno 17371 bound_to 10713
  140.4228  134.1862  155.7165 LP  0  0  0  0  0  0  0  0  0  0  0  0  # atno 17394 bound_to 11000
  141.1830  133.8373  157.1190 LP  0  0  0  0  0  0  0  0  0  0  0  0  # atno 17395 bound_to 11000

$$$$
