#       Name:                AV-unprocessed.smi:1479
#       Creating user name   scv26
#       Creation time:       Fri Mar 27 06:07:45 2020


#       File generated by GOLD software.
#

@<TRIPOS>MOLECULE
AV-unprocessed.smi:1479
    45    46     1
SMALL
NO_CHARGES


@<TRIPOS>ATOM
      1 ****        -5.0965   4.3355   0.1474 C.3            1 S1                 0.0000
      2 ****        -4.1716   2.8415   0.6894 S.o2           1 S1                 0.0000
      3 ****        -2.7325   3.1219   0.5722 O.2            1 S1                 0.0000
      4 ****        -4.7208   2.3937   1.9784 O.2            1 S1                 0.0000
      5 ****        -4.6451   1.6128  -0.6062 C.3            1 S1                 0.0000
      6 ****        -4.1061   0.2093  -0.2921 C.3            1 S1                 0.0000
      7 ****        -2.6615   0.1704  -0.4505 N.3            1 S1                 0.0000
      8 ****        -2.1606  -1.1538  -0.1226 C.3            1 S1                 0.0000
      9 ****        -0.6480  -1.1933  -0.0529 C.ar           1 S1                 0.0000
     10 ****         0.0785  -0.3865   0.8463 C.ar           1 S1                 0.0000
     11 ****         1.4263  -0.4329   0.9086 N.ar           1 S1                 0.0000
     12 ****         2.0639  -1.2770   0.0856 C.ar           1 S1                 0.0000
     13 ****         3.4629  -1.3182   0.1556 N.pl3          1 S1                 0.0000
     14 ****         4.2047  -0.6599   1.2342 C.3            1 S1                 0.0000
     15 ****         5.5833  -0.1872   0.7428 C.3            1 S1                 0.0000
     16 ****         6.2967  -1.2822   0.1825 O.3            1 S1                 0.0000
     17 ****         5.6195  -1.8238  -0.9445 C.3            1 S1                 0.0000
     18 ****         4.2429  -2.3602  -0.5173 C.3            1 S1                 0.0000
     19 ****         1.4619  -2.0843  -0.7996 N.ar           1 S1                 0.0000
     20 ****         0.1142  -2.0485  -0.8728 C.ar           1 S1                 0.0000
     21 ****        -4.8974   5.1539   0.8391 H              1 S1                 0.0000
     22 ****        -6.1650   4.1216   0.1393 H              1 S1                 0.0000
     23 ****        -4.7741   4.6222  -0.8533 H              1 S1                 0.0000
     24 ****        -5.7339   1.5850  -0.6463 H              1 S1                 0.0000
     25 ****        -4.2926   1.9700  -1.5744 H              1 S1                 0.0000
     26 ****        -4.3831  -0.0779   0.7231 H              1 S1                 0.0000
     27 ****        -4.5569  -0.5168  -0.9695 H              1 S1                 0.0000
     28 ****        -2.4408   0.3809  -1.4134 H              1 S1                 0.0000
     29 ****        -2.5452  -1.4615   0.8508 H              1 S1                 0.0000
     30 ****        -2.5214  -1.8756  -0.8563 H              1 S1                 0.0000
     31 ****        -0.4201   0.2972   1.5177 H              1 S1                 0.0000
     32 ****         3.6721   0.2029   1.6334 H              1 S1                 0.0000
     33 ****         4.3228  -1.3663   2.0566 H              1 S1                 0.0000
     34 ****         5.4810   0.6114   0.0060 H              1 S1                 0.0000
     35 ****         6.1575   0.2202   1.5748 H              1 S1                 0.0000
     36 ****         5.5165  -1.0646  -1.7217 H              1 S1                 0.0000
     37 ****         6.2212  -2.6295  -1.3653 H              1 S1                 0.0000
     38 ****         4.3643  -3.2009   0.1665 H              1 S1                 0.0000
     39 ****         3.7382  -2.7442  -1.4032 H              1 S1                 0.0000
     40 ****        -0.3543  -2.7063  -1.5899 H              1 S1                 0.0000
     41 ****        -2.2363   0.8381   0.1606 LP             1 S1                 0.0000
     42 ****         1.9331   0.1445   1.5488 LP             1 S1                 0.0000
     43 ****         6.3944  -1.9955   0.8765 LP             1 S1                 0.0000
     44 ****         7.2023  -0.9682  -0.1026 LP             1 S1                 0.0000
     45 ****         1.9943  -2.6937  -1.3870 LP             1 S1                 0.0000
@<TRIPOS>BOND
    1    1    2 1     
    2    1   21 1     
    3    1   22 1     
    4    1   23 1     
    5    2    3 2     
    6    2    4 2     
    7    2    5 1     
    8    5    6 1     
    9    5   24 1     
   10    5   25 1     
   11    6    7 1     
   12    6   26 1     
   13    6   27 1     
   14    7    8 1     
   15    7   28 1     
   16    8    9 1     
   17    8   29 1     
   18    8   30 1     
   19    9   20 ar    
   20    9   10 ar    
   21   10   11 ar    
   22   10   31 1     
   23   11   12 ar    
   24   12   13 1     
   25   12   19 ar    
   26   13   18 1     
   27   13   14 1     
   28   14   15 1     
   29   14   32 1     
   30   14   33 1     
   31   15   16 1     
   32   15   34 1     
   33   15   35 1     
   34   16   17 1     
   35   17   18 1     
   36   17   36 1     
   37   17   37 1     
   38   18   38 1     
   39   18   39 1     
   40   19   20 ar    
   41   20   40 1     
   42    7   41 1     
   43   11   42 1     
   44   16   43 1     
   45   16   44 1     
   46   19   45 1     
@<TRIPOS>SUBSTRUCTURE
      1 S1             1
@<TRIPOS>SET
LONE_PAIRS      STATIC     ATOMS    <user>   **** ""
7 3 4 41 42 43 44 45
DONOR_HYDROGENS      STATIC     ATOMS    <user>   **** ""
1 28
ATOM$BLUE        STATIC     ATOMS    COLORGROUP SYSTEM
7 3 4 41 42 43 44 45
ATOM$RED        STATIC     ATOMS    COLORGROUP SYSTEM
1 28
