AV-unprocessed.smi:99|AV-procd|sdf|874|dock10
  -GOLD-   2262017343D 1   1.00000     0.00000
 Structure written by MMmdl.
 53 56  0  0  0  0  0  0  0  0  1 V2000
  148.3797  137.0469  161.2584 O   0  0  0  0  0  0  0  0  0  0  0  0
  147.4514  136.4928  160.6658 C   0  0  0  0  0  0  0  0  0  0  0  0
  147.3322  136.4695  159.3238 O   0  0  0  0  0  0  0  0  0  0  0  0
  148.0278  137.4205  158.5349 C   0  0  0  0  0  0  0  0  0  0  0  0
  149.5142  137.0530  158.4902 C   0  0  1  0  0  0  0  0  0  0  0  0
  149.6642  135.6427  158.4349 O   0  0  0  0  0  0  0  0  0  0  0  0
  150.8708  135.3243  157.8156 C   0  0  1  0  0  0  0  0  0  0  0  0
  150.6160  134.1502  156.8938 N   0  0  0  0  0  0  0  0  0  0  0  0
  149.6197  134.2156  155.9290 C   0  0  0  0  0  0  0  0  0  0  0  0
  149.3376  133.1940  155.0868 C   0  0  0  0  0  0  0  0  0  0  0  0
  150.0901  131.9456  155.1608 C   0  0  0  0  0  0  0  0  0  0  0  0
  149.9074  130.9645  154.4434 O   0  0  0  0  0  0  0  0  0  0  0  0
  151.0845  131.9248  156.1433 N   0  0  0  0  0  0  0  0  0  0  0  0
  151.3865  132.9724  157.0155 C   0  0  0  0  0  0  0  0  0  0  0  0
  152.2952  132.8453  157.8349 O   0  0  0  0  0  0  0  0  0  0  0  0
  151.3792  136.5801  157.0725 C   0  0  1  0  0  0  0  0  0  0  0  0
  151.6889  136.3759  155.7057 O   0  0  0  0  0  0  0  0  0  0  0  0
  150.2132  137.5482  157.2245 C   0  0  2  0  0  0  0  0  0  0  0  0
  150.6833  138.8743  157.4321 O   0  0  0  0  0  0  0  0  0  0  0  0
  151.5094  139.1602  158.4611 C   0  0  0  0  0  0  0  0  0  0  0  0
  151.9402  138.3147  159.2479 O   0  0  0  0  0  0  0  0  0  0  0  0
  151.8475  140.6099  158.5472 C   0  0  0  0  0  0  0  0  0  0  0  0
  151.3108  141.5039  157.5914 C   0  0  0  0  0  0  0  0  0  0  0  0
  151.6150  142.8780  157.6435 C   0  0  0  0  0  0  0  0  0  0  0  0
  152.4610  143.3750  158.6519 C   0  0  0  0  0  0  0  0  0  0  0  0
  153.0015  142.4962  159.6087 C   0  0  0  0  0  0  0  0  0  0  0  0
  152.6975  141.1215  159.5589 C   0  0  0  0  0  0  0  0  0  0  0  0
  146.3428  135.7765  161.3602 C   0  0  0  0  0  0  0  0  0  0  0  0
  145.1327  136.4608  161.6218 C   0  0  0  0  0  0  0  0  0  0  0  0
  144.0683  135.8115  162.2766 C   0  0  0  0  0  0  0  0  0  0  0  0
  144.2005  134.4693  162.6775 C   0  0  0  0  0  0  0  0  0  0  0  0
  145.3981  133.7767  162.4213 C   0  0  0  0  0  0  0  0  0  0  0  0
  146.4640  134.4246  161.7670 C   0  0  0  0  0  0  0  0  0  0  0  0
  151.6325  131.0810  156.2279 H   0  0  0  0  0  0  0  0  0  0  0  0
  147.6160  137.4624  157.5255 H   0  0  0  0  0  0  0  0  0  0  0  0
  147.9036  138.4073  158.9829 H   0  0  0  0  0  0  0  0  0  0  0  0
  150.0370  137.4243  159.3738 H   0  0  0  0  0  0  0  0  0  0  0  0
  151.5630  134.9936  158.5912 H   0  0  0  0  0  0  0  0  0  0  0  0
  149.0397  135.1227  155.8352 H   0  0  0  0  0  0  0  0  0  0  0  0
  148.5512  133.3004  154.3536 H   0  0  0  0  0  0  0  0  0  0  0  0
  152.2605  136.9481  157.6002 H   0  0  0  0  0  0  0  0  0  0  0  0
  150.9967  136.7507  155.1826 H   0  0  0  0  0  0  0  0  0  0  0  0
  149.5265  137.4632  156.3803 H   0  0  0  0  0  0  0  0  0  0  0  0
  150.6598  141.1458  156.8068 H   0  0  0  0  0  0  0  0  0  0  0  0
  151.1995  143.5509  156.9079 H   0  0  0  0  0  0  0  0  0  0  0  0
  152.6950  144.4287  158.6911 H   0  0  0  0  0  0  0  0  0  0  0  0
  153.6519  142.8769  160.3824 H   0  0  0  0  0  0  0  0  0  0  0  0
  153.1308  140.4744  160.3074 H   0  0  0  0  0  0  0  0  0  0  0  0
  145.0076  137.4921  161.3239 H   0  0  0  0  0  0  0  0  0  0  0  0
  143.1494  136.3446  162.4713 H   0  0  0  0  0  0  0  0  0  0  0  0
  143.3843  133.9719  163.1802 H   0  0  0  0  0  0  0  0  0  0  0  0
  145.4997  132.7460  162.7276 H   0  0  0  0  0  0  0  0  0  0  0  0
  147.3690  133.8635  161.5857 H   0  0  0  0  0  0  0  0  0  0  0  0
  1  2  2  0  0  0  0
  2  3  1  0  0  0  0
  2 28  1  0  0  0  0
  3  4  1  0  0  0  0
  4  5  1  0  0  0  0
  4 35  1  0  0  0  0
  4 36  1  0  0  0  0
  5 18  1  0  0  0  0
  5  6  1  0  0  0  0
  5 37  1  0  0  0  0
  6  7  1  0  0  0  0
  7  8  1  0  0  0  0
  7 16  1  0  0  0  0
  7 38  1  0  0  0  0
  8 14  1  0  0  0  0
  8  9  1  0  0  0  0
  9 10  2  0  0  0  0
  9 39  1  0  0  0  0
 10 11  1  0  0  0  0
 10 40  1  0  0  0  0
 11 12  2  0  0  0  0
 11 13  1  0  0  0  0
 13 34  1  0  0  0  0
 13 14  1  0  0  0  0
 14 15  2  0  0  0  0
 16 17  1  0  0  0  0
 16 18  1  0  0  0  0
 16 41  1  0  0  0  0
 17 42  1  0  0  0  0
 18 19  1  0  0  0  0
 18 43  1  0  0  0  0
 19 20  1  0  0  0  0
 20 21  2  0  0  0  0
 20 22  1  0  0  0  0
 22 27  1  0  0  0  0
 22 23  2  0  0  0  0
 23 24  1  0  0  0  0
 23 44  1  0  0  0  0
 24 25  2  0  0  0  0
 24 45  1  0  0  0  0
 25 26  1  0  0  0  0
 25 46  1  0  0  0  0
 26 27  2  0  0  0  0
 26 47  1  0  0  0  0
 27 48  1  0  0  0  0
 28 33  1  0  0  0  0
 28 29  2  0  0  0  0
 29 30  1  0  0  0  0
 29 49  1  0  0  0  0
 30 31  2  0  0  0  0
 30 50  1  0  0  0  0
 31 32  1  0  0  0  0
 31 51  1  0  0  0  0
 32 33  2  0  0  0  0
 32 52  1  0  0  0  0
 33 53  1  0  0  0  0
M  END
> <s_m_source_file>
AV-unprocessed.smi

> <i_m_source_file_index>
99

> <i_lp_mmshare_version>
43012

> <i_f3d_flags>
0

> <s_epik_input>
W2NIXTFbY0hdW2NIXVtjSF1bY0hdYzFDKD1PKU9bQ0gyXVtDQEBIXTJPW0NAQEhdKG4zW2NIXVtjSF1jKD1PKVtuSF1jMz1PKVtDQEBIXShbT0hdKVtDQEhdMk9DKD1PKWM0W2NIXVtjSF1bY0hdW2NIXVtjSF00

> <s_epik_cmdline>
J2VwaWtfcHl0aG9uJywgJy1waCcsICc3LjAnLCAnLXRuJywgJzgnLCAnLW1hJywgJzIwMCcsICctbWV0YWxfYmluZGluZycsICctaW1hZScsICc8aW5maWxlLm1hZT4nLCAnLW9tYWUnLCAnPG91dGZpbGUubWFlPic=

> <r_lp_tautomer_probability>
1

> <r_epik_Ionization_Penalty>
0.00454555

> <r_epik_Ionization_Penalty_Charging>
0.0045191

> <r_epik_Ionization_Penalty_Neutral>
2.64449e-05

> <r_epik_State_Penalty>
-0

> <r_epik_Charging_Adjusted_Penalty>
0.0045191

> <i_epik_Tot_Q>
0

> <i_epik_Tot_abs_Q>
0

> <r_epik_Metal_State_Penalty>
1.27877

> <b_epik_Metal_Only>
0

> <s_epik_Chemistry_Notes>
This compound has an ester and may undergo hydrolysis at high or low pH. This compound contains an acetal/aminal-like group ( X-CH(R)-Y where X, Y are N, S, or O) that may be acid/base labile, releasing an aldehyde.

> <s_lp_Force_Field>
OPLS_2005

> <r_lp_Energy>
37.9182

> <b_lp_Chiralities_Consistent>
1

> <s_lp_Variant>
AV-unprocessed.smi:99-10

> <Gold.Version>
5.8.1

> <Gold.Id.Protein>
6NUR|6NUR_protein|mol2

> <Gold.PLP.Fitness>
53.9732

> <Gold.PLP.PLP>
-49.4798

> <Gold.PLP.part.hbond>
-4.2411

> <Gold.PLP.part.metal>
0.0000

> <Gold.PLP.part.buried>
-5.8994

> <Gold.PLP.part.nonpolar>
-41.5563

> <Gold.PLP.part.repulsive>
0.1097

> <Gold.PLP.ligand.clash>
0.0091

> <Gold.PLP.ligand.torsion>
2.1542

> <Gold.PLP.Chemscore.Hbond>
2.7691

> <Gold.PLP.Chemscore.CHOScore>
0.0000

> <Gold.PLP.Chemscore.Metal>
0.0000

> <Gold.Chemscore.Hbonds>
donor molecule, donor type, donor heavy atom, donor atom, acceptor molecule, acceptor atom, score
      P1  H  6896  6909       L1    15  0.94
      P1  H  6931  6943       L1     1  0.96
      P1  H  6934  6947       L1     1  0.05
      P1  H 10752 10764       L1    17  1.00

> <Gold.PLP.Chemscore.Internal.Correction>
0.5037

> <Gold.Rescore>
     Score         DG    S(hbond)    S(metal)    S(lipo)     H(rot)  DE(clash)    DE(int)     intcor
     12.92     -20.21       2.87        0.00     113.88       3.19       1.39       5.90       ----

> <Gold.Chemscore.Fitness>
12.9246

> <Gold.Chemscore.DG>
-20.2113

> <Gold.Chemscore.ZeroCoef>
-5.4800

> <Gold.Chemscore.Hbond>
2.8665

> <Gold.Chemscore.Metal>
0.0000

> <Gold.Chemscore.Lipo>
113.8812

> <Gold.Chemscore.Internal_Hbond>
0.0000

> <Gold.Chemscore.DEClash>
1.3853

> <Gold.Chemscore.DEInternal>
5.9014

> <Gold.Chemscore.Rot>
3.1903

> <Gold.Chemscore.Internal.Correction>
   9.000000E+99

> <Gold.Chemscore.Hbonds>
donor molecule, donor type, donor heavy atom, donor atom, acceptor molecule, acceptor atom, score
      P1  H  6896  6909       L1    15  0.63
      P1  H  6931  6943       L1     1  0.89
      P1  H 10752 10764       L1    17  0.96

> <Gold.Chemscore.Hbond.Weighted>
-9.5743

> <Gold.Chemscore.Metal.Weighted>
-0.0000

> <Gold.Chemscore.Lipo.Weighted>
-13.3241

> <Gold.Chemscore.Internal_Hbond.Weighted>
0.0000

> <Gold.Chemscore.DEClash.Weighted>
1.3853

> <Gold.Chemscore.DEInternal.Weighted>
5.9014

> <Gold.Chemscore.Rot.Weighted>
8.1671

> <Gold.Chemscore.Internal.Correction.Weighted>
   9.000000E+99

> <Gold.Protein.RotatedTorsions>
[ 6907 6896 6895 6894 ] final  -66.03 input  -60.11 | X-H torsion
[ 7974 7965 7964 7962 ] final   14.11 input  175.53 | X-H torsion
[ 8008 7997 7996 7995 ] final -113.01 input   59.86 | X-H torsion
[ 10167 10162 10161 10158 ] final  -85.51 input  -65.29 | X-H torsion
[ 10718 10713 10712 10709 ] final   -5.62 input   66.30 | X-H torsion
[ 10763 10752 10751 10750 ] final  -44.25 input  -60.55 | X-H torsion
[ 11005 11000 10999 10996 ] final   48.09 input  -57.11 | X-H torsion

> <Gold.Protein.ActiveResidues>
 VAL166  LYS551  ARG553  GLY616  TRP617  ASP618  TYR619  PRO620  LYS621  CYS622 
 ASP623  PHE694  ASN695  SER759  ASP760  ASP761  ALA762  ILE779  LEU786  VAL792 
 PHE793  MET794  SER795  GLU796  ALA797  LYS798  CYS799  TRP800  GLU811  SER814 

> <Gold.Protein.RotatedAtoms>
  150.7489  134.6078  159.6070 H   0  0  0  0  0  0  0  0  0  0  0  0  # atno 6907 bound_to 6896
  152.3421  134.7117  160.0270 H   0  0  0  0  0  0  0  0  0  0  0  0  # atno 6908 bound_to 6896
  151.7566  133.3295  159.3442 H   0  0  0  0  0  0  0  0  0  0  0  0  # atno 6909 bound_to 6896
  146.2313  139.9090  142.8527 H   0  0  0  0  0  0  0  0  0  0  0  0  # atno 7974 bound_to 7965
  155.0140  140.0393  157.2411 H   0  0  0  0  0  0  0  0  0  0  0  0  # atno 8008 bound_to 7997
  154.7435  140.2753  155.6330 H   0  0  0  0  0  0  0  0  0  0  0  0  # atno 8009 bound_to 7997
  156.2869  140.2661  156.2169 H   0  0  0  0  0  0  0  0  0  0  0  0  # atno 8010 bound_to 7997
  140.4030  143.2654  151.9117 H   0  0  0  0  0  0  0  0  0  0  0  0  # atno 10167 bound_to 10162
  156.7439  130.5218  149.5818 H   0  0  0  0  0  0  0  0  0  0  0  0  # atno 10718 bound_to 10713
  154.0090  135.6684  153.4764 H   0  0  0  0  0  0  0  0  0  0  0  0  # atno 10763 bound_to 10752
  153.0629  135.5017  154.8130 H   0  0  0  0  0  0  0  0  0  0  0  0  # atno 10764 bound_to 10752
  154.7007  135.3078  154.9309 H   0  0  0  0  0  0  0  0  0  0  0  0  # atno 10765 bound_to 10752
  140.1221  134.4816  155.8589 H   0  0  0  0  0  0  0  0  0  0  0  0  # atno 11005 bound_to 11000
  145.2248  140.9950  143.4024 LP  0  0  0  0  0  0  0  0  0  0  0  0  # atno 17320 bound_to 7965
  144.9579  139.4011  143.6370 LP  0  0  0  0  0  0  0  0  0  0  0  0  # atno 17321 bound_to 7965
  139.4784  144.5614  151.8233 LP  0  0  0  0  0  0  0  0  0  0  0  0  # atno 17342 bound_to 10162
  140.4719  144.1574  150.5919 LP  0  0  0  0  0  0  0  0  0  0  0  0  # atno 17343 bound_to 10162
  156.1446  130.6268  151.0514 LP  0  0  0  0  0  0  0  0  0  0  0  0  # atno 17370 bound_to 10713
  157.6807  131.0839  150.7378 LP  0  0  0  0  0  0  0  0  0  0  0  0  # atno 17371 bound_to 10713
  141.2154  133.6764  156.6908 LP  0  0  0  0  0  0  0  0  0  0  0  0  # atno 17394 bound_to 11000
  140.2952  134.8209  157.4050 LP  0  0  0  0  0  0  0  0  0  0  0  0  # atno 17395 bound_to 11000

$$$$
