AV-unprocessed.smi:2243|AV-procd|sdf|9071|dock8
  -GOLD-   2272012273D 1   1.00000     0.00000
 Structure written by MMmdl.
 33 34  0  0  0  0  0  0  0  0  2 V2000
  151.2304  140.1693  155.9630 C   0  0  0  0  0  0  0  0  0  0  0  0
  150.9034  140.5090  157.4275 C   0  0  1  0  0  0  0  0  0  0  0  0
  150.9190  139.2585  158.1898 N   0  0  0  0  0  0  0  0  0  0  0  0
  149.8558  138.5497  158.6008 C   0  0  0  0  0  0  0  0  0  0  0  0
  148.7141  138.9479  158.3587 O   0  0  0  0  0  0  0  0  0  0  0  0
  150.1833  137.4247  159.2755 N   0  5  0  0  0  0  0  0  0  0  0  0
  149.2198  136.6831  159.8457 C   0  0  0  0  0  0  0  0  0  0  0  0
  149.0115  135.3784  159.6608 N   0  0  0  0  0  0  0  0  0  0  0  0
  147.9197  135.0532  160.4508 C   0  0  0  0  0  0  0  0  0  0  0  0
  147.5143  136.1899  161.0952 C   0  0  0  0  0  0  0  0  0  0  0  0
  148.3293  137.2237  160.7251 O   0  0  0  0  0  0  0  0  0  0  0  0
  151.8796  141.5451  158.0484 C   0  0  0  0  0  0  0  0  0  0  0  0
  151.9500  141.4533  159.5878 C   0  0  0  0  0  0  0  0  0  0  0  0
  152.8703  142.5367  160.1719 C   0  0  0  0  0  0  0  0  0  0  0  0
  152.4220  143.8254  159.7707 O   0  0  0  0  0  0  0  0  0  0  0  0
  152.4599  144.0023  158.3604 C   0  0  0  0  0  0  0  0  0  0  0  0
  151.5193  142.9977  157.6748 C   0  0  0  0  0  0  0  0  0  0  0  0
  151.0984  141.0295  155.3078 H   0  0  0  0  0  0  0  0  0  0  0  0
  150.5717  139.3845  155.5894 H   0  0  0  0  0  0  0  0  0  0  0  0
  152.2572  139.8182  155.8561 H   0  0  0  0  0  0  0  0  0  0  0  0
  149.8997  140.9369  157.4404 H   0  0  0  0  0  0  0  0  0  0  0  0
  151.8285  138.8859  158.4197 H   0  0  0  0  0  0  0  0  0  0  0  0
  147.5227  134.0498  160.4922 H   0  0  0  0  0  0  0  0  0  0  0  0
  146.7262  136.4179  161.7966 H   0  0  0  0  0  0  0  0  0  0  0  0
  152.8785  141.3393  157.6599 H   0  0  0  0  0  0  0  0  0  0  0  0
  150.9500  141.5611  160.0100 H   0  0  0  0  0  0  0  0  0  0  0  0
  152.3162  140.4760  159.9023 H   0  0  0  0  0  0  0  0  0  0  0  0
  152.8634  142.4857  161.2608 H   0  0  0  0  0  0  0  0  0  0  0  0
  153.9026  142.3825  159.8538 H   0  0  0  0  0  0  0  0  0  0  0  0
  152.1518  145.0215  158.1270 H   0  0  0  0  0  0  0  0  0  0  0  0
  153.4820  143.8889  157.9956 H   0  0  0  0  0  0  0  0  0  0  0  0
  151.5775  143.1462  156.5971 H   0  0  0  0  0  0  0  0  0  0  0  0
  150.4895  143.2096  157.9654 H   0  0  0  0  0  0  0  0  0  0  0  0
  1  2  1  0  0  0  0
  1 18  1  0  0  0  0
  1 19  1  0  0  0  0
  1 20  1  0  0  0  0
  2  3  1  0  0  0  0
  2 12  1  0  0  0  0
  2 21  1  0  0  0  0
  3 22  1  0  0  0  0
  3  4  1  0  0  0  0
  4  6  1  0  0  0  0
  4  5  2  0  0  0  0
  6  7  1  0  0  0  0
  7 11  1  0  0  0  0
  7  8  2  0  0  0  0
  8  9  1  0  0  0  0
  9 23  1  0  0  0  0
  9 10  2  0  0  0  0
 10 24  1  0  0  0  0
 10 11  1  0  0  0  0
 12 17  1  0  0  0  0
 12 13  1  0  0  0  0
 12 25  1  0  0  0  0
 13 14  1  0  0  0  0
 13 26  1  0  0  0  0
 13 27  1  0  0  0  0
 14 15  1  0  0  0  0
 14 28  1  0  0  0  0
 14 29  1  0  0  0  0
 15 16  1  0  0  0  0
 16 17  1  0  0  0  0
 16 30  1  0  0  0  0
 16 31  1  0  0  0  0
 17 32  1  0  0  0  0
 17 33  1  0  0  0  0
M  CHG  1   6  -1
M  END
> <s_m_source_file>
AV-unprocessed.smi

> <i_m_source_file_index>
2243

> <i_lp_mmshare_version>
43012

> <i_f3d_flags>
0

> <s_epik_input>
W0NIMl0xW0NIMl1PW0NIMl1bQ0gyXVtDSF0xW0NASF0oW0NIM10pW05IXUMoPU8pW05IXWMybltjSF1bY0hdbzI=

> <s_epik_cmdline>
J2VwaWtfcHl0aG9uJywgJy1waCcsICc3LjAnLCAnLXRuJywgJzgnLCAnLW1hJywgJzIwMCcsICctbWV0YWxfYmluZGluZycsICctaW1hZScsICc8aW5maWxlLm1hZT4nLCAnLW9tYWUnLCAnPG91dGZpbGUubWFlPic=

> <r_lp_tautomer_probability>
0.107061

> <r_epik_Ionization_Penalty>
11.1403

> <r_epik_Ionization_Penalty_Charging>
7.81312

> <r_epik_Ionization_Penalty_Neutral>
3.32719

> <r_epik_State_Penalty>
5.94317

> <r_epik_Charging_Adjusted_Penalty>
13.7563

> <i_epik_Tot_Q>
-1

> <i_epik_Tot_abs_Q>
1

> <r_epik_Metal_State_Penalty>
1.86619

> <b_epik_Metal_Only>
1

> <s_lp_Force_Field>
OPLS_2005

> <r_lp_Energy>
6.4903

> <b_lp_Chiralities_Consistent>
1

> <s_lp_Variant>
AV-unprocessed.smi:2243-10

> <Gold.Version>
5.8.1

> <Gold.Id.Protein>
6NUR|6NUR_protein|mol2

> <Gold.PLP.Fitness>
36.3895

> <Gold.PLP.PLP>
-31.8824

> <Gold.PLP.part.hbond>
-3.7713

> <Gold.PLP.part.metal>
0.0000

> <Gold.PLP.part.buried>
-4.7478

> <Gold.PLP.part.nonpolar>
-23.5128

> <Gold.PLP.part.repulsive>
0.1051

> <Gold.PLP.ligand.clash>
0.0000

> <Gold.PLP.ligand.torsion>
1.1954

> <Gold.PLP.Chemscore.Hbond>
2.2936

> <Gold.PLP.Chemscore.CHOScore>
0.0000

> <Gold.PLP.Chemscore.Metal>
0.0000

> <Gold.Chemscore.Hbonds>
donor molecule, donor type, donor heavy atom, donor atom, acceptor molecule, acceptor atom, score
      P1  H  6896  6909       L1     8  0.93
      P1  H  6931  6943       L1    11  0.83
      P1  H  6934  6947       L1    11  0.44

> <Gold.PLP.Chemscore.Internal.Correction>
0.0171

> <Gold.Rescore>
     Score         DG    S(hbond)    S(metal)    S(lipo)     H(rot)  DE(clash)    DE(int)     intcor
     14.57     -16.42       1.63        0.00      75.42       1.31       0.02       1.82       ----

> <Gold.Chemscore.Fitness>
14.5748

> <Gold.Chemscore.DG>
-16.4167

> <Gold.Chemscore.ZeroCoef>
-5.4800

> <Gold.Chemscore.Hbond>
1.6336

> <Gold.Chemscore.Metal>
0.0000

> <Gold.Chemscore.Lipo>
75.4245

> <Gold.Chemscore.Internal_Hbond>
0.0000

> <Gold.Chemscore.DEClash>
0.0234

> <Gold.Chemscore.DEInternal>
1.8185

> <Gold.Chemscore.Rot>
1.3063

> <Gold.Chemscore.Internal.Correction>
   9.000000E+99

> <Gold.Chemscore.Hbonds>
donor molecule, donor type, donor heavy atom, donor atom, acceptor molecule, acceptor atom, score
      P1  H  6896  6909       L1     8  0.73
      P1  H  6931  6943       L1    11  0.71
      P1  H  6934  6947       L1    11  0.29

> <Gold.Chemscore.Hbond.Weighted>
-5.4563

> <Gold.Chemscore.Metal.Weighted>
-0.0000

> <Gold.Chemscore.Lipo.Weighted>
-8.8247

> <Gold.Chemscore.Internal_Hbond.Weighted>
0.0000

> <Gold.Chemscore.DEClash.Weighted>
0.0234

> <Gold.Chemscore.DEInternal.Weighted>
1.8185

> <Gold.Chemscore.Rot.Weighted>
3.3443

> <Gold.Chemscore.Internal.Correction.Weighted>
   9.000000E+99

> <Gold.Protein.RotatedTorsions>
[ 6907 6896 6895 6894 ] final   38.58 input  -60.11 | X-H torsion
[ 7974 7965 7964 7962 ] final  109.75 input  175.53 | X-H torsion
[ 8008 7997 7996 7995 ] final -131.86 input   59.86 | X-H torsion
[ 10167 10162 10161 10158 ] final   92.16 input  -65.29 | X-H torsion
[ 10718 10713 10712 10709 ] final   21.62 input   66.30 | X-H torsion
[ 10763 10752 10751 10750 ] final  178.23 input  -60.55 | X-H torsion
[ 11005 11000 10999 10996 ] final  103.97 input  -57.11 | X-H torsion

> <Gold.Protein.ActiveResidues>
 VAL166  LYS551  ARG553  GLY616  TRP617  ASP618  TYR619  PRO620  LYS621  CYS622 
 ASP623  PHE694  ASN695  SER759  ASP760  ASP761  ALA762  ILE779  LEU786  VAL792 
 PHE793  MET794  SER795  GLU796  ALA797  LYS798  CYS799  TRP800  GLU811  SER814 

> <Gold.Protein.RotatedAtoms>
  152.1583  134.8933  160.0543 H   0  0  0  0  0  0  0  0  0  0  0  0  # atno 6907 bound_to 6896
  151.9939  133.3796  159.4163 H   0  0  0  0  0  0  0  0  0  0  0  0  # atno 6908 bound_to 6896
  150.6884  134.3830  159.5086 H   0  0  0  0  0  0  0  0  0  0  0  0  # atno 6909 bound_to 6896
  145.2638  139.2692  143.4003 H   0  0  0  0  0  0  0  0  0  0  0  0  # atno 7974 bound_to 7965
  155.3193  140.0461  157.3038 H   0  0  0  0  0  0  0  0  0  0  0  0  # atno 8008 bound_to 7997
  154.5389  140.2281  155.8641 H   0  0  0  0  0  0  0  0  0  0  0  0  # atno 8009 bound_to 7997
  156.1862  140.3062  155.9249 H   0  0  0  0  0  0  0  0  0  0  0  0  # atno 8010 bound_to 7997
  139.8304  144.6690  150.9407 H   0  0  0  0  0  0  0  0  0  0  0  0  # atno 10167 bound_to 10162
  157.1410  130.6632  149.5981 H   0  0  0  0  0  0  0  0  0  0  0  0  # atno 10718 bound_to 10713
  154.5050  135.2785  155.1390 H   0  0  0  0  0  0  0  0  0  0  0  0  # atno 10763 bound_to 10752
  154.3008  135.6248  153.5428 H   0  0  0  0  0  0  0  0  0  0  0  0  # atno 10764 bound_to 10752
  152.9908  135.5696  154.5501 H   0  0  0  0  0  0  0  0  0  0  0  0  # atno 10765 bound_to 10752
  139.8788  134.9283  156.5291 H   0  0  0  0  0  0  0  0  0  0  0  0  # atno 11005 bound_to 11000
  146.3267  140.3062  142.8624 LP  0  0  0  0  0  0  0  0  0  0  0  0  # atno 17320 bound_to 7965
  144.9395  140.8063  143.5639 LP  0  0  0  0  0  0  0  0  0  0  0  0  # atno 17321 bound_to 7965
  140.7807  143.4006  151.1155 LP  0  0  0  0  0  0  0  0  0  0  0  0  # atno 17342 bound_to 10162
  139.7660  143.8564  152.3110 LP  0  0  0  0  0  0  0  0  0  0  0  0  # atno 17343 bound_to 10162
  155.9788  130.4778  150.6681 LP  0  0  0  0  0  0  0  0  0  0  0  0  # atno 17370 bound_to 10713
  157.4307  131.0849  151.1041 LP  0  0  0  0  0  0  0  0  0  0  0  0  # atno 17371 bound_to 10713
  140.8394  133.8217  155.9060 LP  0  0  0  0  0  0  0  0  0  0  0  0  # atno 17394 bound_to 11000
  140.9252  134.2091  157.4900 LP  0  0  0  0  0  0  0  0  0  0  0  0  # atno 17395 bound_to 11000

$$$$
