AV-unprocessed.smi:3226|AV-procd|sdf|12314|dock8
  -GOLD-   2272018163D 1   1.00000     0.00000
 Structure written by MMmdl.
 41 43  0  0  0  0  0  0  0  0  2 V2000
  149.5136  135.5540  155.8071 C   0  0  0  0  0  0  0  0  0  0  0  0
  149.3867  136.8850  155.0579 C   0  0  0  0  0  0  0  0  0  0  0  0
  150.6952  137.6028  154.9336 C   0  0  0  0  0  0  0  0  0  0  0  0
  151.8093  137.0231  154.4709 N   0  0  0  0  0  0  0  0  0  0  0  0
  152.7756  138.0086  154.4823 N   0  0  0  0  0  0  0  0  0  0  0  0
  152.1464  139.0886  154.9413 C   0  0  0  0  0  0  0  0  0  0  0  0
  150.8520  138.9071  155.2454 N   0  0  0  0  0  0  0  0  0  0  0  0
  149.9030  139.8798  155.7603 C   0  0  0  0  0  0  0  0  0  0  0  0
  150.4881  141.3005  155.8142 C   0  0  0  0  0  0  0  0  0  0  0  0
  149.6711  142.1979  156.6563 N   0  3  0  0  0  0  0  0  0  0  0  0
  150.1634  142.3355  158.0407 C   0  0  0  0  0  0  0  0  0  0  0  0
  150.6879  143.7590  158.3068 C   0  0  1  0  0  0  0  0  0  0  0  0
  150.4972  144.2605  159.7723 C   0  0  0  0  0  0  0  0  0  0  0  0
  151.9216  144.7065  160.1758 C   0  0  1  0  0  0  0  0  0  0  0  0
  152.7779  143.4629  160.2781 C   0  0  0  0  0  0  0  0  0  0  0  0
  152.9561  143.0016  159.0391 C   0  0  0  0  0  0  0  0  0  0  0  0
  152.2160  143.9333  158.0990 C   0  0  2  0  0  0  0  0  0  0  0  0
  152.4184  145.2621  158.8370 C   0  0  0  0  0  0  0  0  0  0  0  0
  148.5459  135.0582  155.8860 H   0  0  0  0  0  0  0  0  0  0  0  0
  149.8935  135.7062  156.8179 H   0  0  0  0  0  0  0  0  0  0  0  0
  150.1943  134.8753  155.2925 H   0  0  0  0  0  0  0  0  0  0  0  0
  148.9611  136.7184  154.0686 H   0  0  0  0  0  0  0  0  0  0  0  0
  148.6849  137.5330  155.5842 H   0  0  0  0  0  0  0  0  0  0  0  0
  152.6453  140.0390  155.0618 H   0  0  0  0  0  0  0  0  0  0  0  0
  149.0081  139.8599  155.1368 H   0  0  0  0  0  0  0  0  0  0  0  0
  149.5897  139.5658  156.7562 H   0  0  0  0  0  0  0  0  0  0  0  0
  151.4981  141.2571  156.2236 H   0  0  0  0  0  0  0  0  0  0  0  0
  150.5702  141.7188  154.8103 H   0  0  0  0  0  0  0  0  0  0  0  0
  149.6532  143.1129  156.2286 H   0  0  0  0  0  0  0  0  0  0  0  0
  149.3599  142.0817  158.7331 H   0  0  0  0  0  0  0  0  0  0  0  0
  150.9655  141.6141  158.2016 H   0  0  0  0  0  0  0  0  0  0  0  0
  150.1754  144.4455  157.6301 H   0  0  0  0  0  0  0  0  0  0  0  0
  149.7999  145.0989  159.8043 H   0  0  0  0  0  0  0  0  0  0  0  0
  150.1159  143.4873  160.4408 H   0  0  0  0  0  0  0  0  0  0  0  0
  151.9953  145.3863  161.0250 H   0  0  0  0  0  0  0  0  0  0  0  0
  153.1361  143.0344  161.2027 H   0  0  0  0  0  0  0  0  0  0  0  0
  153.4907  142.1143  158.7339 H   0  0  0  0  0  0  0  0  0  0  0  0
  152.5678  143.9184  157.0671 H   0  0  0  0  0  0  0  0  0  0  0  0
  151.8148  146.0843  158.4477 H   0  0  0  0  0  0  0  0  0  0  0  0
  153.4635  145.5778  158.8684 H   0  0  0  0  0  0  0  0  0  0  0  0
  148.7278  141.8381  156.6898 H   0  0  0  0  0  0  0  0  0  0  0  0
  1  2  1  0  0  0  0
  1 19  1  0  0  0  0
  1 20  1  0  0  0  0
  1 21  1  0  0  0  0
  2  3  1  0  0  0  0
  2 22  1  0  0  0  0
  2 23  1  0  0  0  0
  3  7  1  0  0  0  0
  3  4  2  0  0  0  0
  4  5  1  0  0  0  0
  5  6  2  0  0  0  0
  6  7  1  0  0  0  0
  6 24  1  0  0  0  0
  7  8  1  0  0  0  0
  8  9  1  0  0  0  0
  8 25  1  0  0  0  0
  8 26  1  0  0  0  0
  9 10  1  0  0  0  0
  9 27  1  0  0  0  0
  9 28  1  0  0  0  0
 10 11  1  0  0  0  0
 10 29  1  0  0  0  0
 10 41  1  0  0  0  0
 11 12  1  0  0  0  0
 11 30  1  0  0  0  0
 11 31  1  0  0  0  0
 12 17  1  0  0  0  0
 12 13  1  0  0  0  0
 12 32  1  0  0  0  0
 13 14  1  0  0  0  0
 13 33  1  0  0  0  0
 13 34  1  0  0  0  0
 14 18  1  0  0  0  0
 14 15  1  0  0  0  0
 14 35  1  0  0  0  0
 15 16  2  0  0  0  0
 15 36  1  0  0  0  0
 16 17  1  0  0  0  0
 16 37  1  0  0  0  0
 17 18  1  0  0  0  0
 17 38  1  0  0  0  0
 18 39  1  0  0  0  0
 18 40  1  0  0  0  0
M  CHG  1  10   1
M  END
> <s_m_source_file>
AV-unprocessed.smi

> <i_m_source_file_index>
3226

> <i_lp_mmshare_version>
43012

> <i_f3d_flags>
0

> <s_epik_input>
W0NIM11bQ0gyXWMxbm5bY0hdbjFbQ0gyXVtDSDJdW05IXVtDSDJdW0NASF0oW0NIMl1bQ0BASF0yMylbQ0BASF0oW0NIMl0zKVtDSF09W0NIXTI=

> <s_epik_cmdline>
J2VwaWtfcHl0aG9uJywgJy1waCcsICc3LjAnLCAnLXRuJywgJzgnLCAnLW1hJywgJzIwMCcsICctbWV0YWxfYmluZGluZycsICctaW1hZScsICc8aW5maWxlLm1hZT4nLCAnLW9tYWUnLCAnPG91dGZpbGUubWFlPic=

> <r_lp_tautomer_probability>
1

> <r_epik_Ionization_Penalty>
0.00175008

> <r_epik_Ionization_Penalty_Charging>
0.00173932

> <r_epik_Ionization_Penalty_Neutral>
1.07546e-05

> <r_epik_State_Penalty>
-0

> <r_epik_Charging_Adjusted_Penalty>
0.00173932

> <i_epik_Tot_Q>
1

> <i_epik_Tot_abs_Q>
1

> <r_epik_Metal_State_Penalty>
-0

> <b_epik_Metal_Only>
0

> <s_lp_Force_Field>
OPLS_2005

> <r_lp_Energy>
65.2823

> <b_lp_Chiralities_Consistent>
1

> <s_lp_Variant>
AV-unprocessed.smi:3226-2

> <Gold.Version>
5.8.1

> <Gold.Id.Protein>
6NUR|6NUR_protein|mol2

> <Gold.PLP.Fitness>
50.4827

> <Gold.PLP.PLP>
-44.3229

> <Gold.PLP.part.hbond>
-2.9071

> <Gold.PLP.part.metal>
0.0000

> <Gold.PLP.part.buried>
-6.0445

> <Gold.PLP.part.nonpolar>
-36.8442

> <Gold.PLP.part.repulsive>
0.2030

> <Gold.PLP.ligand.clash>
0.0000

> <Gold.PLP.ligand.torsion>
1.2372

> <Gold.PLP.Chemscore.Hbond>
2.8640

> <Gold.PLP.Chemscore.CHOScore>
0.0000

> <Gold.PLP.Chemscore.Metal>
0.0000

> <Gold.Chemscore.Hbonds>
donor molecule, donor type, donor heavy atom, donor atom, acceptor molecule, acceptor atom, score
      L1  H    10    29       P1  8028  2.00
      P1  H 10752 10765       L1     4  0.80

> <Gold.PLP.Chemscore.Internal.Correction>
0.0423

> <Gold.Rescore>
     Score         DG    S(hbond)    S(metal)    S(lipo)     H(rot)  DE(clash)    DE(int)     intcor
     17.92     -18.86       1.76        0.00     109.22       2.06       0.02       0.93       ----

> <Gold.Chemscore.Fitness>
17.9162

> <Gold.Chemscore.DG>
-18.8638

> <Gold.Chemscore.ZeroCoef>
-5.4800

> <Gold.Chemscore.Hbond>
1.7617

> <Gold.Chemscore.Metal>
0.0000

> <Gold.Chemscore.Lipo>
109.2248

> <Gold.Chemscore.Internal_Hbond>
0.0000

> <Gold.Chemscore.DEClash>
0.0207

> <Gold.Chemscore.DEInternal>
0.9269

> <Gold.Chemscore.Rot>
2.0623

> <Gold.Chemscore.Internal.Correction>
   9.000000E+99

> <Gold.Chemscore.Hbonds>
donor molecule, donor type, donor heavy atom, donor atom, acceptor molecule, acceptor atom, score
      L1  H    10    29       P1  8028  0.98
      P1  H 10752 10765       L1     4  0.12

> <Gold.Chemscore.Hbond.Weighted>
-5.8841

> <Gold.Chemscore.Metal.Weighted>
-0.0000

> <Gold.Chemscore.Lipo.Weighted>
-12.7793

> <Gold.Chemscore.Internal_Hbond.Weighted>
0.0000

> <Gold.Chemscore.DEClash.Weighted>
0.0207

> <Gold.Chemscore.DEInternal.Weighted>
0.9269

> <Gold.Chemscore.Rot.Weighted>
5.2796

> <Gold.Chemscore.Internal.Correction.Weighted>
   9.000000E+99

> <Gold.Protein.RotatedTorsions>
[ 6907 6896 6895 6894 ] final  113.93 input  -60.11 | X-H torsion
[ 7974 7965 7964 7962 ] final  173.82 input  175.53 | X-H torsion
[ 8008 7997 7996 7995 ] final  -34.29 input   59.86 | X-H torsion
[ 10167 10162 10161 10158 ] final  -65.05 input  -65.29 | X-H torsion
[ 10718 10713 10712 10709 ] final   60.43 input   66.30 | X-H torsion
[ 10763 10752 10751 10750 ] final  164.17 input  -60.55 | X-H torsion
[ 11005 11000 10999 10996 ] final   76.29 input  -57.11 | X-H torsion

> <Gold.Protein.ActiveResidues>
 VAL166  LYS551  ARG553  GLY616  TRP617  ASP618  TYR619  PRO620  LYS621  CYS622 
 ASP623  PHE694  ASN695  SER759  ASP760  ASP761  ALA762  ILE779  LEU786  VAL792 
 PHE793  MET794  SER795  GLU796  ALA797  LYS798  CYS799  TRP800  GLU811  SER814 

> <Gold.Protein.RotatedAtoms>
  152.4832  133.8307  159.7101 H   0  0  0  0  0  0  0  0  0  0  0  0  # atno 6907 bound_to 6896
  150.8898  133.7249  159.2914 H   0  0  0  0  0  0  0  0  0  0  0  0  # atno 6908 bound_to 6896
  151.4726  135.1050  159.9808 H   0  0  0  0  0  0  0  0  0  0  0  0  # atno 6909 bound_to 6896
  144.7235  139.9705  143.6437 H   0  0  0  0  0  0  0  0  0  0  0  0  # atno 7974 bound_to 7965
  154.4125  140.1688  156.2025 H   0  0  0  0  0  0  0  0  0  0  0  0  # atno 8008 bound_to 7997
  155.9512  140.3401  155.6386 H   0  0  0  0  0  0  0  0  0  0  0  0  # atno 8009 bound_to 7997
  155.6867  140.0729  157.2454 H   0  0  0  0  0  0  0  0  0  0  0  0  # atno 8010 bound_to 7997
  140.5757  143.2322  151.6446 H   0  0  0  0  0  0  0  0  0  0  0  0  # atno 10167 bound_to 10162
  157.5752  130.8938  149.9334 H   0  0  0  0  0  0  0  0  0  0  0  0  # atno 10718 bound_to 10713
  154.3048  135.2758  155.2594 H   0  0  0  0  0  0  0  0  0  0  0  0  # atno 10763 bound_to 10752
  154.5015  135.5807  153.6538 H   0  0  0  0  0  0  0  0  0  0  0  0  # atno 10764 bound_to 10752
  152.9895  135.6159  154.3221 H   0  0  0  0  0  0  0  0  0  0  0  0  # atno 10765 bound_to 10752
  139.9305  134.7589  156.1377 H   0  0  0  0  0  0  0  0  0  0  0  0  # atno 11005 bound_to 11000
  146.0567  139.3563  143.0606 LP  0  0  0  0  0  0  0  0  0  0  0  0  # atno 17320 bound_to 7965
  145.8146  140.9709  143.0931 LP  0  0  0  0  0  0  0  0  0  0  0  0  # atno 17321 bound_to 7965
  139.5141  144.3420  152.0731 LP  0  0  0  0  0  0  0  0  0  0  0  0  # atno 17342 bound_to 10162
  140.2563  144.4115  150.6202 LP  0  0  0  0  0  0  0  0  0  0  0  0  # atno 17343 bound_to 10162
  156.0797  130.3674  150.0606 LP  0  0  0  0  0  0  0  0  0  0  0  0  # atno 17370 bound_to 10713
  156.8753  130.9538  151.3605 LP  0  0  0  0  0  0  0  0  0  0  0  0  # atno 17371 bound_to 10713
  141.0890  133.6722  156.2499 LP  0  0  0  0  0  0  0  0  0  0  0  0  # atno 17394 bound_to 11000
  140.6216  134.5355  157.5548 LP  0  0  0  0  0  0  0  0  0  0  0  0  # atno 17395 bound_to 11000

$$$$
