AV-unprocessed.smi:96|AV-procd|sdf|860|dock10
  -GOLD-   2262017303D 1   1.00000     0.00000
 Structure written by MMmdl.
 43 46  0  0  0  0  0  0  0  0  1 V2000
  149.7030  132.4143  156.2459 O   0  0  0  0  0  0  0  0  0  0  0  0
  149.9978  133.3273  155.4729 C   0  0  0  0  0  0  0  0  0  0  0  0
  151.0342  134.3880  155.8776 C   0  0  0  0  0  0  0  0  0  0  0  0
  150.4379  135.7044  156.1953 N   0  0  0  0  0  0  0  0  0  0  0  0
  149.6751  135.8417  157.3815 C   0  0  0  0  0  0  0  0  0  0  0  0
  149.5111  134.8922  158.1490 O   0  0  0  0  0  0  0  0  0  0  0  0
  149.1058  137.1643  157.6146 C   0  0  0  0  0  0  0  0  0  0  0  0
  148.3792  137.3900  158.7224 F   0  0  0  0  0  0  0  0  0  0  0  0
  149.2968  138.1688  156.7346 C   0  0  0  0  0  0  0  0  0  0  0  0
  150.0291  138.0153  155.5706 N   0  0  0  0  0  0  0  0  0  0  0  0
  150.2260  139.1495  154.5867 C   0  0  1  0  0  0  0  0  0  0  0  0
  148.8763  139.8078  154.2413 C   0  0  0  0  0  0  0  0  0  0  0  0
  149.1504  141.2793  154.4794 C   0  0  0  0  0  0  0  0  0  0  0  0
  150.2122  141.2292  155.5676 C   0  0  0  0  0  0  0  0  0  0  0  0
  151.0310  140.1416  155.1580 O   0  0  0  0  0  0  0  0  0  0  0  0
  150.6237  136.7682  155.2809 C   0  0  0  0  0  0  0  0  0  0  0  0
  151.2821  136.6114  154.2500 O   0  0  0  0  0  0  0  0  0  0  0  0
  149.4571  133.4930  154.2522 N   0  0  0  0  0  0  0  0  0  0  0  0
  148.4770  132.6909  153.6093 C   0  0  0  0  0  0  0  0  0  0  0  0
  148.2724  131.3160  153.9219 C   0  0  0  0  0  0  0  0  0  0  0  0
  147.2947  130.5566  153.2401 C   0  0  0  0  0  0  0  0  0  0  0  0
  146.5433  131.1981  152.2430 C   0  0  0  0  0  0  0  0  0  0  0  0
  146.7483  132.5239  151.9241 C   0  0  0  0  0  0  0  0  0  0  0  0
  147.7146  133.3003  152.5842 C   0  0  0  0  0  0  0  0  0  0  0  0
  145.9000  132.8885  150.9292 O   0  0  0  0  0  0  0  0  0  0  0  0
  145.1441  131.7434  150.6302 C   0  0  0  0  0  0  0  0  0  0  0  0
  145.5599  130.6883  151.4584 O   0  0  0  0  0  0  0  0  0  0  0  0
  151.6087  133.9987  156.7193 H   0  0  0  0  0  0  0  0  0  0  0  0
  151.7712  134.4854  155.0785 H   0  0  0  0  0  0  0  0  0  0  0  0
  148.8503  139.1229  156.9681 H   0  0  0  0  0  0  0  0  0  0  0  0
  150.7430  138.7121  153.7306 H   0  0  0  0  0  0  0  0  0  0  0  0
  148.5831  139.5850  153.2151 H   0  0  0  0  0  0  0  0  0  0  0  0
  148.0974  139.4521  154.9180 H   0  0  0  0  0  0  0  0  0  0  0  0
  149.5604  141.7361  153.5777 H   0  0  0  0  0  0  0  0  0  0  0  0
  148.2617  141.8378  154.7743 H   0  0  0  0  0  0  0  0  0  0  0  0
  150.7829  142.1547  155.6448 H   0  0  0  0  0  0  0  0  0  0  0  0
  149.7625  141.0186  156.5390 H   0  0  0  0  0  0  0  0  0  0  0  0
  149.7176  134.3371  153.7634 H   0  0  0  0  0  0  0  0  0  0  0  0
  148.8671  130.8218  154.6751 H   0  0  0  0  0  0  0  0  0  0  0  0
  147.1340  129.5149  153.4751 H   0  0  0  0  0  0  0  0  0  0  0  0
  147.8604  134.3371  152.3178 H   0  0  0  0  0  0  0  0  0  0  0  0
  144.0868  131.9480  150.8023 H   0  0  0  0  0  0  0  0  0  0  0  0
  145.2941  131.4694  149.5855 H   0  0  0  0  0  0  0  0  0  0  0  0
  1  2  2  0  0  0  0
  2  3  1  0  0  0  0
  2 18  1  0  0  0  0
  3  4  1  0  0  0  0
  3 28  1  0  0  0  0
  3 29  1  0  0  0  0
  4 16  1  0  0  0  0
  4  5  1  0  0  0  0
  5  6  2  0  0  0  0
  5  7  1  0  0  0  0
  7  8  1  0  0  0  0
  7  9  2  0  0  0  0
  9 10  1  0  0  0  0
  9 30  1  0  0  0  0
 10 11  1  0  0  0  0
 10 16  1  0  0  0  0
 11 15  1  0  0  0  0
 11 12  1  0  0  0  0
 11 31  1  0  0  0  0
 12 13  1  0  0  0  0
 12 32  1  0  0  0  0
 12 33  1  0  0  0  0
 13 14  1  0  0  0  0
 13 34  1  0  0  0  0
 13 35  1  0  0  0  0
 14 15  1  0  0  0  0
 14 36  1  0  0  0  0
 14 37  1  0  0  0  0
 16 17  2  0  0  0  0
 18 19  1  0  0  0  0
 18 38  1  0  0  0  0
 19 24  1  0  0  0  0
 19 20  2  0  0  0  0
 20 21  1  0  0  0  0
 20 39  1  0  0  0  0
 21 22  2  0  0  0  0
 21 40  1  0  0  0  0
 22 27  1  0  0  0  0
 22 23  1  0  0  0  0
 23 24  2  0  0  0  0
 23 25  1  0  0  0  0
 24 41  1  0  0  0  0
 25 26  1  0  0  0  0
 26 27  1  0  0  0  0
 26 42  1  0  0  0  0
 26 43  1  0  0  0  0
M  END
> <s_m_source_file>
AV-unprocessed.smi

> <i_m_source_file_index>
96

> <i_lp_mmshare_version>
43012

> <i_f3d_flags>
0

> <s_epik_input>
TzFbQ0gyXU9jKGMxMilbY0hdYyhbY0hdW2NIXTIpW05IXUMoPU8pW0NIMl1uM2MoPU8pYyhGKVtjSF1uKGMzPU8pW0NAQEhdNFtDSDJdW0NIMl1bQ0gyXU80

> <s_epik_cmdline>
J2VwaWtfcHl0aG9uJywgJy1waCcsICc3LjAnLCAnLXRuJywgJzgnLCAnLW1hJywgJzIwMCcsICctbWV0YWxfYmluZGluZycsICctaW1hZScsICc8aW5maWxlLm1hZT4nLCAnLW9tYWUnLCAnPG91dGZpbGUubWFlPic=

> <r_lp_tautomer_probability>
1

> <r_epik_Ionization_Penalty>
1.04778e-05

> <r_epik_Ionization_Penalty_Charging>
3.88729e-08

> <r_epik_Ionization_Penalty_Neutral>
1.04389e-05

> <r_epik_State_Penalty>
-0

> <r_epik_Charging_Adjusted_Penalty>
3.88729e-08

> <i_epik_Tot_Q>
0

> <i_epik_Tot_abs_Q>
0

> <r_epik_Metal_State_Penalty>
-0

> <b_epik_Metal_Only>
0

> <s_epik_Chemistry_Notes>
This compound contains an acetal/aminal-like group ( X-CH(R)-Y where X, Y are N, S, or O) that may be acid/base labile, releasing an aldehyde.

> <s_lp_Force_Field>
OPLS_2005

> <r_lp_Energy>
46.4939

> <b_lp_Chiralities_Consistent>
1

> <s_lp_Variant>
AV-unprocessed.smi:96-2

> <Gold.Version>
5.8.1

> <Gold.Id.Protein>
6NUR|6NUR_protein|mol2

> <Gold.PLP.Fitness>
46.5547

> <Gold.PLP.PLP>
-39.0789

> <Gold.PLP.part.hbond>
-3.0000

> <Gold.PLP.part.metal>
0.0000

> <Gold.PLP.part.buried>
-5.7582

> <Gold.PLP.part.nonpolar>
-32.1451

> <Gold.PLP.part.repulsive>
2.1557

> <Gold.PLP.ligand.clash>
0.0000

> <Gold.PLP.ligand.torsion>
0.5509

> <Gold.PLP.Chemscore.Hbond>
2.8500

> <Gold.PLP.Chemscore.CHOScore>
0.0000

> <Gold.PLP.Chemscore.Metal>
0.0000

> <Gold.Chemscore.Hbonds>
donor molecule, donor type, donor heavy atom, donor atom, acceptor molecule, acceptor atom, score
      P1  H  6896  6908       L1     6  1.00
      P1  H  7989  7998       L1    15  0.72
      P1  H 10752 10765       L1    17  1.00

> <Gold.PLP.Chemscore.Internal.Correction>
0.0277

> <Gold.Rescore>
     Score         DG    S(hbond)    S(metal)    S(lipo)     H(rot)  DE(clash)    DE(int)     intcor
     13.04     -14.94       1.99        0.00      64.61       1.85       0.10       1.81       ----

> <Gold.Chemscore.Fitness>
13.0407

> <Gold.Chemscore.DG>
-14.9442

> <Gold.Chemscore.ZeroCoef>
-5.4800

> <Gold.Chemscore.Hbond>
1.9880

> <Gold.Chemscore.Metal>
0.0000

> <Gold.Chemscore.Lipo>
64.6126

> <Gold.Chemscore.Internal_Hbond>
0.0000

> <Gold.Chemscore.DEClash>
0.0984

> <Gold.Chemscore.DEInternal>
1.8051

> <Gold.Chemscore.Rot>
1.8497

> <Gold.Chemscore.Internal.Correction>
   9.000000E+99

> <Gold.Chemscore.Hbonds>
donor molecule, donor type, donor heavy atom, donor atom, acceptor molecule, acceptor atom, score
      P1  H  6896  6908       L1     6  0.99
      P1  H  7989  7998       L1    15  0.02
      P1  H 10752 10765       L1    17  0.98

> <Gold.Chemscore.Hbond.Weighted>
-6.6399

> <Gold.Chemscore.Metal.Weighted>
-0.0000

> <Gold.Chemscore.Lipo.Weighted>
-7.5597

> <Gold.Chemscore.Internal_Hbond.Weighted>
0.0000

> <Gold.Chemscore.DEClash.Weighted>
0.0984

> <Gold.Chemscore.DEInternal.Weighted>
1.8051

> <Gold.Chemscore.Rot.Weighted>
4.7354

> <Gold.Chemscore.Internal.Correction.Weighted>
   9.000000E+99

> <Gold.Protein.RotatedTorsions>
[ 6907 6896 6895 6894 ] final  143.26 input  -60.11 | X-H torsion
[ 7974 7965 7964 7962 ] final  157.51 input  175.53 | X-H torsion
[ 8008 7997 7996 7995 ] final -111.49 input   59.86 | X-H torsion
[ 10167 10162 10161 10158 ] final   31.04 input  -65.29 | X-H torsion
[ 10718 10713 10712 10709 ] final  -89.34 input   66.30 | X-H torsion
[ 10763 10752 10751 10750 ] final  163.98 input  -60.55 | X-H torsion
[ 11005 11000 10999 10996 ] final  165.93 input  -57.11 | X-H torsion

> <Gold.Protein.ActiveResidues>
 VAL166  LYS551  ARG553  GLY616  TRP617  ASP618  TYR619  PRO620  LYS621  CYS622 
 ASP623  PHE694  ASN695  SER759  ASP760  ASP761  ALA762  ILE779  LEU786  VAL792 
 PHE793  MET794  SER795  GLU796  ALA797  LYS798  CYS799  TRP800  GLU811  SER814 

> <Gold.Protein.RotatedAtoms>
  152.2085  133.4893  159.5096 H   0  0  0  0  0  0  0  0  0  0  0  0  # atno 6907 bound_to 6896
  150.6985  134.1498  159.4145 H   0  0  0  0  0  0  0  0  0  0  0  0  # atno 6908 bound_to 6896
  151.9417  135.0210  160.0587 H   0  0  0  0  0  0  0  0  0  0  0  0  # atno 6909 bound_to 6896
  144.7899  139.7351  143.6225 H   0  0  0  0  0  0  0  0  0  0  0  0  # atno 7974 bound_to 7965
  154.9907  140.0395  157.2318 H   0  0  0  0  0  0  0  0  0  0  0  0  # atno 8008 bound_to 7997
  154.7631  140.2788  155.6175 H   0  0  0  0  0  0  0  0  0  0  0  0  # atno 8009 bound_to 7997
  156.2907  140.2624  156.2415 H   0  0  0  0  0  0  0  0  0  0  0  0  # atno 8010 bound_to 7997
  140.4624  144.0886  150.6216 H   0  0  0  0  0  0  0  0  0  0  0  0  # atno 10167 bound_to 10162
  155.9984  130.4869  150.5156 H   0  0  0  0  0  0  0  0  0  0  0  0  # atno 10718 bound_to 10713
  154.3020  135.2759  155.2606 H   0  0  0  0  0  0  0  0  0  0  0  0  # atno 10763 bound_to 10752
  154.5039  135.5801  153.6556 H   0  0  0  0  0  0  0  0  0  0  0  0  # atno 10764 bound_to 10752
  152.9899  135.6164  154.3191 H   0  0  0  0  0  0  0  0  0  0  0  0  # atno 10765 bound_to 10752
  140.2612  134.7900  157.3592 H   0  0  0  0  0  0  0  0  0  0  0  0  # atno 11005 bound_to 11000
  146.2147  139.5527  142.9658 LP  0  0  0  0  0  0  0  0  0  0  0  0  # atno 17320 bound_to 7965
  145.5822  141.0381  143.2116 LP  0  0  0  0  0  0  0  0  0  0  0  0  # atno 17321 bound_to 7965
  140.4077  143.2672  151.9871 LP  0  0  0  0  0  0  0  0  0  0  0  0  # atno 17342 bound_to 10162
  139.4808  144.5943  151.7718 LP  0  0  0  0  0  0  0  0  0  0  0  0  # atno 17343 bound_to 10162
  157.3124  131.0666  151.1991 LP  0  0  0  0  0  0  0  0  0  0  0  0  # atno 17370 bound_to 10713
  157.2933  130.6807  149.6125 LP  0  0  0  0  0  0  0  0  0  0  0  0  # atno 17371 bound_to 10713
  140.1462  134.4908  155.7994 LP  0  0  0  0  0  0  0  0  0  0  0  0  # atno 17394 bound_to 11000
  141.2190  133.6844  156.7299 LP  0  0  0  0  0  0  0  0  0  0  0  0  # atno 17395 bound_to 11000

$$$$
