AV-unprocessed.smi:1570|AV-procd|sdf|6312|dock4
  -GOLD-   22720 6513D 1   1.00000     0.00000
 Structure written by MMmdl.
 51 53  0  0  0  0  0  0  0  0  1 V2000
  152.1020  144.9273  158.5383 C   0  0  0  0  0  0  0  0  0  0  0  0
  151.0519  143.8120  158.6144 C   0  0  0  0  0  0  0  0  0  0  0  0
  151.6788  142.5080  158.8162 N   0  0  0  0  0  0  0  0  0  0  0  0
  151.5413  141.4178  158.0254 C   0  0  0  0  0  0  0  0  0  0  0  0
  150.8664  141.3515  156.9981 O   0  0  0  0  0  0  0  0  0  0  0  0
  152.2537  140.4058  158.5753 N   0  0  0  0  0  0  0  0  0  0  0  0
  152.3521  139.0333  158.0787 C   0  0  0  0  0  0  0  0  0  0  0  0
  151.6119  138.0343  158.9907 C   0  0  2  0  0  0  0  0  0  0  0  0
  152.5403  137.0509  159.3964 O   0  0  0  0  0  0  0  0  0  0  0  0
  150.4329  137.3252  158.2880 C   0  0  0  0  0  0  0  0  0  0  0  0
  149.7576  136.2975  159.0805 N   0  0  0  0  0  0  0  0  0  0  0  0
  148.8946  136.8684  160.1138 C   0  0  0  0  0  0  0  0  0  0  0  0
  148.1622  135.7807  160.9221 C   0  0  1  0  0  0  0  0  0  0  0  0
  147.1947  136.3783  161.9488 C   0  0  0  0  0  0  0  0  0  0  0  0
  147.4167  134.9578  160.0293 O   0  0  0  0  0  0  0  0  0  0  0  0
  148.2220  134.3397  159.0297 C   0  0  1  0  0  0  0  0  0  0  0  0
  147.3147  133.4768  158.1464 C   0  0  0  0  0  0  0  0  0  0  0  0
  148.9499  135.4341  158.2260 C   0  0  0  0  0  0  0  0  0  0  0  0
  152.8569  140.8606  159.7569 C   0  0  0  0  0  0  0  0  0  0  0  0
  153.6797  140.2021  160.6872 C   0  0  0  0  0  0  0  0  0  0  0  0
  154.1233  140.9510  161.8023 C   0  0  0  0  0  0  0  0  0  0  0  0
  153.7450  142.3093  161.9622 C   0  0  0  0  0  0  0  0  0  0  0  0
  152.9160  142.9479  161.0103 C   0  0  0  0  0  0  0  0  0  0  0  0
  152.4920  142.1816  159.9106 C   0  0  0  0  0  0  0  0  0  0  0  0
  151.6265  145.8971  158.3904 H   0  0  0  0  0  0  0  0  0  0  0  0
  152.7912  144.7647  157.7092 H   0  0  0  0  0  0  0  0  0  0  0  0
  152.6879  144.9822  159.4563 H   0  0  0  0  0  0  0  0  0  0  0  0
  150.3537  144.0156  159.4276 H   0  0  0  0  0  0  0  0  0  0  0  0
  150.4555  143.7971  157.7021 H   0  0  0  0  0  0  0  0  0  0  0  0
  151.9734  138.9669  157.0575 H   0  0  0  0  0  0  0  0  0  0  0  0
  153.4100  138.7727  158.0229 H   0  0  0  0  0  0  0  0  0  0  0  0
  151.2832  138.5605  159.8850 H   0  0  0  0  0  0  0  0  0  0  0  0
  152.9880  136.7309  158.6276 H   0  0  0  0  0  0  0  0  0  0  0  0
  149.6892  138.0607  157.9823 H   0  0  0  0  0  0  0  0  0  0  0  0
  150.8049  136.8895  157.3592 H   0  0  0  0  0  0  0  0  0  0  0  0
  149.4745  137.4786  160.8041 H   0  0  0  0  0  0  0  0  0  0  0  0
  148.1607  137.5327  159.6541 H   0  0  0  0  0  0  0  0  0  0  0  0
  148.8919  135.1618  161.4468 H   0  0  0  0  0  0  0  0  0  0  0  0
  147.7237  137.0043  162.6678 H   0  0  0  0  0  0  0  0  0  0  0  0
  146.6831  135.5926  162.5051 H   0  0  0  0  0  0  0  0  0  0  0  0
  146.4354  136.9928  161.4642 H   0  0  0  0  0  0  0  0  0  0  0  0
  148.9553  133.6937  159.5155 H   0  0  0  0  0  0  0  0  0  0  0  0
  147.8900  132.9683  157.3725 H   0  0  0  0  0  0  0  0  0  0  0  0
  146.5518  134.0809  157.6548 H   0  0  0  0  0  0  0  0  0  0  0  0
  146.8065  132.7146  158.7376 H   0  0  0  0  0  0  0  0  0  0  0  0
  148.2170  136.0344  157.6841 H   0  0  0  0  0  0  0  0  0  0  0  0
  149.5842  134.9646  157.4731 H   0  0  0  0  0  0  0  0  0  0  0  0
  153.9620  139.1673  160.5607 H   0  0  0  0  0  0  0  0  0  0  0  0
  154.7565  140.4827  162.5412 H   0  0  0  0  0  0  0  0  0  0  0  0
  154.0938  142.8623  162.8217 H   0  0  0  0  0  0  0  0  0  0  0  0
  152.6229  143.9804  161.1289 H   0  0  0  0  0  0  0  0  0  0  0  0
  1  2  1  0  0  0  0
  1 25  1  0  0  0  0
  1 26  1  0  0  0  0
  1 27  1  0  0  0  0
  2  3  1  0  0  0  0
  2 28  1  0  0  0  0
  2 29  1  0  0  0  0
  3 24  1  0  0  0  0
  3  4  1  0  0  0  0
  4  5  2  0  0  0  0
  4  6  1  0  0  0  0
  6  7  1  0  0  0  0
  6 19  1  0  0  0  0
  7  8  1  0  0  0  0
  7 30  1  0  0  0  0
  7 31  1  0  0  0  0
  8  9  1  0  0  0  0
  8 10  1  0  0  0  0
  8 32  1  0  0  0  0
  9 33  1  0  0  0  0
 10 11  1  0  0  0  0
 10 34  1  0  0  0  0
 10 35  1  0  0  0  0
 11 18  1  0  0  0  0
 11 12  1  0  0  0  0
 12 13  1  0  0  0  0
 12 36  1  0  0  0  0
 12 37  1  0  0  0  0
 13 14  1  0  0  0  0
 13 15  1  0  0  0  0
 13 38  1  0  0  0  0
 14 39  1  0  0  0  0
 14 40  1  0  0  0  0
 14 41  1  0  0  0  0
 15 16  1  0  0  0  0
 16 17  1  0  0  0  0
 16 18  1  0  0  0  0
 16 42  1  0  0  0  0
 17 43  1  0  0  0  0
 17 44  1  0  0  0  0
 17 45  1  0  0  0  0
 18 46  1  0  0  0  0
 18 47  1  0  0  0  0
 19 24  2  0  0  0  0
 19 20  1  0  0  0  0
 20 21  2  0  0  0  0
 20 48  1  0  0  0  0
 21 22  1  0  0  0  0
 21 49  1  0  0  0  0
 22 23  2  0  0  0  0
 22 50  1  0  0  0  0
 23 24  1  0  0  0  0
 23 51  1  0  0  0  0
M  END
> <s_m_source_file>
AV-unprocessed.smi

> <i_m_source_file_index>
1570

> <i_lp_mmshare_version>
43012

> <i_f3d_flags>
0

> <s_epik_input>
W2NIXTFbY0hdW2NIXVtjSF1jKGMxMiluKFtDSDJdW0NIM10pYyg9TyluMltDSDJdW0NASF0oW09IXSlbQ0gyXU4zW0NIMl1bQ0BASF0oW0NIM10pT1tDQEBIXShbQ0gzXSlbQ0gyXTM=

> <s_epik_cmdline>
J2VwaWtfcHl0aG9uJywgJy1waCcsICc3LjAnLCAnLXRuJywgJzgnLCAnLW1hJywgJzIwMCcsICctbWV0YWxfYmluZGluZycsICctaW1hZScsICc8aW5maWxlLm1hZT4nLCAnLW9tYWUnLCAnPG91dGZpbGUubWFlPic=

> <r_epik_Ionization_Penalty>
0.214359

> <r_epik_Ionization_Penalty_Charging>
2.30976e-09

> <r_epik_Ionization_Penalty_Neutral>
0.214359

> <r_epik_State_Penalty>
0.204533

> <r_epik_Charging_Adjusted_Penalty>
0.204533

> <i_epik_Tot_Q>
0

> <i_epik_Tot_abs_Q>
0

> <r_epik_Metal_State_Penalty>
0.204533

> <b_epik_Metal_Only>
0

> <s_lp_Force_Field>
OPLS_2005

> <r_lp_Energy>
58.4553

> <b_lp_Chiralities_Consistent>
1

> <s_lp_Variant>
AV-unprocessed.smi:1570-1

> <Gold.Version>
5.8.1

> <Gold.Id.Protein>
6NUR|6NUR_protein|mol2

> <Gold.PLP.Fitness>
47.3979

> <Gold.PLP.PLP>
-46.2126

> <Gold.PLP.part.hbond>
-1.9299

> <Gold.PLP.part.metal>
0.0000

> <Gold.PLP.part.buried>
-4.5490

> <Gold.PLP.part.nonpolar>
-39.2408

> <Gold.PLP.part.repulsive>
0.0426

> <Gold.PLP.ligand.clash>
0.0000

> <Gold.PLP.ligand.torsion>
0.9634

> <Gold.PLP.Chemscore.Hbond>
1.0000

> <Gold.PLP.Chemscore.CHOScore>
0.0000

> <Gold.PLP.Chemscore.Metal>
0.0000

> <Gold.Chemscore.Hbonds>
donor molecule, donor type, donor heavy atom, donor atom, acceptor molecule, acceptor atom, score
      P1  H  6896  6909       L1    11  1.00

> <Gold.PLP.Chemscore.Internal.Correction>
0.1121

> <Gold.Rescore>
     Score         DG    S(hbond)    S(metal)    S(lipo)     H(rot)  DE(clash)    DE(int)     intcor
     16.66     -17.49       0.89        0.00     122.38       2.06       0.04       0.80       ----

> <Gold.Chemscore.Fitness>
16.6606

> <Gold.Chemscore.DG>
-17.4950

> <Gold.Chemscore.ZeroCoef>
-5.4800

> <Gold.Chemscore.Hbond>
0.8871

> <Gold.Chemscore.Metal>
0.0000

> <Gold.Chemscore.Lipo>
122.3847

> <Gold.Chemscore.Internal_Hbond>
0.0000

> <Gold.Chemscore.DEClash>
0.0376

> <Gold.Chemscore.DEInternal>
0.7968

> <Gold.Chemscore.Rot>
2.0574

> <Gold.Chemscore.Internal.Correction>
   9.000000E+99

> <Gold.Chemscore.Hbonds>
donor molecule, donor type, donor heavy atom, donor atom, acceptor molecule, acceptor atom, score
      P1  H  6896  6909       L1    11  0.17

> <Gold.Chemscore.Hbond.Weighted>
-2.9628

> <Gold.Chemscore.Metal.Weighted>
-0.0000

> <Gold.Chemscore.Lipo.Weighted>
-14.3190

> <Gold.Chemscore.Internal_Hbond.Weighted>
0.0000

> <Gold.Chemscore.DEClash.Weighted>
0.0376

> <Gold.Chemscore.DEInternal.Weighted>
0.7968

> <Gold.Chemscore.Rot.Weighted>
5.2669

> <Gold.Chemscore.Internal.Correction.Weighted>
   9.000000E+99

> <Gold.Protein.RotatedTorsions>
[ 6907 6896 6895 6894 ] final   84.66 input  -60.11 | X-H torsion
[ 7974 7965 7964 7962 ] final  -39.80 input  175.53 | X-H torsion
[ 8008 7997 7996 7995 ] final   57.57 input   59.86 | X-H torsion
[ 10167 10162 10161 10158 ] final   76.69 input  -65.29 | X-H torsion
[ 10718 10713 10712 10709 ] final -159.78 input   66.30 | X-H torsion
[ 10763 10752 10751 10750 ] final  141.50 input  -60.55 | X-H torsion
[ 11005 11000 10999 10996 ] final  -23.39 input  -57.11 | X-H torsion

> <Gold.Protein.ActiveResidues>
 VAL166  LYS551  ARG553  GLY616  TRP617  ASP618  TYR619  PRO620  LYS621  CYS622 
 ASP623  PHE694  ASN695  SER759  ASP760  ASP761  ALA762  ILE779  LEU786  VAL792 
 PHE793  MET794  SER795  GLU796  ALA797  LYS798  CYS799  TRP800  GLU811  SER814 

> <Gold.Protein.RotatedAtoms>
  152.5357  134.2706  159.8969 H   0  0  0  0  0  0  0  0  0  0  0  0  # atno 6907 bound_to 6896
  151.2663  133.4270  159.2626 H   0  0  0  0  0  0  0  0  0  0  0  0  # atno 6908 bound_to 6896
  151.0408  134.9620  159.8217 H   0  0  0  0  0  0  0  0  0  0  0  0  # atno 6909 bound_to 6896
  146.0363  140.6666  142.9108 H   0  0  0  0  0  0  0  0  0  0  0  0  # atno 7974 bound_to 7965
  155.5359  140.3483  155.4436 H   0  0  0  0  0  0  0  0  0  0  0  0  # atno 8008 bound_to 7997
  156.0686  140.1357  156.9883 H   0  0  0  0  0  0  0  0  0  0  0  0  # atno 8009 bound_to 7997
  154.4516  140.0970  156.6609 H   0  0  0  0  0  0  0  0  0  0  0  0  # atno 8010 bound_to 7997
  139.9896  144.5767  150.7829 H   0  0  0  0  0  0  0  0  0  0  0  0  # atno 10167 bound_to 10162
  156.5729  130.8696  151.2843 H   0  0  0  0  0  0  0  0  0  0  0  0  # atno 10718 bound_to 10713
  153.9404  135.2980  155.3443 H   0  0  0  0  0  0  0  0  0  0  0  0  # atno 10763 bound_to 10752
  154.7480  135.4994  153.9241 H   0  0  0  0  0  0  0  0  0  0  0  0  # atno 10764 bound_to 10752
  153.1045  135.6743  153.9717 H   0  0  0  0  0  0  0  0  0  0  0  0  # atno 10765 bound_to 10752
  140.8747  133.7695  156.0229 H   0  0  0  0  0  0  0  0  0  0  0  0  # atno 11005 bound_to 11000
  144.7053  140.3827  143.7123 LP  0  0  0  0  0  0  0  0  0  0  0  0  # atno 17320 bound_to 7965
  145.6958  139.1649  143.2621 LP  0  0  0  0  0  0  0  0  0  0  0  0  # atno 17321 bound_to 7965
  140.7459  143.2883  151.3401 LP  0  0  0  0  0  0  0  0  0  0  0  0  # atno 17342 bound_to 10162
  139.6350  144.0648  152.2508 LP  0  0  0  0  0  0  0  0  0  0  0  0  # atno 17343 bound_to 10162
  157.7344  130.9745  150.2027 LP  0  0  0  0  0  0  0  0  0  0  0  0  # atno 17370 bound_to 10713
  156.2698  130.3720  149.8043 LP  0  0  0  0  0  0  0  0  0  0  0  0  # atno 17371 bound_to 10713
  140.8532  134.2929  157.5266 LP  0  0  0  0  0  0  0  0  0  0  0  0  # atno 17394 bound_to 11000
  139.8714  134.9479  156.3980 LP  0  0  0  0  0  0  0  0  0  0  0  0  # atno 17395 bound_to 11000

$$$$
