#       Name:                AV-unprocessed.smi:243
#       Creating user name   scv26
#       Creation time:       Thu Mar 26 20:49:05 2020


#       File generated by GOLD software.
#

@<TRIPOS>MOLECULE
AV-unprocessed.smi:243
    65    68     1
SMALL
NO_CHARGES


@<TRIPOS>ATOM
      1 ****        -5.6423  -3.6991  -0.2238 C.3            1 S1                 0.0000
      2 ****        -5.1325  -2.4764  -1.0002 C.3            1 S1                 0.0000
      3 ****        -3.6575  -2.4854  -1.1681 N.4            1 S1                 1.0000
      4 ****        -3.2190  -1.6512  -2.3160 C.3            1 S1                 0.0000
      5 ****        -1.7098  -1.7965  -2.5631 C.3            1 S1                 0.0000
      6 ****        -0.9114  -1.4527  -1.2908 C.3            1 S1                 0.0000
      7 ****         0.5464  -1.4493  -1.4954 N.pl3          1 S1                 0.0000
      8 ****         1.1982  -2.4753  -2.3133 C.3            1 S1                 0.0000
      9 ****         1.2925  -0.9033  -0.4967 C.ar           1 S1                 0.0000
     10 ****         2.2717  -1.6497   0.0824 N.ar           1 S1                 0.0000
     11 ****         3.0081  -1.1496   1.0784 C.ar           1 S1                 0.0000
     12 ****         2.9364   0.0562   1.6431 N.ar           1 S1                 0.0000
     13 ****         1.9631   0.8158   1.0649 C.ar           1 S1                 0.0000
     14 ****         1.1010   0.4184   0.0026 C.ar           1 S1                 0.0000
     15 ****         0.2443   1.4653  -0.3197 N.2            1 S1                 0.0000
     16 ****         0.5718   2.4178   0.5093 C.2            1 S1                 0.0000
     17 ****         1.6024   2.1167   1.3695 N.pl3          1 S1                 0.0000
     18 ****         2.1778   2.9891   2.3817 C.3            1 S1                 0.0000
     19 ****         3.3003   3.9033   1.8369 C.3            1 S1                 0.0000
     20 ****         4.3505   3.0957   1.3336 O.3            1 S1                 0.0000
     21 ****         2.8496   4.8555   0.7319 C.3            1 S1                 0.0000
     22 ****         3.7341   6.0748   0.9512 C.3            1 S1                 0.0000
     23 ****         3.7775   6.1703   2.3644 O.3            1 S1                 0.0000
     24 ****         3.8826   4.8552   2.9010 C.3            1 S1                 0.0000
     25 ****        -1.3991  -2.3002  -0.0848 C.3            1 S1                 0.0000
     26 ****        -1.0071  -3.7896  -0.1225 C.3            1 S1                 0.0000
     27 ****        -2.9245  -2.1300   0.0773 C.3            1 S1                 0.0000
     28 ****        -6.7323  -3.7084  -0.1987 H              1 S1                 0.0000
     29 ****        -5.2967  -3.7048   0.8094 H              1 S1                 0.0000
     30 ****        -5.3161  -4.6276  -0.6937 H              1 S1                 0.0000
     31 ****        -5.6065  -2.4898  -1.9825 H              1 S1                 0.0000
     32 ****        -5.4505  -1.5510  -0.5178 H              1 S1                 0.0000
     33 ****        -3.7559  -1.9493  -3.2175 H              1 S1                 0.0000
     34 ****        -3.4723  -0.6067  -2.1272 H              1 S1                 0.0000
     35 ****        -1.4997  -2.8152  -2.8898 H              1 S1                 0.0000
     36 ****        -1.4108  -1.1393  -3.3806 H              1 S1                 0.0000
     37 ****        -1.1937  -0.4257  -1.0697 H              1 S1                 0.0000
     38 ****         2.2428  -2.2194  -2.4959 H              1 S1                 0.0000
     39 ****         0.7256  -2.5560  -3.2914 H              1 S1                 0.0000
     40 ****         1.1702  -3.4550  -1.8398 H              1 S1                 0.0000
     41 ****         3.7620  -1.8104   1.4806 H              1 S1                 0.0000
     42 ****         0.0720   3.3754   0.5100 H              1 S1                 0.0000
     43 ****         1.3739   3.5916   2.8062 H              1 S1                 0.0000
     44 ****         2.5576   2.3706   3.1962 H              1 S1                 0.0000
     45 ****         5.0389   3.6607   1.0176 H              1 S1                 0.0000
     46 ****         2.9313   4.4380  -0.2728 H              1 S1                 0.0000
     47 ****         1.8105   5.1487   0.8864 H              1 S1                 0.0000
     48 ****         4.7390   5.9092   0.5595 H              1 S1                 0.0000
     49 ****         3.3285   6.9796   0.4979 H              1 S1                 0.0000
     50 ****         3.3364   4.8097   3.8439 H              1 S1                 0.0000
     51 ****         4.9287   4.6348   3.1203 H              1 S1                 0.0000
     52 ****        -0.9459  -1.8878   0.8179 H              1 S1                 0.0000
     53 ****        -1.3233  -4.2758  -1.0449 H              1 S1                 0.0000
     54 ****        -1.4620  -4.3325   0.7064 H              1 S1                 0.0000
     55 ****         0.0695  -3.9175  -0.0202 H              1 S1                 0.0000
     56 ****        -3.1528  -1.0958   0.3410 H              1 S1                 0.0000
     57 ****        -3.2679  -2.7401   0.9120 H              1 S1                 0.0000
     58 ****        -3.4031  -3.4353  -1.3985 H              1 S1                 0.0000
     59 ****         2.4415  -2.5808  -0.2404 LP             1 S1                 0.0000
     60 ****         3.5211   0.3636   2.3939 LP             1 S1                 0.0000
     61 ****        -0.4627   1.4838  -1.0267 LP             1 S1                 0.0000
     62 ****         4.0097   2.5278   0.5843 LP             1 S1                 0.0000
     63 ****         4.7036   2.5091   2.0624 LP             1 S1                 0.0000
     64 ****         2.9419   6.6059   2.6993 LP             1 S1                 0.0000
     65 ****         4.5704   6.7127   2.6421 LP             1 S1                 0.0000
@<TRIPOS>BOND
    1    1    2 1     
    2    1   28 1     
    3    1   29 1     
    4    1   30 1     
    5    2    3 1     
    6    2   31 1     
    7    2   32 1     
    8    3   27 1     
    9    3    4 1     
   10    3   58 1     
   11    4    5 1     
   12    4   33 1     
   13    4   34 1     
   14    5    6 1     
   15    5   35 1     
   16    5   36 1     
   17    6    7 1     
   18    6   25 1     
   19    6   37 1     
   20    7    8 1     
   21    7    9 1     
   22    8   38 1     
   23    8   39 1     
   24    8   40 1     
   25    9   14 ar    
   26    9   10 ar    
   27   10   11 ar    
   28   11   12 ar    
   29   11   41 1     
   30   12   13 ar    
   31   13   17 1     
   32   13   14 ar    
   33   14   15 1     
   34   15   16 2     
   35   16   17 1     
   36   16   42 1     
   37   17   18 1     
   38   18   19 1     
   39   18   43 1     
   40   18   44 1     
   41   19   24 1     
   42   19   20 1     
   43   19   21 1     
   44   20   45 1     
   45   21   22 1     
   46   21   46 1     
   47   21   47 1     
   48   22   23 1     
   49   22   48 1     
   50   22   49 1     
   51   23   24 1     
   52   24   50 1     
   53   24   51 1     
   54   25   26 1     
   55   25   27 1     
   56   25   52 1     
   57   26   53 1     
   58   26   54 1     
   59   26   55 1     
   60   27   56 1     
   61   27   57 1     
   62   10   59 1     
   63   12   60 1     
   64   15   61 1     
   65   20   62 1     
   66   20   63 1     
   67   23   64 1     
   68   23   65 1     
@<TRIPOS>SUBSTRUCTURE
      1 S1             1
@<TRIPOS>SET
LONE_PAIRS      STATIC     ATOMS    <user>   **** ""
7 59 60 61 62 63 64 65
DONOR_HYDROGENS      STATIC     ATOMS    <user>   **** ""
2 58 45
ATOM$BLUE        STATIC     ATOMS    COLORGROUP SYSTEM
7 59 60 61 62 63 64 65
ATOM$RED        STATIC     ATOMS    COLORGROUP SYSTEM
2 58 45
