AV-unprocessed.smi:2798|AV-procd|sdf|10786|dock1
  -GOLD-   2272015223D 1   1.00000     0.00000
 Structure written by MMmdl.
 29 31  0  0  0  0  0  0  0  0  1 V2000
  152.0359  137.4823  154.3804 N   0  0  0  0  0  0  0  0  0  0  0  0
  151.7055  138.3343  155.0903 C   0  0  0  0  0  0  0  0  0  0  0  0
  151.2904  139.4047  155.9808 C   0  0  0  0  0  0  0  0  0  0  0  0
  151.5144  139.2817  157.3681 C   0  0  0  0  0  0  0  0  0  0  0  0
  151.1061  140.3299  158.2149 C   0  0  0  0  0  0  0  0  0  0  0  0
  150.4883  141.4692  157.6485 C   0  0  0  0  0  0  0  0  0  0  0  0
  150.0487  142.5677  158.4024 N   0  0  0  0  0  0  0  0  0  0  0  0
  150.7342  143.8542  158.3516 C   0  0  1  0  0  0  0  0  0  0  0  0
  150.2780  144.8528  159.4217 C   0  0  0  0  0  0  0  0  0  0  0  0
  151.6114  145.2480  160.0717 C   0  0  1  0  0  0  0  0  0  0  0  0
  152.1365  144.1389  160.9913 C   0  0  0  0  0  0  0  0  0  0  0  0
  152.5840  143.0854  159.9804 C   0  0  0  0  0  0  0  0  0  0  0  0
  152.2434  143.7616  158.6402 C   0  0  2  0  0  0  0  0  0  0  0  0
  152.5008  145.1152  158.9749 O   0  0  0  0  0  0  0  0  0  0  0  0
  150.3096  141.4878  156.2491 C   0  0  0  0  0  0  0  0  0  0  0  0
  150.6988  140.4870  155.4306 N   0  0  0  0  0  0  0  0  0  0  0  0
  151.9891  138.4031  157.7812 H   0  0  0  0  0  0  0  0  0  0  0  0
  151.2722  140.2423  159.2778 H   0  0  0  0  0  0  0  0  0  0  0  0
  149.1506  142.5226  158.8626 H   0  0  0  0  0  0  0  0  0  0  0  0
  150.6048  144.2923  157.3612 H   0  0  0  0  0  0  0  0  0  0  0  0
  149.7999  145.7147  158.9551 H   0  0  0  0  0  0  0  0  0  0  0  0
  149.5817  144.4321  160.1487 H   0  0  0  0  0  0  0  0  0  0  0  0
  151.6052  146.2368  160.5310 H   0  0  0  0  0  0  0  0  0  0  0  0
  152.9853  144.4905  161.5787 H   0  0  0  0  0  0  0  0  0  0  0  0
  151.3736  143.7711  161.6783 H   0  0  0  0  0  0  0  0  0  0  0  0
  153.6586  142.9176  160.0617 H   0  0  0  0  0  0  0  0  0  0  0  0
  152.0840  142.1263  160.1170 H   0  0  0  0  0  0  0  0  0  0  0  0
  152.8305  143.3922  157.7987 H   0  0  0  0  0  0  0  0  0  0  0  0
  149.8419  142.3343  155.7674 H   0  0  0  0  0  0  0  0  0  0  0  0
  1  2  3  0  0  0  0
  2  3  1  0  0  0  0
  3 16  1  0  0  0  0
  3  4  2  0  0  0  0
  4  5  1  0  0  0  0
  4 17  1  0  0  0  0
  5  6  2  0  0  0  0
  5 18  1  0  0  0  0
  6  7  1  0  0  0  0
  6 15  1  0  0  0  0
  7  8  1  0  0  0  0
  7 19  1  0  0  0  0
  8 13  1  0  0  0  0
  8  9  1  0  0  0  0
  8 20  1  0  0  0  0
  9 10  1  0  0  0  0
  9 21  1  0  0  0  0
  9 22  1  0  0  0  0
 10 14  1  0  0  0  0
 10 11  1  0  0  0  0
 10 23  1  0  0  0  0
 11 12  1  0  0  0  0
 11 24  1  0  0  0  0
 11 25  1  0  0  0  0
 12 13  1  0  0  0  0
 12 26  1  0  0  0  0
 12 27  1  0  0  0  0
 13 14  1  0  0  0  0
 13 28  1  0  0  0  0
 15 16  2  0  0  0  0
 15 29  1  0  0  0  0
M  END
> <s_m_source_file>
AV-unprocessed.smi

> <i_m_source_file_index>
2798

> <i_lp_mmshare_version>
43012

> <i_f3d_flags>
0

> <s_epik_input>
TiNDYzFbY0hdW2NIXWMoW2NIXW4xKVtOSF1bQ0BIXShbQ0gyXVtDQEBIXTIzKVtDQEBIXShPMylbQ0gyXVtDSDJdMg==

> <s_epik_cmdline>
J2VwaWtfcHl0aG9uJywgJy1waCcsICc3LjAnLCAnLXRuJywgJzgnLCAnLW1hJywgJzIwMCcsICctbWV0YWxfYmluZGluZycsICctaW1hZScsICc8aW5maWxlLm1hZT4nLCAnLW9tYWUnLCAnPG91dGZpbGUubWFlPic=

> <r_lp_tautomer_probability>
1

> <r_epik_Ionization_Penalty>
2.201e-07

> <r_epik_Ionization_Penalty_Charging>
0

> <r_epik_Ionization_Penalty_Neutral>
2.201e-07

> <r_epik_State_Penalty>
-0

> <r_epik_Charging_Adjusted_Penalty>
0

> <i_epik_Tot_Q>
0

> <i_epik_Tot_abs_Q>
0

> <r_epik_Metal_State_Penalty>
-0

> <b_epik_Metal_Only>
0

> <s_lp_Force_Field>
OPLS_2005

> <r_lp_Energy>
43.8811

> <b_lp_Chiralities_Consistent>
1

> <s_lp_Variant>
AV-unprocessed.smi:2798-2

> <Gold.Version>
5.8.1

> <Gold.Id.Protein>
6NUR|6NUR_protein|mol2

> <Gold.PLP.Fitness>
43.9148

> <Gold.PLP.PLP>
-37.7368

> <Gold.PLP.part.hbond>
-2.0000

> <Gold.PLP.part.metal>
0.0000

> <Gold.PLP.part.buried>
-4.7616

> <Gold.PLP.part.nonpolar>
-31.7590

> <Gold.PLP.part.repulsive>
0.3090

> <Gold.PLP.ligand.clash>
0.0000

> <Gold.PLP.ligand.torsion>
0.7456

> <Gold.PLP.Chemscore.Hbond>
1.6283

> <Gold.PLP.Chemscore.CHOScore>
0.9251

> <Gold.PLP.Chemscore.Metal>
0.0000

> <Gold.Chemscore.Hbonds>
donor molecule, donor type, donor heavy atom, donor atom, acceptor molecule, acceptor atom, score
      P1  H  7989  7998       L1    16  0.62
      P1  H 10752 10765       L1     1  0.73
      L1  C    15    29       P1  8028  0.90

> <Gold.PLP.Chemscore.Internal.Correction>
0.0090

> <Gold.Rescore>
     Score         DG    S(hbond)    S(metal)    S(lipo)     H(rot)  DE(clash)    DE(int)     intcor
     19.25     -20.04       1.73        0.00      96.82       1.00       0.10       0.69       ----

> <Gold.Chemscore.Fitness>
19.2473

> <Gold.Chemscore.DG>
-20.0380

> <Gold.Chemscore.ZeroCoef>
-5.4800

> <Gold.Chemscore.Hbond>
1.7334

> <Gold.Chemscore.Metal>
0.0000

> <Gold.Chemscore.Lipo>
96.8243

> <Gold.Chemscore.Internal_Hbond>
0.0000

> <Gold.Chemscore.DEClash>
0.1027

> <Gold.Chemscore.DEInternal>
0.6881

> <Gold.Chemscore.Rot>
1.0000

> <Gold.Chemscore.Internal.Correction>
   9.000000E+99

> <Gold.Chemscore.Hbonds>
donor molecule, donor type, donor heavy atom, donor atom, acceptor molecule, acceptor atom, score
      P1  H  7989  7998       L1    16  0.42
      P1  H 10752 10765       L1     1  0.70

> <Gold.Chemscore.Hbond.Weighted>
-5.7896

> <Gold.Chemscore.Metal.Weighted>
-0.0000

> <Gold.Chemscore.Lipo.Weighted>
-11.3284

> <Gold.Chemscore.Internal_Hbond.Weighted>
0.0000

> <Gold.Chemscore.DEClash.Weighted>
0.1027

> <Gold.Chemscore.DEInternal.Weighted>
0.6881

> <Gold.Chemscore.Rot.Weighted>
2.5600

> <Gold.Chemscore.Internal.Correction.Weighted>
   9.000000E+99

> <Gold.Protein.RotatedTorsions>
[ 6907 6896 6895 6894 ] final  -53.81 input  -60.11 | X-H torsion
[ 7974 7965 7964 7962 ] final   95.85 input  175.53 | X-H torsion
[ 8008 7997 7996 7995 ] final -161.14 input   59.86 | X-H torsion
[ 10167 10162 10161 10158 ] final  104.93 input  -65.29 | X-H torsion
[ 10718 10713 10712 10709 ] final   -6.32 input   66.30 | X-H torsion
[ 10763 10752 10751 10750 ] final  143.76 input  -60.55 | X-H torsion
[ 11005 11000 10999 10996 ] final   39.98 input  -57.11 | X-H torsion

> <Gold.Protein.ActiveResidues>
 VAL166  LYS551  ARG553  GLY616  TRP617  ASP618  TYR619  PRO620  LYS621  CYS622 
 ASP623  PHE694  ASN695  SER759  ASP760  ASP761  ALA762  ILE779  LEU786  VAL792 
 PHE793  MET794  SER795  GLU796  ALA797  LYS798  CYS799  TRP800  GLU811  SER814 

> <Gold.Protein.RotatedAtoms>
  150.8393  134.7679  159.6919 H   0  0  0  0  0  0  0  0  0  0  0  0  # atno 6907 bound_to 6896
  152.4484  134.5443  159.9858 H   0  0  0  0  0  0  0  0  0  0  0  0  # atno 6908 bound_to 6896
  151.5586  133.3369  159.3002 H   0  0  0  0  0  0  0  0  0  0  0  0  # atno 6909 bound_to 6896
  145.4467  139.2296  143.3062 H   0  0  0  0  0  0  0  0  0  0  0  0  # atno 7974 bound_to 7965
  155.7878  140.0874  157.2025 H   0  0  0  0  0  0  0  0  0  0  0  0  # atno 8008 bound_to 7997
  154.3987  140.1495  156.3186 H   0  0  0  0  0  0  0  0  0  0  0  0  # atno 8009 bound_to 7997
  155.8589  140.3431  155.5745 H   0  0  0  0  0  0  0  0  0  0  0  0  # atno 8010 bound_to 7997
  139.7135  144.7073  151.0987 H   0  0  0  0  0  0  0  0  0  0  0  0  # atno 10167 bound_to 10162
  156.7336  130.5188  149.5840 H   0  0  0  0  0  0  0  0  0  0  0  0  # atno 10718 bound_to 10713
  153.9777  135.2944  155.3422 H   0  0  0  0  0  0  0  0  0  0  0  0  # atno 10763 bound_to 10752
  154.7287  135.5077  153.8931 H   0  0  0  0  0  0  0  0  0  0  0  0  # atno 10764 bound_to 10752
  153.0869  135.6696  154.0044 H   0  0  0  0  0  0  0  0  0  0  0  0  # atno 10765 bound_to 10752
  140.1976  134.3910  155.8113 H   0  0  0  0  0  0  0  0  0  0  0  0  # atno 11005 bound_to 11000
  146.2527  140.5221  142.8886 LP  0  0  0  0  0  0  0  0  0  0  0  0  # atno 17320 bound_to 7965
  144.8087  140.6347  143.6429 LP  0  0  0  0  0  0  0  0  0  0  0  0  # atno 17321 bound_to 7965
  140.7738  143.5260  150.9479 LP  0  0  0  0  0  0  0  0  0  0  0  0  # atno 17342 bound_to 10162
  139.8946  143.6911  152.3140 LP  0  0  0  0  0  0  0  0  0  0  0  0  # atno 17343 bound_to 10162
  156.1512  130.6311  151.0597 LP  0  0  0  0  0  0  0  0  0  0  0  0  # atno 17370 bound_to 10713
  157.6848  131.0828  150.7272 LP  0  0  0  0  0  0  0  0  0  0  0  0  # atno 17371 bound_to 10713
  141.2227  133.7077  156.8202 LP  0  0  0  0  0  0  0  0  0  0  0  0  # atno 17394 bound_to 11000
  140.2090  134.8841  157.3254 LP  0  0  0  0  0  0  0  0  0  0  0  0  # atno 17395 bound_to 11000

$$$$
