AV-unprocessed.smi:2533|AV-procd|sdf|9972|dock5
  -GOLD-   2272014 23D 1   1.00000     0.00000
 Structure written by MMmdl.
 35 36  0  0  0  0  0  0  0  0  1 V2000
  151.5935  145.3239  158.4499 C   0  0  0  0  0  0  0  0  0  0  0  0
  151.3109  144.0105  157.9896 O   0  0  0  0  0  0  0  0  0  0  0  0
  151.9452  142.9544  158.6092 C   0  0  0  0  0  0  0  0  0  0  0  0
  152.9871  143.1009  159.5592 C   0  0  0  0  0  0  0  0  0  0  0  0
  153.5867  141.9682  160.1421 C   0  0  0  0  0  0  0  0  0  0  0  0
  153.1577  140.6721  159.7882 C   0  0  0  0  0  0  0  0  0  0  0  0
  153.8268  139.4431  160.3879 C   0  0  2  0  0  0  0  0  0  0  0  0
  155.1273  139.2364  159.8753 O   0  0  0  0  0  0  0  0  0  0  0  0
  153.0075  138.1486  160.1829 C   0  0  0  0  0  0  0  0  0  0  0  0
  153.6089  136.9876  160.8550 N   0  0  0  0  0  0  0  0  0  0  0  0
  153.5693  137.0655  162.2367 N   0  0  0  0  0  0  0  0  0  0  0  0
  154.0361  136.1142  162.9795 C   0  0  0  0  0  0  0  0  0  0  0  0
  153.9372  136.2886  164.4747 C   0  0  0  0  0  0  0  0  0  0  0  0
  153.3742  135.2239  165.0466 F   0  0  0  0  0  0  0  0  0  0  0  0
  155.1520  136.4575  164.9978 F   0  0  0  0  0  0  0  0  0  0  0  0
  153.2007  137.3622  164.7617 F   0  0  0  0  0  0  0  0  0  0  0  0
  154.6208  134.9454  162.3444 C   0  0  0  0  0  0  0  0  0  0  0  0
  154.6580  134.8703  160.9971 C   0  0  0  0  0  0  0  0  0  0  0  0
  154.1241  135.9354  160.1522 C   0  0  0  0  0  0  0  0  0  0  0  0
  154.1294  135.8827  158.9228 O   0  0  0  0  0  0  0  0  0  0  0  0
  152.1199  140.5224  158.8460 C   0  0  0  0  0  0  0  0  0  0  0  0
  151.5205  141.6545  158.2625 C   0  0  0  0  0  0  0  0  0  0  0  0
  150.5284  141.4886  157.3552 F   0  0  0  0  0  0  0  0  0  0  0  0
  151.0259  146.0428  157.8590 H   0  0  0  0  0  0  0  0  0  0  0  0
  152.6508  145.5674  158.3370 H   0  0  0  0  0  0  0  0  0  0  0  0
  151.3021  145.4518  159.4931 H   0  0  0  0  0  0  0  0  0  0  0  0
  153.3490  144.0736  159.8556 H   0  0  0  0  0  0  0  0  0  0  0  0
  154.3875  142.0979  160.8553 H   0  0  0  0  0  0  0  0  0  0  0  0
  153.9458  139.6112  161.4592 H   0  0  0  0  0  0  0  0  0  0  0  0
  155.7149  139.8451  160.2964 H   0  0  0  0  0  0  0  0  0  0  0  0
  151.9801  138.3079  160.5148 H   0  0  0  0  0  0  0  0  0  0  0  0
  152.9281  137.9328  159.1159 H   0  0  0  0  0  0  0  0  0  0  0  0
  155.0211  134.1444  162.9481 H   0  0  0  0  0  0  0  0  0  0  0  0
  155.0930  133.9993  160.5292 H   0  0  0  0  0  0  0  0  0  0  0  0
  151.7863  139.5363  158.5577 H   0  0  0  0  0  0  0  0  0  0  0  0
  1  2  1  0  0  0  0
  1 24  1  0  0  0  0
  1 25  1  0  0  0  0
  1 26  1  0  0  0  0
  2  3  1  0  0  0  0
  3 22  1  0  0  0  0
  3  4  2  0  0  0  0
  4  5  1  0  0  0  0
  4 27  1  0  0  0  0
  5  6  2  0  0  0  0
  5 28  1  0  0  0  0
  6  7  1  0  0  0  0
  6 21  1  0  0  0  0
  7  8  1  0  0  0  0
  7  9  1  0  0  0  0
  7 29  1  0  0  0  0
  8 30  1  0  0  0  0
  9 10  1  0  0  0  0
  9 31  1  0  0  0  0
  9 32  1  0  0  0  0
 10 19  1  0  0  0  0
 10 11  1  0  0  0  0
 11 12  2  0  0  0  0
 12 13  1  0  0  0  0
 12 17  1  0  0  0  0
 13 14  1  0  0  0  0
 13 15  1  0  0  0  0
 13 16  1  0  0  0  0
 17 18  2  0  0  0  0
 17 33  1  0  0  0  0
 18 19  1  0  0  0  0
 18 34  1  0  0  0  0
 19 20  2  0  0  0  0
 21 22  2  0  0  0  0
 21 35  1  0  0  0  0
 22 23  1  0  0  0  0
M  END
> <s_m_source_file>
AV-unprocessed.smi

> <i_m_source_file_index>
2533

> <i_lp_mmshare_version>
43012

> <i_f3d_flags>
0

> <s_epik_input>
W0NIM11PYzFbY0hdW2NIXWMoW2NIXWMxRilbQ0BIXShbT0hdKVtDSDJdbjJuYyhDKEYpKEYpRilbY0hdW2NIXWMyPU8=

> <s_epik_cmdline>
J2VwaWtfcHl0aG9uJywgJy1waCcsICc3LjAnLCAnLXRuJywgJzgnLCAnLW1hJywgJzIwMCcsICctbWV0YWxfYmluZGluZycsICctaW1hZScsICc8aW5maWxlLm1hZT4nLCAnLW9tYWUnLCAnPG91dGZpbGUubWFlPic=

> <r_lp_tautomer_probability>
1

> <r_epik_Ionization_Penalty>
5.00966e-08

> <r_epik_Ionization_Penalty_Charging>
3.92872e-09

> <r_epik_Ionization_Penalty_Neutral>
4.61679e-08

> <r_epik_State_Penalty>
-0

> <r_epik_Charging_Adjusted_Penalty>
3.92872e-09

> <i_epik_Tot_Q>
0

> <i_epik_Tot_abs_Q>
0

> <r_epik_Metal_State_Penalty>
-0

> <b_epik_Metal_Only>
0

> <s_lp_Force_Field>
OPLS_2005

> <r_lp_Energy>
31.2936

> <b_lp_Chiralities_Consistent>
1

> <s_lp_Variant>
AV-unprocessed.smi:2533-1

> <Gold.Version>
5.8.1

> <Gold.Id.Protein>
6NUR|6NUR_protein|mol2

> <Gold.PLP.Fitness>
44.0759

> <Gold.PLP.PLP>
-43.5257

> <Gold.PLP.part.hbond>
-0.5649

> <Gold.PLP.part.metal>
0.0000

> <Gold.PLP.part.buried>
-5.7966

> <Gold.PLP.part.nonpolar>
-36.0541

> <Gold.PLP.part.repulsive>
0.1409

> <Gold.PLP.ligand.clash>
0.0000

> <Gold.PLP.ligand.torsion>
0.6703

> <Gold.PLP.Chemscore.Hbond>
0.6175

> <Gold.PLP.Chemscore.CHOScore>
0.0000

> <Gold.PLP.Chemscore.Metal>
0.0000

> <Gold.PLP.Chemscore.Internal.Correction>
0.0384

> <Gold.Rescore>
     Score         DG    S(hbond)    S(metal)    S(lipo)     H(rot)  DE(clash)    DE(int)     intcor
     10.82     -11.30       0.00        0.00     104.51       2.50       0.06       0.42       ----

> <Gold.Chemscore.Fitness>
10.8245

> <Gold.Chemscore.DG>
-11.2998

> <Gold.Chemscore.ZeroCoef>
-5.4800

> <Gold.Chemscore.Hbond>
0.0001

> <Gold.Chemscore.Metal>
0.0000

> <Gold.Chemscore.Lipo>
104.5063

> <Gold.Chemscore.Internal_Hbond>
0.0000

> <Gold.Chemscore.DEClash>
0.0571

> <Gold.Chemscore.DEInternal>
0.4182

> <Gold.Chemscore.Rot>
2.5031

> <Gold.Chemscore.Internal.Correction>
   9.000000E+99

> <Gold.Chemscore.Hbond.Weighted>
-0.0004

> <Gold.Chemscore.Metal.Weighted>
-0.0000

> <Gold.Chemscore.Lipo.Weighted>
-12.2272

> <Gold.Chemscore.Internal_Hbond.Weighted>
0.0000

> <Gold.Chemscore.DEClash.Weighted>
0.0571

> <Gold.Chemscore.DEInternal.Weighted>
0.4182

> <Gold.Chemscore.Rot.Weighted>
6.4079

> <Gold.Chemscore.Internal.Correction.Weighted>
   9.000000E+99

> <Gold.Protein.RotatedTorsions>
[ 6907 6896 6895 6894 ] final   62.19 input  -60.11 | X-H torsion
[ 7974 7965 7964 7962 ] final -115.26 input  175.53 | X-H torsion
[ 8008 7997 7996 7995 ] final  -22.59 input   59.86 | X-H torsion
[ 10167 10162 10161 10158 ] final   -6.78 input  -65.29 | X-H torsion
[ 10718 10713 10712 10709 ] final -173.47 input   66.30 | X-H torsion
[ 10763 10752 10751 10750 ] final  -24.01 input  -60.55 | X-H torsion
[ 11005 11000 10999 10996 ] final  136.89 input  -57.11 | X-H torsion

> <Gold.Protein.ActiveResidues>
 VAL166  LYS551  ARG553  GLY616  TRP617  ASP618  TYR619  PRO620  LYS621  CYS622 
 ASP623  PHE694  ASN695  SER759  ASP760  ASP761  ALA762  ILE779  LEU786  VAL792 
 PHE793  MET794  SER795  GLU796  ALA797  LYS798  CYS799  TRP800  GLU811  SER814 

> <Gold.Protein.RotatedAtoms>
  152.4152  134.6054  160.0011 H   0  0  0  0  0  0  0  0  0  0  0  0  # atno 6907 bound_to 6896
  151.6220  133.3333  159.3098 H   0  0  0  0  0  0  0  0  0  0  0  0  # atno 6908 bound_to 6896
  150.8041  134.7193  159.6694 H   0  0  0  0  0  0  0  0  0  0  0  0  # atno 6909 bound_to 6896
  145.1105  140.8608  143.3873 H   0  0  0  0  0  0  0  0  0  0  0  0  # atno 7974 bound_to 7965
  154.4635  140.2003  156.0181 H   0  0  0  0  0  0  0  0  0  0  0  0  # atno 8008 bound_to 7997
  156.0884  140.3261  155.7755 H   0  0  0  0  0  0  0  0  0  0  0  0  # atno 8009 bound_to 7997
  155.4997  140.0553  157.2932 H   0  0  0  0  0  0  0  0  0  0  0  0  # atno 8010 bound_to 7997
  140.7008  143.6155  150.8663 H   0  0  0  0  0  0  0  0  0  0  0  0  # atno 10167 bound_to 10162
  156.7709  130.9448  151.3120 H   0  0  0  0  0  0  0  0  0  0  0  0  # atno 10718 bound_to 10713
  153.6770  135.6969  153.5129 H   0  0  0  0  0  0  0  0  0  0  0  0  # atno 10763 bound_to 10752
  153.2514  135.4274  155.0800 H   0  0  0  0  0  0  0  0  0  0  0  0  # atno 10764 bound_to 10752
  154.8411  135.3532  154.6314 H   0  0  0  0  0  0  0  0  0  0  0  0  # atno 10765 bound_to 10752
  140.0077  134.9452  157.0210 H   0  0  0  0  0  0  0  0  0  0  0  0  # atno 11005 bound_to 11000
  145.0852  139.2930  143.5763 LP  0  0  0  0  0  0  0  0  0  0  0  0  # atno 17320 bound_to 7965
  146.3526  140.0372  142.8646 LP  0  0  0  0  0  0  0  0  0  0  0  0  # atno 17321 bound_to 7965
  139.9876  143.5882  152.2921 LP  0  0  0  0  0  0  0  0  0  0  0  0  # atno 17342 bound_to 10162
  139.6525  144.7661  151.2119 LP  0  0  0  0  0  0  0  0  0  0  0  0  # atno 17343 bound_to 10162
  157.6691  130.9035  150.0000 LP  0  0  0  0  0  0  0  0  0  0  0  0  # atno 17370 bound_to 10713
  156.1279  130.3644  149.9780 LP  0  0  0  0  0  0  0  0  0  0  0  0  # atno 17371 bound_to 10713
  140.4611  134.1483  155.7191 LP  0  0  0  0  0  0  0  0  0  0  0  0  # atno 17394 bound_to 11000
  141.1689  133.8649  157.1632 LP  0  0  0  0  0  0  0  0  0  0  0  0  # atno 17395 bound_to 11000

$$$$
