#       Name:                AV-unprocessed.smi:2458
#       Creating user name   scv26
#       Creation time:       Fri Mar 27 13:34:47 2020


#       File generated by GOLD software.
#

@<TRIPOS>MOLECULE
AV-unprocessed.smi:2458
    52    53     1
SMALL
NO_CHARGES


@<TRIPOS>ATOM
      1 ****        -5.3328  -2.6429   1.7826 C.3            1 S1                 0.0000
      2 ****        -4.8578  -1.9981   0.4658 C.3            1 S1                 0.0000
      3 ****        -5.5228  -2.7351  -0.7130 C.3            1 S1                 0.0000
      4 ****        -3.3057  -1.9479   0.3460 C.3            1 S1                 0.0000
      5 ****        -2.8370  -1.2955  -0.9784 C.3            1 S1                 0.0000
      6 ****        -1.3054  -1.2290  -1.0937 C.3            1 S1                 0.0000
      7 ****        -0.6846  -0.4712   0.0935 C.3            1 S1                 0.0000
      8 ****         0.8447  -0.4156  -0.0265 C.2            1 S1                 0.0000
      9 ****         1.5101  -1.4513   0.0052 O.2            1 S1                 0.0000
     10 ****         1.3906   0.8012  -0.1629 N.am           1 S1                 0.0000
     11 ****         2.8196   1.0541  -0.2937 C.3            1 S1                 0.0000
     12 ****         3.0907   2.5349  -0.6142 C.3            1 S1                 0.0000
     13 ****         2.7024   2.7863  -1.9505 O.3            1 S1                 0.0000
     14 ****         4.5508   2.8918  -0.3852 C.ar           1 S1                 0.0000
     15 ****         5.5689   2.3887  -1.2241 C.ar           1 S1                 0.0000
     16 ****         6.9058   2.7439  -0.9611 C.ar           1 S1                 0.0000
     17 ****         7.1716   3.5894   0.1342 C.ar           1 S1                 0.0000
     18 ****         6.2083   4.0760   0.9456 N.ar           1 S1                 0.0000
     19 ****         4.9287   3.7305   0.6862 C.ar           1 S1                 0.0000
     20 ****        -1.1150  -1.1387   1.4124 C.3            1 S1                 0.0000
     21 ****        -2.6458  -1.2076   1.5359 C.3            1 S1                 0.0000
     22 ****        -2.9394  -2.9757   0.3540 H              1 S1                 0.0000
     23 ****        -1.0685   0.5506   0.0861 H              1 S1                 0.0000
     24 ****        -4.9102  -3.6398   1.9113 H              1 S1                 0.0000
     25 ****        -6.4186  -2.7404   1.8041 H              1 S1                 0.0000
     26 ****        -5.0621  -2.0453   2.6522 H              1 S1                 0.0000
     27 ****        -5.2314  -0.9732   0.4564 H              1 S1                 0.0000
     28 ****        -5.1221  -3.7428  -0.8275 H              1 S1                 0.0000
     29 ****        -5.3863  -2.2070  -1.6558 H              1 S1                 0.0000
     30 ****        -6.5994  -2.8238  -0.5646 H              1 S1                 0.0000
     31 ****        -3.2087  -1.8536  -1.8367 H              1 S1                 0.0000
     32 ****        -3.2510  -0.2895  -1.0600 H              1 S1                 0.0000
     33 ****        -0.9055  -2.2430  -1.1462 H              1 S1                 0.0000
     34 ****        -1.0337  -0.7423  -2.0315 H              1 S1                 0.0000
     35 ****         0.7776   1.6033  -0.1863 H              1 S1                 0.0000
     36 ****         3.2824   0.7979   0.6609 H              1 S1                 0.0000
     37 ****         3.2647   0.4018  -1.0472 H              1 S1                 0.0000
     38 ****         2.4796   3.1670   0.0322 H              1 S1                 0.0000
     39 ****         3.1771   2.1977  -2.5174 H              1 S1                 0.0000
     40 ****         5.3315   1.7393  -2.0539 H              1 S1                 0.0000
     41 ****         7.7085   2.3759  -1.5828 H              1 S1                 0.0000
     42 ****         8.1854   3.8810   0.3653 H              1 S1                 0.0000
     43 ****         4.1857   4.1359   1.3571 H              1 S1                 0.0000
     44 ****        -0.7063  -2.1485   1.4767 H              1 S1                 0.0000
     45 ****        -0.7075  -0.5875   2.2611 H              1 S1                 0.0000
     46 ****        -3.0503  -0.1974   1.6118 H              1 S1                 0.0000
     47 ****        -2.8786  -1.7053   2.4763 H              1 S1                 0.0000
     48 ****         1.0545  -2.3353   0.1096 LP             1 S1                 0.0000
     49 ****         2.5061  -1.4083  -0.0735 LP             1 S1                 0.0000
     50 ****         2.9171   3.7328  -2.1915 LP             1 S1                 0.0000
     51 ****         1.7196   2.6315  -2.0508 LP             1 S1                 0.0000
     52 ****         6.4353   4.6736   1.7146 LP             1 S1                 0.0000
@<TRIPOS>BOND
    1    1    2 1     
    2    1   24 1     
    3    1   25 1     
    4    1   26 1     
    5    2    3 1     
    6    2    4 1     
    7    2   27 1     
    8    3   28 1     
    9    3   29 1     
   10    3   30 1     
   11    4   22 1     
   12    4   21 1     
   13    4    5 1     
   14    5    6 1     
   15    5   31 1     
   16    5   32 1     
   17    6    7 1     
   18    6   33 1     
   19    6   34 1     
   20    7   23 1     
   21    7    8 1     
   22    7   20 1     
   23    8    9 2     
   24    8   10 am    
   25   10   11 1     
   26   10   35 1     
   27   11   12 1     
   28   11   36 1     
   29   11   37 1     
   30   12   13 1     
   31   12   14 1     
   32   12   38 1     
   33   13   39 1     
   34   14   19 ar    
   35   14   15 ar    
   36   15   16 ar    
   37   15   40 1     
   38   16   17 ar    
   39   16   41 1     
   40   17   18 ar    
   41   17   42 1     
   42   18   19 ar    
   43   19   43 1     
   44   20   21 1     
   45   20   44 1     
   46   20   45 1     
   47   21   46 1     
   48   21   47 1     
   49    9   48 1     
   50    9   49 1     
   51   13   50 1     
   52   13   51 1     
   53   18   52 1     
@<TRIPOS>SUBSTRUCTURE
      1 S1             1
@<TRIPOS>SET
LONE_PAIRS      STATIC     ATOMS    <user>   **** ""
5 48 49 50 51 52
DONOR_HYDROGENS      STATIC     ATOMS    <user>   **** ""
2 35 39
ATOM$BLUE        STATIC     ATOMS    COLORGROUP SYSTEM
5 48 49 50 51 52
ATOM$RED        STATIC     ATOMS    COLORGROUP SYSTEM
2 35 39
