#       Name:                AV-unprocessed.smi:3326
#       Creating user name   scv26
#       Creation time:       Fri Mar 27 19:13:32 2020


#       File generated by GOLD software.
#

@<TRIPOS>MOLECULE
AV-unprocessed.smi:3326
    33    34     1
SMALL
NO_CHARGES


@<TRIPOS>ATOM
      1 ****        -2.6356  -3.7558  -0.1492 F              1 S1                 0.0000
      2 ****        -1.7917  -2.7336  -0.0039 C.3            1 S1                 0.0000
      3 ****        -1.2550  -2.8112   1.2141 F              1 S1                 0.0000
      4 ****        -0.8244  -2.8644  -0.9121 F              1 S1                 0.0000
      5 ****        -2.4952  -1.3898  -0.1805 C.ar           1 S1                 0.0000
      6 ****        -3.8799  -1.3381  -0.4601 C.ar           1 S1                 0.0000
      7 ****        -4.5057  -0.0885  -0.6206 C.ar           1 S1                 0.0000
      8 ****        -3.7202   1.0711  -0.4962 C.ar           1 S1                 0.0000
      9 ****        -2.3987   1.0403  -0.2287 N.ar           1 S1                 0.0000
     10 ****        -1.7919  -0.1613  -0.0718 C.ar           1 S1                 0.0000
     11 ****        -0.4167  -0.1676   0.2084 N.pl3          1 S1                 0.0000
     12 ****         0.3342   1.0724   0.3453 C.3            1 S1                 0.0000
     13 ****         1.8134   0.8031   0.6526 C.3            1 S1                 0.0000
     14 ****         2.5992   0.1916  -0.5041 C.3            1 S1                 0.0000
     15 ****         4.0305   0.5230  -0.1300 C.3            1 S1                 0.0000
     16 ****         3.8988   1.8034   0.7012 C.3            1 S1                 0.0000
     17 ****         2.5019   2.0236   0.8752 O.3            1 S1                 0.0000
     18 ****        -4.4664  -2.2398  -0.5530 H              1 S1                 0.0000
     19 ****        -5.5621  -0.0207  -0.8343 H              1 S1                 0.0000
     20 ****        -4.1638   2.0488  -0.6138 H              1 S1                 0.0000
     21 ****         0.0659  -1.0445   0.3417 H              1 S1                 0.0000
     22 ****         0.2407   1.6624  -0.5672 H              1 S1                 0.0000
     23 ****        -0.1031   1.6587   1.1543 H              1 S1                 0.0000
     24 ****         1.9129   0.1839   1.5463 H              1 S1                 0.0000
     25 ****         2.4261  -0.8786  -0.6203 H              1 S1                 0.0000
     26 ****         2.3377   0.6835  -1.4421 H              1 S1                 0.0000
     27 ****         4.4538  -0.2755   0.4806 H              1 S1                 0.0000
     28 ****         4.6681   0.6521  -1.0050 H              1 S1                 0.0000
     29 ****         4.3824   1.6877   1.6719 H              1 S1                 0.0000
     30 ****         4.3462   2.6624   0.2004 H              1 S1                 0.0000
     31 ****        -1.8760   1.8890  -0.1475 LP             1 S1                 0.0000
     32 ****         2.3258   2.3435   1.8062 LP             1 S1                 0.0000
     33 ****         2.1863   2.7112   0.2213 LP             1 S1                 0.0000
@<TRIPOS>BOND
    1    1    2 1     
    2    2    3 1     
    3    2    4 1     
    4    2    5 1     
    5    5   10 ar    
    6    5    6 ar    
    7    6    7 ar    
    8    6   18 1     
    9    7    8 ar    
   10    7   19 1     
   11    8    9 ar    
   12    8   20 1     
   13    9   10 ar    
   14   10   11 1     
   15   11   12 1     
   16   11   21 1     
   17   12   13 1     
   18   12   22 1     
   19   12   23 1     
   20   13   17 1     
   21   13   14 1     
   22   13   24 1     
   23   14   15 1     
   24   14   25 1     
   25   14   26 1     
   26   15   16 1     
   27   15   27 1     
   28   15   28 1     
   29   16   17 1     
   30   16   29 1     
   31   16   30 1     
   32    9   31 1     
   33   17   32 1     
   34   17   33 1     
@<TRIPOS>SUBSTRUCTURE
      1 S1             1
@<TRIPOS>SET
LONE_PAIRS      STATIC     ATOMS    <user>   **** ""
3 31 32 33
DONOR_HYDROGENS      STATIC     ATOMS    <user>   **** ""
1 21
ATOM$BLUE        STATIC     ATOMS    COLORGROUP SYSTEM
3 31 32 33
ATOM$RED        STATIC     ATOMS    COLORGROUP SYSTEM
1 21
