AV-unprocessed.smi:261|AV-procd|sdf|1988|dock5
  -GOLD-   2262021173D 1   1.00000     0.00000
 Structure written by MMmdl.
 51 54  0  0  0  0  0  0  0  0  1 V2000
  151.2991  144.2696  158.2258 C   0  0  0  0  0  0  0  0  0  0  0  0
  151.5624  142.9573  158.6949 O   0  0  0  0  0  0  0  0  0  0  0  0
  151.3465  141.9513  157.7159 C   0  0  2  0  0  0  0  0  0  0  0  0
  149.9315  141.9636  157.1297 C   0  0  0  0  0  0  0  0  0  0  0  0
  149.7096  140.5228  156.6392 C   0  0  1  0  0  0  0  0  0  0  0  0
  150.1369  140.3461  155.1711 C   0  0  0  0  0  0  0  0  0  0  0  0
  149.1644  140.3669  154.2568 N   0  0  0  0  0  0  0  0  0  0  0  0
  151.3196  140.2072  154.8622 O   0  0  0  0  0  0  0  0  0  0  0  0
  150.5352  139.7261  157.5506 N   0  0  0  0  0  0  0  0  0  0  0  0
  150.3163  138.4064  157.8056 C   0  0  0  0  0  0  0  0  0  0  0  0
  150.2675  137.9989  159.1022 N   0  0  0  0  0  0  0  0  0  0  0  0
  150.0526  136.7175  159.4098 C   0  0  0  0  0  0  0  0  0  0  0  0
  149.8630  135.6848  158.5889 N   0  0  0  0  0  0  0  0  0  0  0  0
  149.9109  136.0784  157.2850 C   0  0  0  0  0  0  0  0  0  0  0  0
  150.1295  137.4034  156.8059 C   0  0  0  0  0  0  0  0  0  0  0  0
  150.1063  137.3986  155.4143 N   0  0  0  0  0  0  0  0  0  0  0  0
  149.8903  136.1531  155.0935 C   0  0  0  0  0  0  0  0  0  0  0  0
  149.7666  135.2908  156.1572 N   0  0  0  0  0  0  0  0  0  0  0  0
  149.5313  133.8595  156.0956 C   0  0  0  0  0  0  0  0  0  0  0  0
  150.8177  133.0421  155.8499 C   0  0  1  0  0  0  0  0  0  0  0  0
  151.5852  133.1031  157.0354 O   0  0  0  0  0  0  0  0  0  0  0  0
  150.5730  131.5618  155.4815 C   0  0  2  0  0  0  0  0  0  0  0  0
  151.8327  130.7905  155.0828 C   0  0  0  0  0  0  0  0  0  0  0  0
  151.2963  129.6397  154.2479 C   0  0  0  0  0  0  0  0  0  0  0  0
  149.8980  130.1051  153.8349 C   0  0  0  0  0  0  0  0  0  0  0  0
  149.7995  131.4449  154.2964 O   0  0  0  0  0  0  0  0  0  0  0  0
  151.4333  140.5580  158.3404 C   0  0  0  0  0  0  0  0  0  0  0  0
  152.0839  142.0274  156.9144 H   0  0  0  0  0  0  0  0  0  0  0  0
  148.6536  140.2676  156.7449 H   0  0  0  0  0  0  0  0  0  0  0  0
  151.5269  144.9893  159.0119 H   0  0  0  0  0  0  0  0  0  0  0  0
  150.2508  144.3951  157.9539 H   0  0  0  0  0  0  0  0  0  0  0  0
  151.9173  144.5117  157.3605 H   0  0  0  0  0  0  0  0  0  0  0  0
  149.2103  142.1915  157.9160 H   0  0  0  0  0  0  0  0  0  0  0  0
  149.8062  142.7130  156.3470 H   0  0  0  0  0  0  0  0  0  0  0  0
  149.3900  140.2614  153.2785 H   0  0  0  0  0  0  0  0  0  0  0  0
  148.2063  140.4942  154.5485 H   0  0  0  0  0  0  0  0  0  0  0  0
  150.0295  136.4870  160.4646 H   0  0  0  0  0  0  0  0  0  0  0  0
  149.8229  135.8271  154.0659 H   0  0  0  0  0  0  0  0  0  0  0  0
  149.0638  133.5545  157.0327 H   0  0  0  0  0  0  0  0  0  0  0  0
  148.8035  133.6646  155.3066 H   0  0  0  0  0  0  0  0  0  0  0  0
  151.4022  133.5149  155.0599 H   0  0  0  0  0  0  0  0  0  0  0  0
  151.6545  132.2313  157.3932 H   0  0  0  0  0  0  0  0  0  0  0  0
  150.0623  131.0440  156.2959 H   0  0  0  0  0  0  0  0  0  0  0  0
  152.4774  131.4190  154.4667 H   0  0  0  0  0  0  0  0  0  0  0  0
  152.4131  130.4539  155.9420 H   0  0  0  0  0  0  0  0  0  0  0  0
  151.9353  129.4450  153.3857 H   0  0  0  0  0  0  0  0  0  0  0  0
  151.2336  128.7225  154.8344 H   0  0  0  0  0  0  0  0  0  0  0  0
  149.7411  130.0550  152.7572 H   0  0  0  0  0  0  0  0  0  0  0  0
  149.1316  129.4994  154.3201 H   0  0  0  0  0  0  0  0  0  0  0  0
  152.4588  140.1882  158.3219 H   0  0  0  0  0  0  0  0  0  0  0  0
  151.0851  140.5746  159.3743 H   0  0  0  0  0  0  0  0  0  0  0  0
  1  2  1  0  0  0  0
  1 30  1  0  0  0  0
  1 31  1  0  0  0  0
  1 32  1  0  0  0  0
  2  3  1  0  0  0  0
  3 28  1  0  0  0  0
  3 27  1  0  0  0  0
  3  4  1  0  0  0  0
  4  5  1  0  0  0  0
  4 33  1  0  0  0  0
  4 34  1  0  0  0  0
  5 29  1  0  0  0  0
  5  6  1  0  0  0  0
  5  9  1  0  0  0  0
  6  7  1  0  0  0  0
  6  8  2  0  0  0  0
  7 35  1  0  0  0  0
  7 36  1  0  0  0  0
  9 10  1  0  0  0  0
  9 27  1  0  0  0  0
 10 15  1  0  0  0  0
 10 11  2  0  0  0  0
 11 12  1  0  0  0  0
 12 13  2  0  0  0  0
 12 37  1  0  0  0  0
 13 14  1  0  0  0  0
 14 18  1  0  0  0  0
 14 15  2  0  0  0  0
 15 16  1  0  0  0  0
 16 17  2  0  0  0  0
 17 18  1  0  0  0  0
 17 38  1  0  0  0  0
 18 19  1  0  0  0  0
 19 20  1  0  0  0  0
 19 39  1  0  0  0  0
 19 40  1  0  0  0  0
 20 21  1  0  0  0  0
 20 22  1  0  0  0  0
 20 41  1  0  0  0  0
 21 42  1  0  0  0  0
 22 26  1  0  0  0  0
 22 23  1  0  0  0  0
 22 43  1  0  0  0  0
 23 24  1  0  0  0  0
 23 44  1  0  0  0  0
 23 45  1  0  0  0  0
 24 25  1  0  0  0  0
 24 46  1  0  0  0  0
 24 47  1  0  0  0  0
 25 26  1  0  0  0  0
 25 48  1  0  0  0  0
 25 49  1  0  0  0  0
 27 50  1  0  0  0  0
 27 51  1  0  0  0  0
M  END
> <s_m_source_file>
AV-unprocessed.smi

> <i_m_source_file_index>
261

> <i_lp_mmshare_version>
43012

> <i_f3d_flags>
0

> <s_epik_input>
W0NIM11PW0NASF0xW0NIMl1bQ0BASF0oQyg9TylbTkgyXSlOKFtDSDJdMSljKG5bY0hdbjIpYyhjMjMpbltjSF1uM1tDSDJdW0NASF0oW09IXSlbQ0BASF00W0NIMl1bQ0gyXVtDSDJdTzQ=

> <s_epik_cmdline>
J2VwaWtfcHl0aG9uJywgJy1waCcsICc3LjAnLCAnLXRuJywgJzgnLCAnLW1hJywgJzIwMCcsICctbWV0YWxfYmluZGluZycsICctaW1hZScsICc8aW5maWxlLm1hZT4nLCAnLW9tYWUnLCAnPG91dGZpbGUubWFlPic=

> <r_lp_tautomer_probability>
1

> <r_epik_Ionization_Penalty>
0.000713824

> <r_epik_Ionization_Penalty_Charging>
0

> <r_epik_Ionization_Penalty_Neutral>
0.000713824

> <r_epik_State_Penalty>
0.000402132

> <r_epik_Charging_Adjusted_Penalty>
0.000402132

> <i_epik_Tot_Q>
0

> <i_epik_Tot_abs_Q>
0

> <r_epik_Metal_State_Penalty>
-0

> <b_epik_Metal_Only>
0

> <s_lp_Force_Field>
OPLS_2005

> <r_lp_Energy>
43.323

> <b_lp_Chiralities_Consistent>
1

> <s_lp_Variant>
AV-unprocessed.smi:261-6

> <Gold.Version>
5.8.1

> <Gold.Id.Protein>
6NUR|6NUR_protein|mol2

> <Gold.PLP.Fitness>
45.0715

> <Gold.PLP.PLP>
-36.9061

> <Gold.PLP.part.hbond>
-4.7646

> <Gold.PLP.part.metal>
0.0000

> <Gold.PLP.part.buried>
-5.8837

> <Gold.PLP.part.nonpolar>
-27.6490

> <Gold.PLP.part.repulsive>
0.3836

> <Gold.PLP.ligand.clash>
0.0000

> <Gold.PLP.ligand.torsion>
1.7567

> <Gold.PLP.Chemscore.Hbond>
2.8480

> <Gold.PLP.Chemscore.CHOScore>
1.0000

> <Gold.PLP.Chemscore.Metal>
0.0000

> <Gold.Chemscore.Hbonds>
donor molecule, donor type, donor heavy atom, donor atom, acceptor molecule, acceptor atom, score
      L1  H     7    35       P1  7957  0.73
      P1  H  6896  6909       L1    13  0.75
      P1  H  7989  7998       L1     8  1.00
      L1  C    17    38       P1  7948  0.96

> <Gold.PLP.Chemscore.Internal.Correction>
0.1348

> <Gold.Rescore>
     Score         DG    S(hbond)    S(metal)    S(lipo)     H(rot)  DE(clash)    DE(int)     intcor
      9.58     -12.62       2.23        0.00      66.89       3.18       0.04       3.00       ----

> <Gold.Chemscore.Fitness>
9.5783

> <Gold.Chemscore.DG>
-12.6215

> <Gold.Chemscore.ZeroCoef>
-5.4800

> <Gold.Chemscore.Hbond>
2.2348

> <Gold.Chemscore.Metal>
0.0000

> <Gold.Chemscore.Lipo>
66.8879

> <Gold.Chemscore.Internal_Hbond>
0.0000

> <Gold.Chemscore.DEClash>
0.0427

> <Gold.Chemscore.DEInternal>
3.0004

> <Gold.Chemscore.Rot>
3.1831

> <Gold.Chemscore.Internal.Correction>
   9.000000E+99

> <Gold.Chemscore.Hbonds>
donor molecule, donor type, donor heavy atom, donor atom, acceptor molecule, acceptor atom, score
      L1  H     7    35       P1  7957  0.73
      P1  H  6896  6909       L1    13  0.34
      P1  H  7989  7998       L1     8  0.77

> <Gold.Chemscore.Hbond.Weighted>
-7.4642

> <Gold.Chemscore.Metal.Weighted>
-0.0000

> <Gold.Chemscore.Lipo.Weighted>
-7.8259

> <Gold.Chemscore.Internal_Hbond.Weighted>
0.0000

> <Gold.Chemscore.DEClash.Weighted>
0.0427

> <Gold.Chemscore.DEInternal.Weighted>
3.0004

> <Gold.Chemscore.Rot.Weighted>
8.1486

> <Gold.Chemscore.Internal.Correction.Weighted>
   9.000000E+99

> <Gold.Protein.RotatedTorsions>
[ 6907 6896 6895 6894 ] final   31.05 input  -60.11 | X-H torsion
[ 7974 7965 7964 7962 ] final   66.64 input  175.53 | X-H torsion
[ 8008 7997 7996 7995 ] final  128.41 input   59.86 | X-H torsion
[ 10167 10162 10161 10158 ] final   75.13 input  -65.29 | X-H torsion
[ 10718 10713 10712 10709 ] final  131.81 input   66.30 | X-H torsion
[ 10763 10752 10751 10750 ] final  -21.11 input  -60.55 | X-H torsion
[ 11005 11000 10999 10996 ] final  -32.27 input  -57.11 | X-H torsion

> <Gold.Protein.ActiveResidues>
 VAL166  LYS551  ARG553  GLY616  TRP617  ASP618  TYR619  PRO620  LYS621  CYS622 
 ASP623  PHE694  ASN695  SER759  ASP760  ASP761  ALA762  ILE779  LEU786  VAL792 
 PHE793  MET794  SER795  GLU796  ALA797  LYS798  CYS799  TRP800  GLU811  SER814 

> <Gold.Protein.RotatedAtoms>
  152.0548  134.9631  160.0574 H   0  0  0  0  0  0  0  0  0  0  0  0  # atno 6907 bound_to 6896
  152.1018  133.4249  159.4599 H   0  0  0  0  0  0  0  0  0  0  0  0  # atno 6908 bound_to 6896
  150.6840  134.2671  159.4616 H   0  0  0  0  0  0  0  0  0  0  0  0  # atno 6909 bound_to 6896
  145.8242  139.3102  143.1025 H   0  0  0  0  0  0  0  0  0  0  0  0  # atno 7974 bound_to 7965
  156.2914  140.2645  156.2431 H   0  0  0  0  0  0  0  0  0  0  0  0  # atno 8008 bound_to 7997
  154.9957  140.0388  157.2357 H   0  0  0  0  0  0  0  0  0  0  0  0  # atno 8009 bound_to 7997
  154.7646  140.2767  155.6191 H   0  0  0  0  0  0  0  0  0  0  0  0  # atno 8010 bound_to 7997
  140.0062  144.5648  150.7696 H   0  0  0  0  0  0  0  0  0  0  0  0  # atno 10167 bound_to 10162
  157.4931  131.1091  150.9529 H   0  0  0  0  0  0  0  0  0  0  0  0  # atno 10718 bound_to 10713
  153.6309  135.6989  153.5276 H   0  0  0  0  0  0  0  0  0  0  0  0  # atno 10763 bound_to 10752
  153.2860  135.4171  155.1122 H   0  0  0  0  0  0  0  0  0  0  0  0  # atno 10764 bound_to 10752
  154.8522  135.3613  154.5852 H   0  0  0  0  0  0  0  0  0  0  0  0  # atno 10765 bound_to 10752
  140.9538  133.7205  156.1261 H   0  0  0  0  0  0  0  0  0  0  0  0  # atno 11005 bound_to 11000
  145.9641  140.8812  143.0196 LP  0  0  0  0  0  0  0  0  0  0  0  0  # atno 17320 bound_to 7965
  144.6745  140.1854  143.7402 LP  0  0  0  0  0  0  0  0  0  0  0  0  # atno 17321 bound_to 7965
  140.7399  143.2798  151.3633 LP  0  0  0  0  0  0  0  0  0  0  0  0  # atno 17342 bound_to 10162
  139.6237  144.0857  152.2414 LP  0  0  0  0  0  0  0  0  0  0  0  0  # atno 17343 bound_to 10162
  157.0224  130.5679  149.5333 LP  0  0  0  0  0  0  0  0  0  0  0  0  # atno 17370 bound_to 10713
  156.0185  130.5279  150.8206 LP  0  0  0  0  0  0  0  0  0  0  0  0  # atno 17371 bound_to 10713
  140.7565  134.3987  157.5533 LP  0  0  0  0  0  0  0  0  0  0  0  0  # atno 17394 bound_to 11000
  139.8856  134.8934  156.2636 LP  0  0  0  0  0  0  0  0  0  0  0  0  # atno 17395 bound_to 11000

$$$$
