#       Name:                AV-unprocessed.smi:2098
#       Creating user name   scv26
#       Creation time:       Fri Mar 27 11:29:51 2020


#       File generated by GOLD software.
#

@<TRIPOS>MOLECULE
AV-unprocessed.smi:2098
    41    43     1
SMALL
NO_CHARGES


@<TRIPOS>ATOM
      1 ****        -0.6703  -1.7685  -1.9898 O.3            1 S1                 0.0000
      2 ****        -0.1818  -0.9596  -0.9379 C.3            1 S1                 0.0000
      3 ****         1.3520  -1.0269  -0.9375 C.3            1 S1                 0.0000
      4 ****         1.8402  -0.3629   0.2209 O.3            1 S1                 0.0000
      5 ****         3.2044  -0.2633   0.3896 C.ar           1 S1                 0.0000
      6 ****         3.6593   0.4599   1.5119 C.ar           1 S1                 0.0000
      7 ****         5.0369   0.6154   1.7596 C.ar           1 S1                 0.0000
      8 ****         5.9776   0.0438   0.8835 C.ar           1 S1                 0.0000
      9 ****         7.3025   0.1931   1.1191 F              1 S1                 0.0000
     10 ****         5.5383  -0.6835  -0.2381 C.ar           1 S1                 0.0000
     11 ****         4.1604  -0.8379  -0.4866 C.ar           1 S1                 0.0000
     12 ****        -0.7090   0.4804  -1.1025 C.3            1 S1                 0.0000
     13 ****        -2.1755   0.5545  -1.0912 N.pl3          1 S1                 0.0000
     14 ****        -3.0555   0.6707  -2.1224 C.2            1 S1                 0.0000
     15 ****        -4.3098   0.6936  -1.5916 N.pl3          1 S1                 1.0000
     16 ****        -4.2294   0.5931  -0.2007 C.ar           1 S1                 0.0000
     17 ****        -5.2245   0.5728   0.7717 C.ar           1 S1                 0.0000
     18 ****        -4.7977   0.4579   2.1113 C.ar           1 S1                 0.0000
     19 ****        -3.4297   0.3693   2.4421 C.ar           1 S1                 0.0000
     20 ****        -2.4292   0.3921   1.4482 C.ar           1 S1                 0.0000
     21 ****        -2.8601   0.5047   0.1270 C.ar           1 S1                 0.0000
     22 ****        -0.3154  -1.4480  -2.8049 H              1 S1                 0.0000
     23 ****        -0.5522  -1.3831  -0.0037 H              1 S1                 0.0000
     24 ****         1.6736  -2.0698  -0.9199 H              1 S1                 0.0000
     25 ****         1.7473  -0.5650  -1.8440 H              1 S1                 0.0000
     26 ****         2.9439   0.9027   2.1894 H              1 S1                 0.0000
     27 ****         5.3713   1.1737   2.6216 H              1 S1                 0.0000
     28 ****         6.2591  -1.1244  -0.9107 H              1 S1                 0.0000
     29 ****         3.8631  -1.4034  -1.3564 H              1 S1                 0.0000
     30 ****        -0.3291   1.1307  -0.3136 H              1 S1                 0.0000
     31 ****        -0.3656   0.9065  -2.0463 H              1 S1                 0.0000
     32 ****        -2.8048   0.7303  -3.1716 H              1 S1                 0.0000
     33 ****        -6.2731   0.6405   0.5215 H              1 S1                 0.0000
     34 ****        -5.5346   0.4371   2.9011 H              1 S1                 0.0000
     35 ****        -3.1414   0.2818   3.4796 H              1 S1                 0.0000
     36 ****        -1.3836   0.3223   1.7103 H              1 S1                 0.0000
     37 ****        -5.1563   0.7712  -2.1407 H              1 S1                 0.0000
     38 ****        -1.6689  -1.7218  -2.0152 LP             1 S1                 0.0000
     39 ****        -0.3846  -2.7162  -1.8470 LP             1 S1                 0.0000
     40 ****         1.4781  -0.8495   1.0160 LP             1 S1                 0.0000
     41 ****         1.4749   0.5678   0.2050 LP             1 S1                 0.0000
@<TRIPOS>BOND
    1    1    2 1     
    2    1   22 1     
    3    2    3 1     
    4    2   12 1     
    5    2   23 1     
    6    3    4 1     
    7    3   24 1     
    8    3   25 1     
    9    4    5 1     
   10    5   11 ar    
   11    5    6 ar    
   12    6    7 ar    
   13    6   26 1     
   14    7    8 ar    
   15    7   27 1     
   16    8    9 1     
   17    8   10 ar    
   18   10   11 ar    
   19   10   28 1     
   20   11   29 1     
   21   12   13 1     
   22   12   30 1     
   23   12   31 1     
   24   13   21 1     
   25   13   14 1     
   26   14   15 2     
   27   14   32 1     
   28   15   16 1     
   29   15   37 1     
   30   16   21 ar    
   31   16   17 ar    
   32   17   18 ar    
   33   17   33 1     
   34   18   19 ar    
   35   18   34 1     
   36   19   20 ar    
   37   19   35 1     
   38   20   21 ar    
   39   20   36 1     
   40    1   38 1     
   41    1   39 1     
   42    4   40 1     
   43    4   41 1     
@<TRIPOS>SUBSTRUCTURE
      1 S1             1
@<TRIPOS>SET
LONE_PAIRS      STATIC     ATOMS    <user>   **** ""
4 38 39 40 41
DONOR_HYDROGENS      STATIC     ATOMS    <user>   **** ""
2 22 37
ATOM$BLUE        STATIC     ATOMS    COLORGROUP SYSTEM
4 38 39 40 41
ATOM$RED        STATIC     ATOMS    COLORGROUP SYSTEM
2 22 37
