AV-unprocessed.smi:1644|AV-procd|sdf|6587|dock3
  -GOLD-   22720 7283D 1   1.00000     0.00000
 Structure written by MMmdl.
 49 51  0  0  0  0  0  0  0  0  1 V2000
  152.2612  142.7216  160.2574 C   0  0  0  0  0  0  0  0  0  0  0  0
  152.6828  142.6619  158.7856 C   0  0  0  0  0  0  0  0  0  0  0  0
  151.4775  142.7305  157.8259 C   0  0  0  0  0  0  0  0  0  0  0  0
  150.8039  141.3791  157.4956 C   0  0  1  0  0  0  0  0  0  0  0  0
  149.8519  141.4644  156.4079 N   0  0  0  0  0  0  0  0  0  0  0  0
  150.1466  140.6308  155.4021 C   0  0  0  0  0  0  0  0  0  0  0  0
  149.4980  140.5242  154.3625 O   0  0  0  0  0  0  0  0  0  0  0  0
  151.2585  139.9429  155.7276 N   0  0  0  0  0  0  0  0  0  0  0  0
  151.8914  138.9280  154.8725 C   0  0  0  0  0  0  0  0  0  0  0  0
  151.0682  137.6235  154.7142 C   0  0  1  0  0  0  0  0  0  0  0  0
  151.9009  136.6621  154.1007 O   0  0  0  0  0  0  0  0  0  0  0  0
  150.5206  136.9957  156.0169 C   0  0  0  0  0  0  0  0  0  0  0  0
  150.8032  135.5785  156.1664 N   0  0  0  0  0  0  0  0  0  0  0  0
  151.6639  135.0195  157.0393 C   0  0  0  0  0  0  0  0  0  0  0  0
  151.7733  133.6946  157.0251 N   0  0  0  0  0  0  0  0  0  0  0  0
  150.8982  133.3545  156.0090 C   0  0  0  0  0  0  0  0  0  0  0  0
  150.5402  132.0883  155.4978 C   0  0  0  0  0  0  0  0  0  0  0  0
  149.6079  131.9700  154.4430 C   0  0  0  0  0  0  0  0  0  0  0  0
  149.2443  130.5879  153.9300 C   0  0  0  0  0  0  0  0  0  0  0  0
  149.0264  133.1320  153.8761 C   0  0  0  0  0  0  0  0  0  0  0  0
  148.0215  133.0308  152.7424 C   0  0  0  0  0  0  0  0  0  0  0  0
  149.3779  134.4048  154.3710 C   0  0  0  0  0  0  0  0  0  0  0  0
  150.2917  134.5101  155.4347 C   0  0  0  0  0  0  0  0  0  0  0  0
  151.7408  140.3364  156.9148 C   0  0  0  0  0  0  0  0  0  0  0  0
  152.7619  139.9414  157.4772 O   0  0  0  0  0  0  0  0  0  0  0  0
  153.1322  142.6853  160.9119 H   0  0  0  0  0  0  0  0  0  0  0  0
  151.6151  141.8825  160.5163 H   0  0  0  0  0  0  0  0  0  0  0  0
  151.7197  143.6426  160.4751 H   0  0  0  0  0  0  0  0  0  0  0  0
  153.3682  143.4852  158.5824 H   0  0  0  0  0  0  0  0  0  0  0  0
  153.2456  141.7431  158.6187 H   0  0  0  0  0  0  0  0  0  0  0  0
  150.7278  143.4061  158.2400 H   0  0  0  0  0  0  0  0  0  0  0  0
  151.8012  143.1897  156.8911 H   0  0  0  0  0  0  0  0  0  0  0  0
  150.3115  140.9691  158.3782 H   0  0  0  0  0  0  0  0  0  0  0  0
  149.0612  142.0923  156.4172 H   0  0  0  0  0  0  0  0  0  0  0  0
  152.0277  139.3901  153.8931 H   0  0  0  0  0  0  0  0  0  0  0  0
  152.8978  138.6856  155.2179 H   0  0  0  0  0  0  0  0  0  0  0  0
  150.2478  137.7838  154.0173 H   0  0  0  0  0  0  0  0  0  0  0  0
  151.6422  136.5746  153.1959 H   0  0  0  0  0  0  0  0  0  0  0  0
  150.9403  137.5097  156.8827 H   0  0  0  0  0  0  0  0  0  0  0  0
  149.4398  137.1373  156.0677 H   0  0  0  0  0  0  0  0  0  0  0  0
  152.2275  135.6176  157.7405 H   0  0  0  0  0  0  0  0  0  0  0  0
  150.9872  131.2041  155.9276 H   0  0  0  0  0  0  0  0  0  0  0  0
  149.4875  130.4970  152.8712 H   0  0  0  0  0  0  0  0  0  0  0  0
  148.1779  130.4018  154.0582 H   0  0  0  0  0  0  0  0  0  0  0  0
  149.7863  129.8084  154.4660 H   0  0  0  0  0  0  0  0  0  0  0  0
  147.6555  134.0141  152.4465 H   0  0  0  0  0  0  0  0  0  0  0  0
  147.1621  132.4325  153.0454 H   0  0  0  0  0  0  0  0  0  0  0  0
  148.4777  132.5659  151.8684 H   0  0  0  0  0  0  0  0  0  0  0  0
  148.9379  135.2942  153.9461 H   0  0  0  0  0  0  0  0  0  0  0  0
  1  2  1  0  0  0  0
  1 26  1  0  0  0  0
  1 27  1  0  0  0  0
  1 28  1  0  0  0  0
  2  3  1  0  0  0  0
  2 29  1  0  0  0  0
  2 30  1  0  0  0  0
  3  4  1  0  0  0  0
  3 31  1  0  0  0  0
  3 32  1  0  0  0  0
  4 24  1  0  0  0  0
  4  5  1  0  0  0  0
  4 33  1  0  0  0  0
  5  6  1  0  0  0  0
  5 34  1  0  0  0  0
  6  7  2  0  0  0  0
  6  8  1  0  0  0  0
  8  9  1  0  0  0  0
  8 24  1  0  0  0  0
  9 10  1  0  0  0  0
  9 35  1  0  0  0  0
  9 36  1  0  0  0  0
 10 11  1  0  0  0  0
 10 12  1  0  0  0  0
 10 37  1  0  0  0  0
 11 38  1  0  0  0  0
 12 13  1  0  0  0  0
 12 39  1  0  0  0  0
 12 40  1  0  0  0  0
 13 23  1  0  0  0  0
 13 14  1  0  0  0  0
 14 15  2  0  0  0  0
 14 41  1  0  0  0  0
 15 16  1  0  0  0  0
 16 23  2  0  0  0  0
 16 17  1  0  0  0  0
 17 18  2  0  0  0  0
 17 42  1  0  0  0  0
 18 19  1  0  0  0  0
 18 20  1  0  0  0  0
 19 43  1  0  0  0  0
 19 44  1  0  0  0  0
 19 45  1  0  0  0  0
 20 21  1  0  0  0  0
 20 22  2  0  0  0  0
 21 46  1  0  0  0  0
 21 47  1  0  0  0  0
 21 48  1  0  0  0  0
 22 23  1  0  0  0  0
 22 49  1  0  0  0  0
 24 25  2  0  0  0  0
M  END
> <s_m_source_file>
AV-unprocessed.smi

> <i_m_source_file_index>
1644

> <i_lp_mmshare_version>
43012

> <i_f3d_flags>
0

> <s_epik_input>
W0NIM11bQ0gyXVtDSDJdW0NAQEhdMVtOSF1DKD1PKU4oQzE9TylbQ0gyXVtDQEhdKFtPSF0pW0NIMl1uKFtjSF1uMiljKGMyMylbY0hdYyhbQ0gzXSljKFtjSF0zKVtDSDNd

> <s_epik_cmdline>
J2VwaWtfcHl0aG9uJywgJy1waCcsICc3LjAnLCAnLXRuJywgJzgnLCAnLW1hJywgJzIwMCcsICctbWV0YWxfYmluZGluZycsICctaW1hZScsICc8aW5maWxlLm1hZT4nLCAnLW9tYWUnLCAnPG91dGZpbGUubWFlPic=

> <r_lp_tautomer_probability>
1

> <r_epik_Ionization_Penalty>
0.10693

> <r_epik_Ionization_Penalty_Charging>
0

> <r_epik_Ionization_Penalty_Neutral>
0.10693

> <r_epik_State_Penalty>
0.096713

> <r_epik_Charging_Adjusted_Penalty>
0.096713

> <i_epik_Tot_Q>
0

> <i_epik_Tot_abs_Q>
0

> <r_epik_Metal_State_Penalty>
0.102757

> <b_epik_Metal_Only>
0

> <s_lp_Force_Field>
OPLS_2005

> <r_lp_Energy>
20.3603

> <b_lp_Chiralities_Consistent>
1

> <s_lp_Variant>
AV-unprocessed.smi:1644-4

> <Gold.Version>
5.8.1

> <Gold.Id.Protein>
6NUR|6NUR_protein|mol2

> <Gold.PLP.Fitness>
56.2983

> <Gold.PLP.PLP>
-48.4469

> <Gold.PLP.part.hbond>
-4.9535

> <Gold.PLP.part.metal>
0.0000

> <Gold.PLP.part.buried>
-1.7919

> <Gold.PLP.part.nonpolar>
-43.2517

> <Gold.PLP.part.repulsive>
0.7921

> <Gold.PLP.ligand.clash>
0.0014

> <Gold.PLP.ligand.torsion>
1.1131

> <Gold.PLP.Chemscore.Hbond>
3.2730

> <Gold.PLP.Chemscore.CHOScore>
0.0000

> <Gold.PLP.Chemscore.Metal>
0.0000

> <Gold.Chemscore.Hbonds>
donor molecule, donor type, donor heavy atom, donor atom, acceptor molecule, acceptor atom, score
      L1  H    11    38       P1  7949  1.00
      P1  H  6896  6907       L1    15  0.20
      P1  H  7997  8008       L1    25  1.00
      P1  H 10752 10763       L1    11  0.89

> <Gold.PLP.Chemscore.Internal.Correction>
0.2599

> <Gold.Rescore>
     Score         DG    S(hbond)    S(metal)    S(lipo)     H(rot)  DE(clash)    DE(int)     intcor
     16.96     -19.49       2.76        0.00     100.36       2.72       0.35       2.17       ----

> <Gold.Chemscore.Fitness>
16.9637

> <Gold.Chemscore.DG>
-19.4857

> <Gold.Chemscore.ZeroCoef>
-5.4800

> <Gold.Chemscore.Hbond>
2.7633

> <Gold.Chemscore.Metal>
0.0000

> <Gold.Chemscore.Lipo>
100.3631

> <Gold.Chemscore.Internal_Hbond>
0.0000

> <Gold.Chemscore.DEClash>
0.3538

> <Gold.Chemscore.DEInternal>
2.1682

> <Gold.Chemscore.Rot>
2.7212

> <Gold.Chemscore.Internal.Correction>
   9.000000E+99

> <Gold.Chemscore.Hbonds>
donor molecule, donor type, donor heavy atom, donor atom, acceptor molecule, acceptor atom, score
      L1  H    11    38       P1  7949  0.97
      P1  H  6896  6907       L1    15  0.03
      P1  H  7997  8008       L1    25  0.98
      P1  H 10752 10763       L1    11  0.59

> <Gold.Chemscore.Hbond.Weighted>
-9.2295

> <Gold.Chemscore.Metal.Weighted>
-0.0000

> <Gold.Chemscore.Lipo.Weighted>
-11.7425

> <Gold.Chemscore.Internal_Hbond.Weighted>
0.0000

> <Gold.Chemscore.DEClash.Weighted>
0.3538

> <Gold.Chemscore.DEInternal.Weighted>
2.1682

> <Gold.Chemscore.Rot.Weighted>
6.9663

> <Gold.Chemscore.Internal.Correction.Weighted>
   9.000000E+99

> <Gold.Protein.RotatedTorsions>
[ 6907 6896 6895 6894 ] final -163.99 input  -60.11 | X-H torsion
[ 7974 7965 7964 7962 ] final -116.52 input  175.53 | X-H torsion
[ 8008 7997 7996 7995 ] final  -74.30 input   59.86 | X-H torsion
[ 10167 10162 10161 10158 ] final  -38.45 input  -65.29 | X-H torsion
[ 10718 10713 10712 10709 ] final -146.40 input   66.30 | X-H torsion
[ 10763 10752 10751 10750 ] final   50.70 input  -60.55 | X-H torsion
[ 11005 11000 10999 10996 ] final  -67.72 input  -57.11 | X-H torsion

> <Gold.Protein.ActiveResidues>
 VAL166  LYS551  ARG553  GLY616  TRP617  ASP618  TYR619  PRO620  LYS621  CYS622 
 ASP623  PHE694  ASN695  SER759  ASP760  ASP761  ALA762  ILE779  LEU786  VAL792 
 PHE793  MET794  SER795  GLU796  ALA797  LYS798  CYS799  TRP800  GLU811  SER814 

> <Gold.Protein.RotatedAtoms>
  151.4047  133.3746  159.2736 H   0  0  0  0  0  0  0  0  0  0  0  0  # atno 6907 bound_to 6896
  150.9407  134.8817  159.7621 H   0  0  0  0  0  0  0  0  0  0  0  0  # atno 6908 bound_to 6896
  152.5070  134.3998  159.9464 H   0  0  0  0  0  0  0  0  0  0  0  0  # atno 6909 bound_to 6896
  145.0958  140.8520  143.3955 H   0  0  0  0  0  0  0  0  0  0  0  0  # atno 7974 bound_to 7965
  154.5319  140.0764  156.8360 H   0  0  0  0  0  0  0  0  0  0  0  0  # atno 8008 bound_to 7997
  155.3357  140.3404  155.4221 H   0  0  0  0  0  0  0  0  0  0  0  0  # atno 8009 bound_to 7997
  156.1790  140.1645  156.8296 H   0  0  0  0  0  0  0  0  0  0  0  0  # atno 8010 bound_to 7997
  140.7092  143.3277  151.2642 H   0  0  0  0  0  0  0  0  0  0  0  0  # atno 10167 bound_to 10162
  156.3944  130.7902  151.2107 H   0  0  0  0  0  0  0  0  0  0  0  0  # atno 10718 bound_to 10713
  152.9784  135.5870  154.4295 H   0  0  0  0  0  0  0  0  0  0  0  0  # atno 10763 bound_to 10752
  154.3910  135.2768  155.2157 H   0  0  0  0  0  0  0  0  0  0  0  0  # atno 10764 bound_to 10752
  154.4029  135.6099  153.5962 H   0  0  0  0  0  0  0  0  0  0  0  0  # atno 10765 bound_to 10752
  141.1515  133.6725  156.6336 H   0  0  0  0  0  0  0  0  0  0  0  0  # atno 11005 bound_to 11000
  145.1013  139.2821  143.5685 LP  0  0  0  0  0  0  0  0  0  0  0  0  # atno 17320 bound_to 7965
  146.3531  140.0580  142.8631 LP  0  0  0  0  0  0  0  0  0  0  0  0  # atno 17321 bound_to 7965
  139.6749  143.9954  152.2775 LP  0  0  0  0  0  0  0  0  0  0  0  0  # atno 17342 bound_to 10162
  139.9565  144.6586  150.8121 LP  0  0  0  0  0  0  0  0  0  0  0  0  # atno 17343 bound_to 10162
  157.7501  131.0306  150.4143 LP  0  0  0  0  0  0  0  0  0  0  0  0  # atno 17370 bound_to 10713
  156.4410  130.3991  149.6697 LP  0  0  0  0  0  0  0  0  0  0  0  0  # atno 17371 bound_to 10713
  140.3448  134.7819  157.4424 LP  0  0  0  0  0  0  0  0  0  0  0  0  # atno 17394 bound_to 11000
  140.0909  134.5603  155.8445 LP  0  0  0  0  0  0  0  0  0  0  0  0  # atno 17395 bound_to 11000

$$$$
