#       Name:                AV-unprocessed.smi:114
#       Creating user name   scv26
#       Creation time:       Thu Mar 26 18:23:23 2020


#       File generated by GOLD software.
#

@<TRIPOS>MOLECULE
AV-unprocessed.smi:114
    43    45     1
SMALL
NO_CHARGES


@<TRIPOS>ATOM
      1 ****        -5.1275   0.3354  -0.1271 N.pl3          1 S1                 0.0000
      2 ****        -3.8037   0.5392  -0.0739 C.ar           1 S1                 0.0000
      3 ****        -3.3529   1.8040   0.0953 N.ar           1 S1                 0.0000
      4 ****        -2.0385   2.0513   0.1522 C.ar           1 S1                 0.0000
      5 ****        -1.6758   3.3442   0.3227 F              1 S1                 0.0000
      6 ****        -1.0422   1.1641   0.0611 N.ar           1 S1                 0.0000
      7 ****        -1.4920  -0.1129  -0.1082 C.ar           1 S1                 0.0000
      8 ****        -2.8548  -0.5062  -0.1869 C.ar           1 S1                 0.0000
      9 ****        -2.9419  -1.8804  -0.3637 N.2            1 S1                 0.0000
     10 ****        -1.6961  -2.2731  -0.3889 C.2            1 S1                 0.0000
     11 ****        -0.7583  -1.2750  -0.2377 N.pl3          1 S1                 0.0000
     12 ****         0.7295  -1.4150  -0.2275 C.3            1 S1                 0.0000
     13 ****         1.2581  -0.4482  -1.0814 O.3            1 S1                 0.0000
     14 ****         2.4175   0.1296  -0.4937 C.3            1 S1                 0.0000
     15 ****         2.6526   1.5293  -1.0813 C.3            1 S1                 0.0000
     16 ****         3.3424   1.4300  -2.3091 O.3            1 S1                 0.0000
     17 ****         2.0626   0.1427   0.9943 C.3            1 S1                 0.0000
     18 ****         3.2013   0.2543   1.8282 O.3            1 S1                 0.0000
     19 ****         1.2985  -1.1674   1.1799 C.3            1 S1                 0.0000
     20 ****         2.1460  -2.2311   1.5749 O.3            1 S1                 0.0000
     21 ****         0.9197  -2.4190  -0.6100 H              1 S1                 0.0000
     22 ****         3.2748  -0.5253  -0.6631 H              1 S1                 0.0000
     23 ****         1.3971   0.9798   1.2054 H              1 S1                 0.0000
     24 ****         0.5000  -1.0665   1.9165 H              1 S1                 0.0000
     25 ****        -5.4877  -0.5998  -0.2531 H              1 S1                 0.0000
     26 ****        -5.7620   1.1166  -0.0439 H              1 S1                 0.0000
     27 ****        -1.4258  -3.3113  -0.5169 H              1 S1                 0.0000
     28 ****         1.7133   2.0676  -1.2132 H              1 S1                 0.0000
     29 ****         3.2718   2.1207  -0.4064 H              1 S1                 0.0000
     30 ****         3.4824   2.3018  -2.6459 H              1 S1                 0.0000
     31 ****         2.9200   0.1927   2.7284 H              1 S1                 0.0000
     32 ****         2.8729  -2.2728   0.9723 H              1 S1                 0.0000
     33 ****        -4.0050   2.5576   0.1783 LP             1 S1                 0.0000
     34 ****        -0.0741   1.4095   0.1115 LP             1 S1                 0.0000
     35 ****        -3.7664  -2.4395  -0.4513 LP             1 S1                 0.0000
     36 ****         0.5750   0.2650  -1.2392 LP             1 S1                 0.0000
     37 ****         1.5038  -0.8730  -1.9527 LP             1 S1                 0.0000
     38 ****         2.7982   0.9004  -2.9598 LP             1 S1                 0.0000
     39 ****         4.2230   0.9784  -2.1656 LP             1 S1                 0.0000
     40 ****         3.6477   1.1357   1.6737 LP             1 S1                 0.0000
     41 ****         3.8430  -0.4848   1.6238 LP             1 S1                 0.0000
     42 ****         1.6391  -3.0928   1.5529 LP             1 S1                 0.0000
     43 ****         2.4844  -2.0671   2.5015 LP             1 S1                 0.0000
@<TRIPOS>BOND
    1    1    2 1     
    2    1   25 1     
    3    1   26 1     
    4    2    8 ar    
    5    2    3 ar    
    6    3    4 ar    
    7    4    5 1     
    8    4    6 ar    
    9    6    7 ar    
   10    7   11 1     
   11    7    8 ar    
   12    8    9 1     
   13    9   10 2     
   14   10   11 1     
   15   10   27 1     
   16   11   12 1     
   17   12   21 1     
   18   12   19 1     
   19   12   13 1     
   20   13   14 1     
   21   14   22 1     
   22   14   15 1     
   23   14   17 1     
   24   15   16 1     
   25   15   28 1     
   26   15   29 1     
   27   16   30 1     
   28   17   23 1     
   29   17   18 1     
   30   17   19 1     
   31   18   31 1     
   32   19   24 1     
   33   19   20 1     
   34   20   32 1     
   35    3   33 1     
   36    6   34 1     
   37    9   35 1     
   38   13   36 1     
   39   13   37 1     
   40   16   38 1     
   41   16   39 1     
   42   18   40 1     
   43   18   41 1     
   44   20   42 1     
   45   20   43 1     
@<TRIPOS>SUBSTRUCTURE
      1 S1             1
@<TRIPOS>SET
LONE_PAIRS      STATIC     ATOMS    <user>   **** ""
11 33 34 35 36 37 38 39 40 41 42 43
DONOR_HYDROGENS      STATIC     ATOMS    <user>   **** ""
5 25 26 30 31 32
ATOM$BLUE        STATIC     ATOMS    COLORGROUP SYSTEM
11 33 34 35 36 37 38 39 40 41 42 43
ATOM$RED        STATIC     ATOMS    COLORGROUP SYSTEM
5 25 26 30 31 32
