#       Name:                AV-unprocessed.smi:1165
#       Creating user name   scv26
#       Creation time:       Fri Mar 27 03:51:39 2020


#       File generated by GOLD software.
#

@<TRIPOS>MOLECULE
AV-unprocessed.smi:1165
    45    46     1
SMALL
NO_CHARGES


@<TRIPOS>ATOM
      1 ****        -3.7417   2.8835   1.6691 C.3            1 S1                 0.0000
      2 ****        -2.2844   2.4319   1.5239 C.3            1 S1                 0.0000
      3 ****        -2.1596   0.8994   1.4461 C.3            1 S1                 0.0000
      4 ****        -0.7719   0.4849   1.1812 N.3            1 S1                 0.0000
      5 ****        -0.4373  -1.2154   1.2972 S.o2           1 S1                 0.0000
      6 ****        -1.1645  -1.7069   2.4788 O.2            1 S1                 0.0000
      7 ****        -0.8008  -1.7812  -0.0126 O.2            1 S1                 0.0000
      8 ****         1.1605  -1.1001   1.5572 N.pl3          1 S1                -1.0000
      9 ****         1.9753  -2.3049   1.5443 C.3            1 S1                 0.0000
     10 ****         2.9035  -2.3242   0.3076 C.3            1 S1                 0.0000
     11 ****         2.1903  -2.3495  -1.0403 C.ar           1 S1                 0.0000
     12 ****         1.6918  -3.5530  -1.5856 C.ar           1 S1                 0.0000
     13 ****         1.0366  -3.5157  -2.8312 C.ar           1 S1                 0.0000
     14 ****         0.9088  -2.2737  -3.4840 C.ar           1 S1                 0.0000
     15 ****         1.3903  -1.1170  -2.9813 N.ar           1 S1                 0.0000
     16 ****         2.0172  -1.1623  -1.7863 C.ar           1 S1                 0.0000
     17 ****        -0.1564   1.2197   0.0581 C.3            1 S1                 0.0000
     18 ****        -0.3726   2.7376   0.1876 C.3            1 S1                 0.0000
     19 ****         0.1322   3.4942  -1.0460 C.3            1 S1                 0.0000
     20 ****        -1.7575   3.0123   0.3400 O.3            1 S1                 0.0000
     21 ****        -4.1900   2.4764   2.5759 H              1 S1                 0.0000
     22 ****        -4.3433   2.5547   0.8215 H              1 S1                 0.0000
     23 ****        -3.8087   3.9701   1.7241 H              1 S1                 0.0000
     24 ****        -1.7241   2.8001   2.3853 H              1 S1                 0.0000
     25 ****        -2.5018   0.4596   2.3828 H              1 S1                 0.0000
     26 ****        -2.7981   0.5049   0.6546 H              1 S1                 0.0000
     27 ****         2.5959  -2.3601   2.4387 H              1 S1                 0.0000
     28 ****         1.3729  -3.2141   1.5547 H              1 S1                 0.0000
     29 ****         3.5713  -1.4621   0.3379 H              1 S1                 0.0000
     30 ****         3.5501  -3.2003   0.3631 H              1 S1                 0.0000
     31 ****         1.8027  -4.4870  -1.0548 H              1 S1                 0.0000
     32 ****         0.6383  -4.4167  -3.2732 H              1 S1                 0.0000
     33 ****         0.4100  -2.2084  -4.4397 H              1 S1                 0.0000
     34 ****         2.3897  -0.2205  -1.4118 H              1 S1                 0.0000
     35 ****         0.9121   1.0144   0.0142 H              1 S1                 0.0000
     36 ****        -0.5871   0.8548  -0.8753 H              1 S1                 0.0000
     37 ****         0.1657   3.1082   1.0617 H              1 S1                 0.0000
     38 ****         1.1979   3.3243  -1.2008 H              1 S1                 0.0000
     39 ****        -0.0210   4.5678  -0.9352 H              1 S1                 0.0000
     40 ****        -0.3918   3.1735  -1.9469 H              1 S1                 0.0000
     41 ****        -0.2549   0.7951   1.9790 LP             1 S1                 0.0000
     42 ****         1.5812  -0.2085   1.7248 LP             1 S1                 0.0000
     43 ****         1.2861  -0.2551  -3.4776 LP             1 S1                 0.0000
     44 ****        -1.8883   4.0029   0.3795 LP             1 S1                 0.0000
     45 ****        -2.2493   2.6423  -0.4482 LP             1 S1                 0.0000
@<TRIPOS>BOND
    1    1    2 1     
    2    1   21 1     
    3    1   22 1     
    4    1   23 1     
    5    2   20 1     
    6    2    3 1     
    7    2   24 1     
    8    3    4 1     
    9    3   25 1     
   10    3   26 1     
   11    4    5 1     
   12    4   17 1     
   13    5    6 2     
   14    5    7 2     
   15    5    8 1     
   16    8    9 1     
   17    9   10 1     
   18    9   27 1     
   19    9   28 1     
   20   10   11 1     
   21   10   29 1     
   22   10   30 1     
   23   11   16 ar    
   24   11   12 ar    
   25   12   13 ar    
   26   12   31 1     
   27   13   14 ar    
   28   13   32 1     
   29   14   15 ar    
   30   14   33 1     
   31   15   16 ar    
   32   16   34 1     
   33   17   18 1     
   34   17   35 1     
   35   17   36 1     
   36   18   19 1     
   37   18   20 1     
   38   18   37 1     
   39   19   38 1     
   40   19   39 1     
   41   19   40 1     
   42    4   41 1     
   43    8   42 1     
   44   15   43 1     
   45   20   44 1     
   46   20   45 1     
@<TRIPOS>SUBSTRUCTURE
      1 S1             1
@<TRIPOS>SET
LONE_PAIRS      STATIC     ATOMS    <user>   **** ""
7 41 6 7 42 43 44 45
ATOM$BLUE        STATIC     ATOMS    COLORGROUP SYSTEM
7 41 6 7 42 43 44 45
