AV-unprocessed.smi:644|AV-procd|sdf|3157|dock8
  -GOLD-   22720 0 83D 1   1.00000     0.00000
 Structure written by MMmdl.
 38 40  0  0  0  0  0  0  0  0  2 V2000
  152.4893  143.4372  161.4546 C   0  0  0  0  0  0  0  0  0  0  0  0
  152.2801  142.6672  160.1618 C   0  0  0  0  0  0  0  0  0  0  0  0
  151.3676  143.1799  159.2119 C   0  0  0  0  0  0  0  0  0  0  0  0
  151.1976  142.4530  158.0397 C   0  0  0  0  0  0  0  0  0  0  0  0
  150.3880  142.6876  156.9259 N   0  3  0  0  0  0  0  0  0  0  0  0
  150.5642  141.6881  156.0179 C   0  0  0  0  0  0  0  0  0  0  0  0
  151.4741  140.8196  156.5362 N   0  0  0  0  0  0  0  0  0  0  0  0
  152.0253  139.5818  155.9695 C   0  0  0  0  0  0  0  0  0  0  0  0
  150.9819  138.7691  155.1787 C   0  0  2  0  0  0  0  0  0  0  0  0
  150.6397  139.4656  153.9954 O   0  0  0  0  0  0  0  0  0  0  0  0
  149.7094  138.5163  156.0022 C   0  0  0  0  0  0  0  0  0  0  0  0
  150.0782  137.7417  157.6070 S   0  0  0  0  0  0  0  0  0  0  0  0
  150.1012  136.0420  157.1338 C   0  0  0  0  0  0  0  0  0  0  0  0
  150.0357  135.0029  157.9788 N   0  0  0  0  0  0  0  0  0  0  0  0
  150.0737  133.7820  157.3192 N   0  0  0  0  0  0  0  0  0  0  0  0
  150.1667  133.9436  155.9973 C   0  0  0  0  0  0  0  0  0  0  0  0
  150.2201  135.6033  155.4338 S   0  0  0  0  0  0  0  0  0  0  0  0
  151.8972  141.2555  157.7956 C   0  0  0  0  0  0  0  0  0  0  0  0
  152.7998  140.7359  158.7200 C   0  0  0  0  0  0  0  0  0  0  0  0
  152.9866  141.4606  159.9190 C   0  0  0  0  0  0  0  0  0  0  0  0
  153.9637  140.9184  160.9481 C   0  0  0  0  0  0  0  0  0  0  0  0
  151.8922  144.3494  161.4769 H   0  0  0  0  0  0  0  0  0  0  0  0
  153.5356  143.7224  161.5671 H   0  0  0  0  0  0  0  0  0  0  0  0
  152.2010  142.8291  162.3125 H   0  0  0  0  0  0  0  0  0  0  0  0
  150.8259  144.0975  159.3900 H   0  0  0  0  0  0  0  0  0  0  0  0
  150.0756  141.6020  155.0579 H   0  0  0  0  0  0  0  0  0  0  0  0
  152.8802  139.8386  155.3428 H   0  0  0  0  0  0  0  0  0  0  0  0
  152.4161  138.9900  156.7986 H   0  0  0  0  0  0  0  0  0  0  0  0
  151.4161  137.8109  154.8907 H   0  0  0  0  0  0  0  0  0  0  0  0
  150.2011  138.8647  153.4121 H   0  0  0  0  0  0  0  0  0  0  0  0
  149.2004  139.4628  156.1883 H   0  0  0  0  0  0  0  0  0  0  0  0
  149.0193  137.8830  155.4427 H   0  0  0  0  0  0  0  0  0  0  0  0
  150.2056  133.0798  155.3502 H   0  0  0  0  0  0  0  0  0  0  0  0
  153.3373  139.8181  158.5327 H   0  0  0  0  0  0  0  0  0  0  0  0
  154.4171  139.9844  160.6146 H   0  0  0  0  0  0  0  0  0  0  0  0
  153.4553  140.7227  161.8927 H   0  0  0  0  0  0  0  0  0  0  0  0
  154.7673  141.6331  161.1277 H   0  0  0  0  0  0  0  0  0  0  0  0
  149.7625  143.4718  156.7914 H   0  0  0  0  0  0  0  0  0  0  0  0
  1  2  1  0  0  0  0
  1 22  1  0  0  0  0
  1 23  1  0  0  0  0
  1 24  1  0  0  0  0
  2 20  1  0  0  0  0
  2  3  2  0  0  0  0
  3  4  1  0  0  0  0
  3 25  1  0  0  0  0
  4 18  2  0  0  0  0
  4  5  1  0  0  0  0
  5  6  2  0  0  0  0
  5 38  1  0  0  0  0
  6  7  1  0  0  0  0
  6 26  1  0  0  0  0
  7  8  1  0  0  0  0
  7 18  1  0  0  0  0
  8  9  1  0  0  0  0
  8 27  1  0  0  0  0
  8 28  1  0  0  0  0
  9 10  1  0  0  0  0
  9 11  1  0  0  0  0
  9 29  1  0  0  0  0
 10 30  1  0  0  0  0
 11 12  1  0  0  0  0
 11 31  1  0  0  0  0
 11 32  1  0  0  0  0
 12 13  1  0  0  0  0
 13 17  1  0  0  0  0
 13 14  2  0  0  0  0
 14 15  1  0  0  0  0
 15 16  2  0  0  0  0
 16 17  1  0  0  0  0
 16 33  1  0  0  0  0
 18 19  1  0  0  0  0
 19 20  2  0  0  0  0
 19 34  1  0  0  0  0
 20 21  1  0  0  0  0
 21 35  1  0  0  0  0
 21 36  1  0  0  0  0
 21 37  1  0  0  0  0
M  CHG  1   5   1
M  END
> <s_m_source_file>
AV-unprocessed.smi

> <i_m_source_file_index>
644

> <i_lp_mmshare_version>
43012

> <i_f3d_flags>
0

> <s_epik_input>
W0NIM11jKFtjSF0xKWMoW0NIM10pW2NIXWMoYzEyKW4oW2NIXW4yKVtDSDJdW0NASF0oW09IXSlbQ0gyXVNjM25uW2NIXXMz

> <s_epik_cmdline>
J2VwaWtfcHl0aG9uJywgJy1waCcsICc3LjAnLCAnLXRuJywgJzgnLCAnLW1hJywgJzIwMCcsICctbWV0YWxfYmluZGluZycsICctaW1hZScsICc8aW5maWxlLm1hZT4nLCAnLW9tYWUnLCAnPG91dGZpbGUubWFlPic=

> <r_lp_tautomer_probability>
1

> <r_epik_Ionization_Penalty>
1.07492

> <r_epik_Ionization_Penalty_Charging>
1.07491

> <r_epik_Ionization_Penalty_Neutral>
3.80549e-06

> <r_epik_State_Penalty>
1.12982

> <r_epik_Charging_Adjusted_Penalty>
2.20473

> <i_epik_Tot_Q>
1

> <i_epik_Tot_abs_Q>
1

> <r_epik_Metal_State_Penalty>
1.2206

> <b_epik_Metal_Only>
0

> <s_lp_Force_Field>
OPLS_2005

> <r_lp_Energy>
11.8761

> <b_lp_Chiralities_Consistent>
1

> <s_lp_Variant>
AV-unprocessed.smi:644-3

> <Gold.Version>
5.8.1

> <Gold.Id.Protein>
6NUR|6NUR_protein|mol2

> <Gold.PLP.Fitness>
51.4224

> <Gold.PLP.PLP>
-41.3393

> <Gold.PLP.part.hbond>
-4.9011

> <Gold.PLP.part.metal>
0.0000

> <Gold.PLP.part.buried>
-5.1800

> <Gold.PLP.part.nonpolar>
-31.7722

> <Gold.PLP.part.repulsive>
0.0261

> <Gold.PLP.ligand.clash>
0.0000

> <Gold.PLP.ligand.torsion>
0.7237

> <Gold.PLP.Chemscore.Hbond>
3.8320

> <Gold.PLP.Chemscore.CHOScore>
0.0000

> <Gold.PLP.Chemscore.Metal>
0.0000

> <Gold.Chemscore.Hbonds>
donor molecule, donor type, donor heavy atom, donor atom, acceptor molecule, acceptor atom, score
      L1  H     5    38       P1  8028  2.00
      P1  H  6896  6907       L1    14  0.83
      P1  H  7989  7998       L1    10  1.00

> <Gold.PLP.Chemscore.Internal.Correction>
0.0346

> <Gold.Rescore>
     Score         DG    S(hbond)    S(metal)    S(lipo)     H(rot)  DE(clash)    DE(int)     intcor
     18.62     -20.44       2.66        0.00     107.30       2.53       0.05       1.77       ----

> <Gold.Chemscore.Fitness>
18.6229

> <Gold.Chemscore.DG>
-20.4437

> <Gold.Chemscore.ZeroCoef>
-5.4800

> <Gold.Chemscore.Hbond>
2.6618

> <Gold.Chemscore.Metal>
0.0000

> <Gold.Chemscore.Lipo>
107.2986

> <Gold.Chemscore.Internal_Hbond>
0.0000

> <Gold.Chemscore.DEClash>
0.0503

> <Gold.Chemscore.DEInternal>
1.7705

> <Gold.Chemscore.Rot>
2.5315

> <Gold.Chemscore.Internal.Correction>
   9.000000E+99

> <Gold.Chemscore.Hbonds>
donor molecule, donor type, donor heavy atom, donor atom, acceptor molecule, acceptor atom, score
      L1  H     5    38       P1  8028  0.96
      P1  H  6896  6907       L1    14  0.21
      P1  H  7989  7998       L1    10  0.97

> <Gold.Chemscore.Hbond.Weighted>
-8.8903

> <Gold.Chemscore.Metal.Weighted>
-0.0000

> <Gold.Chemscore.Lipo.Weighted>
-12.5539

> <Gold.Chemscore.Internal_Hbond.Weighted>
0.0000

> <Gold.Chemscore.DEClash.Weighted>
0.0503

> <Gold.Chemscore.DEInternal.Weighted>
1.7705

> <Gold.Chemscore.Rot.Weighted>
6.4805

> <Gold.Chemscore.Internal.Correction.Weighted>
   9.000000E+99

> <Gold.Protein.RotatedTorsions>
[ 6907 6896 6895 6894 ] final  -73.08 input  -60.11 | X-H torsion
[ 7974 7965 7964 7962 ] final   85.39 input  175.53 | X-H torsion
[ 8008 7997 7996 7995 ] final  144.52 input   59.86 | X-H torsion
[ 10167 10162 10161 10158 ] final -102.40 input  -65.29 | X-H torsion
[ 10718 10713 10712 10709 ] final -159.31 input   66.30 | X-H torsion
[ 10763 10752 10751 10750 ] final -118.18 input  -60.55 | X-H torsion
[ 11005 11000 10999 10996 ] final  177.75 input  -57.11 | X-H torsion

> <Gold.Protein.ActiveResidues>
 VAL166  LYS551  ARG553  GLY616  TRP617  ASP618  TYR619  PRO620  LYS621  CYS622 
 ASP623  PHE694  ASN695  SER759  ASP760  ASP761  ALA762  ILE779  LEU786  VAL792 
 PHE793  MET794  SER795  GLU796  ALA797  LYS798  CYS799  TRP800  GLU811  SER814 

> <Gold.Protein.RotatedAtoms>
  150.7144  134.5069  159.5588 H   0  0  0  0  0  0  0  0  0  0  0  0  # atno 6907 bound_to 6896
  152.2654  134.7987  160.0432 H   0  0  0  0  0  0  0  0  0  0  0  0  # atno 6908 bound_to 6896
  151.8686  133.3436  159.3764 H   0  0  0  0  0  0  0  0  0  0  0  0  # atno 6909 bound_to 6896
  145.5861  139.2331  143.2325 H   0  0  0  0  0  0  0  0  0  0  0  0  # atno 7974 bound_to 7965
  156.2906  140.2233  156.5067 H   0  0  0  0  0  0  0  0  0  0  0  0  # atno 8008 bound_to 7997
  154.7644  140.0471  157.1021 H   0  0  0  0  0  0  0  0  0  0  0  0  # atno 8009 bound_to 7997
  154.9951  140.3095  155.4893 H   0  0  0  0  0  0  0  0  0  0  0  0  # atno 8010 bound_to 7997
  140.2311  143.3606  152.0886 H   0  0  0  0  0  0  0  0  0  0  0  0  # atno 10167 bound_to 10162
  156.5664  130.8669  151.2825 H   0  0  0  0  0  0  0  0  0  0  0  0  # atno 10718 bound_to 10713
  154.8579  135.4283  154.2098 H   0  0  0  0  0  0  0  0  0  0  0  0  # atno 10763 bound_to 10752
  153.3126  135.6977  153.7108 H   0  0  0  0  0  0  0  0  0  0  0  0  # atno 10764 bound_to 10752
  153.6194  135.3504  155.2980 H   0  0  0  0  0  0  0  0  0  0  0  0  # atno 10765 bound_to 10752
  140.3875  134.6891  157.4488 H   0  0  0  0  0  0  0  0  0  0  0  0  # atno 11005 bound_to 11000
  146.1681  140.6687  142.9246 LP  0  0  0  0  0  0  0  0  0  0  0  0  # atno 17320 bound_to 7965
  144.7372  140.4842  143.6895 LP  0  0  0  0  0  0  0  0  0  0  0  0  # atno 17321 bound_to 7965
  139.5110  144.6893  151.5803 LP  0  0  0  0  0  0  0  0  0  0  0  0  # atno 17342 bound_to 10162
  140.6184  143.9304  150.6507 LP  0  0  0  0  0  0  0  0  0  0  0  0  # atno 17343 bound_to 10162
  157.7358  130.9767  150.2099 LP  0  0  0  0  0  0  0  0  0  0  0  0  # atno 17370 bound_to 10713
  156.2753  130.3727  149.7989 LP  0  0  0  0  0  0  0  0  0  0  0  0  # atno 17371 bound_to 10713
  140.0431  134.6238  155.8955 LP  0  0  0  0  0  0  0  0  0  0  0  0  # atno 17394 bound_to 11000
  141.1902  133.6568  156.5402 LP  0  0  0  0  0  0  0  0  0  0  0  0  # atno 17395 bound_to 11000

$$$$
