AV-unprocessed.smi:3249|AV-procd|sdf|12419|dock7
  -GOLD-   2272018303D 1   1.00000     0.00000
 Structure written by MMmdl.
 44 45  0  0  0  0  0  0  0  0  2 V2000
  152.7313  138.3109  154.2671 C   0  0  0  0  0  0  0  0  0  0  0  0
  151.3533  138.6664  154.7460 C   0  0  0  0  0  0  0  0  0  0  0  0
  150.7175  138.2676  155.9554 C   0  0  0  0  0  0  0  0  0  0  0  0
  149.4985  138.7654  156.0828 N   0  0  0  0  0  0  0  0  0  0  0  0
  149.3033  139.4836  154.9558 N   0  0  0  0  0  0  0  0  0  0  0  0
  148.0519  140.2109  154.7717 C   0  0  2  0  0  0  0  0  0  0  0  0
  147.2267  139.5521  153.6501 C   0  0  0  0  0  0  0  0  0  0  0  0
  148.3255  141.7195  154.5372 C   0  0  1  0  0  0  0  0  0  0  0  0
  147.0631  142.4911  154.1078 C   0  0  0  0  0  0  0  0  0  0  0  0
  148.8891  142.3228  155.7683 N   0  3  0  0  0  0  0  0  0  0  0  0
  150.3491  142.1706  155.9401 C   0  0  0  0  0  0  0  0  0  0  0  0
  150.8048  142.6824  157.3150 C   0  0  2  0  0  0  0  0  0  0  0  0
  151.5789  144.0144  157.2284 C   0  0  0  0  0  0  0  0  0  0  0  0
  152.0948  144.4287  158.6112 C   0  0  0  0  0  0  0  0  0  0  0  0
  152.8932  143.2775  159.2315 C   0  0  0  0  0  0  0  0  0  0  0  0
  152.0652  141.9832  159.2142 C   0  0  0  0  0  0  0  0  0  0  0  0
  151.6537  141.6879  157.8826 O   0  0  0  0  0  0  0  0  0  0  0  0
  150.4142  139.4488  154.1365 C   0  0  0  0  0  0  0  0  0  0  0  0
  153.1693  137.5038  154.8548 H   0  0  0  0  0  0  0  0  0  0  0  0
  153.4105  139.1610  154.3325 H   0  0  0  0  0  0  0  0  0  0  0  0
  152.7248  137.9831  153.2275 H   0  0  0  0  0  0  0  0  0  0  0  0
  151.1066  137.6396  156.7434 H   0  0  0  0  0  0  0  0  0  0  0  0
  147.4753  140.1098  155.6935 H   0  0  0  0  0  0  0  0  0  0  0  0
  146.2143  139.9528  153.6063 H   0  0  0  0  0  0  0  0  0  0  0  0
  147.1338  138.4780  153.8144 H   0  0  0  0  0  0  0  0  0  0  0  0
  147.6867  139.7000  152.6726 H   0  0  0  0  0  0  0  0  0  0  0  0
  149.0702  141.8051  153.7438 H   0  0  0  0  0  0  0  0  0  0  0  0
  146.6742  142.1290  153.1567 H   0  0  0  0  0  0  0  0  0  0  0  0
  147.2662  143.5533  153.9738 H   0  0  0  0  0  0  0  0  0  0  0  0
  146.2700  142.3973  154.8502 H   0  0  0  0  0  0  0  0  0  0  0  0
  148.6447  143.3024  155.7958 H   0  0  0  0  0  0  0  0  0  0  0  0
  150.5974  141.1120  155.8518 H   0  0  0  0  0  0  0  0  0  0  0  0
  150.8858  142.6910  155.1468 H   0  0  0  0  0  0  0  0  0  0  0  0
  149.9295  142.8002  157.9568 H   0  0  0  0  0  0  0  0  0  0  0  0
  152.4213  143.9070  156.5438 H   0  0  0  0  0  0  0  0  0  0  0  0
  150.9442  144.8022  156.8216 H   0  0  0  0  0  0  0  0  0  0  0  0
  152.7130  145.3236  158.5353 H   0  0  0  0  0  0  0  0  0  0  0  0
  151.2533  144.6822  159.2571 H   0  0  0  0  0  0  0  0  0  0  0  0
  153.8158  143.1258  158.6700 H   0  0  0  0  0  0  0  0  0  0  0  0
  153.1847  143.5263  160.2521 H   0  0  0  0  0  0  0  0  0  0  0  0
  152.6621  141.1523  159.5901 H   0  0  0  0  0  0  0  0  0  0  0  0
  151.1942  142.0693  159.8656 H   0  0  0  0  0  0  0  0  0  0  0  0
  150.4470  139.9808  153.1970 H   0  0  0  0  0  0  0  0  0  0  0  0
  148.4487  141.8644  156.5539 H   0  0  0  0  0  0  0  0  0  0  0  0
  1  2  1  0  0  0  0
  1 19  1  0  0  0  0
  1 20  1  0  0  0  0
  1 21  1  0  0  0  0
  2 18  2  0  0  0  0
  2  3  1  0  0  0  0
  3  4  2  0  0  0  0
  3 22  1  0  0  0  0
  4  5  1  0  0  0  0
  5  6  1  0  0  0  0
  5 18  1  0  0  0  0
  6  7  1  0  0  0  0
  6  8  1  0  0  0  0
  6 23  1  0  0  0  0
  7 24  1  0  0  0  0
  7 25  1  0  0  0  0
  7 26  1  0  0  0  0
  8  9  1  0  0  0  0
  8 10  1  0  0  0  0
  8 27  1  0  0  0  0
  9 28  1  0  0  0  0
  9 29  1  0  0  0  0
  9 30  1  0  0  0  0
 10 11  1  0  0  0  0
 10 31  1  0  0  0  0
 10 44  1  0  0  0  0
 11 12  1  0  0  0  0
 11 32  1  0  0  0  0
 11 33  1  0  0  0  0
 12 17  1  0  0  0  0
 12 13  1  0  0  0  0
 12 34  1  0  0  0  0
 13 14  1  0  0  0  0
 13 35  1  0  0  0  0
 13 36  1  0  0  0  0
 14 15  1  0  0  0  0
 14 37  1  0  0  0  0
 14 38  1  0  0  0  0
 15 16  1  0  0  0  0
 15 39  1  0  0  0  0
 15 40  1  0  0  0  0
 16 17  1  0  0  0  0
 16 41  1  0  0  0  0
 16 42  1  0  0  0  0
 18 43  1  0  0  0  0
M  CHG  1  10   1
M  END
> <s_m_source_file>
AV-unprocessed.smi

> <i_m_source_file_index>
3249

> <i_lp_mmshare_version>
43012

> <i_f3d_flags>
0

> <s_epik_input>
W0NIM11jMVtjSF1ubihbY0hdMSlbQ0BIXShbQ0gzXSlbQ0BIXShbQ0gzXSlbTkhdW0NIMl1bQ0BASF0yW0NIMl1bQ0gyXVtDSDJdW0NIMl1PMg==

> <s_epik_cmdline>
J2VwaWtfcHl0aG9uJywgJy1waCcsICc3LjAnLCAnLXRuJywgJzgnLCAnLW1hJywgJzIwMCcsICctbWV0YWxfYmluZGluZycsICctaW1hZScsICc8aW5maWxlLm1hZT4nLCAnLW9tYWUnLCAnPG91dGZpbGUubWFlPic=

> <r_lp_tautomer_probability>
1

> <r_epik_Ionization_Penalty>
0.00659207

> <r_epik_Ionization_Penalty_Charging>
0.00656881

> <r_epik_Ionization_Penalty_Neutral>
2.32662e-05

> <r_epik_State_Penalty>
0.0048654

> <r_epik_Charging_Adjusted_Penalty>
0.0114342

> <i_epik_Tot_Q>
1

> <i_epik_Tot_abs_Q>
1

> <r_epik_Metal_State_Penalty>
-0

> <b_epik_Metal_Only>
0

> <s_lp_Force_Field>
OPLS_2005

> <r_lp_Energy>
18.0919

> <b_lp_Chiralities_Consistent>
1

> <s_lp_Variant>
AV-unprocessed.smi:3249-3

> <Gold.Version>
5.8.1

> <Gold.Id.Protein>
6NUR|6NUR_protein|mol2

> <Gold.PLP.Fitness>
43.7045

> <Gold.PLP.PLP>
-37.0611

> <Gold.PLP.part.hbond>
-0.9202

> <Gold.PLP.part.metal>
0.0000

> <Gold.PLP.part.buried>
-0.9279

> <Gold.PLP.part.nonpolar>
-34.7334

> <Gold.PLP.part.repulsive>
0.1193

> <Gold.PLP.ligand.clash>
0.0000

> <Gold.PLP.ligand.torsion>
1.2241

> <Gold.PLP.Chemscore.Hbond>
2.0000

> <Gold.PLP.Chemscore.CHOScore>
1.0000

> <Gold.PLP.Chemscore.Metal>
0.0000

> <Gold.Chemscore.Hbonds>
donor molecule, donor type, donor heavy atom, donor atom, acceptor molecule, acceptor atom, score
      L1  H    10    31       P1  8028  1.53
      L1  C    18    43       P1  7957  1.00

> <Gold.PLP.Chemscore.Internal.Correction>
0.0917

> <Gold.Rescore>
     Score         DG    S(hbond)    S(metal)    S(lipo)     H(rot)  DE(clash)    DE(int)     intcor
     16.70     -18.39       0.95        0.00     116.72       1.53       0.17       1.52       ----

> <Gold.Chemscore.Fitness>
16.7021

> <Gold.Chemscore.DG>
-18.3855

> <Gold.Chemscore.ZeroCoef>
-5.4800

> <Gold.Chemscore.Hbond>
0.9504

> <Gold.Chemscore.Metal>
0.0000

> <Gold.Chemscore.Lipo>
116.7212

> <Gold.Chemscore.Internal_Hbond>
0.0000

> <Gold.Chemscore.DEClash>
0.1669

> <Gold.Chemscore.DEInternal>
1.5166

> <Gold.Chemscore.Rot>
1.5333

> <Gold.Chemscore.Internal.Correction>
   9.000000E+99

> <Gold.Chemscore.Hbonds>
donor molecule, donor type, donor heavy atom, donor atom, acceptor molecule, acceptor atom, score
      L1  H    10    31       P1  8028  0.73

> <Gold.Chemscore.Hbond.Weighted>
-3.1743

> <Gold.Chemscore.Metal.Weighted>
-0.0000

> <Gold.Chemscore.Lipo.Weighted>
-13.6564

> <Gold.Chemscore.Internal_Hbond.Weighted>
0.0000

> <Gold.Chemscore.DEClash.Weighted>
0.1669

> <Gold.Chemscore.DEInternal.Weighted>
1.5166

> <Gold.Chemscore.Rot.Weighted>
3.9252

> <Gold.Chemscore.Internal.Correction.Weighted>
   9.000000E+99

> <Gold.Protein.RotatedTorsions>
[ 6907 6896 6895 6894 ] final  137.94 input  -60.11 | X-H torsion
[ 7974 7965 7964 7962 ] final  173.71 input  175.53 | X-H torsion
[ 8008 7997 7996 7995 ] final  -91.32 input   59.86 | X-H torsion
[ 10167 10162 10161 10158 ] final  -59.41 input  -65.29 | X-H torsion
[ 10718 10713 10712 10709 ] final  170.24 input   66.30 | X-H torsion
[ 10763 10752 10751 10750 ] final  159.90 input  -60.55 | X-H torsion
[ 11005 11000 10999 10996 ] final  -64.71 input  -57.11 | X-H torsion

> <Gold.Protein.ActiveResidues>
 VAL166  LYS551  ARG553  GLY616  TRP617  ASP618  TYR619  PRO620  LYS621  CYS622 
 ASP623  PHE694  ASN695  SER759  ASP760  ASP761  ALA762  ILE779  LEU786  VAL792 
 PHE793  MET794  SER795  GLU796  ALA797  LYS798  CYS799  TRP800  GLU811  SER814 

> <Gold.Protein.RotatedAtoms>
  152.2723  133.5393  159.5446 H   0  0  0  0  0  0  0  0  0  0  0  0  # atno 6907 bound_to 6896
  150.7164  134.0681  159.3863 H   0  0  0  0  0  0  0  0  0  0  0  0  # atno 6908 bound_to 6896
  151.8595  135.0529  160.0518 H   0  0  0  0  0  0  0  0  0  0  0  0  # atno 6909 bound_to 6896
  144.7237  139.9688  143.6436 H   0  0  0  0  0  0  0  0  0  0  0  0  # atno 7974 bound_to 7965
  154.7093  140.0521  157.0535 H   0  0  0  0  0  0  0  0  0  0  0  0  # atno 8008 bound_to 7997
  155.0576  140.3186  155.4652 H   0  0  0  0  0  0  0  0  0  0  0  0  # atno 8009 bound_to 7997
  156.2784  140.2104  156.5703 H   0  0  0  0  0  0  0  0  0  0  0  0  # atno 8010 bound_to 7997
  140.6137  143.2395  151.5649 H   0  0  0  0  0  0  0  0  0  0  0  0  # atno 10167 bound_to 10162
  157.0110  131.0204  151.2803 H   0  0  0  0  0  0  0  0  0  0  0  0  # atno 10718 bound_to 10713
  154.2390  135.2775  155.2861 H   0  0  0  0  0  0  0  0  0  0  0  0  # atno 10763 bound_to 10752
  154.5561  135.5661  153.6968 H   0  0  0  0  0  0  0  0  0  0  0  0  # atno 10764 bound_to 10752
  153.0004  135.6286  154.2534 H   0  0  0  0  0  0  0  0  0  0  0  0  # atno 10765 bound_to 10752
  141.1433  133.6670  156.5875 H   0  0  0  0  0  0  0  0  0  0  0  0  # atno 11005 bound_to 11000
  146.0579  139.3574  143.0599 LP  0  0  0  0  0  0  0  0  0  0  0  0  # atno 17320 bound_to 7965
  145.8131  140.9716  143.0938 LP  0  0  0  0  0  0  0  0  0  0  0  0  # atno 17321 bound_to 7965
  139.5381  144.2723  152.1294 LP  0  0  0  0  0  0  0  0  0  0  0  0  # atno 17342 bound_to 10162
  140.1928  144.4735  150.6470 LP  0  0  0  0  0  0  0  0  0  0  0  0  # atno 17343 bound_to 10162
  157.5321  130.8065  149.7928 LP  0  0  0  0  0  0  0  0  0  0  0  0  # atno 17370 bound_to 10713
  156.0136  130.3823  150.2183 LP  0  0  0  0  0  0  0  0  0  0  0  0  # atno 17371 bound_to 10713
  140.3789  134.7541  157.4648 LP  0  0  0  0  0  0  0  0  0  0  0  0  # atno 17394 bound_to 11000
  140.0653  134.5938  155.8702 LP  0  0  0  0  0  0  0  0  0  0  0  0  # atno 17395 bound_to 11000

$$$$
