AV-unprocessed.smi:943|AV-procd|sdf|4230|dock2
  -GOLD-   22720 2133D 1   1.00000     0.00000
 Structure written by MMmdl.
 43 44  0  0  0  0  0  0  0  0  1 V2000
  151.1411  139.3408  155.5181 C   0  0  0  0  0  0  0  0  0  0  0  0
  151.7049  139.9641  156.8064 C   0  0  1  0  0  0  0  0  0  0  0  0
  151.0519  141.3405  157.0811 C   0  0  0  0  0  0  0  0  0  0  0  0
  151.8615  142.3255  157.9591 C   0  0  0  0  0  0  0  0  0  0  0  0
  151.8390  141.8723  159.4339 C   0  0  0  0  0  0  0  0  0  0  0  0
  152.6423  142.8203  160.3386 C   0  0  0  0  0  0  0  0  0  0  0  0
  152.1381  144.2655  160.2151 C   0  0  0  0  0  0  0  0  0  0  0  0
  152.1612  144.7326  158.7525 C   0  0  0  0  0  0  0  0  0  0  0  0
  151.3592  143.7824  157.8479 C   0  0  0  0  0  0  0  0  0  0  0  0
  151.5252  138.9927  157.9823 C   0  0  0  0  0  0  0  0  0  0  0  0
  152.4831  138.6989  158.6983 O   0  0  0  0  0  0  0  0  0  0  0  0
  150.2937  138.4948  158.1628 N   0  0  0  0  0  0  0  0  0  0  0  0
  149.9340  137.5471  159.2077 C   0  0  0  0  0  0  0  0  0  0  0  0
  148.4491  137.1725  159.1095 C   0  0  0  0  0  0  0  0  0  0  0  0
  147.9683  136.4365  160.3237 C   0  0  0  0  0  0  0  0  0  0  0  0
  147.7842  135.0798  160.4445 C   0  0  0  0  0  0  0  0  0  0  0  0
  147.2172  134.6341  162.0320 S   0  0  0  0  0  0  0  0  0  0  0  0
  147.2556  136.3336  162.4702 C   0  0  0  0  0  0  0  0  0  0  0  0
  147.6616  137.1434  161.4917 N   0  0  0  0  0  0  0  0  0  0  0  0
  151.5927  138.3688  155.3158 H   0  0  0  0  0  0  0  0  0  0  0  0
  151.3426  139.9783  154.6567 H   0  0  0  0  0  0  0  0  0  0  0  0
  150.0611  139.2004  155.5780 H   0  0  0  0  0  0  0  0  0  0  0  0
  152.7728  140.1133  156.6436 H   0  0  0  0  0  0  0  0  0  0  0  0
  150.8384  141.8212  156.1254 H   0  0  0  0  0  0  0  0  0  0  0  0
  150.0787  141.1772  157.5469 H   0  0  0  0  0  0  0  0  0  0  0  0
  152.9027  142.3037  157.6354 H   0  0  0  0  0  0  0  0  0  0  0  0
  150.8086  141.8207  159.7882 H   0  0  0  0  0  0  0  0  0  0  0  0
  152.2436  140.8633  159.5199 H   0  0  0  0  0  0  0  0  0  0  0  0
  152.5737  142.4903  161.3756 H   0  0  0  0  0  0  0  0  0  0  0  0
  153.6982  142.7761  160.0691 H   0  0  0  0  0  0  0  0  0  0  0  0
  151.1218  144.3337  160.6054 H   0  0  0  0  0  0  0  0  0  0  0  0
  152.7510  144.9272  160.8277 H   0  0  0  0  0  0  0  0  0  0  0  0
  151.7593  145.7436  158.6791 H   0  0  0  0  0  0  0  0  0  0  0  0
  153.1929  144.7848  158.4024 H   0  0  0  0  0  0  0  0  0  0  0  0
  151.4360  144.1349  156.8197 H   0  0  0  0  0  0  0  0  0  0  0  0
  150.3023  143.8302  158.1139 H   0  0  0  0  0  0  0  0  0  0  0  0
  149.5616  138.7868  157.5319 H   0  0  0  0  0  0  0  0  0  0  0  0
  150.5518  136.6526  159.1121 H   0  0  0  0  0  0  0  0  0  0  0  0
  150.1481  137.9866  160.1833 H   0  0  0  0  0  0  0  0  0  0  0  0
  147.8547  138.0757  158.9654 H   0  0  0  0  0  0  0  0  0  0  0  0
  148.2872  136.5633  158.2191 H   0  0  0  0  0  0  0  0  0  0  0  0
  147.9496  134.3173  159.6976 H   0  0  0  0  0  0  0  0  0  0  0  0
  146.9824  136.7307  163.4367 H   0  0  0  0  0  0  0  0  0  0  0  0
  1  2  1  0  0  0  0
  1 20  1  0  0  0  0
  1 21  1  0  0  0  0
  1 22  1  0  0  0  0
  2  3  1  0  0  0  0
  2 10  1  0  0  0  0
  2 23  1  0  0  0  0
  3  4  1  0  0  0  0
  3 24  1  0  0  0  0
  3 25  1  0  0  0  0
  4  9  1  0  0  0  0
  4  5  1  0  0  0  0
  4 26  1  0  0  0  0
  5  6  1  0  0  0  0
  5 27  1  0  0  0  0
  5 28  1  0  0  0  0
  6  7  1  0  0  0  0
  6 29  1  0  0  0  0
  6 30  1  0  0  0  0
  7  8  1  0  0  0  0
  7 31  1  0  0  0  0
  7 32  1  0  0  0  0
  8  9  1  0  0  0  0
  8 33  1  0  0  0  0
  8 34  1  0  0  0  0
  9 35  1  0  0  0  0
  9 36  1  0  0  0  0
 10 11  2  0  0  0  0
 10 12  1  0  0  0  0
 12 13  1  0  0  0  0
 12 37  1  0  0  0  0
 13 14  1  0  0  0  0
 13 38  1  0  0  0  0
 13 39  1  0  0  0  0
 14 15  1  0  0  0  0
 14 40  1  0  0  0  0
 14 41  1  0  0  0  0
 15 19  1  0  0  0  0
 15 16  2  0  0  0  0
 16 17  1  0  0  0  0
 16 42  1  0  0  0  0
 17 18  1  0  0  0  0
 18 19  2  0  0  0  0
 18 43  1  0  0  0  0
M  END
> <s_m_source_file>
AV-unprocessed.smi

> <i_m_source_file_index>
943

> <i_lp_mmshare_version>
43012

> <i_f3d_flags>
0

> <s_epik_input>
W0NIMl0xW0NIMl1bQ0gyXVtDSDJdW0NIMl1bQ0hdMVtDSDJdW0NAQEhdKFtDSDNdKUMoPU8pW05IXVtDSDJdW0NIMl1jMltjSF1zW2NIXW4y

> <s_epik_cmdline>
J2VwaWtfcHl0aG9uJywgJy1waCcsICc3LjAnLCAnLXRuJywgJzgnLCAnLW1hJywgJzIwMCcsICctbWV0YWxfYmluZGluZycsICctaW1hZScsICc8aW5maWxlLm1hZT4nLCAnLW9tYWUnLCAnPG91dGZpbGUubWFlPic=

> <r_lp_tautomer_probability>
1

> <r_epik_Ionization_Penalty>
0.000194757

> <r_epik_Ionization_Penalty_Charging>
0

> <r_epik_Ionization_Penalty_Neutral>
0.000194757

> <r_epik_State_Penalty>
-0

> <r_epik_Charging_Adjusted_Penalty>
0

> <i_epik_Tot_Q>
0

> <i_epik_Tot_abs_Q>
0

> <r_epik_Metal_State_Penalty>
-0

> <b_epik_Metal_Only>
0

> <s_lp_Force_Field>
OPLS_2005

> <r_lp_Energy>
6.44142

> <b_lp_Chiralities_Consistent>
1

> <s_lp_Variant>
AV-unprocessed.smi:943-2

> <Gold.Version>
5.8.1

> <Gold.Id.Protein>
6NUR|6NUR_protein|mol2

> <Gold.PLP.Fitness>
47.9760

> <Gold.PLP.PLP>
-44.2846

> <Gold.PLP.part.hbond>
-2.0000

> <Gold.PLP.part.metal>
0.0000

> <Gold.PLP.part.buried>
-4.4471

> <Gold.PLP.part.nonpolar>
-38.3241

> <Gold.PLP.part.repulsive>
0.0995

> <Gold.PLP.ligand.clash>
0.0000

> <Gold.PLP.ligand.torsion>
0.8420

> <Gold.PLP.Chemscore.Hbond>
1.7200

> <Gold.PLP.Chemscore.CHOScore>
0.0000

> <Gold.PLP.Chemscore.Metal>
0.0000

> <Gold.Chemscore.Hbonds>
donor molecule, donor type, donor heavy atom, donor atom, acceptor molecule, acceptor atom, score
      P1  H  6931  6943       L1    19  1.00
      P1  H  6934  6947       L1    19  0.80

> <Gold.PLP.Chemscore.Internal.Correction>
0.2155

> <Gold.Rescore>
     Score         DG    S(hbond)    S(metal)    S(lipo)     H(rot)  DE(clash)    DE(int)     intcor
     19.42     -20.35       1.46        0.00     120.05       1.58       0.22       0.71       ----

> <Gold.Chemscore.Fitness>
19.4165

> <Gold.Chemscore.DG>
-20.3516

> <Gold.Chemscore.ZeroCoef>
-5.4800

> <Gold.Chemscore.Hbond>
1.4574

> <Gold.Chemscore.Metal>
0.0000

> <Gold.Chemscore.Lipo>
120.0493

> <Gold.Chemscore.Internal_Hbond>
0.0000

> <Gold.Chemscore.DEClash>
0.2213

> <Gold.Chemscore.DEInternal>
0.7139

> <Gold.Chemscore.Rot>
1.5789

> <Gold.Chemscore.Internal.Correction>
   9.000000E+99

> <Gold.Chemscore.Hbonds>
donor molecule, donor type, donor heavy atom, donor atom, acceptor molecule, acceptor atom, score
      P1  H  6931  6943       L1    19  0.66
      P1  H  6934  6947       L1    19  0.46

> <Gold.Chemscore.Hbond.Weighted>
-4.8677

> <Gold.Chemscore.Metal.Weighted>
-0.0000

> <Gold.Chemscore.Lipo.Weighted>
-14.0458

> <Gold.Chemscore.Internal_Hbond.Weighted>
0.0000

> <Gold.Chemscore.DEClash.Weighted>
0.2213

> <Gold.Chemscore.DEInternal.Weighted>
0.7139

> <Gold.Chemscore.Rot.Weighted>
4.0419

> <Gold.Chemscore.Internal.Correction.Weighted>
   9.000000E+99

> <Gold.Protein.RotatedTorsions>
[ 6907 6896 6895 6894 ] final   86.02 input  -60.11 | X-H torsion
[ 7974 7965 7964 7962 ] final -158.67 input  175.53 | X-H torsion
[ 8008 7997 7996 7995 ] final  128.80 input   59.86 | X-H torsion
[ 10167 10162 10161 10158 ] final  -18.13 input  -65.29 | X-H torsion
[ 10718 10713 10712 10709 ] final -163.86 input   66.30 | X-H torsion
[ 10763 10752 10751 10750 ] final   42.60 input  -60.55 | X-H torsion
[ 11005 11000 10999 10996 ] final  -91.88 input  -57.11 | X-H torsion

> <Gold.Protein.ActiveResidues>
 VAL166  LYS551  ARG553  GLY616  TRP617  ASP618  TYR619  PRO620  LYS621  CYS622 
 ASP623  PHE694  ASN695  SER759  ASP760  ASP761  ALA762  ILE779  LEU786  VAL792 
 PHE793  MET794  SER795  GLU796  ALA797  LYS798  CYS799  TRP800  GLU811  SER814 

> <Gold.Protein.RotatedAtoms>
  152.5386  134.2495  159.8893 H   0  0  0  0  0  0  0  0  0  0  0  0  # atno 6907 bound_to 6896
  151.2459  133.4368  159.2617 H   0  0  0  0  0  0  0  0  0  0  0  0  # atno 6908 bound_to 6896
  151.0583  134.9734  159.8303 H   0  0  0  0  0  0  0  0  0  0  0  0  # atno 6909 bound_to 6896
  144.7496  140.3794  143.6058 H   0  0  0  0  0  0  0  0  0  0  0  0  # atno 7974 bound_to 7965
  156.2923  140.2636  156.2495 H   0  0  0  0  0  0  0  0  0  0  0  0  # atno 8008 bound_to 7997
  154.9897  140.0389  157.2332 H   0  0  0  0  0  0  0  0  0  0  0  0  # atno 8009 bound_to 7997
  154.7697  140.2776  155.6152 H   0  0  0  0  0  0  0  0  0  0  0  0  # atno 8010 bound_to 7997
  140.7255  143.4947  150.9946 H   0  0  0  0  0  0  0  0  0  0  0  0  # atno 10167 bound_to 10162
  156.6307  130.8928  151.2977 H   0  0  0  0  0  0  0  0  0  0  0  0  # atno 10718 bound_to 10713
  152.9879  135.6127  154.2975 H   0  0  0  0  0  0  0  0  0  0  0  0  # atno 10763 bound_to 10752
  154.2697  135.2780  155.2745 H   0  0  0  0  0  0  0  0  0  0  0  0  # atno 10764 bound_to 10752
  154.5133  135.5835  153.6679 H   0  0  0  0  0  0  0  0  0  0  0  0  # atno 10765 bound_to 10752
  141.1535  133.7785  156.9942 H   0  0  0  0  0  0  0  0  0  0  0  0  # atno 11005 bound_to 11000
  145.6993  139.1657  143.2602 LP  0  0  0  0  0  0  0  0  0  0  0  0  # atno 17320 bound_to 7965
  146.1427  140.7036  142.9359 LP  0  0  0  0  0  0  0  0  0  0  0  0  # atno 17321 bound_to 7965
  139.8653  143.7262  152.3170 LP  0  0  0  0  0  0  0  0  0  0  0  0  # atno 17342 bound_to 10162
  139.7492  144.7539  151.0533 LP  0  0  0  0  0  0  0  0  0  0  0  0  # atno 17343 bound_to 10162
  157.7200  130.9547  150.1403 LP  0  0  0  0  0  0  0  0  0  0  0  0  # atno 17370 bound_to 10713
  156.2237  130.3676  149.8526 LP  0  0  0  0  0  0  0  0  0  0  0  0  # atno 17371 bound_to 10713
  140.0982  134.9551  157.1883 LP  0  0  0  0  0  0  0  0  0  0  0  0  # atno 17394 bound_to 11000
  140.3353  134.2764  155.7221 LP  0  0  0  0  0  0  0  0  0  0  0  0  # atno 17395 bound_to 11000

$$$$
