AV-unprocessed.smi:1233|AV-procd|sdf|5171|dock10
  -GOLD-   22720 4243D 1   1.00000     0.00000
 Structure written by MMmdl.
 38 39  0  0  0  0  0  0  0  0  1 V2000
  151.8924  138.7844  154.8144 C   0  0  0  0  0  0  0  0  0  0  0  0
  150.5733  138.4137  154.4290 O   0  0  0  0  0  0  0  0  0  0  0  0
  149.6142  139.4030  154.3233 C   0  0  0  0  0  0  0  0  0  0  0  0
  149.9598  140.6743  154.6485 N   0  0  0  0  0  0  0  0  0  0  0  0
  149.0236  141.6403  154.5493 C   0  0  0  0  0  0  0  0  0  0  0  0
  147.7024  141.3928  154.1337 C   0  0  0  0  0  0  0  0  0  0  0  0
  147.3415  140.0753  153.7958 C   0  0  0  0  0  0  0  0  0  0  0  0
  148.3180  139.0534  153.8780 C   0  0  0  0  0  0  0  0  0  0  0  0
  148.0541  137.6887  153.5780 N   0  0  0  0  0  0  0  0  0  0  0  0
  146.9328  137.1461  153.0747 C   0  0  0  0  0  0  0  0  0  0  0  0
  145.9079  137.7653  152.7889 O   0  0  0  0  0  0  0  0  0  0  0  0
  147.0744  135.8243  152.8945 N   0  0  0  0  0  0  0  0  0  0  0  0
  146.0761  134.9359  152.2961 C   0  0  2  0  0  0  0  0  0  0  0  0
  145.4718  135.6549  151.0634 C   0  0  0  0  0  0  0  0  0  0  0  0
  144.1373  135.0926  150.5235 C   0  0  0  0  0  0  0  0  0  0  0  0
  144.0640  133.5551  150.4267 C   0  0  0  0  0  0  0  0  0  0  0  0
  144.2165  132.7656  151.7528 C   0  0  0  0  0  0  0  0  0  0  0  0
  144.1243  133.5767  152.9669 N   0  0  0  0  0  0  0  0  0  0  0  0
  144.9537  134.5811  153.2973 C   0  0  0  0  0  0  0  0  0  0  0  0
  144.8098  135.2135  154.3433 O   0  0  0  0  0  0  0  0  0  0  0  0
  152.5222  137.8952  154.8437 H   0  0  0  0  0  0  0  0  0  0  0  0
  151.9051  139.2319  155.8092 H   0  0  0  0  0  0  0  0  0  0  0  0
  152.3368  139.4806  154.1018 H   0  0  0  0  0  0  0  0  0  0  0  0
  149.3356  142.6391  154.8161 H   0  0  0  0  0  0  0  0  0  0  0  0
  146.9807  142.1944  154.0795 H   0  0  0  0  0  0  0  0  0  0  0  0
  146.3250  139.8726  153.4959 H   0  0  0  0  0  0  0  0  0  0  0  0
  148.8431  137.0664  153.6757 H   0  0  0  0  0  0  0  0  0  0  0  0
  147.9549  135.4037  153.1525 H   0  0  0  0  0  0  0  0  0  0  0  0
  146.5769  134.0223  151.9724 H   0  0  0  0  0  0  0  0  0  0  0  0
  145.3205  136.7125  151.2860 H   0  0  0  0  0  0  0  0  0  0  0  0
  146.2104  135.6279  150.2612 H   0  0  0  0  0  0  0  0  0  0  0  0
  143.3120  135.4521  151.1397 H   0  0  0  0  0  0  0  0  0  0  0  0
  143.9563  135.5183  149.5361 H   0  0  0  0  0  0  0  0  0  0  0  0
  143.0996  133.2978  149.9873 H   0  0  0  0  0  0  0  0  0  0  0  0
  144.8090  133.2011  149.7135 H   0  0  0  0  0  0  0  0  0  0  0  0
  143.4514  131.9906  151.8045 H   0  0  0  0  0  0  0  0  0  0  0  0
  145.1682  132.2323  151.7610 H   0  0  0  0  0  0  0  0  0  0  0  0
  143.3811  133.3499  153.6117 H   0  0  0  0  0  0  0  0  0  0  0  0
  1  2  1  0  0  0  0
  1 21  1  0  0  0  0
  1 22  1  0  0  0  0
  1 23  1  0  0  0  0
  2  3  1  0  0  0  0
  3  8  1  0  0  0  0
  3  4  2  0  0  0  0
  4  5  1  0  0  0  0
  5  6  2  0  0  0  0
  5 24  1  0  0  0  0
  6  7  1  0  0  0  0
  6 25  1  0  0  0  0
  7  8  2  0  0  0  0
  7 26  1  0  0  0  0
  8  9  1  0  0  0  0
  9 10  1  0  0  0  0
  9 27  1  0  0  0  0
 10 11  2  0  0  0  0
 10 12  1  0  0  0  0
 12 13  1  0  0  0  0
 12 28  1  0  0  0  0
 13 19  1  0  0  0  0
 13 14  1  0  0  0  0
 13 29  1  0  0  0  0
 14 15  1  0  0  0  0
 14 30  1  0  0  0  0
 14 31  1  0  0  0  0
 15 16  1  0  0  0  0
 15 32  1  0  0  0  0
 15 33  1  0  0  0  0
 16 17  1  0  0  0  0
 16 34  1  0  0  0  0
 16 35  1  0  0  0  0
 17 18  1  0  0  0  0
 17 36  1  0  0  0  0
 17 37  1  0  0  0  0
 18 19  1  0  0  0  0
 18 38  1  0  0  0  0
 19 20  2  0  0  0  0
M  END
> <s_m_source_file>
AV-unprocessed.smi

> <i_m_source_file_index>
1233

> <i_lp_mmshare_version>
43012

> <i_f3d_flags>
0

> <s_epik_input>
W0NIM11PYzFuW2NIXVtjSF1bY0hdYzFbTkhdQyg9TylbTkhdW0NAQEhdMltDSDJdW0NIMl1bQ0gyXVtDSDJdW05IXUMyPU8=

> <s_epik_cmdline>
J2VwaWtfcHl0aG9uJywgJy1waCcsICc3LjAnLCAnLXRuJywgJzgnLCAnLW1hJywgJzIwMCcsICctbWV0YWxfYmluZGluZycsICctaW1hZScsICc8aW5maWxlLm1hZT4nLCAnLW9tYWUnLCAnPG91dGZpbGUubWFlPic=

> <r_lp_tautomer_probability>
1

> <r_epik_Ionization_Penalty>
8.308e-05

> <r_epik_Ionization_Penalty_Charging>
0

> <r_epik_Ionization_Penalty_Neutral>
8.308e-05

> <r_epik_State_Penalty>
-0

> <r_epik_Charging_Adjusted_Penalty>
0

> <i_epik_Tot_Q>
0

> <i_epik_Tot_abs_Q>
0

> <r_epik_Metal_State_Penalty>
-0

> <b_epik_Metal_Only>
0

> <s_lp_Force_Field>
OPLS_2005

> <r_lp_Energy>
19.4298

> <b_lp_Chiralities_Consistent>
1

> <s_lp_Variant>
AV-unprocessed.smi:1233-1

> <Gold.Version>
5.8.1

> <Gold.Id.Protein>
6NUR|6NUR_protein|mol2

> <Gold.PLP.Fitness>
35.2892

> <Gold.PLP.PLP>
-28.1489

> <Gold.PLP.part.hbond>
-2.1283

> <Gold.PLP.part.metal>
0.0000

> <Gold.PLP.part.buried>
0.9385

> <Gold.PLP.part.nonpolar>
-27.3232

> <Gold.PLP.part.repulsive>
0.6310

> <Gold.PLP.ligand.clash>
0.0000

> <Gold.PLP.ligand.torsion>
0.2607

> <Gold.PLP.Chemscore.Hbond>
1.5535

> <Gold.PLP.Chemscore.CHOScore>
1.0000

> <Gold.PLP.Chemscore.Metal>
0.0000

> <Gold.Chemscore.Hbonds>
donor molecule, donor type, donor heavy atom, donor atom, acceptor molecule, acceptor atom, score
      L1  H     9    27       P1  7948  0.06
      L1  H    18    38       P1 10957  0.69
      P1  H  7989  7998       L1     4  0.80
      L1  C     5    24       P1  8028  1.00

> <Gold.PLP.Chemscore.Internal.Correction>
0.0011

> <Gold.Rescore>
     Score         DG    S(hbond)    S(metal)    S(lipo)     H(rot)  DE(clash)    DE(int)     intcor
     10.15     -14.88       1.47        0.00      67.19       1.31       1.75       2.99       ----

> <Gold.Chemscore.Fitness>
10.1473

> <Gold.Chemscore.DG>
-14.8837

> <Gold.Chemscore.ZeroCoef>
-5.4800

> <Gold.Chemscore.Hbond>
1.4652

> <Gold.Chemscore.Metal>
0.0000

> <Gold.Chemscore.Lipo>
67.1882

> <Gold.Chemscore.Internal_Hbond>
0.0000

> <Gold.Chemscore.DEClash>
1.7496

> <Gold.Chemscore.DEInternal>
2.9868

> <Gold.Chemscore.Rot>
1.3090

> <Gold.Chemscore.Internal.Correction>
   9.000000E+99

> <Gold.Chemscore.Hbonds>
donor molecule, donor type, donor heavy atom, donor atom, acceptor molecule, acceptor atom, score
      L1  H     9    27       P1  7948  0.09
      L1  H    12    28       P1  7948  0.03
      L1  H    18    38       P1 10957  0.66
      P1  H  7989  7998       L1     4  0.18

> <Gold.Chemscore.Hbond.Weighted>
-4.8936

> <Gold.Chemscore.Metal.Weighted>
-0.0000

> <Gold.Chemscore.Lipo.Weighted>
-7.8610

> <Gold.Chemscore.Internal_Hbond.Weighted>
0.0000

> <Gold.Chemscore.DEClash.Weighted>
1.7496

> <Gold.Chemscore.DEInternal.Weighted>
2.9868

> <Gold.Chemscore.Rot.Weighted>
3.3509

> <Gold.Chemscore.Internal.Correction.Weighted>
   9.000000E+99

> <Gold.Protein.RotatedTorsions>
[ 6907 6896 6895 6894 ] final  -54.22 input  -60.11 | X-H torsion
[ 7974 7965 7964 7962 ] final  -86.25 input  175.53 | X-H torsion
[ 8008 7997 7996 7995 ] final   54.76 input   59.86 | X-H torsion
[ 10167 10162 10161 10158 ] final    9.95 input  -65.29 | X-H torsion
[ 10718 10713 10712 10709 ] final  102.43 input   66.30 | X-H torsion
[ 10763 10752 10751 10750 ] final -157.44 input  -60.55 | X-H torsion
[ 11005 11000 10999 10996 ] final -161.32 input  -57.11 | X-H torsion

> <Gold.Protein.ActiveResidues>
 VAL166  LYS551  ARG553  GLY616  TRP617  ASP618  TYR619  PRO620  LYS621  CYS622 
 ASP623  PHE694  ASN695  SER759  ASP760  ASP761  ALA762  ILE779  LEU786  VAL792 
 PHE793  MET794  SER795  GLU796  ALA797  LYS798  CYS799  TRP800  GLU811  SER814 

> <Gold.Protein.RotatedAtoms>
  150.8357  134.7630  159.6890 H   0  0  0  0  0  0  0  0  0  0  0  0  # atno 6907 bound_to 6896
  152.4454  134.5501  159.9874 H   0  0  0  0  0  0  0  0  0  0  0  0  # atno 6908 bound_to 6896
  151.5652  133.3360  159.3014 H   0  0  0  0  0  0  0  0  0  0  0  0  # atno 6909 bound_to 6896
  145.4824  140.9556  143.1857 H   0  0  0  0  0  0  0  0  0  0  0  0  # atno 7974 bound_to 7965
  155.4900  140.3471  155.4353 H   0  0  0  0  0  0  0  0  0  0  0  0  # atno 8008 bound_to 7997
  156.0983  140.1429  156.9529 H   0  0  0  0  0  0  0  0  0  0  0  0  # atno 8009 bound_to 7997
  154.4677  140.0911  156.7042 H   0  0  0  0  0  0  0  0  0  0  0  0  # atno 8010 bound_to 7997
  140.6224  143.8175  150.7191 H   0  0  0  0  0  0  0  0  0  0  0  0  # atno 10167 bound_to 10162
  157.6802  131.0753  150.5403 H   0  0  0  0  0  0  0  0  0  0  0  0  # atno 10718 bound_to 10713
  154.7636  135.3124  154.8330 H   0  0  0  0  0  0  0  0  0  0  0  0  # atno 10763 bound_to 10752
  153.9085  135.6808  153.4756 H   0  0  0  0  0  0  0  0  0  0  0  0  # atno 10764 bound_to 10752
  153.1239  135.4810  154.9173 H   0  0  0  0  0  0  0  0  0  0  0  0  # atno 10765 bound_to 10752
  140.6217  134.4743  157.5224 H   0  0  0  0  0  0  0  0  0  0  0  0  # atno 11005 bound_to 11000
  144.7881  139.6385  143.7125 LP  0  0  0  0  0  0  0  0  0  0  0  0  # atno 17320 bound_to 7965
  146.2333  139.5855  142.9541 LP  0  0  0  0  0  0  0  0  0  0  0  0  # atno 17321 bound_to 7965
  140.1769  143.4148  152.1961 LP  0  0  0  0  0  0  0  0  0  0  0  0  # atno 17342 bound_to 10162
  139.5450  144.7290  151.4612 LP  0  0  0  0  0  0  0  0  0  0  0  0  # atno 17343 bound_to 10162
  156.5710  130.4280  149.6019 LP  0  0  0  0  0  0  0  0  0  0  0  0  # atno 17370 bound_to 10713
  156.2741  130.7033  151.1839 LP  0  0  0  0  0  0  0  0  0  0  0  0  # atno 17371 bound_to 10713
  139.9151  134.8264  156.1395 LP  0  0  0  0  0  0  0  0  0  0  0  0  # atno 17394 bound_to 11000
  141.0737  133.6785  156.2193 LP  0  0  0  0  0  0  0  0  0  0  0  0  # atno 17395 bound_to 11000

$$$$
