AV-unprocessed.smi:2995|AV-procd|sdf|11409|dock5
  -GOLD-   2272016333D 1   1.00000     0.00000
 Structure written by MMmdl.
 50 52  0  0  0  0  0  0  0  0  3 V2000
  150.8267  137.9662  154.5243 C   0  0  0  0  0  0  0  0  0  0  0  0
  150.1755  139.3267  154.7042 C   0  0  0  0  0  0  0  0  0  0  0  0
  150.8396  140.3224  155.4547 C   0  0  0  0  0  0  0  0  0  0  0  0
  150.2354  141.5837  155.6189 C   0  0  0  0  0  0  0  0  0  0  0  0
  149.0338  141.8287  155.0567 N   0  3  0  0  0  0  0  0  0  0  0  0
  148.3613  140.9090  154.3320 C   0  0  0  0  0  0  0  0  0  0  0  0
  148.9076  139.6151  154.1362 C   0  0  0  0  0  0  0  0  0  0  0  0
  148.2588  138.6090  153.3642 N   0  0  0  0  0  0  0  0  0  0  0  0
  146.9580  138.5065  153.0406 C   0  0  0  0  0  0  0  0  0  0  0  0
  146.0765  139.2909  153.3898 O   0  0  0  0  0  0  0  0  0  0  0  0
  146.7301  137.4163  152.2934 N   0  0  0  0  0  0  0  0  0  0  0  0
  145.4306  136.9884  151.7801 C   0  0  2  0  0  0  0  0  0  0  0  0
  144.6848  136.1715  152.8504 C   0  0  0  0  0  0  0  0  0  0  0  0
  143.3761  135.5797  152.2917 C   0  0  0  0  0  0  0  0  0  0  0  0
  143.6091  134.7568  151.0721 N   0  3  2  0  0  0  0  0  0  0  0  0
  144.2404  133.4282  151.3346 C   0  0  0  0  0  0  0  0  0  0  0  0
  145.6676  133.5195  151.8920 C   0  0  0  0  0  0  0  0  0  0  0  0
  146.2837  132.1432  151.6276 C   0  0  0  0  0  0  0  0  0  0  0  0
  145.5361  131.5697  150.4165 C   0  0  0  0  0  0  0  0  0  0  0  0
  144.4420  132.5852  150.0667 C   0  0  0  0  0  0  0  0  0  0  0  0
  144.2801  135.5669  150.0176 C   0  0  0  0  0  0  0  0  0  0  0  0
  145.6203  136.1512  150.5034 C   0  0  0  0  0  0  0  0  0  0  0  0
  151.7872  137.9128  155.0378 H   0  0  0  0  0  0  0  0  0  0  0  0
  150.9986  137.7631  153.4669 H   0  0  0  0  0  0  0  0  0  0  0  0
  150.1860  137.1818  154.9282 H   0  0  0  0  0  0  0  0  0  0  0  0
  151.8039  140.1260  155.9011 H   0  0  0  0  0  0  0  0  0  0  0  0
  150.6754  142.3992  156.1744 H   0  0  0  0  0  0  0  0  0  0  0  0
  147.4218  141.2559  153.9296 H   0  0  0  0  0  0  0  0  0  0  0  0
  148.8492  137.8447  153.0694 H   0  0  0  0  0  0  0  0  0  0  0  0
  147.5200  136.8316  152.0615 H   0  0  0  0  0  0  0  0  0  0  0  0
  144.8150  137.8533  151.5261 H   0  0  0  0  0  0  0  0  0  0  0  0
  145.3229  135.3704  153.2253 H   0  0  0  0  0  0  0  0  0  0  0  0
  144.4605  136.8062  153.7088 H   0  0  0  0  0  0  0  0  0  0  0  0
  142.8557  135.0094  153.0601 H   0  0  0  0  0  0  0  0  0  0  0  0
  142.7008  136.3946  152.0276 H   0  0  0  0  0  0  0  0  0  0  0  0
  143.6327  132.8581  152.0380 H   0  0  0  0  0  0  0  0  0  0  0  0
  146.2333  134.2796  151.3508 H   0  0  0  0  0  0  0  0  0  0  0  0
  145.6947  133.7742  152.9519 H   0  0  0  0  0  0  0  0  0  0  0  0
  147.3586  132.2086  151.4558 H   0  0  0  0  0  0  0  0  0  0  0  0
  146.1304  131.4957  152.4920 H   0  0  0  0  0  0  0  0  0  0  0  0
  146.2036  131.4047  149.5700 H   0  0  0  0  0  0  0  0  0  0  0  0
  145.0944  130.6064  150.6750 H   0  0  0  0  0  0  0  0  0  0  0  0
  143.5269  132.0924  149.7370 H   0  0  0  0  0  0  0  0  0  0  0  0
  144.7895  133.2191  149.2493 H   0  0  0  0  0  0  0  0  0  0  0  0
  144.4215  134.9915  149.1036 H   0  0  0  0  0  0  0  0  0  0  0  0
  143.6134  136.3855  149.7425 H   0  0  0  0  0  0  0  0  0  0  0  0
  146.0540  136.7706  149.7174 H   0  0  0  0  0  0  0  0  0  0  0  0
  146.3327  135.3451  150.6822 H   0  0  0  0  0  0  0  0  0  0  0  0
  142.6922  134.5401  150.7075 H   0  0  0  0  0  0  0  0  0  0  0  0
  148.6154  142.7510  155.1807 H   0  0  0  0  0  0  0  0  0  0  0  0
  1  2  1  0  0  0  0
  1 23  1  0  0  0  0
  1 24  1  0  0  0  0
  1 25  1  0  0  0  0
  2  7  1  0  0  0  0
  2  3  2  0  0  0  0
  3  4  1  0  0  0  0
  3 26  1  0  0  0  0
  4  5  2  0  0  0  0
  4 27  1  0  0  0  0
  5  6  1  0  0  0  0
  5 50  1  0  0  0  0
  6  7  2  0  0  0  0
  6 28  1  0  0  0  0
  7  8  1  0  0  0  0
  8  9  1  0  0  0  0
  8 29  1  0  0  0  0
  9 10  2  0  0  0  0
  9 11  1  0  0  0  0
 11 12  1  0  0  0  0
 11 30  1  0  0  0  0
 12 22  1  0  0  0  0
 12 13  1  0  0  0  0
 12 31  1  0  0  0  0
 13 14  1  0  0  0  0
 13 32  1  0  0  0  0
 13 33  1  0  0  0  0
 14 15  1  0  0  0  0
 14 34  1  0  0  0  0
 14 35  1  0  0  0  0
 15 16  1  0  0  0  0
 15 21  1  0  0  0  0
 15 49  1  0  0  0  0
 16 20  1  0  0  0  0
 16 17  1  0  0  0  0
 16 36  1  0  0  0  0
 17 18  1  0  0  0  0
 17 37  1  0  0  0  0
 17 38  1  0  0  0  0
 18 19  1  0  0  0  0
 18 39  1  0  0  0  0
 18 40  1  0  0  0  0
 19 20  1  0  0  0  0
 19 41  1  0  0  0  0
 19 42  1  0  0  0  0
 20 43  1  0  0  0  0
 20 44  1  0  0  0  0
 21 22  1  0  0  0  0
 21 45  1  0  0  0  0
 21 46  1  0  0  0  0
 22 47  1  0  0  0  0
 22 48  1  0  0  0  0
M  CHG  1   5   1
M  CHG  1  15   1
M  END
> <s_m_source_file>
AV-unprocessed.smi

> <i_m_source_file_index>
2995

> <i_lp_mmshare_version>
43012

> <i_f3d_flags>
0

> <s_epik_input>
W0NIM11jMVtjSF1bY0hdbltjSF1jMVtOSF1DKD1PKVtOSF1bQ0hdMltDSDJdW0NIMl1OKFtDSDJdW0NIMl0yKVtDSF0zW0NIMl1bQ0gyXVtDSDJdW0NIMl0z

> <s_epik_cmdline>
J2VwaWtfcHl0aG9uJywgJy1waCcsICc3LjAnLCAnLXRuJywgJzgnLCAnLW1hJywgJzIwMCcsICctbWV0YWxfYmluZGluZycsICctaW1hZScsICc8aW5maWxlLm1hZT4nLCAnLW9tYWUnLCAnPG91dGZpbGUubWFlPic=

> <r_epik_Ionization_Penalty>
2.08537

> <r_epik_Ionization_Penalty_Charging>
2.08535

> <r_epik_Ionization_Penalty_Neutral>
2.13957e-05

> <r_epik_State_Penalty>
2.21824

> <r_epik_Charging_Adjusted_Penalty>
4.30358

> <i_epik_Tot_Q>
2

> <i_epik_Tot_abs_Q>
2

> <r_epik_Metal_State_Penalty>
2.23856

> <b_epik_Metal_Only>
0

> <s_lp_Force_Field>
OPLS_2005

> <r_lp_Energy>
50.6964

> <b_lp_Chiralities_Consistent>
1

> <s_lp_Variant>
AV-unprocessed.smi:2995-4

> <Gold.Version>
5.8.1

> <Gold.Id.Protein>
6NUR|6NUR_protein|mol2

> <Gold.PLP.Fitness>
54.0080

> <Gold.PLP.PLP>
-38.6604

> <Gold.PLP.part.hbond>
-5.0000

> <Gold.PLP.part.metal>
0.0000

> <Gold.PLP.part.buried>
1.2818

> <Gold.PLP.part.nonpolar>
-37.7530

> <Gold.PLP.part.repulsive>
2.4111

> <Gold.PLP.ligand.clash>
1.2553

> <Gold.PLP.ligand.torsion>
0.4704

> <Gold.PLP.Chemscore.Hbond>
5.8305

> <Gold.PLP.Chemscore.CHOScore>
0.0000

> <Gold.PLP.Chemscore.Metal>
0.0000

> <Gold.Chemscore.Hbonds>
donor molecule, donor type, donor heavy atom, donor atom, acceptor molecule, acceptor atom, score
      L1  H     5    50       P1  8028  1.95
      L1  H     8    29       P1  7948  0.90
      L1  H    11    30       P1  7948  1.00
      L1  H    15    49       P1 10186  1.98

> <Gold.PLP.Chemscore.Internal.Correction>
0.0523

> <Gold.Rescore>
     Score         DG    S(hbond)    S(metal)    S(lipo)     H(rot)  DE(clash)    DE(int)     intcor
     17.77     -25.07       2.88        0.00     111.03       1.19       3.45       3.85       ----

> <Gold.Chemscore.Fitness>
17.7659

> <Gold.Chemscore.DG>
-25.0680

> <Gold.Chemscore.ZeroCoef>
-5.4800

> <Gold.Chemscore.Hbond>
2.8844

> <Gold.Chemscore.Metal>
0.0000

> <Gold.Chemscore.Lipo>
111.0304

> <Gold.Chemscore.Internal_Hbond>
0.0000

> <Gold.Chemscore.DEClash>
3.4503

> <Gold.Chemscore.DEInternal>
3.8518

> <Gold.Chemscore.Rot>
1.1861

> <Gold.Chemscore.Internal.Correction>
   9.000000E+99

> <Gold.Chemscore.Hbonds>
donor molecule, donor type, donor heavy atom, donor atom, acceptor molecule, acceptor atom, score
      L1  H     5    50       P1  8028  0.87
      L1  H     8    29       P1  7948  0.85
      L1  H    11    30       P1  7948  0.95
      L1  H    15    49       P1 10186  0.24

> <Gold.Chemscore.Hbond.Weighted>
-9.6339

> <Gold.Chemscore.Metal.Weighted>
-0.0000

> <Gold.Chemscore.Lipo.Weighted>
-12.9906

> <Gold.Chemscore.Internal_Hbond.Weighted>
0.0000

> <Gold.Chemscore.DEClash.Weighted>
3.4503

> <Gold.Chemscore.DEInternal.Weighted>
3.8518

> <Gold.Chemscore.Rot.Weighted>
3.0364

> <Gold.Chemscore.Internal.Correction.Weighted>
   9.000000E+99

> <Gold.Protein.RotatedTorsions>
[ 6907 6896 6895 6894 ] final -162.65 input  -60.11 | X-H torsion
[ 7974 7965 7964 7962 ] final -135.32 input  175.53 | X-H torsion
[ 8008 7997 7996 7995 ] final   33.69 input   59.86 | X-H torsion
[ 10167 10162 10161 10158 ] final  -49.09 input  -65.29 | X-H torsion
[ 10718 10713 10712 10709 ] final  159.84 input   66.30 | X-H torsion
[ 10763 10752 10751 10750 ] final  -23.37 input  -60.55 | X-H torsion
[ 11005 11000 10999 10996 ] final   25.07 input  -57.11 | X-H torsion

> <Gold.Protein.ActiveResidues>
 VAL166  LYS551  ARG553  GLY616  TRP617  ASP618  TYR619  PRO620  LYS621  CYS622 
 ASP623  PHE694  ASN695  SER759  ASP760  ASP761  ALA762  ILE779  LEU786  VAL792 
 PHE793  MET794  SER795  GLU796  ALA797  LYS798  CYS799  TRP800  GLU811  SER814 

> <Gold.Protein.RotatedAtoms>
  151.3836  133.3812  159.2712 H   0  0  0  0  0  0  0  0  0  0  0  0  # atno 6907 bound_to 6896
  150.9558  134.8954  159.7711 H   0  0  0  0  0  0  0  0  0  0  0  0  # atno 6908 bound_to 6896
  152.5130  134.3794  159.9398 H   0  0  0  0  0  0  0  0  0  0  0  0  # atno 6909 bound_to 6896
  144.9024  140.6789  143.5076 H   0  0  0  0  0  0  0  0  0  0  0  0  # atno 7974 bound_to 7965
  155.1427  140.3267  155.4448 H   0  0  0  0  0  0  0  0  0  0  0  0  # atno 8008 bound_to 7997
  156.2599  140.1991  156.6492 H   0  0  0  0  0  0  0  0  0  0  0  0  # atno 8009 bound_to 7997
  154.6531  140.0556  156.9964 H   0  0  0  0  0  0  0  0  0  0  0  0  # atno 8010 bound_to 7997
  140.6701  143.2712  151.4165 H   0  0  0  0  0  0  0  0  0  0  0  0  # atno 10167 bound_to 10162
  157.1587  131.0582  151.2243 H   0  0  0  0  0  0  0  0  0  0  0  0  # atno 10718 bound_to 10713
  153.6667  135.6974  153.5160 H   0  0  0  0  0  0  0  0  0  0  0  0  # atno 10763 bound_to 10752
  153.2589  135.4251  155.0873 H   0  0  0  0  0  0  0  0  0  0  0  0  # atno 10764 bound_to 10752
  154.8437  135.3550  154.6211 H   0  0  0  0  0  0  0  0  0  0  0  0  # atno 10765 bound_to 10752
  140.3519  134.2220  155.7679 H   0  0  0  0  0  0  0  0  0  0  0  0  # atno 11005 bound_to 11000
  145.3593  139.1686  143.4392 LP  0  0  0  0  0  0  0  0  0  0  0  0  # atno 17320 bound_to 7965
  146.3115  140.3654  142.8669 LP  0  0  0  0  0  0  0  0  0  0  0  0  # atno 17321 bound_to 7965
  139.5965  144.1385  152.2150 LP  0  0  0  0  0  0  0  0  0  0  0  0  # atno 17342 bound_to 10162
  140.0756  144.5743  150.7159 LP  0  0  0  0  0  0  0  0  0  0  0  0  # atno 17343 bound_to 10162
  157.4153  130.7407  149.6870 LP  0  0  0  0  0  0  0  0  0  0  0  0  # atno 17370 bound_to 10713
  155.9757  130.4085  150.3827 LP  0  0  0  0  0  0  0  0  0  0  0  0  # atno 17371 bound_to 10713
  141.2010  133.7974  157.0464 LP  0  0  0  0  0  0  0  0  0  0  0  0  # atno 17394 bound_to 11000
  140.0696  134.9709  157.1445 LP  0  0  0  0  0  0  0  0  0  0  0  0  # atno 17395 bound_to 11000

$$$$
