AV-unprocessed.smi:2159|AV-procd|sdf|8796|dock8
  -GOLD-   2272011573D 1   1.00000     0.00000
 Structure written by MMmdl.
 48 50  0  0  0  0  0  0  0  0  2 V2000
  152.1915  136.9356  156.0756 O   0  0  0  0  0  0  0  0  0  0  0  0
  151.2765  137.1673  156.8666 C   0  0  0  0  0  0  0  0  0  0  0  0
  151.5351  137.9724  158.1433 C   0  0  0  0  0  0  0  0  0  0  0  0
  152.8338  138.8008  158.0781 C   0  0  0  0  0  0  0  0  0  0  0  0
  152.5822  140.2114  158.3829 N   0  0  0  0  0  0  0  0  0  0  0  0
  151.8456  141.0353  157.6134 C   0  0  0  0  0  0  0  0  0  0  0  0
  151.3624  140.7891  156.5087 O   0  0  0  0  0  0  0  0  0  0  0  0
  151.6028  142.3315  158.3724 C   0  0  2  0  0  0  0  0  0  0  0  0
  151.5260  143.6918  157.6778 C   0  0  0  0  0  0  0  0  0  0  0  0
  151.2541  144.7453  158.7847 C   0  0  0  0  0  0  0  0  0  0  0  0
  152.2268  144.6554  159.9978 C   0  0  0  0  0  0  0  0  0  0  0  0
  152.4188  143.2166  160.5467 C   0  0  0  0  0  0  0  0  0  0  0  0
  152.7623  142.3293  159.3494 C   0  0  1  0  0  0  0  0  0  0  0  0
  153.0350  140.8390  159.4851 C   0  0  0  0  0  0  0  0  0  0  0  0
  153.6307  140.3352  160.4367 O   0  0  0  0  0  0  0  0  0  0  0  0
  150.0204  136.7329  156.6799 N   0  0  0  0  0  0  0  0  0  0  0  0
  149.5735  135.9448  155.5371 C   0  0  0  0  0  0  0  0  0  0  0  0
  150.4608  134.7067  155.3227 C   0  0  0  0  0  0  0  0  0  0  0  0
  149.7215  133.5847  154.6206 C   0  0  0  0  0  0  0  0  0  0  0  0
  149.7548  132.2522  155.0864 C   0  0  0  0  0  0  0  0  0  0  0  0
  149.0400  131.2593  154.3839 C   0  0  0  0  0  0  0  0  0  0  0  0
  148.3084  131.6191  153.2329 C   0  0  0  0  0  0  0  0  0  0  0  0
  148.3089  132.9650  152.8132 C   0  0  0  0  0  0  0  0  0  0  0  0
  149.0055  133.8872  153.5133 N   0  3  0  0  0  0  0  0  0  0  0  0
  150.6879  138.6338  158.3318 H   0  0  0  0  0  0  0  0  0  0  0  0
  151.5790  137.2741  158.9800 H   0  0  0  0  0  0  0  0  0  0  0  0
  153.5739  138.4061  158.7770 H   0  0  0  0  0  0  0  0  0  0  0  0
  153.2857  138.7107  157.0884 H   0  0  0  0  0  0  0  0  0  0  0  0
  150.6626  142.1745  158.9064 H   0  0  0  0  0  0  0  0  0  0  0  0
  152.4565  143.9139  157.1533 H   0  0  0  0  0  0  0  0  0  0  0  0
  150.7276  143.7044  156.9351 H   0  0  0  0  0  0  0  0  0  0  0  0
  151.2878  145.7478  158.3572 H   0  0  0  0  0  0  0  0  0  0  0  0
  150.2350  144.6109  159.1501 H   0  0  0  0  0  0  0  0  0  0  0  0
  153.1990  145.0431  159.6904 H   0  0  0  0  0  0  0  0  0  0  0  0
  151.8827  145.3127  160.7969 H   0  0  0  0  0  0  0  0  0  0  0  0
  153.2179  143.1952  161.2884 H   0  0  0  0  0  0  0  0  0  0  0  0
  151.5115  142.8676  161.0417 H   0  0  0  0  0  0  0  0  0  0  0  0
  153.6556  142.7396  158.8723 H   0  0  0  0  0  0  0  0  0  0  0  0
  149.3278  136.9665  157.3767 H   0  0  0  0  0  0  0  0  0  0  0  0
  148.5429  135.6370  155.7161 H   0  0  0  0  0  0  0  0  0  0  0  0
  149.5590  136.5686  154.6415 H   0  0  0  0  0  0  0  0  0  0  0  0
  151.3387  134.9661  154.7292 H   0  0  0  0  0  0  0  0  0  0  0  0
  150.8350  134.3455  156.2817 H   0  0  0  0  0  0  0  0  0  0  0  0
  150.3195  131.9920  155.9699 H   0  0  0  0  0  0  0  0  0  0  0  0
  149.0530  130.2339  154.7235 H   0  0  0  0  0  0  0  0  0  0  0  0
  147.7552  130.8732  152.6807 H   0  0  0  0  0  0  0  0  0  0  0  0
  147.7783  133.3291  151.9453 H   0  0  0  0  0  0  0  0  0  0  0  0
  148.9927  134.8556  153.1913 H   0  0  0  0  0  0  0  0  0  0  0  0
  1  2  2  0  0  0  0
  2  3  1  0  0  0  0
  2 16  1  0  0  0  0
  3  4  1  0  0  0  0
  3 25  1  0  0  0  0
  3 26  1  0  0  0  0
  4  5  1  0  0  0  0
  4 27  1  0  0  0  0
  4 28  1  0  0  0  0
  5 14  1  0  0  0  0
  5  6  1  0  0  0  0
  6  7  2  0  0  0  0
  6  8  1  0  0  0  0
  8 13  1  0  0  0  0
  8  9  1  0  0  0  0
  8 29  1  0  0  0  0
  9 10  1  0  0  0  0
  9 30  1  0  0  0  0
  9 31  1  0  0  0  0
 10 11  1  0  0  0  0
 10 32  1  0  0  0  0
 10 33  1  0  0  0  0
 11 12  1  0  0  0  0
 11 34  1  0  0  0  0
 11 35  1  0  0  0  0
 12 13  1  0  0  0  0
 12 36  1  0  0  0  0
 12 37  1  0  0  0  0
 13 14  1  0  0  0  0
 13 38  1  0  0  0  0
 14 15  2  0  0  0  0
 16 17  1  0  0  0  0
 16 39  1  0  0  0  0
 17 18  1  0  0  0  0
 17 40  1  0  0  0  0
 17 41  1  0  0  0  0
 18 19  1  0  0  0  0
 18 42  1  0  0  0  0
 18 43  1  0  0  0  0
 19 24  1  0  0  0  0
 19 20  2  0  0  0  0
 20 21  1  0  0  0  0
 20 44  1  0  0  0  0
 21 22  2  0  0  0  0
 21 45  1  0  0  0  0
 22 23  1  0  0  0  0
 22 46  1  0  0  0  0
 23 24  2  0  0  0  0
 23 47  1  0  0  0  0
 24 48  1  0  0  0  0
M  CHG  1  24   1
M  END
> <s_m_source_file>
AV-unprocessed.smi

> <i_m_source_file_index>
2159

> <i_lp_mmshare_version>
43012

> <i_f3d_flags>
0

> <s_epik_input>
bjFbY0hdW2NIXVtjSF1bY0hdYzFbQ0gyXVtDSDJdW05IXUMoPU8pW0NIMl1bQ0gyXU4oQzI9TylDKD1PKVtDQEhdKFtDQEBIXTIzKVtDSDJdW0NIMl1bQ0gyXVtDSDJdMw==

> <s_epik_cmdline>
J2VwaWtfcHl0aG9uJywgJy1waCcsICc3LjAnLCAnLXRuJywgJzgnLCAnLW1hJywgJzIwMCcsICctbWV0YWxfYmluZGluZycsICctaW1hZScsICc8aW5maWxlLm1hZT4nLCAnLW9tYWUnLCAnPG91dGZpbGUubWFlPic=

> <r_lp_tautomer_probability>
1

> <r_epik_Ionization_Penalty>
1.85146

> <r_epik_Ionization_Penalty_Charging>
1.85146

> <r_epik_Ionization_Penalty_Neutral>
2.95922e-08

> <r_epik_State_Penalty>
1.96899

> <r_epik_Charging_Adjusted_Penalty>
3.82044

> <i_epik_Tot_Q>
1

> <i_epik_Tot_abs_Q>
1

> <r_epik_Metal_State_Penalty>
1.99467

> <b_epik_Metal_Only>
0

> <s_lp_Force_Field>
OPLS_2005

> <r_lp_Energy>
35.9889

> <b_lp_Chiralities_Consistent>
1

> <s_lp_Variant>
AV-unprocessed.smi:2159-6

> <Gold.Version>
5.8.1

> <Gold.Id.Protein>
6NUR|6NUR_protein|mol2

> <Gold.PLP.Fitness>
53.1595

> <Gold.PLP.PLP>
-46.1526

> <Gold.PLP.part.hbond>
-2.0000

> <Gold.PLP.part.metal>
0.0000

> <Gold.PLP.part.buried>
-5.0707

> <Gold.PLP.part.nonpolar>
-39.2511

> <Gold.PLP.part.repulsive>
0.0660

> <Gold.PLP.ligand.clash>
0.0000

> <Gold.PLP.ligand.torsion>
0.9845

> <Gold.PLP.Chemscore.Hbond>
2.9675

> <Gold.PLP.Chemscore.CHOScore>
0.0000

> <Gold.PLP.Chemscore.Metal>
0.0000

> <Gold.Chemscore.Hbonds>
donor molecule, donor type, donor heavy atom, donor atom, acceptor molecule, acceptor atom, score
      L1  H    24    48       P1  7948  1.70
      P1  H 10752 10765       L1     1  0.95

> <Gold.PLP.Chemscore.Internal.Correction>
0.0736

> <Gold.Rescore>
     Score         DG    S(hbond)    S(metal)    S(lipo)     H(rot)  DE(clash)    DE(int)     intcor
     16.97     -19.30       1.83        0.00     111.84       2.10       0.14       2.19       ----

> <Gold.Chemscore.Fitness>
16.9741

> <Gold.Chemscore.DG>
-19.3037

> <Gold.Chemscore.ZeroCoef>
-5.4800

> <Gold.Chemscore.Hbond>
1.8276

> <Gold.Chemscore.Metal>
0.0000

> <Gold.Chemscore.Lipo>
111.8383

> <Gold.Chemscore.Internal_Hbond>
0.0000

> <Gold.Chemscore.DEClash>
0.1353

> <Gold.Chemscore.DEInternal>
2.1943

> <Gold.Chemscore.Rot>
2.0959

> <Gold.Chemscore.Internal.Correction>
   9.000000E+99

> <Gold.Chemscore.Hbonds>
donor molecule, donor type, donor heavy atom, donor atom, acceptor molecule, acceptor atom, score
      L1  H    24    48       P1  7948  0.14
      P1  H 10752 10765       L1     1  0.85

> <Gold.Chemscore.Hbond.Weighted>
-6.1041

> <Gold.Chemscore.Metal.Weighted>
-0.0000

> <Gold.Chemscore.Lipo.Weighted>
-13.0851

> <Gold.Chemscore.Internal_Hbond.Weighted>
0.0000

> <Gold.Chemscore.DEClash.Weighted>
0.1353

> <Gold.Chemscore.DEInternal.Weighted>
2.1943

> <Gold.Chemscore.Rot.Weighted>
5.3655

> <Gold.Chemscore.Internal.Correction.Weighted>
   9.000000E+99

> <Gold.Protein.RotatedTorsions>
[ 6907 6896 6895 6894 ] final   38.21 input  -60.11 | X-H torsion
[ 7974 7965 7964 7962 ] final  126.88 input  175.53 | X-H torsion
[ 8008 7997 7996 7995 ] final  154.30 input   59.86 | X-H torsion
[ 10167 10162 10161 10158 ] final  -16.08 input  -65.29 | X-H torsion
[ 10718 10713 10712 10709 ] final   67.81 input   66.30 | X-H torsion
[ 10763 10752 10751 10750 ] final -165.86 input  -60.55 | X-H torsion
[ 11005 11000 10999 10996 ] final  -69.06 input  -57.11 | X-H torsion

> <Gold.Protein.ActiveResidues>
 VAL166  LYS551  ARG553  GLY616  TRP617  ASP618  TYR619  PRO620  LYS621  CYS622 
 ASP623  PHE694  ASN695  SER759  ASP760  ASP761  ALA762  ILE779  LEU786  VAL792 
 PHE793  MET794  SER795  GLU796  ALA797  LYS798  CYS799  TRP800  GLU811  SER814 

> <Gold.Protein.RotatedAtoms>
  152.1535  134.8969  160.0546 H   0  0  0  0  0  0  0  0  0  0  0  0  # atno 6907 bound_to 6896
  151.9992  133.3814  159.4183 H   0  0  0  0  0  0  0  0  0  0  0  0  # atno 6908 bound_to 6896
  150.6878  134.3774  159.5063 H   0  0  0  0  0  0  0  0  0  0  0  0  # atno 6909 bound_to 6896
  145.0568  139.3838  143.5026 H   0  0  0  0  0  0  0  0  0  0  0  0  # atno 7974 bound_to 7965
  156.2538  140.1970  156.6624 H   0  0  0  0  0  0  0  0  0  0  0  0  # atno 8008 bound_to 7997
  154.6454  140.0578  156.9920 H   0  0  0  0  0  0  0  0  0  0  0  0  # atno 8009 bound_to 7997
  155.1498  140.3250  155.4436 H   0  0  0  0  0  0  0  0  0  0  0  0  # atno 8010 bound_to 7997
  140.7228  143.5153  150.9700 H   0  0  0  0  0  0  0  0  0  0  0  0  # atno 10167 bound_to 10162
  157.6252  130.9340  150.0293 H   0  0  0  0  0  0  0  0  0  0  0  0  # atno 10718 bound_to 10713
  154.6890  135.2967  154.9506 H   0  0  0  0  0  0  0  0  0  0  0  0  # atno 10763 bound_to 10752
  154.0476  135.6649  153.4801 H   0  0  0  0  0  0  0  0  0  0  0  0  # atno 10764 bound_to 10752
  153.0599  135.5122  154.7972 H   0  0  0  0  0  0  0  0  0  0  0  0  # atno 10765 bound_to 10752
  141.1546  133.6755  156.6541 H   0  0  0  0  0  0  0  0  0  0  0  0  # atno 11005 bound_to 11000
  146.3522  140.0246  142.8655 LP  0  0  0  0  0  0  0  0  0  0  0  0  # atno 17320 bound_to 7965
  145.1459  140.9596  143.4461 LP  0  0  0  0  0  0  0  0  0  0  0  0  # atno 17321 bound_to 7965
  139.8868  143.7003  152.3150 LP  0  0  0  0  0  0  0  0  0  0  0  0  # atno 17342 bound_to 10162
  139.7305  144.7583  151.0810 LP  0  0  0  0  0  0  0  0  0  0  0  0  # atno 17343 bound_to 10162
  156.1420  130.3642  149.9567 LP  0  0  0  0  0  0  0  0  0  0  0  0  # atno 17370 bound_to 10713
  156.7606  130.9149  151.3641 LP  0  0  0  0  0  0  0  0  0  0  0  0  # atno 17371 bound_to 10713
  140.3298  134.7938  157.4317 LP  0  0  0  0  0  0  0  0  0  0  0  0  # atno 17394 bound_to 11000
  140.1026  134.5452  155.8338 LP  0  0  0  0  0  0  0  0  0  0  0  0  # atno 17395 bound_to 11000

$$$$
