AV-unprocessed.smi:1978|AV-procd|sdf|7995|dock6
  -GOLD-   2272010183D 1   1.00000     0.00000
 Structure written by MMmdl.
 45 46  0  0  0  0  0  0  0  0  2 V2000
  145.8265  129.9139  151.6160 C   0  0  0  0  0  0  0  0  0  0  0  0
  145.7240  131.3994  151.5522 C   0  0  0  0  0  0  0  0  0  0  0  0
  146.5787  132.4062  151.9036 C   0  0  0  0  0  0  0  0  0  0  0  0
  145.8456  133.5774  151.5751 C   0  0  0  0  0  0  0  0  0  0  0  0
  146.3969  134.8666  151.7897 N   0  0  0  0  0  0  0  0  0  0  0  0
  145.7325  136.0102  152.0279 C   0  0  0  0  0  0  0  0  0  0  0  0
  144.5084  136.1155  152.1101 O   0  0  0  0  0  0  0  0  0  0  0  0
  146.5739  137.0464  152.1641 N   0  0  0  0  0  0  0  0  0  0  0  0
  146.1792  138.4233  152.4534 C   0  0  0  0  0  0  0  0  0  0  0  0
  146.1036  138.7177  153.9726 C   0  0  1  0  0  0  0  0  0  0  0  0
  147.3433  138.2366  154.7588 C   0  0  0  0  0  0  0  0  0  0  0  0
  145.7863  140.1612  154.2290 N   0  3  2  0  0  0  0  0  0  0  0  0
  146.8504  141.1012  153.7657 C   0  0  0  0  0  0  0  0  0  0  0  0
  146.3638  142.5568  153.7885 C   0  0  0  0  0  0  0  0  0  0  0  0
  145.9108  142.9466  155.1967 C   0  0  0  0  0  0  0  0  0  0  0  0
  144.8450  141.9609  155.6858 C   0  0  0  0  0  0  0  0  0  0  0  0
  145.3349  140.4969  155.6219 C   0  0  1  0  0  0  0  0  0  0  0  0
  144.2170  139.5769  156.1548 C   0  0  0  0  0  0  0  0  0  0  0  0
  144.6515  133.3101  151.0692 N   0  0  0  0  0  0  0  0  0  0  0  0
  144.5671  131.9129  151.0529 O   0  0  0  0  0  0  0  0  0  0  0  0
  146.8638  129.5923  151.5217 H   0  0  0  0  0  0  0  0  0  0  0  0
  145.2552  129.4485  150.8124 H   0  0  0  0  0  0  0  0  0  0  0  0
  145.4410  129.5410  152.5650 H   0  0  0  0  0  0  0  0  0  0  0  0
  147.5680  132.3155  152.3268 H   0  0  0  0  0  0  0  0  0  0  0  0
  147.4040  134.9228  151.7549 H   0  0  0  0  0  0  0  0  0  0  0  0
  147.5638  136.8659  152.0789 H   0  0  0  0  0  0  0  0  0  0  0  0
  146.8549  139.1073  151.9409 H   0  0  0  0  0  0  0  0  0  0  0  0
  145.1979  138.5807  152.0047 H   0  0  0  0  0  0  0  0  0  0  0  0
  145.2635  138.1155  154.3092 H   0  0  0  0  0  0  0  0  0  0  0  0
  147.4518  137.1539  154.7007 H   0  0  0  0  0  0  0  0  0  0  0  0
  147.2723  138.4841  155.8175 H   0  0  0  0  0  0  0  0  0  0  0  0
  148.2637  138.6747  154.3719 H   0  0  0  0  0  0  0  0  0  0  0  0
  147.7326  141.0052  154.4000 H   0  0  0  0  0  0  0  0  0  0  0  0
  147.1704  140.8694  152.7521 H   0  0  0  0  0  0  0  0  0  0  0  0
  147.1614  143.2224  153.4571 H   0  0  0  0  0  0  0  0  0  0  0  0
  145.5405  142.6830  153.0837 H   0  0  0  0  0  0  0  0  0  0  0  0
  146.7636  142.9391  155.8768 H   0  0  0  0  0  0  0  0  0  0  0  0
  145.5161  143.9631  155.1997 H   0  0  0  0  0  0  0  0  0  0  0  0
  144.5634  142.2181  156.7078 H   0  0  0  0  0  0  0  0  0  0  0  0
  143.9432  142.0741  155.0818 H   0  0  0  0  0  0  0  0  0  0  0  0
  146.1911  140.4020  156.2911 H   0  0  0  0  0  0  0  0  0  0  0  0
  143.8114  139.9605  157.0915 H   0  0  0  0  0  0  0  0  0  0  0  0
  144.5785  138.5727  156.3748 H   0  0  0  0  0  0  0  0  0  0  0  0
  143.3904  139.5001  155.4478 H   0  0  0  0  0  0  0  0  0  0  0  0
  144.9837  140.3517  153.6462 H   0  0  0  0  0  0  0  0  0  0  0  0
  1  2  1  0  0  0  0
  1 21  1  0  0  0  0
  1 22  1  0  0  0  0
  1 23  1  0  0  0  0
  2 20  1  0  0  0  0
  2  3  2  0  0  0  0
  3  4  1  0  0  0  0
  3 24  1  0  0  0  0
  4  5  1  0  0  0  0
  4 19  2  0  0  0  0
  5  6  1  0  0  0  0
  5 25  1  0  0  0  0
  6  7  2  0  0  0  0
  6  8  1  0  0  0  0
  8  9  1  0  0  0  0
  8 26  1  0  0  0  0
  9 10  1  0  0  0  0
  9 27  1  0  0  0  0
  9 28  1  0  0  0  0
 10 11  1  0  0  0  0
 10 12  1  0  0  0  0
 10 29  1  0  0  0  0
 11 30  1  0  0  0  0
 11 31  1  0  0  0  0
 11 32  1  0  0  0  0
 12 17  1  0  0  0  0
 12 13  1  0  0  0  0
 12 45  1  0  0  0  0
 13 14  1  0  0  0  0
 13 33  1  0  0  0  0
 13 34  1  0  0  0  0
 14 15  1  0  0  0  0
 14 35  1  0  0  0  0
 14 36  1  0  0  0  0
 15 16  1  0  0  0  0
 15 37  1  0  0  0  0
 15 38  1  0  0  0  0
 16 17  1  0  0  0  0
 16 39  1  0  0  0  0
 16 40  1  0  0  0  0
 17 18  1  0  0  0  0
 17 41  1  0  0  0  0
 18 42  1  0  0  0  0
 18 43  1  0  0  0  0
 18 44  1  0  0  0  0
 19 20  1  0  0  0  0
M  CHG  1  12   1
M  END
> <s_m_source_file>
AV-unprocessed.smi

> <i_m_source_file_index>
1978

> <i_lp_mmshare_version>
43012

> <i_f3d_flags>
0

> <s_epik_input>
W0NIM11jMVtjSF1jKG5vMSlbTkhdQyg9TylbTkhdW0NIMl1bQ0BIXShbQ0gzXSlOMltDSDJdW0NIMl1bQ0gyXVtDSDJdW0NASF0yW0NIM10=

> <s_epik_cmdline>
J2VwaWtfcHl0aG9uJywgJy1waCcsICc3LjAnLCAnLXRuJywgJzgnLCAnLW1hJywgJzIwMCcsICctbWV0YWxfYmluZGluZycsICctaW1hZScsICc8aW5maWxlLm1hZT4nLCAnLW9tYWUnLCAnPG91dGZpbGUubWFlPic=

> <r_epik_Ionization_Penalty>
0.00265971

> <r_epik_Ionization_Penalty_Charging>
0.00262393

> <r_epik_Ionization_Penalty_Neutral>
3.57846e-05

> <r_epik_State_Penalty>
0.00182566

> <r_epik_Charging_Adjusted_Penalty>
0.00444959

> <i_epik_Tot_Q>
1

> <i_epik_Tot_abs_Q>
1

> <r_epik_Metal_State_Penalty>
0.0216344

> <b_epik_Metal_Only>
0

> <s_lp_Force_Field>
OPLS_2005

> <r_lp_Energy>
21.4618

> <b_lp_Chiralities_Consistent>
1

> <s_lp_Variant>
AV-unprocessed.smi:1978-4

> <Gold.Version>
5.8.1

> <Gold.Id.Protein>
6NUR|6NUR_protein|mol2

> <Gold.PLP.Fitness>
39.2346

> <Gold.PLP.PLP>
-28.4880

> <Gold.PLP.part.hbond>
-2.9528

> <Gold.PLP.part.metal>
0.0000

> <Gold.PLP.part.buried>
-6.6115

> <Gold.PLP.part.nonpolar>
-21.1885

> <Gold.PLP.part.repulsive>
0.5312

> <Gold.PLP.ligand.clash>
0.0000

> <Gold.PLP.ligand.torsion>
0.4683

> <Gold.PLP.Chemscore.Hbond>
3.8553

> <Gold.PLP.Chemscore.CHOScore>
0.0000

> <Gold.PLP.Chemscore.Metal>
0.0000

> <Gold.Chemscore.Hbonds>
donor molecule, donor type, donor heavy atom, donor atom, acceptor molecule, acceptor atom, score
      L1  H     5    25       P1  7948  0.88
      L1  H     8    26       P1  7948  0.99
      L1  H    12    45       P1 10175  2.00

> <Gold.PLP.Chemscore.Internal.Correction>
0.1175

> <Gold.Rescore>
     Score         DG    S(hbond)    S(metal)    S(lipo)     H(rot)  DE(clash)    DE(int)     intcor
     16.27     -17.95       2.80        0.00      60.63       1.55       0.15       1.53       ----

> <Gold.Chemscore.Fitness>
16.2654

> <Gold.Chemscore.DG>
-17.9524

> <Gold.Chemscore.ZeroCoef>
-5.4800

> <Gold.Chemscore.Hbond>
2.7963

> <Gold.Chemscore.Metal>
0.0000

> <Gold.Chemscore.Lipo>
60.6339

> <Gold.Chemscore.Internal_Hbond>
0.0000

> <Gold.Chemscore.DEClash>
0.1536

> <Gold.Chemscore.DEInternal>
1.5335

> <Gold.Chemscore.Rot>
1.5474

> <Gold.Chemscore.Internal.Correction>
   9.000000E+99

> <Gold.Chemscore.Hbonds>
donor molecule, donor type, donor heavy atom, donor atom, acceptor molecule, acceptor atom, score
      L1  H     5    25       P1  7948  0.66
      L1  H     8    26       P1  7948  0.92
      L1  H    12    45       P1 10175  1.00

> <Gold.Chemscore.Hbond.Weighted>
-9.3395

> <Gold.Chemscore.Metal.Weighted>
-0.0000

> <Gold.Chemscore.Lipo.Weighted>
-7.0942

> <Gold.Chemscore.Internal_Hbond.Weighted>
0.0000

> <Gold.Chemscore.DEClash.Weighted>
0.1536

> <Gold.Chemscore.DEInternal.Weighted>
1.5335

> <Gold.Chemscore.Rot.Weighted>
3.9612

> <Gold.Chemscore.Internal.Correction.Weighted>
   9.000000E+99

> <Gold.Protein.RotatedTorsions>
[ 6907 6896 6895 6894 ] final   73.41 input  -60.11 | X-H torsion
[ 7974 7965 7964 7962 ] final -175.71 input  175.53 | X-H torsion
[ 8008 7997 7996 7995 ] final  -12.84 input   59.86 | X-H torsion
[ 10167 10162 10161 10158 ] final    6.68 input  -65.29 | X-H torsion
[ 10718 10713 10712 10709 ] final  113.72 input   66.30 | X-H torsion
[ 10763 10752 10751 10750 ] final   53.03 input  -60.55 | X-H torsion
[ 11005 11000 10999 10996 ] final  142.70 input  -57.11 | X-H torsion

> <Gold.Protein.ActiveResidues>
 VAL166  LYS551  ARG553  GLY616  TRP617  ASP618  TYR619  PRO620  LYS621  CYS622 
 ASP623  PHE694  ASN695  SER759  ASP760  ASP761  ALA762  ILE779  LEU786  VAL792 
 PHE793  MET794  SER795  GLU796  ALA797  LYS798  CYS799  TRP800  GLU811  SER814 

> <Gold.Protein.RotatedAtoms>
  152.4921  134.4426  159.9548 H   0  0  0  0  0  0  0  0  0  0  0  0  # atno 6907 bound_to 6896
  151.4411  133.3637  159.2790 H   0  0  0  0  0  0  0  0  0  0  0  0  # atno 6908 bound_to 6896
  150.9087  134.8526  159.7470 H   0  0  0  0  0  0  0  0  0  0  0  0  # atno 6909 bound_to 6896
  144.7127  140.1280  143.6400 H   0  0  0  0  0  0  0  0  0  0  0  0  # atno 7974 bound_to 7965
  154.5343  140.2265  155.8751 H   0  0  0  0  0  0  0  0  0  0  0  0  # atno 8008 bound_to 7997
  156.1795  140.3103  155.9085 H   0  0  0  0  0  0  0  0  0  0  0  0  # atno 8009 bound_to 7997
  155.3388  140.0449  157.3035 H   0  0  0  0  0  0  0  0  0  0  0  0  # atno 8010 bound_to 7997
  140.6414  143.7764  150.7434 H   0  0  0  0  0  0  0  0  0  0  0  0  # atno 10167 bound_to 10162
  157.6322  131.0988  150.7081 H   0  0  0  0  0  0  0  0  0  0  0  0  # atno 10718 bound_to 10713
  152.9792  135.5792  154.4674 H   0  0  0  0  0  0  0  0  0  0  0  0  # atno 10763 bound_to 10752
  154.4242  135.2772  155.1957 H   0  0  0  0  0  0  0  0  0  0  0  0  # atno 10764 bound_to 10752
  154.3693  135.6171  153.5785 H   0  0  0  0  0  0  0  0  0  0  0  0  # atno 10765 bound_to 10752
  140.0497  134.9262  157.0994 H   0  0  0  0  0  0  0  0  0  0  0  0  # atno 11005 bound_to 11000
  145.9312  139.2607  143.1324 LP  0  0  0  0  0  0  0  0  0  0  0  0  # atno 17320 bound_to 7965
  145.9521  140.8901  143.0254 LP  0  0  0  0  0  0  0  0  0  0  0  0  # atno 17321 bound_to 7965
  140.1397  143.4452  152.2202 LP  0  0  0  0  0  0  0  0  0  0  0  0  # atno 17342 bound_to 10162
  139.5624  144.7414  151.4118 LP  0  0  0  0  0  0  0  0  0  0  0  0  # atno 17343 bound_to 10162
  156.7419  130.4741  149.5475 LP  0  0  0  0  0  0  0  0  0  0  0  0  # atno 17370 bound_to 10713
  156.1534  130.6325  151.0626 LP  0  0  0  0  0  0  0  0  0  0  0  0  # atno 17371 bound_to 10713
  140.3937  134.2157  155.7165 LP  0  0  0  0  0  0  0  0  0  0  0  0  # atno 17394 bound_to 11000
  141.1924  133.8173  157.0840 LP  0  0  0  0  0  0  0  0  0  0  0  0  # atno 17395 bound_to 11000

$$$$
