AV-unprocessed.smi:2319|AV-procd|sdf|9277|dock6
  -GOLD-   2272012503D 1   1.00000     0.00000
 Structure written by MMmdl.
 46 47  0  0  0  0  0  0  0  0  1 V2000
  153.5650  138.7322  154.3507 C   0  0  0  0  0  0  0  0  0  0  0  0
  152.4419  138.5435  155.3760 C   0  0  0  0  0  0  0  0  0  0  0  0
  151.1814  139.2503  155.0005 C   0  0  0  0  0  0  0  0  0  0  0  0
  151.1557  140.5995  155.1591 O   0  0  0  0  0  0  0  0  0  0  0  0
  149.8928  141.0776  154.7774 N   0  0  0  0  0  0  0  0  0  0  0  0
  149.1828  140.0230  154.4039 C   0  0  0  0  0  0  0  0  0  0  0  0
  147.7476  140.2162  154.0003 C   0  0  0  0  0  0  0  0  0  0  0  0
  149.9784  138.8439  154.5040 C   0  0  0  0  0  0  0  0  0  0  0  0
  149.6317  137.4951  154.2417 N   0  0  0  0  0  0  0  0  0  0  0  0
  149.5972  136.4863  155.1250 C   0  0  0  0  0  0  0  0  0  0  0  0
  149.8631  136.5887  156.3220 O   0  0  0  0  0  0  0  0  0  0  0  0
  149.2064  135.3443  154.5441 N   0  0  0  0  0  0  0  0  0  0  0  0
  149.0294  134.0678  155.2335 C   0  0  2  0  0  0  0  0  0  0  0  0
  150.3571  133.4813  155.6707 C   0  0  0  0  0  0  0  0  0  0  0  0
  150.0542  131.9823  155.7902 C   0  0  0  0  0  0  0  0  0  0  0  0
  151.2370  131.1109  155.3408 C   0  0  0  0  0  0  0  0  0  0  0  0
  149.5955  131.6005  157.2078 C   0  0  0  0  0  0  0  0  0  0  0  0
  148.9555  131.7429  154.9111 O   0  0  0  0  0  0  0  0  0  0  0  0
  148.4512  132.9492  154.3404 C   0  0  0  0  0  0  0  0  0  0  0  0
  146.9165  132.8906  154.3946 C   0  0  0  0  0  0  0  0  0  0  0  0
  148.9425  132.9843  152.8776 C   0  0  0  0  0  0  0  0  0  0  0  0
  154.4667  138.2034  154.6599 H   0  0  0  0  0  0  0  0  0  0  0  0
  153.8188  139.7865  154.2366 H   0  0  0  0  0  0  0  0  0  0  0  0
  153.2736  138.3494  153.3720 H   0  0  0  0  0  0  0  0  0  0  0  0
  152.2349  137.4793  155.4933 H   0  0  0  0  0  0  0  0  0  0  0  0
  152.7807  138.8945  156.3510 H   0  0  0  0  0  0  0  0  0  0  0  0
  147.1373  139.3609  154.2900 H   0  0  0  0  0  0  0  0  0  0  0  0
  147.6584  140.3447  152.9216 H   0  0  0  0  0  0  0  0  0  0  0  0
  147.3147  141.0978  154.4741 H   0  0  0  0  0  0  0  0  0  0  0  0
  149.2750  137.3012  153.3175 H   0  0  0  0  0  0  0  0  0  0  0  0
  149.0025  135.3581  153.5556 H   0  0  0  0  0  0  0  0  0  0  0  0
  148.4085  134.1977  156.1224 H   0  0  0  0  0  0  0  0  0  0  0  0
  151.1125  133.6550  154.9024 H   0  0  0  0  0  0  0  0  0  0  0  0
  150.7292  133.9198  156.5976 H   0  0  0  0  0  0  0  0  0  0  0  0
  152.1099  131.2744  155.9733 H   0  0  0  0  0  0  0  0  0  0  0  0
  151.5242  131.3331  154.3125 H   0  0  0  0  0  0  0  0  0  0  0  0
  150.9848  130.0511  155.3879 H   0  0  0  0  0  0  0  0  0  0  0  0
  150.3871  131.7714  157.9380 H   0  0  0  0  0  0  0  0  0  0  0  0
  149.3183  130.5472  157.2606 H   0  0  0  0  0  0  0  0  0  0  0  0
  148.7274  132.1827  157.5175 H   0  0  0  0  0  0  0  0  0  0  0  0
  146.4701  133.7865  153.9631 H   0  0  0  0  0  0  0  0  0  0  0  0
  146.5598  132.8021  155.4211 H   0  0  0  0  0  0  0  0  0  0  0  0
  146.5357  132.0324  153.8404 H   0  0  0  0  0  0  0  0  0  0  0  0
  148.5641  133.8587  152.3477 H   0  0  0  0  0  0  0  0  0  0  0  0
  148.6026  132.1031  152.3327 H   0  0  0  0  0  0  0  0  0  0  0  0
  150.0306  133.0027  152.8174 H   0  0  0  0  0  0  0  0  0  0  0  0
  1  2  1  0  0  0  0
  1 22  1  0  0  0  0
  1 23  1  0  0  0  0
  1 24  1  0  0  0  0
  2  3  1  0  0  0  0
  2 25  1  0  0  0  0
  2 26  1  0  0  0  0
  3  8  2  0  0  0  0
  3  4  1  0  0  0  0
  4  5  1  0  0  0  0
  5  6  2  0  0  0  0
  6  7  1  0  0  0  0
  6  8  1  0  0  0  0
  7 27  1  0  0  0  0
  7 28  1  0  0  0  0
  7 29  1  0  0  0  0
  8  9  1  0  0  0  0
  9 10  1  0  0  0  0
  9 30  1  0  0  0  0
 10 11  2  0  0  0  0
 10 12  1  0  0  0  0
 12 13  1  0  0  0  0
 12 31  1  0  0  0  0
 13 19  1  0  0  0  0
 13 14  1  0  0  0  0
 13 32  1  0  0  0  0
 14 15  1  0  0  0  0
 14 33  1  0  0  0  0
 14 34  1  0  0  0  0
 15 16  1  0  0  0  0
 15 17  1  0  0  0  0
 15 18  1  0  0  0  0
 16 35  1  0  0  0  0
 16 36  1  0  0  0  0
 16 37  1  0  0  0  0
 17 38  1  0  0  0  0
 17 39  1  0  0  0  0
 17 40  1  0  0  0  0
 18 19  1  0  0  0  0
 19 20  1  0  0  0  0
 19 21  1  0  0  0  0
 20 41  1  0  0  0  0
 20 42  1  0  0  0  0
 20 43  1  0  0  0  0
 21 44  1  0  0  0  0
 21 45  1  0  0  0  0
 21 46  1  0  0  0  0
M  END
> <s_m_source_file>
AV-unprocessed.smi

> <i_m_source_file_index>
2319

> <i_lp_mmshare_version>
43012

> <i_f3d_flags>
0

> <s_epik_input>
W0NIM11bQ0gyXWMxb25jKFtDSDNdKWMxW05IXUMoPU8pW05IXVtDQEBIXShDKE8yKShbQ0gzXSlbQ0gzXSlbQ0gyXUMyKFtDSDNdKVtDSDNd

> <s_epik_cmdline>
J2VwaWtfcHl0aG9uJywgJy1waCcsICc3LjAnLCAnLXRuJywgJzgnLCAnLW1hJywgJzIwMCcsICctbWV0YWxfYmluZGluZycsICctaW1hZScsICc8aW5maWxlLm1hZT4nLCAnLW9tYWUnLCAnPG91dGZpbGUubWFlPic=

> <r_lp_tautomer_probability>
1

> <r_epik_Ionization_Penalty>
3.17207e-05

> <r_epik_Ionization_Penalty_Charging>
0

> <r_epik_Ionization_Penalty_Neutral>
3.17207e-05

> <r_epik_State_Penalty>
-0

> <r_epik_Charging_Adjusted_Penalty>
0

> <i_epik_Tot_Q>
0

> <i_epik_Tot_abs_Q>
0

> <r_epik_Metal_State_Penalty>
-0

> <b_epik_Metal_Only>
0

> <s_lp_Force_Field>
OPLS_2005

> <r_lp_Energy>
19.5027

> <b_lp_Chiralities_Consistent>
1

> <s_lp_Variant>
AV-unprocessed.smi:2319-1

> <Gold.Version>
5.8.1

> <Gold.Id.Protein>
6NUR|6NUR_protein|mol2

> <Gold.PLP.Fitness>
38.2871

> <Gold.PLP.PLP>
-33.0983

> <Gold.PLP.part.hbond>
-4.0000

> <Gold.PLP.part.metal>
0.0000

> <Gold.PLP.part.buried>
-3.1659

> <Gold.PLP.part.nonpolar>
-25.0837

> <Gold.PLP.part.repulsive>
0.2287

> <Gold.PLP.ligand.clash>
0.0000

> <Gold.PLP.ligand.torsion>
0.8334

> <Gold.PLP.Chemscore.Hbond>
2.1915

> <Gold.PLP.Chemscore.CHOScore>
0.0000

> <Gold.PLP.Chemscore.Metal>
0.0000

> <Gold.Chemscore.Hbonds>
donor molecule, donor type, donor heavy atom, donor atom, acceptor molecule, acceptor atom, score
      L1  H     9    30       P1  7948  1.00
      L1  H    12    31       P1  7948  1.00
      P1  H  7989  7998       L1     4  0.18

> <Gold.PLP.Chemscore.Internal.Correction>
0.2811

> <Gold.Rescore>
     Score         DG    S(hbond)    S(metal)    S(lipo)     H(rot)  DE(clash)    DE(int)     intcor
     17.12     -17.92       1.73        0.00      82.25       1.16       0.05       0.75       ----

> <Gold.Chemscore.Fitness>
17.1207

> <Gold.Chemscore.DG>
-17.9176

> <Gold.Chemscore.ZeroCoef>
-5.4800

> <Gold.Chemscore.Hbond>
1.7311

> <Gold.Chemscore.Metal>
0.0000

> <Gold.Chemscore.Lipo>
82.2472

> <Gold.Chemscore.Internal_Hbond>
0.0000

> <Gold.Chemscore.DEClash>
0.0501

> <Gold.Chemscore.DEInternal>
0.7468

> <Gold.Chemscore.Rot>
1.1590

> <Gold.Chemscore.Internal.Correction>
   9.000000E+99

> <Gold.Chemscore.Hbonds>
donor molecule, donor type, donor heavy atom, donor atom, acceptor molecule, acceptor atom, score
      L1  H     9    30       P1  7948  0.96
      L1  H    12    31       P1  7948  0.63

> <Gold.Chemscore.Hbond.Weighted>
-5.7818

> <Gold.Chemscore.Metal.Weighted>
-0.0000

> <Gold.Chemscore.Lipo.Weighted>
-9.6229

> <Gold.Chemscore.Internal_Hbond.Weighted>
0.0000

> <Gold.Chemscore.DEClash.Weighted>
0.0501

> <Gold.Chemscore.DEInternal.Weighted>
0.7468

> <Gold.Chemscore.Rot.Weighted>
2.9671

> <Gold.Chemscore.Internal.Correction.Weighted>
   9.000000E+99

> <Gold.Protein.RotatedTorsions>
[ 6907 6896 6895 6894 ] final  113.22 input  -60.11 | X-H torsion
[ 7974 7965 7964 7962 ] final  -81.12 input  175.53 | X-H torsion
[ 8008 7997 7996 7995 ] final  -46.25 input   59.86 | X-H torsion
[ 10167 10162 10161 10158 ] final -163.18 input  -65.29 | X-H torsion
[ 10718 10713 10712 10709 ] final -158.29 input   66.30 | X-H torsion
[ 10763 10752 10751 10750 ] final    1.67 input  -60.55 | X-H torsion
[ 11005 11000 10999 10996 ] final  -69.93 input  -57.11 | X-H torsion

> <Gold.Protein.ActiveResidues>
 VAL166  LYS551  ARG553  GLY616  TRP617  ASP618  TYR619  PRO620  LYS621  CYS622 
 ASP623  PHE694  ASN695  SER759  ASP760  ASP761  ALA762  ILE779  LEU786  VAL792 
 PHE793  MET794  SER795  GLU796  ALA797  LYS798  CYS799  TRP800  GLU811  SER814 

> <Gold.Protein.RotatedAtoms>
  152.4873  133.8406  159.7150 H   0  0  0  0  0  0  0  0  0  0  0  0  # atno 6907 bound_to 6896
  150.8971  133.7158  159.2895 H   0  0  0  0  0  0  0  0  0  0  0  0  # atno 6908 bound_to 6896
  151.4611  135.1042  159.9777 H   0  0  0  0  0  0  0  0  0  0  0  0  # atno 6909 bound_to 6896
  145.5509  140.9497  143.1500 H   0  0  0  0  0  0  0  0  0  0  0  0  # atno 7974 bound_to 7965
  154.4006  140.1376  156.3980 H   0  0  0  0  0  0  0  0  0  0  0  0  # atno 8008 bound_to 7997
  155.7851  140.3480  155.5298 H   0  0  0  0  0  0  0  0  0  0  0  0  # atno 8009 bound_to 7997
  155.8635  140.0960  157.1588 H   0  0  0  0  0  0  0  0  0  0  0  0  # atno 8010 bound_to 7997
  139.6339  144.0387  152.2038 H   0  0  0  0  0  0  0  0  0  0  0  0  # atno 10167 bound_to 10162
  156.5520  130.8609  151.2783 H   0  0  0  0  0  0  0  0  0  0  0  0  # atno 10718 bound_to 10713
  153.3051  135.6959  153.7167 H   0  0  0  0  0  0  0  0  0  0  0  0  # atno 10763 bound_to 10752
  153.6066  135.3452  155.2965 H   0  0  0  0  0  0  0  0  0  0  0  0  # atno 10764 bound_to 10752
  154.8561  135.4353  154.2173 H   0  0  0  0  0  0  0  0  0  0  0  0  # atno 10765 bound_to 10752
  141.1564  133.6777  156.6674 H   0  0  0  0  0  0  0  0  0  0  0  0  # atno 11005 bound_to 11000
  144.7530  139.7146  143.7265 LP  0  0  0  0  0  0  0  0  0  0  0  0  # atno 17320 bound_to 7965
  146.1917  139.5161  142.9800 LP  0  0  0  0  0  0  0  0  0  0  0  0  # atno 17321 bound_to 7965
  140.0059  144.6259  150.7689 LP  0  0  0  0  0  0  0  0  0  0  0  0  # atno 17342 bound_to 10162
  140.7454  143.2876  151.3421 LP  0  0  0  0  0  0  0  0  0  0  0  0  # atno 17343 bound_to 10162
  157.7385  130.9815  150.2259 LP  0  0  0  0  0  0  0  0  0  0  0  0  # atno 17370 bound_to 10713
  156.2876  130.3741  149.7873 LP  0  0  0  0  0  0  0  0  0  0  0  0  # atno 17371 bound_to 10713
  140.3201  134.8015  157.4245 LP  0  0  0  0  0  0  0  0  0  0  0  0  # atno 17394 bound_to 11000
  140.1104  134.5353  155.8271 LP  0  0  0  0  0  0  0  0  0  0  0  0  # atno 17395 bound_to 11000

$$$$
