#       Name:                AV-unprocessed.smi:1215
#       Creating user name   scv26
#       Creation time:       Fri Mar 27 04:14:50 2020


#       File generated by GOLD software.
#

@<TRIPOS>MOLECULE
AV-unprocessed.smi:1215
    49    50     1
SMALL
NO_CHARGES


@<TRIPOS>ATOM
      1 ****        -6.5435   3.7872   2.0768 C.3            1 S1                 0.0000
      2 ****        -6.2735   2.8021   0.9330 C.3            1 S1                 0.0000
      3 ****        -5.3919   1.7275   1.3458 N.pl3          1 S1                 0.0000
      4 ****        -4.0427   1.5843   1.0890 C.2            1 S1                 0.0000
      5 ****        -3.6743   0.4144   1.6913 C.2            1 S1                 0.0000
      6 ****        -2.4027  -0.2108   1.7415 N.am           1 S1                 0.0000
      7 ****        -1.2620   0.2149   1.1747 C.2            1 S1                 0.0000
      8 ****        -1.1405   1.2452   0.5115 O.2            1 S1                 0.0000
      9 ****        -0.2505  -0.6315   1.4149 N.am           1 S1                 0.0000
     10 ****         1.1165  -0.4531   0.9395 C.3            1 S1                 0.0000
     11 ****         1.2603  -0.8688  -0.5383 C.3            1 S1                 0.0000
     12 ****         2.6204  -0.6247  -1.0911 N.4            1 S1                 1.0000
     13 ****         2.6467  -0.7363  -2.5750 C.3            1 S1                 0.0000
     14 ****         3.9926  -0.2680  -3.1506 C.3            1 S1                 0.0000
     15 ****         5.1587  -1.0395  -2.5246 C.3            1 S1                 0.0000
     16 ****         5.0986  -0.9225  -0.9955 C.3            1 S1                 0.0000
     17 ****         3.7354  -1.3731  -0.4284 C.3            1 S1                 0.0000
     18 ****         3.5646  -2.9068  -0.4720 C.3            1 S1                 0.0000
     19 ****        -4.8523  -0.0976   2.2952 C.2            1 S1                 0.0000
     20 ****        -5.8867   0.7008   2.0808 N.2            1 S1                 0.0000
     21 ****        -7.1948   4.5962   1.7459 H              1 S1                 0.0000
     22 ****        -5.6166   4.2325   2.4389 H              1 S1                 0.0000
     23 ****        -7.0296   3.2925   2.9183 H              1 S1                 0.0000
     24 ****        -7.2090   2.3714   0.5730 H              1 S1                 0.0000
     25 ****        -5.8185   3.3220   0.0891 H              1 S1                 0.0000
     26 ****        -3.4877   2.3127   0.5164 H              1 S1                 0.0000
     27 ****        -2.3601  -1.0764   2.2594 H              1 S1                 0.0000
     28 ****        -0.4385  -1.4531   1.9713 H              1 S1                 0.0000
     29 ****         1.4302   0.5827   1.0809 H              1 S1                 0.0000
     30 ****         1.7528  -1.0647   1.5781 H              1 S1                 0.0000
     31 ****         0.9748  -1.9119  -0.6755 H              1 S1                 0.0000
     32 ****         0.5499  -0.2872  -1.1273 H              1 S1                 0.0000
     33 ****         2.4400  -1.7631  -2.8781 H              1 S1                 0.0000
     34 ****         1.8526  -0.1228  -3.0021 H              1 S1                 0.0000
     35 ****         3.9999  -0.3962  -4.2335 H              1 S1                 0.0000
     36 ****         4.1186   0.7994  -2.9645 H              1 S1                 0.0000
     37 ****         5.1170  -2.0869  -2.8248 H              1 S1                 0.0000
     38 ****         6.1074  -0.6491  -2.8940 H              1 S1                 0.0000
     39 ****         5.9069  -1.4997  -0.5449 H              1 S1                 0.0000
     40 ****         5.2777   0.1160  -0.7131 H              1 S1                 0.0000
     41 ****         3.7489  -1.0866   0.6226 H              1 S1                 0.0000
     42 ****         4.4132  -3.4008   0.0017 H              1 S1                 0.0000
     43 ****         3.4965  -3.2890  -1.4900 H              1 S1                 0.0000
     44 ****         2.6746  -3.2313   0.0666 H              1 S1                 0.0000
     45 ****        -4.9894  -1.0022   2.8692 H              1 S1                 0.0000
     46 ****         2.8080   0.3497  -0.9022 H              1 S1                 0.0000
     47 ****        -1.9310   1.8388   0.3605 LP             1 S1                 0.0000
     48 ****        -0.2513   1.4885   0.1239 LP             1 S1                 0.0000
     49 ****        -6.8282   0.5742   2.3930 LP             1 S1                 0.0000
@<TRIPOS>BOND
    1    1    2 1     
    2    1   21 1     
    3    1   22 1     
    4    1   23 1     
    5    2    3 1     
    6    2   24 1     
    7    2   25 1     
    8    3   20 1     
    9    3    4 1     
   10    4    5 2     
   11    4   26 1     
   12    5    6 1     
   13    5   19 1     
   14    6    7 am    
   15    6   27 1     
   16    7    8 2     
   17    7    9 am    
   18    9   10 1     
   19    9   28 1     
   20   10   11 1     
   21   10   29 1     
   22   10   30 1     
   23   11   12 1     
   24   11   31 1     
   25   11   32 1     
   26   12   17 1     
   27   12   13 1     
   28   12   46 1     
   29   13   14 1     
   30   13   33 1     
   31   13   34 1     
   32   14   15 1     
   33   14   35 1     
   34   14   36 1     
   35   15   16 1     
   36   15   37 1     
   37   15   38 1     
   38   16   17 1     
   39   16   39 1     
   40   16   40 1     
   41   17   18 1     
   42   17   41 1     
   43   18   42 1     
   44   18   43 1     
   45   18   44 1     
   46   19   20 2     
   47   19   45 1     
   48    8   47 1     
   49    8   48 1     
   50   20   49 1     
@<TRIPOS>SUBSTRUCTURE
      1 S1             1
@<TRIPOS>SET
LONE_PAIRS      STATIC     ATOMS    <user>   **** ""
3 47 48 49
DONOR_HYDROGENS      STATIC     ATOMS    <user>   **** ""
3 27 28 46
ATOM$BLUE        STATIC     ATOMS    COLORGROUP SYSTEM
3 47 48 49
ATOM$RED        STATIC     ATOMS    COLORGROUP SYSTEM
3 27 28 46
