AV-unprocessed.smi:3149|AV-procd|sdf|11999|dock8
  -GOLD-   2272017403D 1   1.00000     0.00000
 Structure written by MMmdl.
 38 39  0  0  0  0  0  0  0  0  2 V2000
  152.3205  139.6855  155.6352 C   0  0  0  0  0  0  0  0  0  0  0  0
  150.9266  140.3195  155.7717 C   0  0  2  0  0  0  0  0  0  0  0  0
  150.6156  140.4700  157.2122 N   0  3  0  0  0  0  0  0  0  0  0  0
  151.3749  141.5281  157.9081 C   0  0  0  0  0  0  0  0  0  0  0  0
  152.5735  140.9406  158.6563 C   0  0  0  0  0  0  0  0  0  0  0  0
  153.0508  139.8597  158.3115 O   0  0  0  0  0  0  0  0  0  0  0  0
  153.1421  141.7080  159.6752 N   0  0  0  0  0  0  0  0  0  0  0  0
  153.6414  141.0982  160.8989 C   0  0  0  0  0  0  0  0  0  0  0  0
  153.2639  142.4166  161.5819 C   0  0  0  0  0  0  0  0  0  0  0  0
  152.3644  142.7171  160.3788 C   0  0  0  0  0  0  0  0  0  0  0  0
  149.8185  139.4942  155.0625 C   0  0  2  0  0  0  0  0  0  0  0  0
  150.3732  138.4924  154.0315 C   0  0  0  0  0  0  0  0  0  0  0  0
  148.8289  140.3603  154.4307 N   0  0  0  0  0  0  0  0  0  0  0  0
  148.7433  141.7366  154.4830 C   0  0  0  0  0  0  0  0  0  0  0  0
  147.6721  142.1088  153.7228 C   0  0  0  0  0  0  0  0  0  0  0  0
  147.1529  140.8750  153.2418 C   0  0  0  0  0  0  0  0  0  0  0  0
  147.8469  139.8314  153.6657 N   0  0  0  0  0  0  0  0  0  0  0  0
  152.6493  139.6511  154.5968 H   0  0  0  0  0  0  0  0  0  0  0  0
  152.3352  138.6672  156.0255 H   0  0  0  0  0  0  0  0  0  0  0  0
  153.0661  140.2615  156.1845 H   0  0  0  0  0  0  0  0  0  0  0  0
  150.9722  141.3083  155.3117 H   0  0  0  0  0  0  0  0  0  0  0  0
  149.6317  140.6798  157.3021 H   0  0  0  0  0  0  0  0  0  0  0  0
  151.7278  142.2647  157.1856 H   0  0  0  0  0  0  0  0  0  0  0  0
  150.7112  142.0417  158.6036 H   0  0  0  0  0  0  0  0  0  0  0  0
  153.0443  140.2501  161.2402 H   0  0  0  0  0  0  0  0  0  0  0  0
  154.7107  140.8849  160.8859 H   0  0  0  0  0  0  0  0  0  0  0  0
  152.7266  142.2958  162.5230 H   0  0  0  0  0  0  0  0  0  0  0  0
  154.1019  143.1092  161.6792 H   0  0  0  0  0  0  0  0  0  0  0  0
  152.4704  143.7228  159.9709 H   0  0  0  0  0  0  0  0  0  0  0  0
  151.3220  142.4352  160.5419 H   0  0  0  0  0  0  0  0  0  0  0  0
  149.2893  138.9172  155.8227 H   0  0  0  0  0  0  0  0  0  0  0  0
  150.9781  137.7196  154.5047 H   0  0  0  0  0  0  0  0  0  0  0  0
  150.9920  138.9888  153.2831 H   0  0  0  0  0  0  0  0  0  0  0  0
  149.5634  137.9842  153.5069 H   0  0  0  0  0  0  0  0  0  0  0  0
  149.4459  142.3318  155.0476 H   0  0  0  0  0  0  0  0  0  0  0  0
  147.3126  143.1107  153.5396 H   0  0  0  0  0  0  0  0  0  0  0  0
  146.3000  140.7081  152.6006 H   0  0  0  0  0  0  0  0  0  0  0  0
  150.7976  139.5927  157.6785 H   0  0  0  0  0  0  0  0  0  0  0  0
  1  2  1  0  0  0  0
  1 18  1  0  0  0  0
  1 19  1  0  0  0  0
  1 20  1  0  0  0  0
  2  3  1  0  0  0  0
  2 11  1  0  0  0  0
  2 21  1  0  0  0  0
  3  4  1  0  0  0  0
  3 22  1  0  0  0  0
  3 38  1  0  0  0  0
  4  5  1  0  0  0  0
  4 23  1  0  0  0  0
  4 24  1  0  0  0  0
  5  6  2  0  0  0  0
  5  7  1  0  0  0  0
  7 10  1  0  0  0  0
  7  8  1  0  0  0  0
  8  9  1  0  0  0  0
  8 25  1  0  0  0  0
  8 26  1  0  0  0  0
  9 10  1  0  0  0  0
  9 27  1  0  0  0  0
  9 28  1  0  0  0  0
 10 29  1  0  0  0  0
 10 30  1  0  0  0  0
 11 12  1  0  0  0  0
 11 13  1  0  0  0  0
 11 31  1  0  0  0  0
 12 32  1  0  0  0  0
 12 33  1  0  0  0  0
 12 34  1  0  0  0  0
 13 17  1  0  0  0  0
 13 14  1  0  0  0  0
 14 15  2  0  0  0  0
 14 35  1  0  0  0  0
 15 16  1  0  0  0  0
 15 36  1  0  0  0  0
 16 17  2  0  0  0  0
 16 37  1  0  0  0  0
M  CHG  1   3   1
M  END
> <s_m_source_file>
AV-unprocessed.smi

> <i_m_source_file_index>
3149

> <i_lp_mmshare_version>
43012

> <i_f3d_flags>
0

> <s_epik_input>
bjFbY0hdW2NIXVtjSF1uMVtDQEBIXShbQ0gzXSlbQ0BIXShbQ0gzXSlbTkhdW0NIMl1DKD1PKU4yW0NIMl1bQ0gyXVtDSDJdMg==

> <s_epik_cmdline>
J2VwaWtfcHl0aG9uJywgJy1waCcsICc3LjAnLCAnLXRuJywgJzgnLCAnLW1hJywgJzIwMCcsICctbWV0YWxfYmluZGluZycsICctaW1hZScsICc8aW5maWxlLm1hZT4nLCAnLW9tYWUnLCAnPG91dGZpbGUubWFlPic=

> <r_lp_tautomer_probability>
1

> <r_epik_Ionization_Penalty>
0.141739

> <r_epik_Ionization_Penalty_Charging>
0.141731

> <r_epik_Ionization_Penalty_Neutral>
8.82171e-06

> <r_epik_State_Penalty>
0.131043

> <r_epik_Charging_Adjusted_Penalty>
0.272773

> <i_epik_Tot_Q>
1

> <i_epik_Tot_abs_Q>
1

> <r_epik_Metal_State_Penalty>
0.131384

> <b_epik_Metal_Only>
0

> <s_lp_Force_Field>
OPLS_2005

> <r_lp_Energy>
21.2317

> <b_lp_Chiralities_Consistent>
1

> <s_lp_Variant>
AV-unprocessed.smi:3149-1

> <Gold.Version>
5.8.1

> <Gold.Id.Protein>
6NUR|6NUR_protein|mol2

> <Gold.PLP.Fitness>
45.2390

> <Gold.PLP.PLP>
-40.1477

> <Gold.PLP.part.hbond>
-1.0000

> <Gold.PLP.part.metal>
0.0000

> <Gold.PLP.part.buried>
-3.5100

> <Gold.PLP.part.nonpolar>
-35.8401

> <Gold.PLP.part.repulsive>
0.2083

> <Gold.PLP.ligand.clash>
0.0000

> <Gold.PLP.ligand.torsion>
2.3159

> <Gold.PLP.Chemscore.Hbond>
1.0000

> <Gold.PLP.Chemscore.CHOScore>
1.9336

> <Gold.PLP.Chemscore.Metal>
0.0000

> <Gold.Chemscore.Hbonds>
donor molecule, donor type, donor heavy atom, donor atom, acceptor molecule, acceptor atom, score
      P1  H  7997  8009       L1     6  1.00
      L1  C    14    35       P1  8028  0.79
      L1  C    16    37       P1 10175  0.78

> <Gold.PLP.Chemscore.Internal.Correction>
0.9223

> <Gold.Rescore>
     Score         DG    S(hbond)    S(metal)    S(lipo)     H(rot)  DE(clash)    DE(int)     intcor
     10.78     -14.40       0.95        0.00      89.64       1.85       0.04       3.57       ----

> <Gold.Chemscore.Fitness>
10.7845

> <Gold.Chemscore.DG>
-14.4033

> <Gold.Chemscore.ZeroCoef>
-5.4800

> <Gold.Chemscore.Hbond>
0.9530

> <Gold.Chemscore.Metal>
0.0000

> <Gold.Chemscore.Lipo>
89.6361

> <Gold.Chemscore.Internal_Hbond>
0.0000

> <Gold.Chemscore.DEClash>
0.0442

> <Gold.Chemscore.DEInternal>
3.5746

> <Gold.Chemscore.Rot>
1.8544

> <Gold.Chemscore.Internal.Correction>
   9.000000E+99

> <Gold.Chemscore.Hbonds>
donor molecule, donor type, donor heavy atom, donor atom, acceptor molecule, acceptor atom, score
      P1  H  7997  8009       L1     6  0.79

> <Gold.Chemscore.Hbond.Weighted>
-3.1830

> <Gold.Chemscore.Metal.Weighted>
-0.0000

> <Gold.Chemscore.Lipo.Weighted>
-10.4874

> <Gold.Chemscore.Internal_Hbond.Weighted>
0.0000

> <Gold.Chemscore.DEClash.Weighted>
0.0442

> <Gold.Chemscore.DEInternal.Weighted>
3.5746

> <Gold.Chemscore.Rot.Weighted>
4.7472

> <Gold.Chemscore.Internal.Correction.Weighted>
   9.000000E+99

> <Gold.Protein.RotatedTorsions>
[ 6907 6896 6895 6894 ] final    8.97 input  -60.11 | X-H torsion
[ 7974 7965 7964 7962 ] final   26.20 input  175.53 | X-H torsion
[ 8008 7997 7996 7995 ] final  148.98 input   59.86 | X-H torsion
[ 10167 10162 10161 10158 ] final  102.97 input  -65.29 | X-H torsion
[ 10718 10713 10712 10709 ] final  -36.70 input   66.30 | X-H torsion
[ 10763 10752 10751 10750 ] final   12.71 input  -60.55 | X-H torsion
[ 11005 11000 10999 10996 ] final -178.92 input  -57.11 | X-H torsion

> <Gold.Protein.ActiveResidues>
 VAL166  LYS551  ARG553  GLY616  TRP617  ASP618  TYR619  PRO620  LYS621  CYS622 
 ASP623  PHE694  ASN695  SER759  ASP760  ASP761  ALA762  ILE779  LEU786  VAL792 
 PHE793  MET794  SER795  GLU796  ALA797  LYS798  CYS799  TRP800  GLU811  SER814 

> <Gold.Protein.RotatedAtoms>
  151.7146  135.0906  160.0273 H   0  0  0  0  0  0  0  0  0  0  0  0  # atno 6907 bound_to 6896
  152.3640  133.6329  159.6045 H   0  0  0  0  0  0  0  0  0  0  0  0  # atno 6908 bound_to 6896
  150.7625  133.9294  159.3463 H   0  0  0  0  0  0  0  0  0  0  0  0  # atno 6909 bound_to 6896
  146.1849  139.7360  142.8873 H   0  0  0  0  0  0  0  0  0  0  0  0  # atno 7974 bound_to 7965
  156.2771  140.2114  156.5786 H   0  0  0  0  0  0  0  0  0  0  0  0  # atno 8008 bound_to 7997
  154.7077  140.0515  157.0543 H   0  0  0  0  0  0  0  0  0  0  0  0  # atno 8009 bound_to 7997
  155.0647  140.3170  155.4652 H   0  0  0  0  0  0  0  0  0  0  0  0  # atno 8010 bound_to 7997
  139.7303  144.7037  151.0732 H   0  0  0  0  0  0  0  0  0  0  0  0  # atno 10167 bound_to 10162
  156.3238  130.4269  149.7935 H   0  0  0  0  0  0  0  0  0  0  0  0  # atno 10718 bound_to 10713
  153.1795  135.6825  153.8498 H   0  0  0  0  0  0  0  0  0  0  0  0  # atno 10763 bound_to 10752
  153.7835  135.3179  155.3370 H   0  0  0  0  0  0  0  0  0  0  0  0  # atno 10764 bound_to 10752
  154.8050  135.4754  154.0465 H   0  0  0  0  0  0  0  0  0  0  0  0  # atno 10765 bound_to 10752
  140.4244  134.6576  157.4680 H   0  0  0  0  0  0  0  0  0  0  0  0  # atno 11005 bound_to 11000
  145.3967  141.0380  143.3093 LP  0  0  0  0  0  0  0  0  0  0  0  0  # atno 17320 bound_to 7965
  144.8380  139.5518  143.6913 LP  0  0  0  0  0  0  0  0  0  0  0  0  # atno 17321 bound_to 7965
  140.7770  143.5051  150.9722 LP  0  0  0  0  0  0  0  0  0  0  0  0  # atno 17342 bound_to 10162
  139.8739  143.7157  152.3164 LP  0  0  0  0  0  0  0  0  0  0  0  0  # atno 17343 bound_to 10162
  156.5233  130.8225  151.3211 LP  0  0  0  0  0  0  0  0  0  0  0  0  # atno 17370 bound_to 10713
  157.7417  130.9875  150.2465 LP  0  0  0  0  0  0  0  0  0  0  0  0  # atno 17371 bound_to 10713
  140.0178  134.6593  155.9284 LP  0  0  0  0  0  0  0  0  0  0  0  0  # atno 17394 bound_to 11000
  141.1771  133.6541  156.4872 LP  0  0  0  0  0  0  0  0  0  0  0  0  # atno 17395 bound_to 11000

$$$$
