#       Name:                AV-unprocessed.smi:154
#       Creating user name   scv26
#       Creation time:       Thu Mar 26 18:52:11 2020


#       File generated by GOLD software.
#

@<TRIPOS>MOLECULE
AV-unprocessed.smi:154
    60    64     1
SMALL
NO_CHARGES


@<TRIPOS>ATOM
      1 ****        -2.2231  -0.2044   3.7214 O.3            1 S1                 0.0000
      2 ****        -1.4866  -1.4108   3.6131 C.3            1 S1                 0.0000
      3 ****         0.0104  -1.0371   3.4749 C.3            1 S1                 0.0000
      4 ****         0.3289  -0.3268   2.2452 N.pl3          1 S1                 0.0000
      5 ****         0.2069   1.0227   2.0188 C.2            1 S1                 0.0000
      6 ****         0.5533   1.4149   0.8250 N.2            1 S1                 0.0000
      7 ****         0.9536   0.2544   0.1681 C.ar           1 S1                 0.0000
      8 ****         1.4351  -0.0552  -1.1447 C.ar           1 S1                 0.0000
      9 ****         1.6481   0.8333  -2.1611 N.pl3          1 S1                 0.0000
     10 ****         1.3460   0.4446  -3.5420 C.3            1 S1                 0.0000
     11 ****         2.4164   1.0253  -4.4950 C.3            1 S1                 0.0000
     12 ****         2.7052   2.5273  -4.3034 C.3            1 S1                 0.0000
     13 ****         2.6793   2.9605  -2.8248 C.3            1 S1                 0.0000
     14 ****         1.5827   2.2813  -1.9721 C.3            1 S1                 0.0000
     15 ****         0.1358   2.7812  -2.2228 C.3            1 S1                 0.0000
     16 ****        -0.5047   2.2707  -3.5341 C.3            1 S1                 0.0000
     17 ****        -1.8302   2.3379  -3.4075 F              1 S1                 0.0000
     18 ****        -0.1862   3.0699  -4.5473 F              1 S1                 0.0000
     19 ****        -0.1220   0.8107  -3.8648 C.3            1 S1                 0.0000
     20 ****         1.7265  -1.3607  -1.3912 N.ar           1 S1                 0.0000
     21 ****         1.5575  -2.2966  -0.4552 C.ar           1 S1                 0.0000
     22 ****         1.1136  -2.1536   0.7920 N.ar           1 S1                 0.0000
     23 ****         0.8206  -0.8506   1.0622 C.ar           1 S1                 0.0000
     24 ****        -1.7200  -2.2396   4.8925 C.3            1 S1                 0.0000
     25 ****        -3.1606  -2.7734   4.9842 C.3            1 S1                 0.0000
     26 ****        -3.4758  -3.5251   3.8185 O.3            1 S1                 0.0000
     27 ****        -3.4411  -2.7394   2.6333 C.3            1 S1                 0.0000
     28 ****        -2.0196  -2.1992   2.3963 C.3            1 S1                 0.0000
     29 ****        -1.9333   0.2563   4.4938 H              1 S1                 0.0000
     30 ****         0.3286  -0.4216   4.3176 H              1 S1                 0.0000
     31 ****         0.6240  -1.9381   3.5123 H              1 S1                 0.0000
     32 ****        -0.1561   1.7103   2.7686 H              1 S1                 0.0000
     33 ****         1.4162  -0.6353  -3.6662 H              1 S1                 0.0000
     34 ****         3.3456   0.4837  -4.3134 H              1 S1                 0.0000
     35 ****         2.1542   0.8222  -5.5336 H              1 S1                 0.0000
     36 ****         3.6831   2.7591  -4.7263 H              1 S1                 0.0000
     37 ****         2.0208   3.1299  -4.8905 H              1 S1                 0.0000
     38 ****         3.6446   2.7029  -2.3868 H              1 S1                 0.0000
     39 ****         2.6026   4.0458  -2.7523 H              1 S1                 0.0000
     40 ****         1.8489   2.5277  -0.9465 H              1 S1                 0.0000
     41 ****        -0.4861   2.4293  -1.4005 H              1 S1                 0.0000
     42 ****         0.0903   3.8695  -2.1739 H              1 S1                 0.0000
     43 ****        -0.3586   0.5801  -4.9040 H              1 S1                 0.0000
     44 ****        -0.7558   0.1538  -3.2669 H              1 S1                 0.0000
     45 ****         1.8153  -3.3035  -0.7483 H              1 S1                 0.0000
     46 ****        -1.0385  -3.0913   4.8996 H              1 S1                 0.0000
     47 ****        -1.4814  -1.6520   5.7800 H              1 S1                 0.0000
     48 ****        -3.2617  -3.4208   5.8552 H              1 S1                 0.0000
     49 ****        -3.8760  -1.9596   5.1125 H              1 S1                 0.0000
     50 ****        -3.7467  -3.3617   1.7921 H              1 S1                 0.0000
     51 ****        -4.1643  -1.9253   2.7015 H              1 S1                 0.0000
     52 ****        -2.0092  -1.5827   1.4966 H              1 S1                 0.0000
     53 ****        -1.3576  -3.0429   2.1976 H              1 S1                 0.0000
     54 ****        -3.1986  -0.4106   3.7980 LP             1 S1                 0.0000
     55 ****        -2.0645   0.3612   2.9122 LP             1 S1                 0.0000
     56 ****         0.5355   2.3460   0.4606 LP             1 S1                 0.0000
     57 ****         2.0741  -1.6241  -2.2910 LP             1 S1                 0.0000
     58 ****         1.0090  -2.9039   1.4447 LP             1 S1                 0.0000
     59 ****        -4.3941  -3.9069   3.9226 LP             1 S1                 0.0000
     60 ****        -2.8137  -4.2691   3.7288 LP             1 S1                 0.0000
@<TRIPOS>BOND
    1    1    2 1     
    2    1   29 1     
    3    2   28 1     
    4    2    3 1     
    5    2   24 1     
    6    3    4 1     
    7    3   30 1     
    8    3   31 1     
    9    4   23 1     
   10    4    5 1     
   11    5    6 2     
   12    5   32 1     
   13    6    7 1     
   14    7   23 ar    
   15    7    8 ar    
   16    8    9 1     
   17    8   20 ar    
   18    9   14 1     
   19    9   10 1     
   20   10   19 1     
   21   10   11 1     
   22   10   33 1     
   23   11   12 1     
   24   11   34 1     
   25   11   35 1     
   26   12   13 1     
   27   12   36 1     
   28   12   37 1     
   29   13   14 1     
   30   13   38 1     
   31   13   39 1     
   32   14   15 1     
   33   14   40 1     
   34   15   16 1     
   35   15   41 1     
   36   15   42 1     
   37   16   17 1     
   38   16   18 1     
   39   16   19 1     
   40   19   43 1     
   41   19   44 1     
   42   20   21 ar    
   43   21   22 ar    
   44   21   45 1     
   45   22   23 ar    
   46   24   25 1     
   47   24   46 1     
   48   24   47 1     
   49   25   26 1     
   50   25   48 1     
   51   25   49 1     
   52   26   27 1     
   53   27   28 1     
   54   27   50 1     
   55   27   51 1     
   56   28   52 1     
   57   28   53 1     
   58    1   54 1     
   59    1   55 1     
   60    6   56 1     
   61   20   57 1     
   62   22   58 1     
   63   26   59 1     
   64   26   60 1     
@<TRIPOS>SUBSTRUCTURE
      1 S1             1
@<TRIPOS>SET
LONE_PAIRS      STATIC     ATOMS    <user>   **** ""
7 54 55 56 57 58 59 60
DONOR_HYDROGENS      STATIC     ATOMS    <user>   **** ""
1 29
ATOM$BLUE        STATIC     ATOMS    COLORGROUP SYSTEM
7 54 55 56 57 58 59 60
ATOM$RED        STATIC     ATOMS    COLORGROUP SYSTEM
1 29
