AV-unprocessed.smi:290|AV-procd|sdf|2230|dock8
  -GOLD-   2262022 93D 1   1.00000     0.00000
 Structure written by MMmdl.
 59 62  0  0  0  0  0  0  0  0  2 V2000
  150.2560  141.6769  156.7209 C   0  0  0  0  0  0  0  0  0  0  0  0
  150.8086  140.4795  155.9324 C   0  0  1  0  0  0  0  0  0  0  0  0
  151.2986  139.5696  156.9186 O   0  0  0  0  0  0  0  0  0  0  0  0
  150.9881  138.2373  156.5503 C   0  0  0  0  0  0  0  0  0  0  0  0
  149.6364  138.3805  155.8684 C   0  0  0  0  0  0  0  0  0  0  0  0
  149.7980  139.6674  155.0688 C   0  0  2  0  0  0  0  0  0  0  0  0
  150.4439  139.3190  153.8558 O   0  0  0  0  0  0  0  0  0  0  0  0
  148.4253  140.3099  154.7201 C   0  0  0  0  0  0  0  0  0  0  0  0
  147.4777  139.4530  154.0133 N   0  0  0  0  0  0  0  0  0  0  0  0
  147.2737  139.3560  152.6531 C   0  0  0  0  0  0  0  0  0  0  0  0
  146.3742  138.4864  152.2827 N   0  0  0  0  0  0  0  0  0  0  0  0
  145.9394  137.9166  153.4724 C   0  0  0  0  0  0  0  0  0  0  0  0
  144.9886  136.9072  153.8003 C   0  0  0  0  0  0  0  0  0  0  0  0
  144.2322  136.2725  152.8658 N   0  0  0  0  0  0  0  0  0  0  0  0
  142.8779  135.8913  153.2620 C   0  0  0  0  0  0  0  0  0  0  0  0
  142.5860  134.5484  152.5842 C   0  0  0  0  0  0  0  0  0  0  0  0
  143.5695  134.5373  151.4092 C   0  0  2  0  0  0  0  0  0  0  0  0
  143.8526  133.2019  150.8090 N   0  3  2  0  0  0  0  0  0  0  0  0
  144.4986  132.2847  151.7775 C   0  0  0  0  0  0  0  0  0  0  0  0
  144.5430  133.2207  149.4900 C   0  0  0  0  0  0  0  0  0  0  0  0
  143.6618  132.6341  148.3755 C   0  0  0  0  0  0  0  0  0  0  0  0
  143.6420  133.5068  147.2652 O   0  0  0  0  0  0  0  0  0  0  0  0
  144.8001  135.2538  151.9826 C   0  0  1  0  0  0  0  0  0  0  0  0
  145.7065  135.8532  150.8924 C   0  0  0  0  0  0  0  0  0  0  0  0
  144.8497  136.5881  155.1145 N   0  0  0  0  0  0  0  0  0  0  0  0
  145.5797  137.2104  156.0441 C   0  0  0  0  0  0  0  0  0  0  0  0
  146.4912  138.1702  155.8828 N   0  0  0  0  0  0  0  0  0  0  0  0
  146.6401  138.4975  154.5671 C   0  0  0  0  0  0  0  0  0  0  0  0
  143.1579  135.1807  150.6284 H   0  0  0  0  0  0  0  0  0  0  0  0
  145.3857  134.5657  152.5907 H   0  0  0  0  0  0  0  0  0  0  0  0
  150.0162  142.5126  156.0668 H   0  0  0  0  0  0  0  0  0  0  0  0
  150.9980  142.0428  157.4308 H   0  0  0  0  0  0  0  0  0  0  0  0
  149.3637  141.4096  157.2872 H   0  0  0  0  0  0  0  0  0  0  0  0
  151.6505  140.8196  155.3266 H   0  0  0  0  0  0  0  0  0  0  0  0
  151.7423  137.8632  155.8563 H   0  0  0  0  0  0  0  0  0  0  0  0
  150.9578  137.5769  157.4171 H   0  0  0  0  0  0  0  0  0  0  0  0
  149.3688  137.5141  155.2618 H   0  0  0  0  0  0  0  0  0  0  0  0
  148.8655  138.5027  156.6308 H   0  0  0  0  0  0  0  0  0  0  0  0
  149.8273  139.4222  153.1471 H   0  0  0  0  0  0  0  0  0  0  0  0
  147.9377  140.6564  155.6322 H   0  0  0  0  0  0  0  0  0  0  0  0
  148.5884  141.2051  154.1194 H   0  0  0  0  0  0  0  0  0  0  0  0
  147.8126  139.9476  151.9287 H   0  0  0  0  0  0  0  0  0  0  0  0
  142.7654  135.8149  154.3448 H   0  0  0  0  0  0  0  0  0  0  0  0
  142.1854  136.6544  152.9054 H   0  0  0  0  0  0  0  0  0  0  0  0
  142.7936  133.7463  153.2924 H   0  0  0  0  0  0  0  0  0  0  0  0
  141.5461  134.4557  152.2702 H   0  0  0  0  0  0  0  0  0  0  0  0
  145.4912  132.6431  152.0534 H   0  0  0  0  0  0  0  0  0  0  0  0
  144.6035  131.2818  151.3650 H   0  0  0  0  0  0  0  0  0  0  0  0
  143.9031  132.1987  152.6869 H   0  0  0  0  0  0  0  0  0  0  0  0
  144.8292  134.2304  149.1991 H   0  0  0  0  0  0  0  0  0  0  0  0
  145.4760  132.6598  149.5627 H   0  0  0  0  0  0  0  0  0  0  0  0
  144.0631  131.6744  148.0484 H   0  0  0  0  0  0  0  0  0  0  0  0
  142.6429  132.4519  148.7159 H   0  0  0  0  0  0  0  0  0  0  0  0
  142.8005  133.4382  146.8391 H   0  0  0  0  0  0  0  0  0  0  0  0
  146.0817  135.0747  150.2277 H   0  0  0  0  0  0  0  0  0  0  0  0
  146.5722  136.3593  151.3189 H   0  0  0  0  0  0  0  0  0  0  0  0
  145.1673  136.5792  150.2832 H   0  0  0  0  0  0  0  0  0  0  0  0
  145.4069  136.8967  157.0631 H   0  0  0  0  0  0  0  0  0  0  0  0
  142.9408  132.8060  150.6266 H   0  0  0  0  0  0  0  0  0  0  0  0
  1  2  1  0  0  0  0
  1 31  1  0  0  0  0
  1 32  1  0  0  0  0
  1 33  1  0  0  0  0
  2  6  1  0  0  0  0
  2  3  1  0  0  0  0
  2 34  1  0  0  0  0
  3  4  1  0  0  0  0
  4  5  1  0  0  0  0
  4 35  1  0  0  0  0
  4 36  1  0  0  0  0
  5  6  1  0  0  0  0
  5 37  1  0  0  0  0
  5 38  1  0  0  0  0
  6  7  1  0  0  0  0
  6  8  1  0  0  0  0
  7 39  1  0  0  0  0
  8  9  1  0  0  0  0
  8 40  1  0  0  0  0
  8 41  1  0  0  0  0
  9 28  1  0  0  0  0
  9 10  1  0  0  0  0
 10 11  2  0  0  0  0
 10 42  1  0  0  0  0
 11 12  1  0  0  0  0
 12 28  2  0  0  0  0
 12 13  1  0  0  0  0
 13 14  1  0  0  0  0
 13 25  2  0  0  0  0
 14 23  1  0  0  0  0
 14 15  1  0  0  0  0
 15 16  1  0  0  0  0
 15 43  1  0  0  0  0
 15 44  1  0  0  0  0
 16 17  1  0  0  0  0
 16 45  1  0  0  0  0
 16 46  1  0  0  0  0
 17 29  1  0  0  0  0
 17 18  1  0  0  0  0
 17 23  1  0  0  0  0
 18 19  1  0  0  0  0
 18 20  1  0  0  0  0
 18 59  1  0  0  0  0
 19 47  1  0  0  0  0
 19 48  1  0  0  0  0
 19 49  1  0  0  0  0
 20 21  1  0  0  0  0
 20 50  1  0  0  0  0
 20 51  1  0  0  0  0
 21 22  1  0  0  0  0
 21 52  1  0  0  0  0
 21 53  1  0  0  0  0
 22 54  1  0  0  0  0
 23 30  1  0  0  0  0
 23 24  1  0  0  0  0
 24 55  1  0  0  0  0
 24 56  1  0  0  0  0
 24 57  1  0  0  0  0
 25 26  1  0  0  0  0
 26 27  2  0  0  0  0
 26 58  1  0  0  0  0
 27 28  1  0  0  0  0
M  CHG  1  18   1
M  END
> <s_m_source_file>
AV-unprocessed.smi

> <i_m_source_file_index>
290

> <i_lp_mmshare_version>
43012

> <i_f3d_flags>
0

> <s_epik_input>
W0NIMl0xW0NIMl1PW0NAQEhdKFtDSDNdKVtDQEBdMShbT0hdKVtDSDJdbihbY0hdbjIpYyhjMjMpbltjSF1uYzNONFtDSDJdW0NIMl1bQ0BIXShbQ0BIXTRbQ0gzXSlOKFtDSDNdKVtDSDJdW0NIMl1bT0hd

> <s_epik_cmdline>
J2VwaWtfcHl0aG9uJywgJy1waCcsICc3LjAnLCAnLXRuJywgJzgnLCAnLW1hJywgJzIwMCcsICctbWV0YWxfYmluZGluZycsICctaW1hZScsICc8aW5maWxlLm1hZT4nLCAnLW9tYWUnLCAnPG91dGZpbGUubWFlPic=

> <r_lp_tautomer_probability>
1

> <r_epik_Ionization_Penalty>
0.0036983

> <r_epik_Ionization_Penalty_Charging>
0.0032725

> <r_epik_Ionization_Penalty_Neutral>
0.000425798

> <r_epik_State_Penalty>
-0

> <r_epik_Charging_Adjusted_Penalty>
0.0032725

> <i_epik_Tot_Q>
1

> <i_epik_Tot_abs_Q>
1

> <r_epik_Metal_State_Penalty>
-0

> <b_epik_Metal_Only>
0

> <s_lp_Force_Field>
OPLS_2005

> <r_lp_Energy>
62.8721

> <b_lp_Chiralities_Consistent>
1

> <s_lp_Variant>
AV-unprocessed.smi:290-16

> <Gold.Version>
5.8.1

> <Gold.Id.Protein>
6NUR|6NUR_protein|mol2

> <Gold.PLP.Fitness>
48.5853

> <Gold.PLP.PLP>
-37.8438

> <Gold.PLP.part.hbond>
-5.4140

> <Gold.PLP.part.metal>
0.0000

> <Gold.PLP.part.buried>
-2.7294

> <Gold.PLP.part.nonpolar>
-31.2203

> <Gold.PLP.part.repulsive>
0.4483

> <Gold.PLP.ligand.clash>
0.0000

> <Gold.PLP.ligand.torsion>
2.0619

> <Gold.PLP.Chemscore.Hbond>
3.7760

> <Gold.PLP.Chemscore.CHOScore>
0.9950

> <Gold.PLP.Chemscore.Metal>
0.0000

> <Gold.Chemscore.Hbonds>
donor molecule, donor type, donor heavy atom, donor atom, acceptor molecule, acceptor atom, score
      L1  H     7    39       P1  7957  0.76
      L1  H    22    54       P1 10195  1.00
      P1  H  7918  7932       L1    22  0.96
      P1  H  7989  7998       L1     7  0.95
      L1  C    10    42       P1  7957  0.74

> <Gold.PLP.Chemscore.Internal.Correction>
0.5524

> <Gold.Rescore>
     Score         DG    S(hbond)    S(metal)    S(lipo)     H(rot)  DE(clash)    DE(int)     intcor
     13.10     -17.65       3.26        0.00      91.27       3.67       2.37       2.18       ----

> <Gold.Chemscore.Fitness>
13.0967

> <Gold.Chemscore.DG>
-17.6461

> <Gold.Chemscore.ZeroCoef>
-5.4800

> <Gold.Chemscore.Hbond>
3.2551

> <Gold.Chemscore.Metal>
0.0000

> <Gold.Chemscore.Lipo>
91.2699

> <Gold.Chemscore.Internal_Hbond>
0.0000

> <Gold.Chemscore.DEClash>
2.3696

> <Gold.Chemscore.DEInternal>
2.1798

> <Gold.Chemscore.Rot>
3.6658

> <Gold.Chemscore.Internal.Correction>
   9.000000E+99

> <Gold.Chemscore.Hbonds>
donor molecule, donor type, donor heavy atom, donor atom, acceptor molecule, acceptor atom, score
      L1  H     7    39       P1  7957  0.72
      L1  H    22    54       P1 10195  0.98
      P1  H  7918  7932       L1    22  0.69
      P1  H  7989  7998       L1     7  0.10

> <Gold.Chemscore.Hbond.Weighted>
-10.8719

> <Gold.Chemscore.Metal.Weighted>
-0.0000

> <Gold.Chemscore.Lipo.Weighted>
-10.6786

> <Gold.Chemscore.Internal_Hbond.Weighted>
0.0000

> <Gold.Chemscore.DEClash.Weighted>
2.3696

> <Gold.Chemscore.DEInternal.Weighted>
2.1798

> <Gold.Chemscore.Rot.Weighted>
9.3844

> <Gold.Chemscore.Internal.Correction.Weighted>
   9.000000E+99

> <Gold.Protein.RotatedTorsions>
[ 6907 6896 6895 6894 ] final    6.74 input  -60.11 | X-H torsion
[ 7974 7965 7964 7962 ] final -152.28 input  175.53 | X-H torsion
[ 8008 7997 7996 7995 ] final  -64.92 input   59.86 | X-H torsion
[ 10167 10162 10161 10158 ] final   54.16 input  -65.29 | X-H torsion
[ 10718 10713 10712 10709 ] final -120.45 input   66.30 | X-H torsion
[ 10763 10752 10751 10750 ] final  -21.34 input  -60.55 | X-H torsion
[ 11005 11000 10999 10996 ] final -162.57 input  -57.11 | X-H torsion

> <Gold.Protein.ActiveResidues>
 VAL166  LYS551  ARG553  GLY616  TRP617  ASP618  TYR619  PRO620  LYS621  CYS622 
 ASP623  PHE694  ASN695  SER759  ASP760  ASP761  ALA762  ILE779  LEU786  VAL792 
 PHE793  MET794  SER795  GLU796  ALA797  LYS798  CYS799  TRP800  GLU811  SER814 

> <Gold.Protein.RotatedAtoms>
  151.6787  135.0965  160.0211 H   0  0  0  0  0  0  0  0  0  0  0  0  # atno 6907 bound_to 6896
  152.3849  133.6592  159.6199 H   0  0  0  0  0  0  0  0  0  0  0  0  # atno 6908 bound_to 6896
  150.7777  133.8969  159.3371 H   0  0  0  0  0  0  0  0  0  0  0  0  # atno 6909 bound_to 6896
  144.7803  140.4683  143.5844 H   0  0  0  0  0  0  0  0  0  0  0  0  # atno 7974 bound_to 7965
  154.4640  140.0944  156.6971 H   0  0  0  0  0  0  0  0  0  0  0  0  # atno 8008 bound_to 7997
  155.4910  140.3470  155.4336 H   0  0  0  0  0  0  0  0  0  0  0  0  # atno 8009 bound_to 7997
  156.0923  140.1400  156.9564 H   0  0  0  0  0  0  0  0  0  0  0  0  # atno 8010 bound_to 7997
  140.2330  144.3666  150.6407 H   0  0  0  0  0  0  0  0  0  0  0  0  # atno 10167 bound_to 10162
  156.1259  130.6358  150.9541 H   0  0  0  0  0  0  0  0  0  0  0  0  # atno 10718 bound_to 10713
  153.6346  135.6987  153.5263 H   0  0  0  0  0  0  0  0  0  0  0  0  # atno 10763 bound_to 10752
  153.2831  135.4179  155.1097 H   0  0  0  0  0  0  0  0  0  0  0  0  # atno 10764 bound_to 10752
  154.8514  135.3607  154.5889 H   0  0  0  0  0  0  0  0  0  0  0  0  # atno 10765 bound_to 10752
  140.6078  134.4880  157.5212 H   0  0  0  0  0  0  0  0  0  0  0  0  # atno 11005 bound_to 11000
  145.6070  139.1509  143.3097 LP  0  0  0  0  0  0  0  0  0  0  0  0  # atno 17320 bound_to 7965
  146.2006  140.6188  142.9104 LP  0  0  0  0  0  0  0  0  0  0  0  0  # atno 17321 bound_to 7965
  140.6170  143.2173  151.6771 LP  0  0  0  0  0  0  0  0  0  0  0  0  # atno 17342 bound_to 10162
  139.5103  144.3547  152.0619 LP  0  0  0  0  0  0  0  0  0  0  0  0  # atno 17343 bound_to 10162
  157.6440  131.0906  150.8192 LP  0  0  0  0  0  0  0  0  0  0  0  0  # atno 17370 bound_to 10713
  156.8282  130.5007  149.5334 LP  0  0  0  0  0  0  0  0  0  0  0  0  # atno 17371 bound_to 10713
  139.9205  134.8159  156.1227 LP  0  0  0  0  0  0  0  0  0  0  0  0  # atno 17394 bound_to 11000
  141.0829  133.6747  156.2373 LP  0  0  0  0  0  0  0  0  0  0  0  0  # atno 17395 bound_to 11000

$$$$
