AV-unprocessed.smi:910|AV-procd|sdf|4117|dock3
  -GOLD-   22720 2 13D 1   1.00000     0.00000
 Structure written by MMmdl.
 46 47  0  0  0  0  0  0  0  0  1 V2000
  147.2223  135.7152  162.7030 C   0  0  0  0  0  0  0  0  0  0  0  0
  147.7163  135.8778  161.2998 C   0  0  0  0  0  0  0  0  0  0  0  0
  148.0619  137.1155  160.7758 N   0  0  0  0  0  0  0  0  0  0  0  0
  148.4460  136.8543  159.5253 C   0  0  0  0  0  0  0  0  0  0  0  0
  148.8909  137.7962  158.5645 N   0  0  0  0  0  0  0  0  0  0  0  0
  150.0675  138.4434  158.5374 C   0  0  0  0  0  0  0  0  0  0  0  0
  150.9875  138.2791  159.3390 O   0  0  0  0  0  0  0  0  0  0  0  0
  150.1174  139.3154  157.5205 N   0  0  0  0  0  0  0  0  0  0  0  0
  151.2117  140.2445  157.2567 C   0  0  0  0  0  0  0  0  0  0  0  0
  150.7454  141.7067  157.3274 C   0  0  0  0  0  0  0  0  0  0  0  0
  151.1596  142.2534  158.5704 O   0  0  0  0  0  0  0  0  0  0  0  0
  152.3916  142.9629  158.5273 C   0  0  1  0  0  0  0  0  0  0  0  0
  152.1571  144.4001  158.0201 C   0  0  0  0  0  0  0  0  0  0  0  0
  151.2977  145.2166  158.9996 C   0  0  0  0  0  0  0  0  0  0  0  0
  151.9081  145.2175  160.4095 C   0  0  0  0  0  0  0  0  0  0  0  0
  152.1311  143.7858  160.9227 C   0  0  0  0  0  0  0  0  0  0  0  0
  152.9983  142.9643  159.9477 C   0  0  1  0  0  0  0  0  0  0  0  0
  153.2481  141.5383  160.4658 C   0  0  0  0  0  0  0  0  0  0  0  0
  148.3772  135.5382  159.1918 O   0  0  0  0  0  0  0  0  0  0  0  0
  147.9107  134.9303  160.3268 C   0  0  0  0  0  0  0  0  0  0  0  0
  147.7162  133.4525  160.2947 C   0  0  0  0  0  0  0  0  0  0  0  0
  146.1751  135.4132  162.7167 H   0  0  0  0  0  0  0  0  0  0  0  0
  147.3064  136.6440  163.2682 H   0  0  0  0  0  0  0  0  0  0  0  0
  147.7935  134.9537  163.2341 H   0  0  0  0  0  0  0  0  0  0  0  0
  148.2297  138.0237  157.8371 H   0  0  0  0  0  0  0  0  0  0  0  0
  149.3159  139.3789  156.9101 H   0  0  0  0  0  0  0  0  0  0  0  0
  152.0278  140.0704  157.9593 H   0  0  0  0  0  0  0  0  0  0  0  0
  151.6039  140.0317  156.2619 H   0  0  0  0  0  0  0  0  0  0  0  0
  151.1724  142.2742  156.4995 H   0  0  0  0  0  0  0  0  0  0  0  0
  149.6609  141.7592  157.2308 H   0  0  0  0  0  0  0  0  0  0  0  0
  153.0929  142.4562  157.8620 H   0  0  0  0  0  0  0  0  0  0  0  0
  153.1200  144.8959  157.8917 H   0  0  0  0  0  0  0  0  0  0  0  0
  151.6905  144.3891  157.0353 H   0  0  0  0  0  0  0  0  0  0  0  0
  151.1958  146.2404  158.6389 H   0  0  0  0  0  0  0  0  0  0  0  0
  150.2901  144.8007  159.0376 H   0  0  0  0  0  0  0  0  0  0  0  0
  152.8585  145.7525  160.3956 H   0  0  0  0  0  0  0  0  0  0  0  0
  151.2579  145.7607  161.0953 H   0  0  0  0  0  0  0  0  0  0  0  0
  152.6055  143.8208  161.9039 H   0  0  0  0  0  0  0  0  0  0  0  0
  151.1673  143.2952  161.0652 H   0  0  0  0  0  0  0  0  0  0  0  0
  153.9714  143.4538  159.8855 H   0  0  0  0  0  0  0  0  0  0  0  0
  152.3155  140.9855  160.5831 H   0  0  0  0  0  0  0  0  0  0  0  0
  153.7464  141.5552  161.4351 H   0  0  0  0  0  0  0  0  0  0  0  0
  153.8817  140.9759  159.7795 H   0  0  0  0  0  0  0  0  0  0  0  0
  148.5320  132.9457  160.8102 H   0  0  0  0  0  0  0  0  0  0  0  0
  147.6829  133.0838  159.2694 H   0  0  0  0  0  0  0  0  0  0  0  0
  146.7822  133.1746  160.7833 H   0  0  0  0  0  0  0  0  0  0  0  0
  1  2  1  0  0  0  0
  1 22  1  0  0  0  0
  1 23  1  0  0  0  0
  1 24  1  0  0  0  0
  2 20  2  0  0  0  0
  2  3  1  0  0  0  0
  3  4  2  0  0  0  0
  4  5  1  0  0  0  0
  4 19  1  0  0  0  0
  5  6  1  0  0  0  0
  5 25  1  0  0  0  0
  6  7  2  0  0  0  0
  6  8  1  0  0  0  0
  8  9  1  0  0  0  0
  8 26  1  0  0  0  0
  9 10  1  0  0  0  0
  9 27  1  0  0  0  0
  9 28  1  0  0  0  0
 10 11  1  0  0  0  0
 10 29  1  0  0  0  0
 10 30  1  0  0  0  0
 11 12  1  0  0  0  0
 12 17  1  0  0  0  0
 12 13  1  0  0  0  0
 12 31  1  0  0  0  0
 13 14  1  0  0  0  0
 13 32  1  0  0  0  0
 13 33  1  0  0  0  0
 14 15  1  0  0  0  0
 14 34  1  0  0  0  0
 14 35  1  0  0  0  0
 15 16  1  0  0  0  0
 15 36  1  0  0  0  0
 15 37  1  0  0  0  0
 16 17  1  0  0  0  0
 16 38  1  0  0  0  0
 16 39  1  0  0  0  0
 17 18  1  0  0  0  0
 17 40  1  0  0  0  0
 18 41  1  0  0  0  0
 18 42  1  0  0  0  0
 18 43  1  0  0  0  0
 19 20  1  0  0  0  0
 20 21  1  0  0  0  0
 21 44  1  0  0  0  0
 21 45  1  0  0  0  0
 21 46  1  0  0  0  0
M  END
> <s_m_source_file>
AV-unprocessed.smi

> <i_m_source_file_index>
910

> <i_lp_mmshare_version>
43012

> <i_f3d_flags>
0

> <s_epik_input>
W0NIM11jMW5jKG9jMVtDSDNdKVtOSF1DKD1PKVtOSF1bQ0gyXVtDSDJdT1tDQEBIXTJbQ0gyXVtDSDJdW0NIMl1bQ0gyXVtDQEhdMltDSDNd

> <s_epik_cmdline>
J2VwaWtfcHl0aG9uJywgJy1waCcsICc3LjAnLCAnLXRuJywgJzgnLCAnLW1hJywgJzIwMCcsICctbWV0YWxfYmluZGluZycsICctaW1hZScsICc8aW5maWxlLm1hZT4nLCAnLW9tYWUnLCAnPG91dGZpbGUubWFlPic=

> <r_lp_tautomer_probability>
0.785861

> <r_epik_Ionization_Penalty>
4.15957e-05

> <r_epik_Ionization_Penalty_Charging>
0

> <r_epik_Ionization_Penalty_Neutral>
4.15957e-05

> <r_epik_State_Penalty>
0.0240523

> <r_epik_Charging_Adjusted_Penalty>
0.0240523

> <i_epik_Tot_Q>
0

> <i_epik_Tot_abs_Q>
0

> <r_epik_Metal_State_Penalty>
0.057053

> <b_epik_Metal_Only>
0

> <s_lp_Force_Field>
OPLS_2005

> <r_lp_Energy>
9.72379

> <b_lp_Chiralities_Consistent>
1

> <s_lp_Variant>
AV-unprocessed.smi:910-2

> <Gold.Version>
5.8.1

> <Gold.Id.Protein>
6NUR|6NUR_protein|mol2

> <Gold.PLP.Fitness>
50.6147

> <Gold.PLP.PLP>
-48.6646

> <Gold.PLP.part.hbond>
-2.7791

> <Gold.PLP.part.metal>
0.0000

> <Gold.PLP.part.buried>
-5.3879

> <Gold.PLP.part.nonpolar>
-40.6348

> <Gold.PLP.part.repulsive>
0.2662

> <Gold.PLP.ligand.clash>
0.0000

> <Gold.PLP.ligand.torsion>
1.4626

> <Gold.PLP.Chemscore.Hbond>
1.6097

> <Gold.PLP.Chemscore.CHOScore>
0.0000

> <Gold.PLP.Chemscore.Metal>
0.0000

> <Gold.Chemscore.Hbonds>
donor molecule, donor type, donor heavy atom, donor atom, acceptor molecule, acceptor atom, score
      P1  H  6931  6943       L1     3  0.90
      P1  H  6934  6947       L1     3  0.61

> <Gold.PLP.Chemscore.Internal.Correction>
0.0462

> <Gold.Rescore>
     Score         DG    S(hbond)    S(metal)    S(lipo)     H(rot)  DE(clash)    DE(int)     intcor
     19.03     -20.50       1.41        0.00     124.24       1.66       0.06       1.41       ----

> <Gold.Chemscore.Fitness>
19.0281

> <Gold.Chemscore.DG>
-20.4972

> <Gold.Chemscore.ZeroCoef>
-5.4800

> <Gold.Chemscore.Hbond>
1.4147

> <Gold.Chemscore.Metal>
0.0000

> <Gold.Chemscore.Lipo>
124.2360

> <Gold.Chemscore.Internal_Hbond>
0.0000

> <Gold.Chemscore.DEClash>
0.0618

> <Gold.Chemscore.DEInternal>
1.4074

> <Gold.Chemscore.Rot>
1.6576

> <Gold.Chemscore.Internal.Correction>
   9.000000E+99

> <Gold.Chemscore.Hbonds>
donor molecule, donor type, donor heavy atom, donor atom, acceptor molecule, acceptor atom, score
      P1  H  6931  6943       L1     3  0.82
      P1  H  6934  6947       L1     3  0.48

> <Gold.Chemscore.Hbond.Weighted>
-4.7252

> <Gold.Chemscore.Metal.Weighted>
-0.0000

> <Gold.Chemscore.Lipo.Weighted>
-14.5356

> <Gold.Chemscore.Internal_Hbond.Weighted>
0.0000

> <Gold.Chemscore.DEClash.Weighted>
0.0618

> <Gold.Chemscore.DEInternal.Weighted>
1.4074

> <Gold.Chemscore.Rot.Weighted>
4.2436

> <Gold.Chemscore.Internal.Correction.Weighted>
   9.000000E+99

> <Gold.Protein.RotatedTorsions>
[ 6907 6896 6895 6894 ] final  164.44 input  -60.11 | X-H torsion
[ 7974 7965 7964 7962 ] final  -11.06 input  175.53 | X-H torsion
[ 8008 7997 7996 7995 ] final  158.86 input   59.86 | X-H torsion
[ 10167 10162 10161 10158 ] final  178.88 input  -65.29 | X-H torsion
[ 10718 10713 10712 10709 ] final  179.80 input   66.30 | X-H torsion
[ 10763 10752 10751 10750 ] final  100.51 input  -60.55 | X-H torsion
[ 11005 11000 10999 10996 ] final  102.10 input  -57.11 | X-H torsion

> <Gold.Protein.ActiveResidues>
 VAL166  LYS551  ARG553  GLY616  TRP617  ASP618  TYR619  PRO620  LYS621  CYS622 
 ASP623  PHE694  ASN695  SER759  ASP760  ASP761  ALA762  ILE779  LEU786  VAL792 
 PHE793  MET794  SER795  GLU796  ALA797  LYS798  CYS799  TRP800  GLU811  SER814 

> <Gold.Protein.RotatedAtoms>
  151.9098  133.3558  159.3859 H   0  0  0  0  0  0  0  0  0  0  0  0  # atno 6907 bound_to 6896
  150.7060  134.4744  159.5450 H   0  0  0  0  0  0  0  0  0  0  0  0  # atno 6908 bound_to 6896
  152.2347  134.8287  160.0519 H   0  0  0  0  0  0  0  0  0  0  0  0  # atno 6909 bound_to 6896
  146.2200  140.2856  142.8365 H   0  0  0  0  0  0  0  0  0  0  0  0  # atno 7974 bound_to 7965
  156.2276  140.1847  156.7324 H   0  0  0  0  0  0  0  0  0  0  0  0  # atno 8008 bound_to 7997
  154.5967  140.0642  156.9341 H   0  0  0  0  0  0  0  0  0  0  0  0  # atno 8009 bound_to 7997
  155.2243  140.3310  155.4314 H   0  0  0  0  0  0  0  0  0  0  0  0  # atno 8010 bound_to 7997
  139.5312  144.2628  152.0693 H   0  0  0  0  0  0  0  0  0  0  0  0  # atno 10167 bound_to 10162
  156.8704  130.9782  151.3074 H   0  0  0  0  0  0  0  0  0  0  0  0  # atno 10718 bound_to 10713
  153.3149  135.4076  155.1367 H   0  0  0  0  0  0  0  0  0  0  0  0  # atno 10763 bound_to 10752
  154.8585  135.3573  154.5674 H   0  0  0  0  0  0  0  0  0  0  0  0  # atno 10764 bound_to 10752
  153.6104  135.7068  153.5408 H   0  0  0  0  0  0  0  0  0  0  0  0  # atno 10765 bound_to 10752
  139.8776  134.9210  156.5007 H   0  0  0  0  0  0  0  0  0  0  0  0  # atno 11005 bound_to 11000
  144.9165  140.7818  143.5775 LP  0  0  0  0  0  0  0  0  0  0  0  0  # atno 17320 bound_to 7965
  145.2790  139.1925  143.4801 LP  0  0  0  0  0  0  0  0  0  0  0  0  # atno 17321 bound_to 7965
  140.2092  144.4580  150.6394 LP  0  0  0  0  0  0  0  0  0  0  0  0  # atno 17342 bound_to 10162
  140.6491  143.2220  151.6117 LP  0  0  0  0  0  0  0  0  0  0  0  0  # atno 17343 bound_to 10162
  157.6199  130.8647  149.9091 LP  0  0  0  0  0  0  0  0  0  0  0  0  # atno 17370 bound_to 10713
  156.0729  130.3682  150.0737 LP  0  0  0  0  0  0  0  0  0  0  0  0  # atno 17371 bound_to 10713
  140.8591  133.8073  155.9247 LP  0  0  0  0  0  0  0  0  0  0  0  0  # atno 17394 bound_to 11000
  140.9067  134.2311  157.5010 LP  0  0  0  0  0  0  0  0  0  0  0  0  # atno 17395 bound_to 11000

$$$$
