#       Name:                AV-unprocessed.smi:3113
#       Creating user name   scv26
#       Creation time:       Fri Mar 27 17:23:46 2020


#       File generated by GOLD software.
#

@<TRIPOS>MOLECULE
AV-unprocessed.smi:3113
    38    39     1
SMALL
NO_CHARGES


@<TRIPOS>ATOM
      1 ****        -5.7348   2.1551  -0.8766 C.2            1 S1                 0.0000
      2 ****        -5.5651   1.9141   0.5155 C.2            1 S1                 0.0000
      3 ****        -4.2925   1.8188   0.8654 N.2            1 S1                 0.0000
      4 ****        -3.6105   1.9938  -0.2873 N.pl3          1 S1                 0.0000
      5 ****        -2.1614   1.9461  -0.2812 C.3            1 S1                 0.0000
      6 ****        -1.6463   0.5022  -0.2042 C.3            1 S1                 0.0000
      7 ****        -0.1884   0.4630  -0.2245 N.3            1 S1                 0.0000
      8 ****         0.3521  -0.8889  -0.1276 C.3            1 S1                 0.0000
      9 ****         1.8875  -0.8732  -0.1243 C.3            1 S1                 0.0000
     10 ****         2.4696  -2.2800  -0.3623 C.3            1 S1                 0.0000
     11 ****         3.9992  -2.2549  -0.2642 C.3            1 S1                 0.0000
     12 ****         4.4211  -1.6208   1.0654 C.3            1 S1                 0.0000
     13 ****         3.7373  -0.2564   1.2471 C.3            1 S1                 0.0000
     14 ****         2.3239  -0.4057   1.1511 O.3            1 S1                 0.0000
     15 ****        -4.4568   2.2007  -1.3560 C.2            1 S1                 0.0000
     16 ****        -6.6514   2.2755  -1.4349 H              1 S1                 0.0000
     17 ****        -6.3237   1.8060   1.2766 H              1 S1                 0.0000
     18 ****        -1.7951   2.4330  -1.1860 H              1 S1                 0.0000
     19 ****        -1.7965   2.5312   0.5645 H              1 S1                 0.0000
     20 ****        -2.0172   0.0315   0.7073 H              1 S1                 0.0000
     21 ****        -2.0453  -0.0742  -1.0398 H              1 S1                 0.0000
     22 ****         0.1800   1.0290   0.5335 H              1 S1                 0.0000
     23 ****        -0.0147  -1.3863   0.7712 H              1 S1                 0.0000
     24 ****        -0.0017  -1.4767  -0.9755 H              1 S1                 0.0000
     25 ****         2.2446  -0.2001  -0.9064 H              1 S1                 0.0000
     26 ****         2.0678  -2.9749   0.3765 H              1 S1                 0.0000
     27 ****         2.1670  -2.6545  -1.3408 H              1 S1                 0.0000
     28 ****         4.4034  -3.2636  -0.3514 H              1 S1                 0.0000
     29 ****         4.4106  -1.6784  -1.0937 H              1 S1                 0.0000
     30 ****         4.1438  -2.2790   1.8896 H              1 S1                 0.0000
     31 ****         5.5050  -1.5095   1.1036 H              1 S1                 0.0000
     32 ****         3.9818   0.1577   2.2253 H              1 S1                 0.0000
     33 ****         4.0894   0.4585   0.5020 H              1 S1                 0.0000
     34 ****        -4.0837   2.3596  -2.3571 H              1 S1                 0.0000
     35 ****        -3.9193   1.6542   1.7784 LP             1 S1                 0.0000
     36 ****         0.0968   0.8294  -1.1102 LP             1 S1                 0.0000
     37 ****         2.0265  -1.0595   1.8468 LP             1 S1                 0.0000
     38 ****         1.8990   0.4827   1.3252 LP             1 S1                 0.0000
@<TRIPOS>BOND
    1    1   15 2     
    2    1    2 1     
    3    1   16 1     
    4    2    3 2     
    5    2   17 1     
    6    3    4 1     
    7    4    5 1     
    8    4   15 1     
    9    5    6 1     
   10    5   18 1     
   11    5   19 1     
   12    6    7 1     
   13    6   20 1     
   14    6   21 1     
   15    7    8 1     
   16    7   22 1     
   17    8    9 1     
   18    8   23 1     
   19    8   24 1     
   20    9   14 1     
   21    9   10 1     
   22    9   25 1     
   23   10   11 1     
   24   10   26 1     
   25   10   27 1     
   26   11   12 1     
   27   11   28 1     
   28   11   29 1     
   29   12   13 1     
   30   12   30 1     
   31   12   31 1     
   32   13   14 1     
   33   13   32 1     
   34   13   33 1     
   35   15   34 1     
   36    3   35 1     
   37    7   36 1     
   38   14   37 1     
   39   14   38 1     
@<TRIPOS>SUBSTRUCTURE
      1 S1             1
@<TRIPOS>SET
LONE_PAIRS      STATIC     ATOMS    <user>   **** ""
4 35 36 37 38
DONOR_HYDROGENS      STATIC     ATOMS    <user>   **** ""
1 22
ATOM$BLUE        STATIC     ATOMS    COLORGROUP SYSTEM
4 35 36 37 38
ATOM$RED        STATIC     ATOMS    COLORGROUP SYSTEM
1 22
