AV-unprocessed.smi:281|AV-procd|sdf|2102|dock8
  -GOLD-   2262021393D 1   1.00000     0.00000
 Structure written by MMmdl.
 55 59  0  0  0  0  0  0  0  0  1 V2000
  147.7502  133.3994  157.6508 C   0  0  0  0  0  0  0  0  0  0  0  0
  148.2095  134.3122  158.7916 C   0  0  1  0  0  0  0  0  0  0  0  0
  149.0071  135.5207  158.2802 C   0  0  0  0  0  0  0  0  0  0  0  0
  149.3483  136.3803  159.4028 N   0  0  0  0  0  0  0  0  0  0  0  0
  150.2171  137.3717  159.1169 C   0  0  0  0  0  0  0  0  0  0  0  0
  151.4838  137.2297  159.5772 N   0  0  0  0  0  0  0  0  0  0  0  0
  152.3942  138.1759  159.3283 C   0  0  0  0  0  0  0  0  0  0  0  0
  152.2481  139.3196  158.6553 N   0  0  0  0  0  0  0  0  0  0  0  0
  150.9704  139.4689  158.2010 C   0  0  0  0  0  0  0  0  0  0  0  0
  149.8985  138.5510  158.3860 C   0  0  0  0  0  0  0  0  0  0  0  0
  148.7445  139.0432  157.7883 N   0  0  0  0  0  0  0  0  0  0  0  0
  149.1154  140.1832  157.2724 C   0  0  0  0  0  0  0  0  0  0  0  0
  150.4348  140.5195  157.4765 N   0  0  0  0  0  0  0  0  0  0  0  0
  151.1076  141.7233  157.0130 C   0  0  0  0  0  0  0  0  0  0  0  0
  150.8101  142.9669  157.8824 C   0  0  1  0  0  0  0  0  0  0  0  0
  149.4067  143.1497  157.9587 O   0  0  0  0  0  0  0  0  0  0  0  0
  151.3671  142.8862  159.3004 C   0  0  0  0  0  0  0  0  0  0  0  0
  151.6653  144.3420  159.6295 C   0  0  0  0  0  0  0  0  0  0  0  0
  152.1811  144.8369  158.4056 O   0  0  0  0  0  0  0  0  0  0  0  0
  151.4402  144.2623  157.3333 C   0  0  0  0  0  0  0  0  0  0  0  0
  148.1753  136.8318  160.1361 C   0  0  0  0  0  0  0  0  0  0  0  0
  147.3159  135.6292  160.6024 C   0  0  2  0  0  0  0  0  0  0  0  0
  145.9890  136.1113  161.1658 C   0  0  0  0  0  0  0  0  0  0  0  0
  146.3445  136.4814  162.6016 C   0  0  0  0  0  0  0  0  0  0  0  0
  147.4218  135.6248  162.9668 O   0  0  0  0  0  0  0  0  0  0  0  0
  147.9056  134.9040  161.8342 C   0  0  1  0  0  0  0  0  0  0  0  0
  147.4305  133.4506  162.0246 C   0  0  0  0  0  0  0  0  0  0  0  0
  147.0485  134.7695  159.4886 O   0  0  0  0  0  0  0  0  0  0  0  0
  148.6013  133.0149  157.0884 H   0  0  0  0  0  0  0  0  0  0  0  0
  147.1019  133.9334  156.9555 H   0  0  0  0  0  0  0  0  0  0  0  0
  147.1936  132.5453  158.0369 H   0  0  0  0  0  0  0  0  0  0  0  0
  148.8420  133.7323  159.4639 H   0  0  0  0  0  0  0  0  0  0  0  0
  149.9166  135.1878  157.7780 H   0  0  0  0  0  0  0  0  0  0  0  0
  148.4143  136.0719  157.5497 H   0  0  0  0  0  0  0  0  0  0  0  0
  153.3814  137.9901  159.7254 H   0  0  0  0  0  0  0  0  0  0  0  0
  148.4309  140.8178  156.7283 H   0  0  0  0  0  0  0  0  0  0  0  0
  152.1806  141.5280  156.9943 H   0  0  0  0  0  0  0  0  0  0  0  0
  150.8136  141.9046  155.9784 H   0  0  0  0  0  0  0  0  0  0  0  0
  149.1014  143.4693  157.1232 H   0  0  0  0  0  0  0  0  0  0  0  0
  150.6934  142.4097  160.0138 H   0  0  0  0  0  0  0  0  0  0  0  0
  152.3047  142.3293  159.3061 H   0  0  0  0  0  0  0  0  0  0  0  0
  150.7539  144.8813  159.8921 H   0  0  0  0  0  0  0  0  0  0  0  0
  152.3817  144.4535  160.4436 H   0  0  0  0  0  0  0  0  0  0  0  0
  152.1172  144.0722  156.4999 H   0  0  0  0  0  0  0  0  0  0  0  0
  150.6876  144.9716  156.9845 H   0  0  0  0  0  0  0  0  0  0  0  0
  148.4832  137.4385  160.9890 H   0  0  0  0  0  0  0  0  0  0  0  0
  147.5845  137.4776  159.4848 H   0  0  0  0  0  0  0  0  0  0  0  0
  145.5510  136.9395  160.6079 H   0  0  0  0  0  0  0  0  0  0  0  0
  145.2621  135.2981  161.1675 H   0  0  0  0  0  0  0  0  0  0  0  0
  146.6857  137.5155  162.6591 H   0  0  0  0  0  0  0  0  0  0  0  0
  145.4988  136.3672  163.2798 H   0  0  0  0  0  0  0  0  0  0  0  0
  148.9959  134.9218  161.8216 H   0  0  0  0  0  0  0  0  0  0  0  0
  147.7612  132.8012  161.2158 H   0  0  0  0  0  0  0  0  0  0  0  0
  146.3441  133.3833  162.0778 H   0  0  0  0  0  0  0  0  0  0  0  0
  147.8285  133.0368  162.9514 H   0  0  0  0  0  0  0  0  0  0  0  0
  1  2  1  0  0  0  0
  1 29  1  0  0  0  0
  1 30  1  0  0  0  0
  1 31  1  0  0  0  0
  2 28  1  0  0  0  0
  2  3  1  0  0  0  0
  2 32  1  0  0  0  0
  3  4  1  0  0  0  0
  3 33  1  0  0  0  0
  3 34  1  0  0  0  0
  4  5  1  0  0  0  0
  4 21  1  0  0  0  0
  5 10  1  0  0  0  0
  5  6  2  0  0  0  0
  6  7  1  0  0  0  0
  7  8  2  0  0  0  0
  7 35  1  0  0  0  0
  8  9  1  0  0  0  0
  9 13  1  0  0  0  0
  9 10  2  0  0  0  0
 10 11  1  0  0  0  0
 11 12  2  0  0  0  0
 12 13  1  0  0  0  0
 12 36  1  0  0  0  0
 13 14  1  0  0  0  0
 14 15  1  0  0  0  0
 14 37  1  0  0  0  0
 14 38  1  0  0  0  0
 15 20  1  0  0  0  0
 15 16  1  0  0  0  0
 15 17  1  0  0  0  0
 16 39  1  0  0  0  0
 17 18  1  0  0  0  0
 17 40  1  0  0  0  0
 17 41  1  0  0  0  0
 18 19  1  0  0  0  0
 18 42  1  0  0  0  0
 18 43  1  0  0  0  0
 19 20  1  0  0  0  0
 20 44  1  0  0  0  0
 20 45  1  0  0  0  0
 21 22  1  0  0  0  0
 21 46  1  0  0  0  0
 21 47  1  0  0  0  0
 22 26  1  0  0  0  0
 22 23  1  0  0  0  0
 22 28  1  0  0  0  0
 23 24  1  0  0  0  0
 23 48  1  0  0  0  0
 23 49  1  0  0  0  0
 24 25  1  0  0  0  0
 24 50  1  0  0  0  0
 24 51  1  0  0  0  0
 25 26  1  0  0  0  0
 26 27  1  0  0  0  0
 26 52  1  0  0  0  0
 27 53  1  0  0  0  0
 27 54  1  0  0  0  0
 27 55  1  0  0  0  0
M  END
> <s_m_source_file>
AV-unprocessed.smi

> <i_m_source_file_index>
281

> <i_lp_mmshare_version>
43012

> <i_f3d_flags>
0

> <s_epik_input>
W0NIM11bQ0BASF0xT1tDSDJdW0NIMl1bQ0BAXTEyW0NIMl1OKFtDSDJdW0NASF0oTzIpW0NIM10pYyhuW2NIXW4zKWMoYzM0KW5bY0hdbjRbQ0gyXVtDQEBdNShbT0hdKVtDSDJdW0NIMl1PW0NIMl01

> <s_epik_cmdline>
J2VwaWtfcHl0aG9uJywgJy1waCcsICc3LjAnLCAnLXRuJywgJzgnLCAnLW1hJywgJzIwMCcsICctbWV0YWxfYmluZGluZycsICctaW1hZScsICc8aW5maWxlLm1hZT4nLCAnLW9tYWUnLCAnPG91dGZpbGUubWFlPic=

> <r_lp_tautomer_probability>
1

> <r_epik_Ionization_Penalty>
0.00571331

> <r_epik_Ionization_Penalty_Charging>
0

> <r_epik_Ionization_Penalty_Neutral>
0.00571331

> <r_epik_State_Penalty>
0.00399586

> <r_epik_Charging_Adjusted_Penalty>
0.00399586

> <i_epik_Tot_Q>
0

> <i_epik_Tot_abs_Q>
0

> <r_epik_Metal_State_Penalty>
-0

> <b_epik_Metal_Only>
0

> <s_lp_Force_Field>
OPLS_2005

> <r_lp_Energy>
56.2514

> <b_lp_Chiralities_Consistent>
1

> <s_lp_Variant>
AV-unprocessed.smi:281-2

> <Gold.Version>
5.8.1

> <Gold.Id.Protein>
6NUR|6NUR_protein|mol2

> <Gold.PLP.Fitness>
47.2635

> <Gold.PLP.PLP>
-42.0317

> <Gold.PLP.part.hbond>
-2.4048

> <Gold.PLP.part.metal>
0.0000

> <Gold.PLP.part.buried>
-9.1185

> <Gold.PLP.part.nonpolar>
-30.8349

> <Gold.PLP.part.repulsive>
0.0159

> <Gold.PLP.ligand.clash>
0.0000

> <Gold.PLP.ligand.torsion>
0.4526

> <Gold.PLP.Chemscore.Hbond>
2.0000

> <Gold.PLP.Chemscore.CHOScore>
0.0000

> <Gold.PLP.Chemscore.Metal>
0.0000

> <Gold.Chemscore.Hbonds>
donor molecule, donor type, donor heavy atom, donor atom, acceptor molecule, acceptor atom, score
      L1  H    16    39       P1  8028  1.00
      P1  H  6896  6909       L1     6  0.70

> <Gold.PLP.Chemscore.Internal.Correction>
0.1371

> <Gold.Rescore>
     Score         DG    S(hbond)    S(metal)    S(lipo)     H(rot)  DE(clash)    DE(int)     intcor
     16.68     -17.75       1.80        0.00      99.26       2.09       0.01       1.06       ----

> <Gold.Chemscore.Fitness>
16.6784

> <Gold.Chemscore.DG>
-17.7536

> <Gold.Chemscore.ZeroCoef>
-5.4800

> <Gold.Chemscore.Hbond>
1.8016

> <Gold.Chemscore.Metal>
0.0000

> <Gold.Chemscore.Lipo>
99.2619

> <Gold.Chemscore.Internal_Hbond>
0.0000

> <Gold.Chemscore.DEClash>
0.0126

> <Gold.Chemscore.DEInternal>
1.0626

> <Gold.Chemscore.Rot>
2.0927

> <Gold.Chemscore.Internal.Correction>
   9.000000E+99

> <Gold.Chemscore.Hbonds>
donor molecule, donor type, donor heavy atom, donor atom, acceptor molecule, acceptor atom, score
      L1  H    16    39       P1  8028  0.64
      P1  H  6896  6909       L1     6  0.12

> <Gold.Chemscore.Hbond.Weighted>
-6.0173

> <Gold.Chemscore.Metal.Weighted>
-0.0000

> <Gold.Chemscore.Lipo.Weighted>
-11.6136

> <Gold.Chemscore.Internal_Hbond.Weighted>
0.0000

> <Gold.Chemscore.DEClash.Weighted>
0.0126

> <Gold.Chemscore.DEInternal.Weighted>
1.0626

> <Gold.Chemscore.Rot.Weighted>
5.3573

> <Gold.Chemscore.Internal.Correction.Weighted>
   9.000000E+99

> <Gold.Protein.RotatedTorsions>
[ 6907 6896 6895 6894 ] final  108.51 input  -60.11 | X-H torsion
[ 7974 7965 7964 7962 ] final   67.03 input  175.53 | X-H torsion
[ 8008 7997 7996 7995 ] final   85.24 input   59.86 | X-H torsion
[ 10167 10162 10161 10158 ] final -175.37 input  -65.29 | X-H torsion
[ 10718 10713 10712 10709 ] final   56.12 input   66.30 | X-H torsion
[ 10763 10752 10751 10750 ] final   18.66 input  -60.55 | X-H torsion
[ 11005 11000 10999 10996 ] final  -92.61 input  -57.11 | X-H torsion

> <Gold.Protein.ActiveResidues>
 VAL166  LYS551  ARG553  GLY616  TRP617  ASP618  TYR619  PRO620  LYS621  CYS622 
 ASP623  PHE694  ASN695  SER759  ASP760  ASP761  ALA762  ILE779  LEU786  VAL792 
 PHE793  MET794  SER795  GLU796  ALA797  LYS798  CYS799  TRP800  GLU811  SER814 

> <Gold.Protein.RotatedAtoms>
  152.5109  133.9079  159.7472 H   0  0  0  0  0  0  0  0  0  0  0  0  # atno 6907 bound_to 6896
  150.9479  133.6574  159.2784 H   0  0  0  0  0  0  0  0  0  0  0  0  # atno 6908 bound_to 6896
  151.3862  135.0953  159.9564 H   0  0  0  0  0  0  0  0  0  0  0  0  # atno 6909 bound_to 6896
  145.8196  139.3077  143.1051 H   0  0  0  0  0  0  0  0  0  0  0  0  # atno 7974 bound_to 7965
  155.9475  140.3403  155.6379 H   0  0  0  0  0  0  0  0  0  0  0  0  # atno 8008 bound_to 7997
  155.6962  140.0755  157.2447 H   0  0  0  0  0  0  0  0  0  0  0  0  # atno 8009 bound_to 7997
  154.4115  140.1648  156.2128 H   0  0  0  0  0  0  0  0  0  0  0  0  # atno 8010 bound_to 7997
  139.5585  144.1930  152.1199 H   0  0  0  0  0  0  0  0  0  0  0  0  # atno 10167 bound_to 10162
  157.5404  130.8693  149.8814 H   0  0  0  0  0  0  0  0  0  0  0  0  # atno 10718 bound_to 10713
  153.1230  135.6723  153.9304 H   0  0  0  0  0  0  0  0  0  0  0  0  # atno 10763 bound_to 10752
  153.8814  135.3058  155.3446 H   0  0  0  0  0  0  0  0  0  0  0  0  # atno 10764 bound_to 10752
  154.7639  135.4974  153.9596 H   0  0  0  0  0  0  0  0  0  0  0  0  # atno 10765 bound_to 10752
  141.1518  133.7832  157.0043 H   0  0  0  0  0  0  0  0  0  0  0  0  # atno 11005 bound_to 11000
  145.9689  140.8776  143.0172 LP  0  0  0  0  0  0  0  0  0  0  0  0  # atno 17320 bound_to 7965
  144.6749  140.1918  143.7396 LP  0  0  0  0  0  0  0  0  0  0  0  0  # atno 17321 bound_to 7965
  140.1438  144.5177  150.6728 LP  0  0  0  0  0  0  0  0  0  0  0  0  # atno 17342 bound_to 10162
  140.6861  143.2351  151.5256 LP  0  0  0  0  0  0  0  0  0  0  0  0  # atno 17343 bound_to 10162
  156.0492  130.3721  150.1242 LP  0  0  0  0  0  0  0  0  0  0  0  0  # atno 17370 bound_to 10713
  156.9422  130.9748  151.3514 LP  0  0  0  0  0  0  0  0  0  0  0  0  # atno 17371 bound_to 10713
  140.0919  134.9587  157.1789 LP  0  0  0  0  0  0  0  0  0  0  0  0  # atno 17394 bound_to 11000
  140.3434  134.2678  155.7208 LP  0  0  0  0  0  0  0  0  0  0  0  0  # atno 17395 bound_to 11000

$$$$
