AV-unprocessed.smi:3196|AV-procd|sdf|12222|dock10
  -GOLD-   2272018 53D 1   1.00000     0.00000
 Structure written by MMmdl.
 33 34  0  0  0  0  0  0  0  0  1 V2000
  144.8244  145.0980  153.2572 C   0  0  0  0  0  0  0  0  0  0  0  0
  145.0555  143.8607  154.1311 C   0  0  0  0  0  0  0  0  0  0  0  0
  146.4737  143.2934  153.9835 C   0  0  0  0  0  0  0  0  0  0  0  0
  146.5227  141.7931  154.2137 C   0  0  1  0  0  0  0  0  0  0  0  0
  147.6723  140.9680  153.7000 C   0  0  0  0  0  0  0  0  0  0  0  0
  147.4887  141.1545  155.1927 C   0  0  1  0  0  0  0  0  0  0  0  0
  148.4460  141.9788  155.8697 N   0  0  0  0  0  0  0  0  0  0  0  0
  149.3484  141.6062  156.7948 C   0  0  0  0  0  0  0  0  0  0  0  0
  149.4521  140.4300  157.1346 O   0  0  0  0  0  0  0  0  0  0  0  0
  150.1169  142.6154  157.2516 N   0  0  0  0  0  0  0  0  0  0  0  0
  151.1672  142.6046  158.2118 C   0  0  0  0  0  0  0  0  0  0  0  0
  151.8064  141.4387  158.7015 C   0  0  0  0  0  0  0  0  0  0  0  0
  152.8321  141.5819  159.6576 C   0  0  0  0  0  0  0  0  0  0  0  0
  153.2402  142.7743  160.1404 N   0  0  0  0  0  0  0  0  0  0  0  0
  152.6256  143.8827  159.6768 C   0  0  0  0  0  0  0  0  0  0  0  0
  151.5912  143.8511  158.7203 C   0  0  0  0  0  0  0  0  0  0  0  0
  151.0164  145.0038  158.2989 F   0  0  0  0  0  0  0  0  0  0  0  0
  143.8104  145.4784  153.3828 H   0  0  0  0  0  0  0  0  0  0  0  0
  144.9642  144.8655  152.2012 H   0  0  0  0  0  0  0  0  0  0  0  0
  145.5154  145.8996  153.5189 H   0  0  0  0  0  0  0  0  0  0  0  0
  144.8708  144.1189  155.1745 H   0  0  0  0  0  0  0  0  0  0  0  0
  144.3263  143.0935  153.8685 H   0  0  0  0  0  0  0  0  0  0  0  0
  146.8572  143.5235  152.9887 H   0  0  0  0  0  0  0  0  0  0  0  0
  147.1434  143.7733  154.6980 H   0  0  0  0  0  0  0  0  0  0  0  0
  145.5423  141.3227  154.1656 H   0  0  0  0  0  0  0  0  0  0  0  0
  147.4386  139.9907  153.2827 H   0  0  0  0  0  0  0  0  0  0  0  0
  148.4956  141.4927  153.2182 H   0  0  0  0  0  0  0  0  0  0  0  0
  147.1343  140.2692  155.7184 H   0  0  0  0  0  0  0  0  0  0  0  0
  148.4818  142.9427  155.5706 H   0  0  0  0  0  0  0  0  0  0  0  0
  149.9314  143.5189  156.8406 H   0  0  0  0  0  0  0  0  0  0  0  0
  151.5390  140.4459  158.3775 H   0  0  0  0  0  0  0  0  0  0  0  0
  153.3378  140.7109  160.0478 H   0  0  0  0  0  0  0  0  0  0  0  0
  152.9676  144.8238  160.0811 H   0  0  0  0  0  0  0  0  0  0  0  0
  1  2  1  0  0  0  0
  1 18  1  0  0  0  0
  1 19  1  0  0  0  0
  1 20  1  0  0  0  0
  2  3  1  0  0  0  0
  2 21  1  0  0  0  0
  2 22  1  0  0  0  0
  3  4  1  0  0  0  0
  3 23  1  0  0  0  0
  3 24  1  0  0  0  0
  4  6  1  0  0  0  0
  4  5  1  0  0  0  0
  4 25  1  0  0  0  0
  5  6  1  0  0  0  0
  5 26  1  0  0  0  0
  5 27  1  0  0  0  0
  6  7  1  0  0  0  0
  6 28  1  0  0  0  0
  7  8  1  0  0  0  0
  7 29  1  0  0  0  0
  8  9  2  0  0  0  0
  8 10  1  0  0  0  0
 10 11  1  0  0  0  0
 10 30  1  0  0  0  0
 11 16  1  0  0  0  0
 11 12  2  0  0  0  0
 12 13  1  0  0  0  0
 12 31  1  0  0  0  0
 13 14  2  0  0  0  0
 13 32  1  0  0  0  0
 14 15  1  0  0  0  0
 15 16  2  0  0  0  0
 15 33  1  0  0  0  0
 16 17  1  0  0  0  0
M  END
> <s_m_source_file>
AV-unprocessed.smi

> <i_m_source_file_index>
3196

> <i_lp_mmshare_version>
43012

> <i_f3d_flags>
0

> <s_epik_input>
W0NIM11bQ0gyXVtDSDJdW0NAQEhdMVtDSDJdW0NASF0xW05IXUMoPU8pW05IXWMyW2NIXVtjSF1uW2NIXWMyRg==

> <s_epik_cmdline>
J2VwaWtfcHl0aG9uJywgJy1waCcsICc3LjAnLCAnLXRuJywgJzgnLCAnLW1hJywgJzIwMCcsICctbWV0YWxfYmluZGluZycsICctaW1hZScsICc8aW5maWxlLm1hZT4nLCAnLW9tYWUnLCAnPG91dGZpbGUubWFlPic=

> <r_epik_Ionization_Penalty>
0.00341997

> <r_epik_Ionization_Penalty_Charging>
0

> <r_epik_Ionization_Penalty_Neutral>
0.00341997

> <r_epik_State_Penalty>
0.00239198

> <r_epik_Charging_Adjusted_Penalty>
0.00239198

> <i_epik_Tot_Q>
0

> <i_epik_Tot_abs_Q>
0

> <r_epik_Metal_State_Penalty>
-0

> <b_epik_Metal_Only>
0

> <s_lp_Force_Field>
OPLS_2005

> <r_lp_Energy>
35.1311

> <b_lp_Chiralities_Consistent>
1

> <s_lp_Variant>
AV-unprocessed.smi:3196-2

> <Gold.Version>
5.8.1

> <Gold.Id.Protein>
6NUR|6NUR_protein|mol2

> <Gold.PLP.Fitness>
43.3353

> <Gold.PLP.PLP>
-38.1834

> <Gold.PLP.part.hbond>
-2.0000

> <Gold.PLP.part.metal>
0.0000

> <Gold.PLP.part.buried>
-5.4686

> <Gold.PLP.part.nonpolar>
-31.6313

> <Gold.PLP.part.repulsive>
0.0994

> <Gold.PLP.ligand.clash>
0.0000

> <Gold.PLP.ligand.torsion>
0.7019

> <Gold.PLP.Chemscore.Hbond>
2.0000

> <Gold.PLP.Chemscore.CHOScore>
0.0000

> <Gold.PLP.Chemscore.Metal>
0.0000

> <Gold.Chemscore.Hbonds>
donor molecule, donor type, donor heavy atom, donor atom, acceptor molecule, acceptor atom, score
      L1  H     7    29       P1  8028  1.00
      L1  H    10    30       P1  8028  1.00

> <Gold.PLP.Chemscore.Internal.Correction>
0.5557

> <Gold.Rescore>
     Score         DG    S(hbond)    S(metal)    S(lipo)     H(rot)  DE(clash)    DE(int)     intcor
     17.50     -19.33       1.95        0.00      93.05       1.39       0.08       1.75       ----

> <Gold.Chemscore.Fitness>
17.5018

> <Gold.Chemscore.DG>
-19.3349

> <Gold.Chemscore.ZeroCoef>
-5.4800

> <Gold.Chemscore.Hbond>
1.9504

> <Gold.Chemscore.Metal>
0.0000

> <Gold.Chemscore.Lipo>
93.0480

> <Gold.Chemscore.Internal_Hbond>
0.0000

> <Gold.Chemscore.DEClash>
0.0795

> <Gold.Chemscore.DEInternal>
1.7536

> <Gold.Chemscore.Rot>
1.3852

> <Gold.Chemscore.Internal.Correction>
   9.000000E+99

> <Gold.Chemscore.Hbonds>
donor molecule, donor type, donor heavy atom, donor atom, acceptor molecule, acceptor atom, score
      L1  H     7    29       P1  8028  0.99
      L1  H    10    30       P1  8028  0.95

> <Gold.Chemscore.Hbond.Weighted>
-6.5143

> <Gold.Chemscore.Metal.Weighted>
-0.0000

> <Gold.Chemscore.Lipo.Weighted>
-10.8866

> <Gold.Chemscore.Internal_Hbond.Weighted>
0.0000

> <Gold.Chemscore.DEClash.Weighted>
0.0795

> <Gold.Chemscore.DEInternal.Weighted>
1.7536

> <Gold.Chemscore.Rot.Weighted>
3.5460

> <Gold.Chemscore.Internal.Correction.Weighted>
   9.000000E+99

> <Gold.Protein.RotatedTorsions>
[ 6907 6896 6895 6894 ] final   92.34 input  -60.11 | X-H torsion
[ 7974 7965 7964 7962 ] final  108.95 input  175.53 | X-H torsion
[ 8008 7997 7996 7995 ] final   30.21 input   59.86 | X-H torsion
[ 10167 10162 10161 10158 ] final  -31.80 input  -65.29 | X-H torsion
[ 10718 10713 10712 10709 ] final  150.72 input   66.30 | X-H torsion
[ 10763 10752 10751 10750 ] final  -64.42 input  -60.55 | X-H torsion
[ 11005 11000 10999 10996 ] final  -31.47 input  -57.11 | X-H torsion

> <Gold.Protein.ActiveResidues>
 VAL166  LYS551  ARG553  GLY616  TRP617  ASP618  TYR619  PRO620  LYS621  CYS622 
 ASP623  PHE694  ASN695  SER759  ASP760  ASP761  ALA762  ILE779  LEU786  VAL792 
 PHE793  MET794  SER795  GLU796  ALA797  LYS798  CYS799  TRP800  GLU811  SER814 

> <Gold.Protein.RotatedAtoms>
  152.5452  134.1518  159.8521 H   0  0  0  0  0  0  0  0  0  0  0  0  # atno 6907 bound_to 6896
  151.1544  133.4879  159.2602 H   0  0  0  0  0  0  0  0  0  0  0  0  # atno 6908 bound_to 6896
  151.1438  135.0204  159.8692 H   0  0  0  0  0  0  0  0  0  0  0  0  # atno 6909 bound_to 6896
  145.2741  139.2656  143.3950 H   0  0  0  0  0  0  0  0  0  0  0  0  # atno 7974 bound_to 7965
  155.0867  140.3216  155.4585 H   0  0  0  0  0  0  0  0  0  0  0  0  # atno 8008 bound_to 7997
  156.2753  140.2085  156.5941 H   0  0  0  0  0  0  0  0  0  0  0  0  # atno 8009 bound_to 7997
  154.6935  140.0514  157.0374 H   0  0  0  0  0  0  0  0  0  0  0  0  # atno 8010 bound_to 7997
  140.7231  143.3743  151.1719 H   0  0  0  0  0  0  0  0  0  0  0  0  # atno 10167 bound_to 10162
  157.2798  131.0833  151.1539 H   0  0  0  0  0  0  0  0  0  0  0  0  # atno 10718 bound_to 10713
  154.3297  135.6179  153.5546 H   0  0  0  0  0  0  0  0  0  0  0  0  # atno 10763 bound_to 10752
  152.9812  135.5744  154.4975 H   0  0  0  0  0  0  0  0  0  0  0  0  # atno 10764 bound_to 10752
  154.4659  135.2857  155.1655 H   0  0  0  0  0  0  0  0  0  0  0  0  # atno 10765 bound_to 10752
  140.9470  133.7244  156.1162 H   0  0  0  0  0  0  0  0  0  0  0  0  # atno 11005 bound_to 11000
  146.3237  140.3192  142.8632 LP  0  0  0  0  0  0  0  0  0  0  0  0  # atno 17320 bound_to 7965
  144.9309  140.7974  143.5690 LP  0  0  0  0  0  0  0  0  0  0  0  0  # atno 17321 bound_to 7965
  139.7320  143.9057  152.3023 LP  0  0  0  0  0  0  0  0  0  0  0  0  # atno 17342 bound_to 10162
  139.8849  144.6997  150.8835 LP  0  0  0  0  0  0  0  0  0  0  0  0  # atno 17343 bound_to 10162
  157.2978  130.6828  149.6148 LP  0  0  0  0  0  0  0  0  0  0  0  0  # atno 17370 bound_to 10713
  155.9664  130.4401  150.5286 LP  0  0  0  0  0  0  0  0  0  0  0  0  # atno 17371 bound_to 10713
  140.7655  134.3891  157.5518 LP  0  0  0  0  0  0  0  0  0  0  0  0  # atno 17394 bound_to 11000
  139.8836  134.8989  156.2754 LP  0  0  0  0  0  0  0  0  0  0  0  0  # atno 17395 bound_to 11000

$$$$
