AV-unprocessed.smi:1952|AV-procd|sdf|7883|dock2
  -GOLD-   2272010 33D 1   1.00000     0.00000
 Structure written by MMmdl.
 39 40  0  0  0  0  0  0  0  0  1 V2000
  145.0080  133.4567  150.7226 C   0  0  0  0  0  0  0  0  0  0  0  0
  144.7854  134.7379  151.4504 C   0  0  0  0  0  0  0  0  0  0  0  0
  145.5077  135.8945  151.5406 C   0  0  0  0  0  0  0  0  0  0  0  0
  144.7138  136.7016  152.3981 C   0  0  0  0  0  0  0  0  0  0  0  0
  145.1231  138.0140  152.7464 N   0  0  0  0  0  0  0  0  0  0  0  0
  146.1903  138.3714  153.4806 C   0  0  0  0  0  0  0  0  0  0  0  0
  147.0029  137.5894  153.9749 O   0  0  0  0  0  0  0  0  0  0  0  0
  146.2662  139.7049  153.6075 N   0  0  0  0  0  0  0  0  0  0  0  0
  147.3132  140.4393  154.3163 C   0  0  2  0  0  0  0  0  0  0  0  0
  147.1171  141.9423  154.0769 C   0  0  0  0  0  0  0  0  0  0  0  0
  148.7075  139.9774  153.8396 C   0  0  0  0  0  0  0  0  0  0  0  0
  149.7188  139.8254  154.8866 N   0  0  0  0  0  0  0  0  0  0  0  0
  150.8432  139.0220  154.4200 C   0  0  0  0  0  0  0  0  0  0  0  0
  151.9115  138.8407  155.5123 C   0  0  0  0  0  0  0  0  0  0  0  0
  152.3546  140.1165  155.9630 O   0  0  0  0  0  0  0  0  0  0  0  0
  151.2924  140.9204  156.4660 C   0  0  0  0  0  0  0  0  0  0  0  0
  150.2246  141.1069  155.3745 C   0  0  0  0  0  0  0  0  0  0  0  0
  143.6075  136.0924  152.7965 N   0  0  0  0  0  0  0  0  0  0  0  0
  143.6477  134.8309  152.1909 O   0  0  0  0  0  0  0  0  0  0  0  0
  145.9768  133.4556  150.2230 H   0  0  0  0  0  0  0  0  0  0  0  0
  144.2375  133.3027  149.9670 H   0  0  0  0  0  0  0  0  0  0  0  0
  144.9817  132.6115  151.4105 H   0  0  0  0  0  0  0  0  0  0  0  0
  146.4511  136.1233  151.0675 H   0  0  0  0  0  0  0  0  0  0  0  0
  144.5412  138.7613  152.3983 H   0  0  0  0  0  0  0  0  0  0  0  0
  145.5512  140.2614  153.1626 H   0  0  0  0  0  0  0  0  0  0  0  0
  147.2235  140.2817  155.3915 H   0  0  0  0  0  0  0  0  0  0  0  0
  147.8697  142.5244  154.6094 H   0  0  0  0  0  0  0  0  0  0  0  0
  146.1386  142.2719  154.4281 H   0  0  0  0  0  0  0  0  0  0  0  0
  147.1925  142.1907  153.0177 H   0  0  0  0  0  0  0  0  0  0  0  0
  148.5825  139.0206  153.3302 H   0  0  0  0  0  0  0  0  0  0  0  0
  149.0765  140.6688  153.0807 H   0  0  0  0  0  0  0  0  0  0  0  0
  150.4901  138.0421  154.0976 H   0  0  0  0  0  0  0  0  0  0  0  0
  151.2973  139.4927  153.5465 H   0  0  0  0  0  0  0  0  0  0  0  0
  151.5127  138.2691  156.3516 H   0  0  0  0  0  0  0  0  0  0  0  0
  152.7635  138.2850  155.1208 H   0  0  0  0  0  0  0  0  0  0  0  0
  150.8597  140.4522  157.3516 H   0  0  0  0  0  0  0  0  0  0  0  0
  151.6914  141.8862  156.7763 H   0  0  0  0  0  0  0  0  0  0  0  0
  150.6493  141.6770  154.5469 H   0  0  0  0  0  0  0  0  0  0  0  0
  149.4137  141.7082  155.7829 H   0  0  0  0  0  0  0  0  0  0  0  0
  1  2  1  0  0  0  0
  1 20  1  0  0  0  0
  1 21  1  0  0  0  0
  1 22  1  0  0  0  0
  2 19  1  0  0  0  0
  2  3  2  0  0  0  0
  3  4  1  0  0  0  0
  3 23  1  0  0  0  0
  4  5  1  0  0  0  0
  4 18  2  0  0  0  0
  5  6  1  0  0  0  0
  5 24  1  0  0  0  0
  6  7  2  0  0  0  0
  6  8  1  0  0  0  0
  8  9  1  0  0  0  0
  8 25  1  0  0  0  0
  9 10  1  0  0  0  0
  9 11  1  0  0  0  0
  9 26  1  0  0  0  0
 10 27  1  0  0  0  0
 10 28  1  0  0  0  0
 10 29  1  0  0  0  0
 11 12  1  0  0  0  0
 11 30  1  0  0  0  0
 11 31  1  0  0  0  0
 12 17  1  0  0  0  0
 12 13  1  0  0  0  0
 13 14  1  0  0  0  0
 13 32  1  0  0  0  0
 13 33  1  0  0  0  0
 14 15  1  0  0  0  0
 14 34  1  0  0  0  0
 14 35  1  0  0  0  0
 15 16  1  0  0  0  0
 16 17  1  0  0  0  0
 16 36  1  0  0  0  0
 16 37  1  0  0  0  0
 17 38  1  0  0  0  0
 17 39  1  0  0  0  0
 18 19  1  0  0  0  0
M  END
> <s_m_source_file>
AV-unprocessed.smi

> <i_m_source_file_index>
1952

> <i_lp_mmshare_version>
43012

> <i_f3d_flags>
0

> <s_epik_input>
W0NIM11jMVtjSF1jKG5vMSlbTkhdQyg9TylbTkhdW0NASF0oW0NIM10pW0NIMl1OMltDSDJdW0NIMl1PW0NIMl1bQ0gyXTI=

> <s_epik_cmdline>
J2VwaWtfcHl0aG9uJywgJy1waCcsICc3LjAnLCAnLXRuJywgJzgnLCAnLW1hJywgJzIwMCcsICctbWV0YWxfYmluZGluZycsICctaW1hZScsICc8aW5maWxlLm1hZT4nLCAnLW9tYWUnLCAnPG91dGZpbGUubWFlPic=

> <r_epik_Ionization_Penalty>
0.214075

> <r_epik_Ionization_Penalty_Charging>
0

> <r_epik_Ionization_Penalty_Neutral>
0.214075

> <r_epik_State_Penalty>
0.204211

> <r_epik_Charging_Adjusted_Penalty>
0.204211

> <i_epik_Tot_Q>
0

> <i_epik_Tot_abs_Q>
0

> <r_epik_Metal_State_Penalty>
0.218782

> <b_epik_Metal_Only>
0

> <s_lp_Force_Field>
OPLS_2005

> <r_lp_Energy>
23.1599

> <b_lp_Chiralities_Consistent>
1

> <s_lp_Variant>
AV-unprocessed.smi:1952-1

> <Gold.Version>
5.8.1

> <Gold.Id.Protein>
6NUR|6NUR_protein|mol2

> <Gold.PLP.Fitness>
36.9261

> <Gold.PLP.PLP>
-30.7193

> <Gold.PLP.part.hbond>
-3.6699

> <Gold.PLP.part.metal>
0.0000

> <Gold.PLP.part.buried>
-1.1374

> <Gold.PLP.part.nonpolar>
-26.2901

> <Gold.PLP.part.repulsive>
0.5371

> <Gold.PLP.ligand.clash>
0.0000

> <Gold.PLP.ligand.torsion>
1.3781

> <Gold.PLP.Chemscore.Hbond>
2.9760

> <Gold.PLP.Chemscore.CHOScore>
0.0000

> <Gold.PLP.Chemscore.Metal>
0.0000

> <Gold.Chemscore.Hbonds>
donor molecule, donor type, donor heavy atom, donor atom, acceptor molecule, acceptor atom, score
      L1  H     5    24       P1 10175  1.00
      L1  H     8    25       P1 10175  1.00
      P1  H  7997  8008       L1    15  1.00

> <Gold.PLP.Chemscore.Internal.Correction>
0.0351

> <Gold.Rescore>
     Score         DG    S(hbond)    S(metal)    S(lipo)     H(rot)  DE(clash)    DE(int)     intcor
     15.34     -18.32       2.80        0.00      63.96       1.56       0.62       2.36       ----

> <Gold.Chemscore.Fitness>
15.3366

> <Gold.Chemscore.DG>
-18.3157

> <Gold.Chemscore.ZeroCoef>
-5.4800

> <Gold.Chemscore.Hbond>
2.7980

> <Gold.Chemscore.Metal>
0.0000

> <Gold.Chemscore.Lipo>
63.9588

> <Gold.Chemscore.Internal_Hbond>
0.0000

> <Gold.Chemscore.DEClash>
0.6238

> <Gold.Chemscore.DEInternal>
2.3554

> <Gold.Chemscore.Rot>
1.5597

> <Gold.Chemscore.Internal.Correction>
   9.000000E+99

> <Gold.Chemscore.Hbonds>
donor molecule, donor type, donor heavy atom, donor atom, acceptor molecule, acceptor atom, score
      L1  H     5    24       P1 10175  0.98
      L1  H     8    25       P1 10175  0.90
      P1  H  7997  8008       L1    15  0.79

> <Gold.Chemscore.Hbond.Weighted>
-9.3453

> <Gold.Chemscore.Metal.Weighted>
-0.0000

> <Gold.Chemscore.Lipo.Weighted>
-7.4832

> <Gold.Chemscore.Internal_Hbond.Weighted>
0.0000

> <Gold.Chemscore.DEClash.Weighted>
0.6238

> <Gold.Chemscore.DEInternal.Weighted>
2.3554

> <Gold.Chemscore.Rot.Weighted>
3.9928

> <Gold.Chemscore.Internal.Correction.Weighted>
   9.000000E+99

> <Gold.Protein.RotatedTorsions>
[ 6907 6896 6895 6894 ] final   26.06 input  -60.11 | X-H torsion
[ 7974 7965 7964 7962 ] final  130.34 input  175.53 | X-H torsion
[ 8008 7997 7996 7995 ] final  -38.63 input   59.86 | X-H torsion
[ 10167 10162 10161 10158 ] final   58.81 input  -65.29 | X-H torsion
[ 10718 10713 10712 10709 ] final  108.01 input   66.30 | X-H torsion
[ 10763 10752 10751 10750 ] final  -89.54 input  -60.55 | X-H torsion
[ 11005 11000 10999 10996 ] final  148.32 input  -57.11 | X-H torsion

> <Gold.Protein.ActiveResidues>
 VAL166  LYS551  ARG553  GLY616  TRP617  ASP618  TYR619  PRO620  LYS621  CYS622 
 ASP623  PHE694  ASN695  SER759  ASP760  ASP761  ALA762  ILE779  LEU786  VAL792 
 PHE793  MET794  SER795  GLU796  ALA797  LYS798  CYS799  TRP800  GLU811  SER814 

> <Gold.Protein.RotatedAtoms>
  151.9819  135.0024  160.0557 H   0  0  0  0  0  0  0  0  0  0  0  0  # atno 6907 bound_to 6896
  152.1688  133.4625  159.4907 H   0  0  0  0  0  0  0  0  0  0  0  0  # atno 6908 bound_to 6896
  150.6898  134.1896  159.4323 H   0  0  0  0  0  0  0  0  0  0  0  0  # atno 6909 bound_to 6896
  145.0190  139.4149  143.5207 H   0  0  0  0  0  0  0  0  0  0  0  0  # atno 7974 bound_to 7965
  154.4034  140.1573  156.2731 H   0  0  0  0  0  0  0  0  0  0  0  0  # atno 8008 bound_to 7997
  155.8936  140.3437  155.5952 H   0  0  0  0  0  0  0  0  0  0  0  0  # atno 8009 bound_to 7997
  155.7530  140.0807  157.2183 H   0  0  0  0  0  0  0  0  0  0  0  0  # atno 8010 bound_to 7997
  140.1832  144.4161  150.6605 H   0  0  0  0  0  0  0  0  0  0  0  0  # atno 10167 bound_to 10162
  157.6604  131.0885  150.6241 H   0  0  0  0  0  0  0  0  0  0  0  0  # atno 10718 bound_to 10713
  154.6564  135.5337  153.7964 H   0  0  0  0  0  0  0  0  0  0  0  0  # atno 10763 bound_to 10752
  153.0416  135.6495  154.0939 H   0  0  0  0  0  0  0  0  0  0  0  0  # atno 10764 bound_to 10752
  154.0852  135.2944  155.3262 H   0  0  0  0  0  0  0  0  0  0  0  0  # atno 10765 bound_to 10752
  140.0949  134.9018  157.1708 H   0  0  0  0  0  0  0  0  0  0  0  0  # atno 11005 bound_to 11000
  146.3482  139.9677  142.8710 LP  0  0  0  0  0  0  0  0  0  0  0  0  # atno 17320 bound_to 7965
  145.1921  140.9816  143.4205 LP  0  0  0  0  0  0  0  0  0  0  0  0  # atno 17321 bound_to 7965
  140.6506  143.2224  151.6086 LP  0  0  0  0  0  0  0  0  0  0  0  0  # atno 17342 bound_to 10162
  139.5287  144.2980  152.1097 LP  0  0  0  0  0  0  0  0  0  0  0  0  # atno 17343 bound_to 10162
  156.6544  130.4494  149.5708 LP  0  0  0  0  0  0  0  0  0  0  0  0  # atno 17370 bound_to 10713
  156.2113  130.6681  151.1272 LP  0  0  0  0  0  0  0  0  0  0  0  0  # atno 17371 bound_to 10713
  140.3300  134.2821  155.7230 LP  0  0  0  0  0  0  0  0  0  0  0  0  # atno 17394 bound_to 11000
  141.2089  133.7764  157.0030 LP  0  0  0  0  0  0  0  0  0  0  0  0  # atno 17395 bound_to 11000

$$$$
