AV-unprocessed.smi:1812|AV-procd|sdf|7336|dock10
  -GOLD-   22720 8593D 1   1.00000     0.00000
 Structure written by MMmdl.
 34 36  0  0  0  0  0  0  0  0  1 V2000
  146.6740  139.2433  154.2310 O   0  0  0  0  0  0  0  0  0  0  0  0
  147.4252  138.5382  153.5566 C   0  0  0  0  0  0  0  0  0  0  0  0
  146.9886  137.6165  152.6865 N   0  0  0  0  0  0  0  0  0  0  0  0
  145.5862  137.3328  152.4038 C   0  0  0  0  0  0  0  0  0  0  0  0
  145.4307  136.1055  151.4908 C   0  0  2  0  0  0  0  0  0  0  0  0
  143.9971  135.5854  151.3994 C   0  0  0  0  0  0  0  0  0  0  0  0
  144.2222  134.1372  151.0298 C   0  0  0  0  0  0  0  0  0  0  0  0
  145.4523  133.7939  151.8641 C   0  0  0  0  0  0  0  0  0  0  0  0
  146.1899  135.0069  151.9923 O   0  0  0  0  0  0  0  0  0  0  0  0
  148.7688  138.5838  153.5843 N   0  0  0  0  0  0  0  0  0  0  0  0
  149.6046  139.4245  154.3662 C   0  0  0  0  0  0  0  0  0  0  0  0
  150.9339  139.2795  154.4545 N   0  0  0  0  0  0  0  0  0  0  0  0
  151.5051  140.2342  155.2842 N   0  0  0  0  0  0  0  0  0  0  0  0
  150.5956  141.0715  155.7971 C   0  0  0  0  0  0  0  0  0  0  0  0
  150.9691  142.1845  156.7186 C   0  0  0  0  0  0  0  0  0  0  0  0
  151.7566  141.9346  157.9864 C   0  0  0  0  0  0  0  0  0  0  0  0
  150.3033  142.3265  158.0682 C   0  0  0  0  0  0  0  0  0  0  0  0
  148.9369  140.7526  155.2996 S   0  0  0  0  0  0  0  0  0  0  0  0
  147.6726  137.0834  152.1697 H   0  0  0  0  0  0  0  0  0  0  0  0
  145.0713  137.1639  153.3499 H   0  0  0  0  0  0  0  0  0  0  0  0
  145.1166  138.2058  151.9473 H   0  0  0  0  0  0  0  0  0  0  0  0
  145.7872  136.3280  150.4835 H   0  0  0  0  0  0  0  0  0  0  0  0
  143.4993  135.6493  152.3683 H   0  0  0  0  0  0  0  0  0  0  0  0
  143.3950  136.1257  150.6684 H   0  0  0  0  0  0  0  0  0  0  0  0
  143.3659  133.4982  151.2469 H   0  0  0  0  0  0  0  0  0  0  0  0
  144.4524  134.0538  149.9667 H   0  0  0  0  0  0  0  0  0  0  0  0
  145.1566  133.4639  152.8608 H   0  0  0  0  0  0  0  0  0  0  0  0
  146.0549  133.0061  151.4117 H   0  0  0  0  0  0  0  0  0  0  0  0
  149.2510  137.9436  152.9710 H   0  0  0  0  0  0  0  0  0  0  0  0
  151.1829  143.0922  156.1577 H   0  0  0  0  0  0  0  0  0  0  0  0
  152.0085  140.9080  158.2441 H   0  0  0  0  0  0  0  0  0  0  0  0
  152.4945  142.6810  158.2734 H   0  0  0  0  0  0  0  0  0  0  0  0
  150.0721  143.3334  158.4099 H   0  0  0  0  0  0  0  0  0  0  0  0
  149.5925  141.5578  158.3649 H   0  0  0  0  0  0  0  0  0  0  0  0
  1  2  2  0  0  0  0
  2  3  1  0  0  0  0
  2 10  1  0  0  0  0
  3  4  1  0  0  0  0
  3 19  1  0  0  0  0
  4  5  1  0  0  0  0
  4 20  1  0  0  0  0
  4 21  1  0  0  0  0
  5  9  1  0  0  0  0
  5  6  1  0  0  0  0
  5 22  1  0  0  0  0
  6  7  1  0  0  0  0
  6 23  1  0  0  0  0
  6 24  1  0  0  0  0
  7  8  1  0  0  0  0
  7 25  1  0  0  0  0
  7 26  1  0  0  0  0
  8  9  1  0  0  0  0
  8 27  1  0  0  0  0
  8 28  1  0  0  0  0
 10 11  1  0  0  0  0
 10 29  1  0  0  0  0
 11 18  1  0  0  0  0
 11 12  2  0  0  0  0
 12 13  1  0  0  0  0
 13 14  2  0  0  0  0
 14 15  1  0  0  0  0
 14 18  1  0  0  0  0
 15 17  1  0  0  0  0
 15 16  1  0  0  0  0
 15 30  1  0  0  0  0
 16 17  1  0  0  0  0
 16 31  1  0  0  0  0
 16 32  1  0  0  0  0
 17 33  1  0  0  0  0
 17 34  1  0  0  0  0
M  END
> <s_m_source_file>
AV-unprocessed.smi

> <i_m_source_file_index>
1812

> <i_lp_mmshare_version>
43012

> <i_f3d_flags>
0

> <s_epik_input>
TzFbQ0gyXVtDSDJdW0NIMl1bQ0BIXTFbQ0gyXVtOSF1DKD1PKVtOSF1jMm5uYyhzMilbQ0hdM1tDSDJdW0NIMl0z

> <s_epik_cmdline>
J2VwaWtfcHl0aG9uJywgJy1waCcsICc3LjAnLCAnLXRuJywgJzgnLCAnLW1hJywgJzIwMCcsICctbWV0YWxfYmluZGluZycsICctaW1hZScsICc8aW5maWxlLm1hZT4nLCAnLW9tYWUnLCAnPG91dGZpbGUubWFlPic=

> <r_lp_tautomer_probability>
1

> <r_epik_Ionization_Penalty>
0.000281817

> <r_epik_Ionization_Penalty_Charging>
0

> <r_epik_Ionization_Penalty_Neutral>
0.000281817

> <r_epik_State_Penalty>
-0

> <r_epik_Charging_Adjusted_Penalty>
0

> <i_epik_Tot_Q>
0

> <i_epik_Tot_abs_Q>
0

> <r_epik_Metal_State_Penalty>
0.157535

> <b_epik_Metal_Only>
0

> <s_lp_Force_Field>
OPLS_2005

> <r_lp_Energy>
14.57

> <b_lp_Chiralities_Consistent>
1

> <s_lp_Variant>
AV-unprocessed.smi:1812-1

> <Gold.Version>
5.8.1

> <Gold.Id.Protein>
6NUR|6NUR_protein|mol2

> <Gold.PLP.Fitness>
36.3574

> <Gold.PLP.PLP>
-30.9677

> <Gold.PLP.part.hbond>
-4.9689

> <Gold.PLP.part.metal>
0.0000

> <Gold.PLP.part.buried>
-5.4010

> <Gold.PLP.part.nonpolar>
-22.6291

> <Gold.PLP.part.repulsive>
1.5049

> <Gold.PLP.ligand.clash>
0.0000

> <Gold.PLP.ligand.torsion>
0.1684

> <Gold.PLP.Chemscore.Hbond>
1.8640

> <Gold.PLP.Chemscore.CHOScore>
0.0000

> <Gold.PLP.Chemscore.Metal>
0.0000

> <Gold.Chemscore.Hbonds>
donor molecule, donor type, donor heavy atom, donor atom, acceptor molecule, acceptor atom, score
      L1  H     3    19       P1  7948  1.00
      L1  H    10    29       P1  7948  0.86

> <Gold.PLP.Chemscore.Internal.Correction>
0.1345

> <Gold.Rescore>
     Score         DG    S(hbond)    S(metal)    S(lipo)     H(rot)  DE(clash)    DE(int)     intcor
     13.76     -15.18       1.87        0.00      61.69       1.47       0.02       1.40       ----

> <Gold.Chemscore.Fitness>
13.7640

> <Gold.Chemscore.DG>
-15.1845

> <Gold.Chemscore.ZeroCoef>
-5.4800

> <Gold.Chemscore.Hbond>
1.8730

> <Gold.Chemscore.Metal>
0.0000

> <Gold.Chemscore.Lipo>
61.6945

> <Gold.Chemscore.Internal_Hbond>
0.0000

> <Gold.Chemscore.DEClash>
0.0209

> <Gold.Chemscore.DEInternal>
1.3996

> <Gold.Chemscore.Rot>
1.4725

> <Gold.Chemscore.Internal.Correction>
   9.000000E+99

> <Gold.Chemscore.Hbonds>
donor molecule, donor type, donor heavy atom, donor atom, acceptor molecule, acceptor atom, score
      L1  H     3    19       P1  7948  0.95
      L1  H    10    29       P1  7948  0.78

> <Gold.Chemscore.Hbond.Weighted>
-6.2558

> <Gold.Chemscore.Metal.Weighted>
-0.0000

> <Gold.Chemscore.Lipo.Weighted>
-7.2183

> <Gold.Chemscore.Internal_Hbond.Weighted>
0.0000

> <Gold.Chemscore.DEClash.Weighted>
0.0209

> <Gold.Chemscore.DEInternal.Weighted>
1.3996

> <Gold.Chemscore.Rot.Weighted>
3.7695

> <Gold.Chemscore.Internal.Correction.Weighted>
   9.000000E+99

> <Gold.Protein.RotatedTorsions>
[ 6907 6896 6895 6894 ] final  -54.10 input  -60.11 | X-H torsion
[ 7974 7965 7964 7962 ] final  150.37 input  175.53 | X-H torsion
[ 8008 7997 7996 7995 ] final   77.53 input   59.86 | X-H torsion
[ 10167 10162 10161 10158 ] final -143.90 input  -65.29 | X-H torsion
[ 10718 10713 10712 10709 ] final   35.34 input   66.30 | X-H torsion
[ 10763 10752 10751 10750 ] final   59.05 input  -60.55 | X-H torsion
[ 11005 11000 10999 10996 ] final   92.53 input  -57.11 | X-H torsion

> <Gold.Protein.ActiveResidues>
 VAL166  LYS551  ARG553  GLY616  TRP617  ASP618  TYR619  PRO620  LYS621  CYS622 
 ASP623  PHE694  ASN695  SER759  ASP760  ASP761  ALA762  ILE779  LEU786  VAL792 
 PHE793  MET794  SER795  GLU796  ALA797  LYS798  CYS799  TRP800  GLU811  SER814 

> <Gold.Protein.RotatedAtoms>
  150.8368  134.7644  159.6899 H   0  0  0  0  0  0  0  0  0  0  0  0  # atno 6907 bound_to 6896
  152.4463  134.5484  159.9869 H   0  0  0  0  0  0  0  0  0  0  0  0  # atno 6908 bound_to 6896
  151.5633  133.3362  159.3011 H   0  0  0  0  0  0  0  0  0  0  0  0  # atno 6909 bound_to 6896
  144.8369  139.6399  143.6034 H   0  0  0  0  0  0  0  0  0  0  0  0  # atno 7974 bound_to 7965
  155.8428  140.3461  155.5643 H   0  0  0  0  0  0  0  0  0  0  0  0  # atno 8008 bound_to 7997
  155.8122  140.0900  157.1917 H   0  0  0  0  0  0  0  0  0  0  0  0  # atno 8009 bound_to 7997
  154.4005  140.1445  156.3387 H   0  0  0  0  0  0  0  0  0  0  0  0  # atno 8010 bound_to 7997
  139.7949  143.7914  152.2653 H   0  0  0  0  0  0  0  0  0  0  0  0  # atno 10167 bound_to 10162
  157.3214  130.7450  149.6787 H   0  0  0  0  0  0  0  0  0  0  0  0  # atno 10718 bound_to 10713
  152.9885  135.5585  154.5650 H   0  0  0  0  0  0  0  0  0  0  0  0  # atno 10763 bound_to 10752
  154.5062  135.2800  155.1383 H   0  0  0  0  0  0  0  0  0  0  0  0  # atno 10764 bound_to 10752
  154.2793  135.6348  153.5393 H   0  0  0  0  0  0  0  0  0  0  0  0  # atno 10765 bound_to 10752
  139.8822  134.8738  156.3586 H   0  0  0  0  0  0  0  0  0  0  0  0  # atno 11005 bound_to 11000
  146.2667  139.6536  142.9324 LP  0  0  0  0  0  0  0  0  0  0  0  0  # atno 17320 bound_to 7965
  145.4775  141.0437  143.2664 LP  0  0  0  0  0  0  0  0  0  0  0  0  # atno 17321 bound_to 7965
  139.8016  144.7372  150.9817 LP  0  0  0  0  0  0  0  0  0  0  0  0  # atno 17342 bound_to 10162
  140.7820  143.4339  151.0652 LP  0  0  0  0  0  0  0  0  0  0  0  0  # atno 17343 bound_to 10162
  155.9686  130.4222  150.4504 LP  0  0  0  0  0  0  0  0  0  0  0  0  # atno 17370 bound_to 10713
  157.2521  131.0548  151.2373 LP  0  0  0  0  0  0  0  0  0  0  0  0  # atno 17371 bound_to 10713
  140.9545  133.7429  156.0317 LP  0  0  0  0  0  0  0  0  0  0  0  0  # atno 17394 bound_to 11000
  140.8065  134.3448  157.5424 LP  0  0  0  0  0  0  0  0  0  0  0  0  # atno 17395 bound_to 11000

$$$$
