AV-unprocessed.smi:2580|AV-procd|sdf|10129|dock4
  -GOLD-   2272014143D 1   1.00000     0.00000
 Structure written by MMmdl.
 29 30  0  0  0  0  0  0  0  0  1 V2000
  148.7464  141.1732  157.2592 C   0  0  0  0  0  0  0  0  0  0  0  0
  149.5026  140.7441  155.9886 C   0  0  2  0  0  0  0  0  0  0  0  0
  149.4965  139.2520  155.7256 C   0  0  0  0  0  0  0  0  0  0  0  0
  150.5976  139.1344  154.6784 C   0  0  0  0  0  0  0  0  0  0  0  0
  151.5660  140.1202  155.0284 O   0  0  0  0  0  0  0  0  0  0  0  0
  151.0029  141.0999  155.9029 C   0  0  2  0  0  0  0  0  0  0  0  0
  151.7751  141.0347  157.2316 C   0  0  0  0  0  0  0  0  0  0  0  0
  152.5285  140.0870  157.4586 O   0  0  0  0  0  0  0  0  0  0  0  0
  151.5729  142.0672  158.0710 N   0  0  0  0  0  0  0  0  0  0  0  0
  152.1252  142.2813  159.3638 C   0  0  0  0  0  0  0  0  0  0  0  0
  152.8733  141.3521  160.0111 N   0  0  0  0  0  0  0  0  0  0  0  0
  153.3615  141.6305  161.2377 C   0  0  0  0  0  0  0  0  0  0  0  0
  153.1342  142.8516  161.8965 C   0  0  0  0  0  0  0  0  0  0  0  0
  152.3603  143.8238  161.2391 C   0  0  0  0  0  0  0  0  0  0  0  0
  151.8476  143.5390  159.9578 C   0  0  0  0  0  0  0  0  0  0  0  0
  150.8935  144.7337  159.1476 Cl  0  0  0  0  0  0  0  0  0  0  0  0
  149.1151  140.6629  158.1493 H   0  0  0  0  0  0  0  0  0  0  0  0
  147.6843  140.9431  157.1713 H   0  0  0  0  0  0  0  0  0  0  0  0
  148.8387  142.2469  157.4244 H   0  0  0  0  0  0  0  0  0  0  0  0
  149.0109  141.2292  155.1435 H   0  0  0  0  0  0  0  0  0  0  0  0
  149.7646  138.6958  156.6247 H   0  0  0  0  0  0  0  0  0  0  0  0
  148.5340  138.8831  155.3702 H   0  0  0  0  0  0  0  0  0  0  0  0
  151.0369  138.1375  154.6415 H   0  0  0  0  0  0  0  0  0  0  0  0
  150.2054  139.3692  153.6881 H   0  0  0  0  0  0  0  0  0  0  0  0
  151.1257  142.0887  155.4574 H   0  0  0  0  0  0  0  0  0  0  0  0
  150.9401  142.7848  157.7486 H   0  0  0  0  0  0  0  0  0  0  0  0
  153.9503  140.8563  161.7069 H   0  0  0  0  0  0  0  0  0  0  0  0
  153.5424  143.0369  162.8790 H   0  0  0  0  0  0  0  0  0  0  0  0
  152.1627  144.7748  161.7114 H   0  0  0  0  0  0  0  0  0  0  0  0
  1  2  1  0  0  0  0
  1 17  1  0  0  0  0
  1 18  1  0  0  0  0
  1 19  1  0  0  0  0
  2  6  1  0  0  0  0
  2  3  1  0  0  0  0
  2 20  1  0  0  0  0
  3  4  1  0  0  0  0
  3 21  1  0  0  0  0
  3 22  1  0  0  0  0
  4  5  1  0  0  0  0
  4 23  1  0  0  0  0
  4 24  1  0  0  0  0
  5  6  1  0  0  0  0
  6  7  1  0  0  0  0
  6 25  1  0  0  0  0
  7  8  2  0  0  0  0
  7  9  1  0  0  0  0
  9 10  1  0  0  0  0
  9 26  1  0  0  0  0
 10 15  1  0  0  0  0
 10 11  2  0  0  0  0
 11 12  1  0  0  0  0
 12 13  2  0  0  0  0
 12 27  1  0  0  0  0
 13 14  1  0  0  0  0
 13 28  1  0  0  0  0
 14 15  2  0  0  0  0
 14 29  1  0  0  0  0
 15 16  1  0  0  0  0
M  END
> <s_m_source_file>
AV-unprocessed.smi

> <i_m_source_file_index>
2580

> <i_lp_mmshare_version>
43012

> <i_f3d_flags>
0

> <s_epik_input>
W0NIM11bQ0BASF0xW0NIMl1bQ0gyXU9bQ0BIXTFDKD1PKVtOSF1jMm5bY0hdW2NIXVtjSF1jMkNs

> <s_epik_cmdline>
J2VwaWtfcHl0aG9uJywgJy1waCcsICc3LjAnLCAnLXRuJywgJzgnLCAnLW1hJywgJzIwMCcsICctbWV0YWxfYmluZGluZycsICctaW1hZScsICc8aW5maWxlLm1hZT4nLCAnLW9tYWUnLCAnPG91dGZpbGUubWFlPic=

> <r_lp_tautomer_probability>
1

> <r_epik_Ionization_Penalty>
4.32497e-05

> <r_epik_Ionization_Penalty_Charging>
0

> <r_epik_Ionization_Penalty_Neutral>
4.32497e-05

> <r_epik_State_Penalty>
-0

> <r_epik_Charging_Adjusted_Penalty>
0

> <i_epik_Tot_Q>
0

> <i_epik_Tot_abs_Q>
0

> <r_epik_Metal_State_Penalty>
-0

> <b_epik_Metal_Only>
0

> <s_lp_Force_Field>
OPLS_2005

> <r_lp_Energy>
21.8439

> <b_lp_Chiralities_Consistent>
1

> <s_lp_Variant>
AV-unprocessed.smi:2580-3

> <Gold.Version>
5.8.1

> <Gold.Id.Protein>
6NUR|6NUR_protein|mol2

> <Gold.PLP.Fitness>
39.1087

> <Gold.PLP.PLP>
-34.2939

> <Gold.PLP.part.hbond>
-2.0000

> <Gold.PLP.part.metal>
0.0000

> <Gold.PLP.part.buried>
-6.1239

> <Gold.PLP.part.nonpolar>
-25.9375

> <Gold.PLP.part.repulsive>
0.1061

> <Gold.PLP.ligand.clash>
0.0000

> <Gold.PLP.ligand.torsion>
0.3733

> <Gold.PLP.Chemscore.Hbond>
1.8500

> <Gold.PLP.Chemscore.CHOScore>
0.0000

> <Gold.PLP.Chemscore.Metal>
0.0000

> <Gold.Chemscore.Hbonds>
donor molecule, donor type, donor heavy atom, donor atom, acceptor molecule, acceptor atom, score
      P1  H  7989  7998       L1     5  0.85
      P1  H  7997  8009       L1     8  1.00

> <Gold.PLP.Chemscore.Internal.Correction>
0.0113

> <Gold.Rescore>
     Score         DG    S(hbond)    S(metal)    S(lipo)     H(rot)  DE(clash)    DE(int)     intcor
     15.20     -16.96       1.41        0.00      79.81       1.00       0.02       1.74       ----

> <Gold.Chemscore.Fitness>
15.1997

> <Gold.Chemscore.DG>
-16.9608

> <Gold.Chemscore.ZeroCoef>
-5.4800

> <Gold.Chemscore.Hbond>
1.4082

> <Gold.Chemscore.Metal>
0.0000

> <Gold.Chemscore.Lipo>
79.8059

> <Gold.Chemscore.Internal_Hbond>
0.0000

> <Gold.Chemscore.DEClash>
0.0249

> <Gold.Chemscore.DEInternal>
1.7362

> <Gold.Chemscore.Rot>
1.0000

> <Gold.Chemscore.Internal.Correction>
   9.000000E+99

> <Gold.Chemscore.Hbonds>
donor molecule, donor type, donor heavy atom, donor atom, acceptor molecule, acceptor atom, score
      P1  H  7989  7998       L1     5  0.07
      P1  H  7997  8009       L1     8  0.91

> <Gold.Chemscore.Hbond.Weighted>
-4.7035

> <Gold.Chemscore.Metal.Weighted>
-0.0000

> <Gold.Chemscore.Lipo.Weighted>
-9.3373

> <Gold.Chemscore.Internal_Hbond.Weighted>
0.0000

> <Gold.Chemscore.DEClash.Weighted>
0.0249

> <Gold.Chemscore.DEInternal.Weighted>
1.7362

> <Gold.Chemscore.Rot.Weighted>
2.5600

> <Gold.Chemscore.Internal.Correction.Weighted>
   9.000000E+99

> <Gold.Protein.RotatedTorsions>
[ 6907 6896 6895 6894 ] final -103.07 input  -60.11 | X-H torsion
[ 7974 7965 7964 7962 ] final   43.97 input  175.53 | X-H torsion
[ 8008 7997 7996 7995 ] final  175.55 input   59.86 | X-H torsion
[ 10167 10162 10161 10158 ] final   42.27 input  -65.29 | X-H torsion
[ 10718 10713 10712 10709 ] final  -78.57 input   66.30 | X-H torsion
[ 10763 10752 10751 10750 ] final -177.89 input  -60.55 | X-H torsion
[ 11005 11000 10999 10996 ] final   28.30 input  -57.11 | X-H torsion

> <Gold.Protein.ActiveResidues>
 VAL166  LYS551  ARG553  GLY616  TRP617  ASP618  TYR619  PRO620  LYS621  CYS622 
 ASP623  PHE694  ASN695  SER759  ASP760  ASP761  ALA762  ILE779  LEU786  VAL792 
 PHE793  MET794  SER795  GLU796  ALA797  LYS798  CYS799  TRP800  GLU811  SER814 

> <Gold.Protein.RotatedAtoms>
  150.7224  134.0485  159.3789 H   0  0  0  0  0  0  0  0  0  0  0  0  # atno 6907 bound_to 6896
  151.8461  135.0571  160.0463 H   0  0  0  0  0  0  0  0  0  0  0  0  # atno 6908 bound_to 6896
  152.2826  133.5449  159.5543 H   0  0  0  0  0  0  0  0  0  0  0  0  # atno 6909 bound_to 6896
  146.0609  139.5126  142.9659 H   0  0  0  0  0  0  0  0  0  0  0  0  # atno 7974 bound_to 7965
  156.0858  140.1406  156.9655 H   0  0  0  0  0  0  0  0  0  0  0  0  # atno 8008 bound_to 7997
  154.4612  140.0942  156.6946 H   0  0  0  0  0  0  0  0  0  0  0  0  # atno 8009 bound_to 7997
  155.5001  140.3450  155.4372 H   0  0  0  0  0  0  0  0  0  0  0  0  # atno 8010 bound_to 7997
  140.3560  144.2289  150.6141 H   0  0  0  0  0  0  0  0  0  0  0  0  # atno 10167 bound_to 10162
  156.0114  130.4522  150.3516 H   0  0  0  0  0  0  0  0  0  0  0  0  # atno 10718 bound_to 10713
  154.5545  135.2815  155.0977 H   0  0  0  0  0  0  0  0  0  0  0  0  # atno 10763 bound_to 10752
  154.2410  135.6357  153.5211 H   0  0  0  0  0  0  0  0  0  0  0  0  # atno 10764 bound_to 10752
  153.0012  135.5560  154.6121 H   0  0  0  0  0  0  0  0  0  0  0  0  # atno 10765 bound_to 10752
  140.3171  134.2585  155.7723 H   0  0  0  0  0  0  0  0  0  0  0  0  # atno 11005 bound_to 11000
  145.6562  141.0251  143.1733 LP  0  0  0  0  0  0  0  0  0  0  0  0  # atno 17320 bound_to 7965
  144.7174  139.8148  143.7394 LP  0  0  0  0  0  0  0  0  0  0  0  0  # atno 17321 bound_to 7965
  140.5173  143.2275  151.8444 LP  0  0  0  0  0  0  0  0  0  0  0  0  # atno 17342 bound_to 10162
  139.4820  144.4879  151.9223 LP  0  0  0  0  0  0  0  0  0  0  0  0  # atno 17343 bound_to 10162
  157.1609  131.0344  151.2841 LP  0  0  0  0  0  0  0  0  0  0  0  0  # atno 17370 bound_to 10713
  157.4312  130.7492  149.6992 LP  0  0  0  0  0  0  0  0  0  0  0  0  # atno 17371 bound_to 10713
  141.2095  133.7747  156.9992 LP  0  0  0  0  0  0  0  0  0  0  0  0  # atno 17394 bound_to 11000
  140.0974  134.9556  157.1871 LP  0  0  0  0  0  0  0  0  0  0  0  0  # atno 17395 bound_to 11000

$$$$
