AV-unprocessed.smi:1890|AV-procd|sdf|7664|dock7
  -GOLD-   22720 9403D 1   1.00000     0.00000
 Structure written by MMmdl.
 51 52  0  0  0  0  0  0  0  0  1 V2000
  152.9587  141.8967  159.7424 C   0  0  0  0  0  0  0  0  0  0  0  0
  151.5668  141.8758  159.0914 C   0  0  0  0  0  0  0  0  0  0  0  0
  151.5718  142.3554  157.7086 N   0  0  0  0  0  0  0  0  0  0  0  0
  151.5370  143.8048  157.5065 C   0  0  0  0  0  0  0  0  0  0  0  0
  152.0316  144.5844  158.7339 C   0  0  0  0  0  0  0  0  0  0  0  0
  150.9663  141.5773  156.6932 C   0  0  0  0  0  0  0  0  0  0  0  0
  151.5767  140.4118  156.1667 C   0  0  0  0  0  0  0  0  0  0  0  0
  150.9104  139.6798  155.1658 C   0  0  0  0  0  0  0  0  0  0  0  0
  149.6571  140.1235  154.7033 C   0  0  0  0  0  0  0  0  0  0  0  0
  148.9987  139.3469  153.7114 N   0  0  0  0  0  0  0  0  0  0  0  0
  147.6814  139.2361  153.4687 C   0  0  0  0  0  0  0  0  0  0  0  0
  146.7946  139.8675  154.0430 O   0  0  0  0  0  0  0  0  0  0  0  0
  147.4438  138.3522  152.4892 N   0  0  0  0  0  0  0  0  0  0  0  0
  146.1240  137.9950  151.9777 C   0  0  0  0  0  0  0  0  0  0  0  0
  145.2378  137.4916  153.1374 C   0  0  0  0  0  0  0  0  0  0  0  0
  143.9058  136.9208  152.6180 C   0  0  0  0  0  0  0  0  0  0  0  0
  144.1949  135.8613  151.6453 N   0  0  0  0  0  0  0  0  0  0  0  0
  143.9887  134.5486  151.9094 C   0  0  0  0  0  0  0  0  0  0  0  0
  144.4087  133.5021  150.8750 C   0  0  0  0  0  0  0  0  0  0  0  0
  143.4783  134.1529  152.9576 O   0  0  0  0  0  0  0  0  0  0  0  0
  144.8617  136.3937  150.4507 C   0  0  0  0  0  0  0  0  0  0  0  0
  146.2435  136.9374  150.8558 C   0  0  0  0  0  0  0  0  0  0  0  0
  149.1198  141.2920  155.2925 C   0  0  0  0  0  0  0  0  0  0  0  0
  149.7546  141.9947  156.2538 N   0  0  0  0  0  0  0  0  0  0  0  0
  152.8990  141.5750  160.7822 H   0  0  0  0  0  0  0  0  0  0  0  0
  153.3783  142.9029  159.7324 H   0  0  0  0  0  0  0  0  0  0  0  0
  153.6638  141.2373  159.2374 H   0  0  0  0  0  0  0  0  0  0  0  0
  151.1346  140.8763  159.1391 H   0  0  0  0  0  0  0  0  0  0  0  0
  150.9038  142.5098  159.6810 H   0  0  0  0  0  0  0  0  0  0  0  0
  152.1643  144.0497  156.6488 H   0  0  0  0  0  0  0  0  0  0  0  0
  150.5350  144.1362  157.2336 H   0  0  0  0  0  0  0  0  0  0  0  0
  152.0034  145.6574  158.5449 H   0  0  0  0  0  0  0  0  0  0  0  0
  153.0584  144.3198  158.9865 H   0  0  0  0  0  0  0  0  0  0  0  0
  151.4088  144.3872  159.6070 H   0  0  0  0  0  0  0  0  0  0  0  0
  152.5340  140.0581  156.5166 H   0  0  0  0  0  0  0  0  0  0  0  0
  151.3608  138.7855  154.7606 H   0  0  0  0  0  0  0  0  0  0  0  0
  149.6078  138.8303  153.0942 H   0  0  0  0  0  0  0  0  0  0  0  0
  148.2344  137.8866  152.0682 H   0  0  0  0  0  0  0  0  0  0  0  0
  145.6461  138.8845  151.5624 H   0  0  0  0  0  0  0  0  0  0  0  0
  145.7629  136.7145  153.6953 H   0  0  0  0  0  0  0  0  0  0  0  0
  145.0463  138.3016  153.8420 H   0  0  0  0  0  0  0  0  0  0  0  0
  143.2995  136.5725  153.4551 H   0  0  0  0  0  0  0  0  0  0  0  0
  143.3222  137.7065  152.1362 H   0  0  0  0  0  0  0  0  0  0  0  0
  145.4742  133.5782  150.6576 H   0  0  0  0  0  0  0  0  0  0  0  0
  143.8464  133.6268  149.9493 H   0  0  0  0  0  0  0  0  0  0  0  0
  144.2170  132.4953  151.2481 H   0  0  0  0  0  0  0  0  0  0  0  0
  144.9688  135.6649  149.6487 H   0  0  0  0  0  0  0  0  0  0  0  0
  144.2558  137.1981  150.0309 H   0  0  0  0  0  0  0  0  0  0  0  0
  146.7419  137.3662  149.9858 H   0  0  0  0  0  0  0  0  0  0  0  0
  146.8683  136.1086  151.1923 H   0  0  0  0  0  0  0  0  0  0  0  0
  148.1503  141.6786  155.0213 H   0  0  0  0  0  0  0  0  0  0  0  0
  1  2  1  0  0  0  0
  1 25  1  0  0  0  0
  1 26  1  0  0  0  0
  1 27  1  0  0  0  0
  2  3  1  0  0  0  0
  2 28  1  0  0  0  0
  2 29  1  0  0  0  0
  3  4  1  0  0  0  0
  3  6  1  0  0  0  0
  4  5  1  0  0  0  0
  4 30  1  0  0  0  0
  4 31  1  0  0  0  0
  5 32  1  0  0  0  0
  5 33  1  0  0  0  0
  5 34  1  0  0  0  0
  6 24  1  0  0  0  0
  6  7  2  0  0  0  0
  7  8  1  0  0  0  0
  7 35  1  0  0  0  0
  8  9  2  0  0  0  0
  8 36  1  0  0  0  0
  9 10  1  0  0  0  0
  9 23  1  0  0  0  0
 10 11  1  0  0  0  0
 10 37  1  0  0  0  0
 11 12  2  0  0  0  0
 11 13  1  0  0  0  0
 13 14  1  0  0  0  0
 13 38  1  0  0  0  0
 14 22  1  0  0  0  0
 14 15  1  0  0  0  0
 14 39  1  0  0  0  0
 15 16  1  0  0  0  0
 15 40  1  0  0  0  0
 15 41  1  0  0  0  0
 16 17  1  0  0  0  0
 16 42  1  0  0  0  0
 16 43  1  0  0  0  0
 17 18  1  0  0  0  0
 17 21  1  0  0  0  0
 18 19  1  0  0  0  0
 18 20  2  0  0  0  0
 19 44  1  0  0  0  0
 19 45  1  0  0  0  0
 19 46  1  0  0  0  0
 21 22  1  0  0  0  0
 21 47  1  0  0  0  0
 21 48  1  0  0  0  0
 22 49  1  0  0  0  0
 22 50  1  0  0  0  0
 23 24  2  0  0  0  0
 23 51  1  0  0  0  0
M  END
> <s_m_source_file>
AV-unprocessed.smi

> <i_m_source_file_index>
1890

> <i_lp_mmshare_version>
43012

> <i_f3d_flags>
0

> <s_epik_input>
W0NIM11bQ0gyXU4oW0NIMl1bQ0gzXSljMVtjSF1bY0hdYyhbY0hdbjEpW05IXUMoPU8pW05IXVtDSF0yW0NIMl1bQ0gyXU4oQyg9TylbQ0gzXSlbQ0gyXVtDSDJdMg==

> <s_epik_cmdline>
J2VwaWtfcHl0aG9uJywgJy1waCcsICc3LjAnLCAnLXRuJywgJzgnLCAnLW1hJywgJzIwMCcsICctbWV0YWxfYmluZGluZycsICctaW1hZScsICc8aW5maWxlLm1hZT4nLCAnLW9tYWUnLCAnPG91dGZpbGUubWFlPic=

> <r_lp_tautomer_probability>
1

> <r_epik_Ionization_Penalty>
0.700493

> <r_epik_Ionization_Penalty_Charging>
0

> <r_epik_Ionization_Penalty_Neutral>
0.700493

> <r_epik_State_Penalty>
2.19132

> <r_epik_Charging_Adjusted_Penalty>
2.19132

> <i_epik_Tot_Q>
0

> <i_epik_Tot_abs_Q>
0

> <r_epik_Metal_State_Penalty>
1.54624

> <b_epik_Metal_Only>
0

> <s_lp_Force_Field>
OPLS_2005

> <r_lp_Energy>
30.5228

> <b_lp_Chiralities_Consistent>
1

> <s_lp_Variant>
AV-unprocessed.smi:1890-2

> <Gold.Version>
5.8.1

> <Gold.Id.Protein>
6NUR|6NUR_protein|mol2

> <Gold.PLP.Fitness>
44.6161

> <Gold.PLP.PLP>
-44.1395

> <Gold.PLP.part.hbond>
-2.9952

> <Gold.PLP.part.metal>
0.0000

> <Gold.PLP.part.buried>
3.1003

> <Gold.PLP.part.nonpolar>
-46.4774

> <Gold.PLP.part.repulsive>
2.0709

> <Gold.PLP.ligand.clash>
0.0000

> <Gold.PLP.ligand.torsion>
1.6257

> <Gold.PLP.Chemscore.Hbond>
0.9220

> <Gold.PLP.Chemscore.CHOScore>
0.0000

> <Gold.PLP.Chemscore.Metal>
0.0000

> <Gold.Chemscore.Hbonds>
donor molecule, donor type, donor heavy atom, donor atom, acceptor molecule, acceptor atom, score
      L1  H    10    37       P1  7957  0.05
      L1  H    13    38       P1  7948  0.85

> <Gold.PLP.Chemscore.Internal.Correction>
0.9619

> <Gold.Rescore>
     Score         DG    S(hbond)    S(metal)    S(lipo)     H(rot)  DE(clash)    DE(int)     intcor
     12.04     -17.99       0.89        0.00     110.76       1.33       3.20       2.75       ----

> <Gold.Chemscore.Fitness>
12.0408

> <Gold.Chemscore.DG>
-17.9928

> <Gold.Chemscore.ZeroCoef>
-5.4800

> <Gold.Chemscore.Hbond>
0.8854

> <Gold.Chemscore.Metal>
0.0000

> <Gold.Chemscore.Lipo>
110.7591

> <Gold.Chemscore.Internal_Hbond>
0.0000

> <Gold.Chemscore.DEClash>
3.2041

> <Gold.Chemscore.DEInternal>
2.7479

> <Gold.Chemscore.Rot>
1.3294

> <Gold.Chemscore.Internal.Correction>
   9.000000E+99

> <Gold.Chemscore.Hbonds>
donor molecule, donor type, donor heavy atom, donor atom, acceptor molecule, acceptor atom, score
      L1  H    10    37       P1  7957  0.04
      L1  H    13    38       P1  7948  0.85

> <Gold.Chemscore.Hbond.Weighted>
-2.9574

> <Gold.Chemscore.Metal.Weighted>
-0.0000

> <Gold.Chemscore.Lipo.Weighted>
-12.9588

> <Gold.Chemscore.Internal_Hbond.Weighted>
0.0000

> <Gold.Chemscore.DEClash.Weighted>
3.2041

> <Gold.Chemscore.DEInternal.Weighted>
2.7479

> <Gold.Chemscore.Rot.Weighted>
3.4034

> <Gold.Chemscore.Internal.Correction.Weighted>
   9.000000E+99

> <Gold.Protein.RotatedTorsions>
[ 6907 6896 6895 6894 ] final  139.65 input  -60.11 | X-H torsion
[ 7974 7965 7964 7962 ] final   85.36 input  175.53 | X-H torsion
[ 8008 7997 7996 7995 ] final  -59.26 input   59.86 | X-H torsion
[ 10167 10162 10161 10158 ] final   57.07 input  -65.29 | X-H torsion
[ 10718 10713 10712 10709 ] final -114.13 input   66.30 | X-H torsion
[ 10763 10752 10751 10750 ] final  176.71 input  -60.55 | X-H torsion
[ 11005 11000 10999 10996 ] final  -52.59 input  -57.11 | X-H torsion

> <Gold.Protein.ActiveResidues>
 VAL166  LYS551  ARG553  GLY616  TRP617  ASP618  TYR619  PRO620  LYS621  CYS622 
 ASP623  PHE694  ASN695  SER759  ASP760  ASP761  ALA762  ILE779  LEU786  VAL792 
 PHE793  MET794  SER795  GLU796  ALA797  LYS798  CYS799  TRP800  GLU811  SER814 

> <Gold.Protein.RotatedAtoms>
  152.2523  133.5226  159.5332 H   0  0  0  0  0  0  0  0  0  0  0  0  # atno 6907 bound_to 6896
  150.7098  134.0943  159.3952 H   0  0  0  0  0  0  0  0  0  0  0  0  # atno 6908 bound_to 6896
  151.8862  135.0434  160.0544 H   0  0  0  0  0  0  0  0  0  0  0  0  # atno 6909 bound_to 6896
  145.5865  139.2332  143.2323 H   0  0  0  0  0  0  0  0  0  0  0  0  # atno 7974 bound_to 7965
  154.4344  140.1066  156.6087 H   0  0  0  0  0  0  0  0  0  0  0  0  # atno 8008 bound_to 7997
  155.5833  140.3491  155.4527 H   0  0  0  0  0  0  0  0  0  0  0  0  # atno 8009 bound_to 7997
  156.0302  140.1259  157.0255 H   0  0  0  0  0  0  0  0  0  0  0  0  # atno 8010 bound_to 7997
  140.2019  144.3979  150.6525 H   0  0  0  0  0  0  0  0  0  0  0  0  # atno 10167 bound_to 10162
  156.0810  130.6010  150.8734 H   0  0  0  0  0  0  0  0  0  0  0  0  # atno 10718 bound_to 10713
  154.4847  135.2776  155.1543 H   0  0  0  0  0  0  0  0  0  0  0  0  # atno 10763 bound_to 10752
  154.3239  135.6204  153.5524 H   0  0  0  0  0  0  0  0  0  0  0  0  # atno 10764 bound_to 10752
  152.9880  135.5749  154.5255 H   0  0  0  0  0  0  0  0  0  0  0  0  # atno 10765 bound_to 10752
  141.0932  133.6629  156.4047 H   0  0  0  0  0  0  0  0  0  0  0  0  # atno 11005 bound_to 11000
  146.1678  140.6692  142.9247 LP  0  0  0  0  0  0  0  0  0  0  0  0  # atno 17320 bound_to 7965
  144.7370  140.4837  143.6896 LP  0  0  0  0  0  0  0  0  0  0  0  0  # atno 17321 bound_to 7965
  140.6384  143.2199  151.6344 LP  0  0  0  0  0  0  0  0  0  0  0  0  # atno 17342 bound_to 10162
  139.5214  144.3195  152.0923 LP  0  0  0  0  0  0  0  0  0  0  0  0  # atno 17343 bound_to 10162
  157.5927  131.0944  150.9093 LP  0  0  0  0  0  0  0  0  0  0  0  0  # atno 17370 bound_to 10713
  156.9266  130.5334  149.5279 LP  0  0  0  0  0  0  0  0  0  0  0  0  # atno 17371 bound_to 10713
  140.5202  134.6311  157.5315 LP  0  0  0  0  0  0  0  0  0  0  0  0  # atno 17394 bound_to 11000
  139.9763  134.7210  155.9944 LP  0  0  0  0  0  0  0  0  0  0  0  0  # atno 17395 bound_to 11000

$$$$
