#       Name:                AV-unprocessed.smi:1673
#       Creating user name   scv26
#       Creation time:       Fri Mar 27 07:45:23 2020


#       File generated by GOLD software.
#

@<TRIPOS>MOLECULE
AV-unprocessed.smi:1673
    44    45     1
SMALL
NO_CHARGES


@<TRIPOS>ATOM
      1 ****        -3.5571  -2.1216  -0.1374 C.3            1 S1                 0.0000
      2 ****        -3.9527  -0.7803  -0.6899 C.2            1 S1                 0.0000
      3 ****        -5.2255  -0.5538  -0.9799 N.2            1 S1                 0.0000
      4 ****        -5.2897   0.7325  -1.5377 O.3            1 S1                 0.0000
      5 ****        -4.0384   1.2603  -1.5705 C.2            1 S1                 0.0000
      6 ****        -3.8941   2.6258  -2.1528 C.3            1 S1                 0.0000
      7 ****        -3.1692   0.3636  -1.0228 C.2            1 S1                 0.0000
      8 ****        -1.7701   0.5604  -0.9120 N.am           1 S1                 0.0000
      9 ****        -0.9766   0.1420   0.0855 C.2            1 S1                 0.0000
     10 ****        -1.3671  -0.4487   1.0921 O.2            1 S1                 0.0000
     11 ****         0.3046   0.4657  -0.1424 N.am           1 S1                 0.0000
     12 ****         1.4326   0.1730   0.7413 C.3            1 S1                 0.0000
     13 ****         2.2347   1.4703   0.9638 C.3            1 S1                 0.0000
     14 ****         3.4735   1.2304   1.8389 C.3            1 S1                 0.0000
     15 ****         4.3644   0.1342   1.2400 C.3            1 S1                 0.0000
     16 ****         3.5734  -1.1660   1.0329 C.3            1 S1                 0.0000
     17 ****         2.3273  -0.9477   0.1503 C.3            1 S1                 0.0000
     18 ****         1.5721  -2.2742  -0.0497 C.3            1 S1                 0.0000
     19 ****        -2.5623  -2.4106  -0.4761 H              1 S1                 0.0000
     20 ****        -4.2472  -2.9034  -0.4564 H              1 S1                 0.0000
     21 ****        -3.5522  -2.1100   0.9526 H              1 S1                 0.0000
     22 ****        -2.8450   2.9124  -2.2271 H              1 S1                 0.0000
     23 ****        -4.4028   3.3646  -1.5336 H              1 S1                 0.0000
     24 ****        -4.3260   2.6663  -3.1528 H              1 S1                 0.0000
     25 ****        -1.3467   1.1455  -1.6171 H              1 S1                 0.0000
     26 ****         0.5209   0.9541  -0.9988 H              1 S1                 0.0000
     27 ****         1.0674  -0.1586   1.7153 H              1 S1                 0.0000
     28 ****         2.5481   1.8812   0.0028 H              1 S1                 0.0000
     29 ****         1.6007   2.2256   1.4298 H              1 S1                 0.0000
     30 ****         4.0412   2.1555   1.9429 H              1 S1                 0.0000
     31 ****         3.1625   0.9427   2.8440 H              1 S1                 0.0000
     32 ****         4.7718   0.4724   0.2863 H              1 S1                 0.0000
     33 ****         5.2177  -0.0491   1.8936 H              1 S1                 0.0000
     34 ****         4.2229  -1.9170   0.5822 H              1 S1                 0.0000
     35 ****         3.2712  -1.5639   2.0028 H              1 S1                 0.0000
     36 ****         2.6742  -0.6200  -0.8311 H              1 S1                 0.0000
     37 ****         1.1570  -2.6382   0.8906 H              1 S1                 0.0000
     38 ****         2.2347  -3.0465  -0.4412 H              1 S1                 0.0000
     39 ****         0.7503  -2.1687  -0.7579 H              1 S1                 0.0000
     40 ****        -5.9920  -1.1784  -0.8303 LP             1 S1                 0.0000
     41 ****        -5.8838   1.3114  -0.9792 LP             1 S1                 0.0000
     42 ****        -5.6555   0.6777  -2.4668 LP             1 S1                 0.0000
     43 ****        -2.3400  -0.6484   1.2088 LP             1 S1                 0.0000
     44 ****        -0.7115  -0.7290   1.7933 LP             1 S1                 0.0000
@<TRIPOS>BOND
    1    1    2 1     
    2    1   19 1     
    3    1   20 1     
    4    1   21 1     
    5    2    7 1     
    6    2    3 2     
    7    3    4 1     
    8    4    5 1     
    9    5    6 1     
   10    5    7 2     
   11    6   22 1     
   12    6   23 1     
   13    6   24 1     
   14    7    8 1     
   15    8    9 am    
   16    8   25 1     
   17    9   10 2     
   18    9   11 am    
   19   11   12 1     
   20   11   26 1     
   21   12   17 1     
   22   12   13 1     
   23   12   27 1     
   24   13   14 1     
   25   13   28 1     
   26   13   29 1     
   27   14   15 1     
   28   14   30 1     
   29   14   31 1     
   30   15   16 1     
   31   15   32 1     
   32   15   33 1     
   33   16   17 1     
   34   16   34 1     
   35   16   35 1     
   36   17   18 1     
   37   17   36 1     
   38   18   37 1     
   39   18   38 1     
   40   18   39 1     
   41    3   40 1     
   42    4   41 1     
   43    4   42 1     
   44   10   43 1     
   45   10   44 1     
@<TRIPOS>SUBSTRUCTURE
      1 S1             1
@<TRIPOS>SET
LONE_PAIRS      STATIC     ATOMS    <user>   **** ""
5 40 41 42 43 44
DONOR_HYDROGENS      STATIC     ATOMS    <user>   **** ""
2 25 26
ATOM$BLUE        STATIC     ATOMS    COLORGROUP SYSTEM
5 40 41 42 43 44
ATOM$RED        STATIC     ATOMS    COLORGROUP SYSTEM
2 25 26
