AV-unprocessed.smi:2361|AV-procd|sdf|9411|dock7
  -GOLD-   2272013 43D 1   1.00000     0.00000
 Structure written by MMmdl.
 26 27  0  0  0  0  0  0  0  0  1 V2000
  153.7403  139.0160  158.3272 O   0  0  0  0  0  0  0  0  0  0  0  0
  154.0439  139.4836  159.4249 C   0  0  0  0  0  0  0  0  0  0  0  0
  153.6270  140.6759  159.8878 N   0  0  0  0  0  0  0  0  0  0  0  0
  152.7748  141.6240  159.2557 C   0  0  0  0  0  0  0  0  0  0  0  0
  152.0474  141.3495  158.0711 C   0  0  0  0  0  0  0  0  0  0  0  0
  151.2212  142.2384  157.4802 N   0  0  0  0  0  0  0  0  0  0  0  0
  151.0783  143.4498  158.0555 C   0  0  0  0  0  0  0  0  0  0  0  0
  151.7383  143.8260  159.2412 C   0  0  0  0  0  0  0  0  0  0  0  0
  151.4825  145.3986  159.9097 Cl  0  0  0  0  0  0  0  0  0  0  0  0
  152.6004  142.8924  159.8566 C   0  0  0  0  0  0  0  0  0  0  0  0
  153.4330  143.3002  161.3191 Cl  0  0  0  0  0  0  0  0  0  0  0  0
  154.9661  138.6948  160.3622 C   0  0  2  0  0  0  0  0  0  0  0  0
  154.3981  137.3335  160.8075 C   0  0  0  0  0  0  0  0  0  0  0  0
  154.1163  137.5255  162.2851 C   0  0  0  0  0  0  0  0  0  0  0  0
  155.1521  138.5723  162.6685 C   0  0  0  0  0  0  0  0  0  0  0  0
  155.1375  139.4540  161.5574 O   0  0  0  0  0  0  0  0  0  0  0  0
  154.0241  140.9698  160.7687 H   0  0  0  0  0  0  0  0  0  0  0  0
  152.0980  140.3895  157.5813 H   0  0  0  0  0  0  0  0  0  0  0  0
  150.4113  144.1381  157.5575 H   0  0  0  0  0  0  0  0  0  0  0  0
  155.9414  138.5469  159.8953 H   0  0  0  0  0  0  0  0  0  0  0  0
  153.5087  137.0178  160.2605 H   0  0  0  0  0  0  0  0  0  0  0  0
  155.1535  136.5591  160.6701 H   0  0  0  0  0  0  0  0  0  0  0  0
  153.1115  137.9259  162.4264 H   0  0  0  0  0  0  0  0  0  0  0  0
  154.2042  136.6044  162.8616 H   0  0  0  0  0  0  0  0  0  0  0  0
  154.9085  139.0896  163.5966 H   0  0  0  0  0  0  0  0  0  0  0  0
  156.1422  138.1250  162.7689 H   0  0  0  0  0  0  0  0  0  0  0  0
  1  2  2  0  0  0  0
  2  3  1  0  0  0  0
  2 12  1  0  0  0  0
  3  4  1  0  0  0  0
  3 17  1  0  0  0  0
  4 10  1  0  0  0  0
  4  5  2  0  0  0  0
  5  6  1  0  0  0  0
  5 18  1  0  0  0  0
  6  7  2  0  0  0  0
  7  8  1  0  0  0  0
  7 19  1  0  0  0  0
  8  9  1  0  0  0  0
  8 10  2  0  0  0  0
 10 11  1  0  0  0  0
 12 16  1  0  0  0  0
 12 13  1  0  0  0  0
 12 20  1  0  0  0  0
 13 14  1  0  0  0  0
 13 21  1  0  0  0  0
 13 22  1  0  0  0  0
 14 15  1  0  0  0  0
 14 23  1  0  0  0  0
 14 24  1  0  0  0  0
 15 16  1  0  0  0  0
 15 25  1  0  0  0  0
 15 26  1  0  0  0  0
M  END
> <s_m_source_file>
AV-unprocessed.smi

> <i_m_source_file_index>
2361

> <i_lp_mmshare_version>
43012

> <i_f3d_flags>
0

> <s_epik_input>
TzFbQ0gyXVtDSDJdW0NIMl1bQ0BIXTFDKD1PKVtOSF1jMltjSF1uW2NIXWMoQ2wpYzJDbA==

> <s_epik_cmdline>
J2VwaWtfcHl0aG9uJywgJy1waCcsICc3LjAnLCAnLXRuJywgJzgnLCAnLW1hJywgJzIwMCcsICctbWV0YWxfYmluZGluZycsICctaW1hZScsICc8aW5maWxlLm1hZT4nLCAnLW9tYWUnLCAnPG91dGZpbGUubWFlPic=

> <r_lp_tautomer_probability>
1

> <r_epik_Ionization_Penalty>
7.18707e-06

> <r_epik_Ionization_Penalty_Charging>
0

> <r_epik_Ionization_Penalty_Neutral>
7.18707e-06

> <r_epik_State_Penalty>
-0

> <r_epik_Charging_Adjusted_Penalty>
0

> <i_epik_Tot_Q>
0

> <i_epik_Tot_abs_Q>
0

> <r_epik_Metal_State_Penalty>
-0

> <b_epik_Metal_Only>
0

> <s_lp_Force_Field>
OPLS_2005

> <r_lp_Energy>
24.4573

> <b_lp_Chiralities_Consistent>
1

> <s_lp_Variant>
AV-unprocessed.smi:2361-1

> <Gold.Version>
5.8.1

> <Gold.Id.Protein>
6NUR|6NUR_protein|mol2

> <Gold.PLP.Fitness>
37.2183

> <Gold.PLP.PLP>
-31.2555

> <Gold.PLP.part.hbond>
-1.0000

> <Gold.PLP.part.metal>
0.0000

> <Gold.PLP.part.buried>
-4.8330

> <Gold.PLP.part.nonpolar>
-25.1612

> <Gold.PLP.part.repulsive>
0.1437

> <Gold.PLP.ligand.clash>
0.0000

> <Gold.PLP.ligand.torsion>
0.0224

> <Gold.PLP.Chemscore.Hbond>
1.0000

> <Gold.PLP.Chemscore.CHOScore>
1.0000

> <Gold.PLP.Chemscore.Metal>
0.0000

> <Gold.Chemscore.Hbonds>
donor molecule, donor type, donor heavy atom, donor atom, acceptor molecule, acceptor atom, score
      P1  H  7997  8009       L1     1  1.00
      L1  C     7    19       P1  8028  1.00

> <Gold.PLP.Chemscore.Internal.Correction>
0.0075

> <Gold.Rescore>
     Score         DG    S(hbond)    S(metal)    S(lipo)     H(rot)  DE(clash)    DE(int)     intcor
     16.85     -18.32       1.00        0.00     103.11       1.00       0.18       1.29       ----

> <Gold.Chemscore.Fitness>
16.8541

> <Gold.Chemscore.DG>
-18.3210

> <Gold.Chemscore.ZeroCoef>
-5.4800

> <Gold.Chemscore.Hbond>
0.9992

> <Gold.Chemscore.Metal>
0.0000

> <Gold.Chemscore.Lipo>
103.1079

> <Gold.Chemscore.Internal_Hbond>
0.0000

> <Gold.Chemscore.DEClash>
0.1780

> <Gold.Chemscore.DEInternal>
1.2889

> <Gold.Chemscore.Rot>
1.0000

> <Gold.Chemscore.Internal.Correction>
   9.000000E+99

> <Gold.Chemscore.Hbonds>
donor molecule, donor type, donor heavy atom, donor atom, acceptor molecule, acceptor atom, score
      P1  H  7997  8009       L1     1  0.40

> <Gold.Chemscore.Hbond.Weighted>
-3.3374

> <Gold.Chemscore.Metal.Weighted>
-0.0000

> <Gold.Chemscore.Lipo.Weighted>
-12.0636

> <Gold.Chemscore.Internal_Hbond.Weighted>
0.0000

> <Gold.Chemscore.DEClash.Weighted>
0.1780

> <Gold.Chemscore.DEInternal.Weighted>
1.2889

> <Gold.Chemscore.Rot.Weighted>
2.5600

> <Gold.Chemscore.Internal.Correction.Weighted>
   9.000000E+99

> <Gold.Protein.RotatedTorsions>
[ 6907 6896 6895 6894 ] final  154.72 input  -60.11 | X-H torsion
[ 7974 7965 7964 7962 ] final   90.38 input  175.53 | X-H torsion
[ 8008 7997 7996 7995 ] final  143.01 input   59.86 | X-H torsion
[ 10167 10162 10161 10158 ] final -138.45 input  -65.29 | X-H torsion
[ 10718 10713 10712 10709 ] final -121.17 input   66.30 | X-H torsion
[ 10763 10752 10751 10750 ] final   30.97 input  -60.55 | X-H torsion
[ 11005 11000 10999 10996 ] final   55.30 input  -57.11 | X-H torsion

> <Gold.Protein.ActiveResidues>
 VAL166  LYS551  ARG553  GLY616  TRP617  ASP618  TYR619  PRO620  LYS621  CYS622 
 ASP623  PHE694  ASN695  SER759  ASP760  ASP761  ALA762  ILE779  LEU786  VAL792 
 PHE793  MET794  SER795  GLU796  ALA797  LYS798  CYS799  TRP800  GLU811  SER814 

> <Gold.Protein.RotatedAtoms>
  152.0544  133.4033  159.4390 H   0  0  0  0  0  0  0  0  0  0  0  0  # atno 6907 bound_to 6896
  150.6868  134.3271  159.4820 H   0  0  0  0  0  0  0  0  0  0  0  0  # atno 6908 bound_to 6896
  152.1085  134.9291  160.0618 H   0  0  0  0  0  0  0  0  0  0  0  0  # atno 6909 bound_to 6896
  145.5198  139.2279  143.2678 H   0  0  0  0  0  0  0  0  0  0  0  0  # atno 7974 bound_to 7965
  156.2939  140.2274  156.4820 H   0  0  0  0  0  0  0  0  0  0  0  0  # atno 8008 bound_to 7997
  154.7844  140.0458  157.1174 H   0  0  0  0  0  0  0  0  0  0  0  0  # atno 8009 bound_to 7997
  154.9719  140.3067  155.4987 H   0  0  0  0  0  0  0  0  0  0  0  0  # atno 8010 bound_to 7997
  139.8477  143.7239  152.2660 H   0  0  0  0  0  0  0  0  0  0  0  0  # atno 10167 bound_to 10162
  156.1315  130.6399  150.9629 H   0  0  0  0  0  0  0  0  0  0  0  0  # atno 10718 bound_to 10713
  153.0341  135.6451  154.1127 H   0  0  0  0  0  0  0  0  0  0  0  0  # atno 10763 bound_to 10752
  154.0845  135.2871  155.3285 H   0  0  0  0  0  0  0  0  0  0  0  0  # atno 10764 bound_to 10752
  154.6507  135.5427  153.7962 H   0  0  0  0  0  0  0  0  0  0  0  0  # atno 10765 bound_to 10752
  140.0618  134.5592  155.9144 H   0  0  0  0  0  0  0  0  0  0  0  0  # atno 11005 bound_to 11000
  146.2113  140.6009  142.9058 LP  0  0  0  0  0  0  0  0  0  0  0  0  # atno 17320 bound_to 7965
  144.7682  140.5578  143.6688 LP  0  0  0  0  0  0  0  0  0  0  0  0  # atno 17321 bound_to 7965
  139.7496  144.7538  151.0526 LP  0  0  0  0  0  0  0  0  0  0  0  0  # atno 17342 bound_to 10162
  140.7791  143.4875  150.9936 LP  0  0  0  0  0  0  0  0  0  0  0  0  # atno 17343 bound_to 10162
  157.6493  131.0899  150.8086 LP  0  0  0  0  0  0  0  0  0  0  0  0  # atno 17370 bound_to 10713
  156.8170  130.4971  149.5348 LP  0  0  0  0  0  0  0  0  0  0  0  0  # atno 17371 bound_to 10713
  141.1976  133.6597  156.5750 LP  0  0  0  0  0  0  0  0  0  0  0  0  # atno 17394 bound_to 11000
  140.3759  134.7565  157.4629 LP  0  0  0  0  0  0  0  0  0  0  0  0  # atno 17395 bound_to 11000

$$$$
