#       Name:                AV-unprocessed.smi:2099
#       Creating user name   scv26
#       Creation time:       Fri Mar 27 11:30:03 2020


#       File generated by GOLD software.
#

@<TRIPOS>MOLECULE
AV-unprocessed.smi:2099
    36    37     1
SMALL
NO_CHARGES


@<TRIPOS>ATOM
      1 ****        -1.5872  -3.7129  -0.2436 C.3            1 S1                 0.0000
      2 ****        -1.9645  -2.2288  -0.1367 C.3            1 S1                 0.0000
      3 ****        -1.3085  -1.3968  -1.2553 C.3            1 S1                 0.0000
      4 ****        -1.6868   0.0914  -1.1503 C.3            1 S1                 0.0000
      5 ****        -1.3516   0.6836   0.2351 C.3            1 S1                 0.0000
      6 ****         0.0925   0.8021   0.4317 N.am           1 S1                 0.0000
      7 ****         0.8631   1.7911  -0.0438 C.2            1 S1                 0.0000
      8 ****         0.4292   2.7265  -0.7168 O.2            1 S1                 0.0000
      9 ****         2.1485   1.6185   0.3110 N.am           1 S1                 0.0000
     10 ****         3.2640   2.4437   0.0084 C.2            1 S1                 0.0000
     11 ****         3.1835   3.5665  -0.7229 N.2            1 S1                 0.0000
     12 ****         4.4199   4.1830  -0.8663 N.2            1 S1                 0.0000
     13 ****         5.3828   3.5015  -0.2393 C.2            1 S1                 0.0000
     14 ****         4.8736   2.0396   0.5878 S.3            1 S1                 0.0000
     15 ****        -1.9754  -0.1658   1.3593 C.3            1 S1                 0.0000
     16 ****        -1.5999  -1.6541   1.2452 C.3            1 S1                 0.0000
     17 ****        -0.5122  -3.8582  -0.1331 H              1 S1                 0.0000
     18 ****        -1.8819  -4.1245  -1.2094 H              1 S1                 0.0000
     19 ****        -2.0839  -4.3002   0.5293 H              1 S1                 0.0000
     20 ****        -3.0467  -2.1565  -0.2560 H              1 S1                 0.0000
     21 ****        -0.2239  -1.5032  -1.2090 H              1 S1                 0.0000
     22 ****        -1.6116  -1.7794  -2.2305 H              1 S1                 0.0000
     23 ****        -1.1922   0.6588  -1.9395 H              1 S1                 0.0000
     24 ****        -2.7569   0.1979  -1.3315 H              1 S1                 0.0000
     25 ****        -1.7831   1.6842   0.2980 H              1 S1                 0.0000
     26 ****         0.5349   0.0734   0.9723 H              1 S1                 0.0000
     27 ****         2.3533   0.8013   0.8665 H              1 S1                 0.0000
     28 ****         6.4002   3.8628  -0.2641 H              1 S1                 0.0000
     29 ****        -1.6782   0.2212   2.3347 H              1 S1                 0.0000
     30 ****        -3.0612  -0.0711   1.3158 H              1 S1                 0.0000
     31 ****        -2.1095  -2.2173   2.0278 H              1 S1                 0.0000
     32 ****        -0.5315  -1.7785   1.4265 H              1 S1                 0.0000
     33 ****        -0.5454   2.7756  -0.9350 LP             1 S1                 0.0000
     34 ****         1.0515   3.4371  -1.0453 LP             1 S1                 0.0000
     35 ****         2.3343   3.9174  -1.1176 LP             1 S1                 0.0000
     36 ****         4.5704   5.0307  -1.3751 LP             1 S1                 0.0000
@<TRIPOS>BOND
    1    1    2 1     
    2    1   17 1     
    3    1   18 1     
    4    1   19 1     
    5    2   16 1     
    6    2    3 1     
    7    2   20 1     
    8    3    4 1     
    9    3   21 1     
   10    3   22 1     
   11    4    5 1     
   12    4   23 1     
   13    4   24 1     
   14    5    6 1     
   15    5   15 1     
   16    5   25 1     
   17    6    7 am    
   18    6   26 1     
   19    7    8 2     
   20    7    9 am    
   21    9   10 1     
   22    9   27 1     
   23   10   14 1     
   24   10   11 2     
   25   11   12 1     
   26   12   13 2     
   27   13   14 1     
   28   13   28 1     
   29   15   16 1     
   30   15   29 1     
   31   15   30 1     
   32   16   31 1     
   33   16   32 1     
   34    8   33 1     
   35    8   34 1     
   36   11   35 1     
   37   12   36 1     
@<TRIPOS>SUBSTRUCTURE
      1 S1             1
@<TRIPOS>SET
LONE_PAIRS      STATIC     ATOMS    <user>   **** ""
4 33 34 35 36
DONOR_HYDROGENS      STATIC     ATOMS    <user>   **** ""
2 26 27
ATOM$BLUE        STATIC     ATOMS    COLORGROUP SYSTEM
4 33 34 35 36
ATOM$RED        STATIC     ATOMS    COLORGROUP SYSTEM
2 26 27
