AV-unprocessed.smi:2922|AV-procd|sdf|11198|dock3
  -GOLD-   2272016 93D 1   1.00000     0.00000
 Structure written by MMmdl.
 30 31  0  0  0  0  0  0  0  0  1 V2000
  147.9623  138.7873  152.8121 N   0  0  0  0  0  0  0  0  0  0  0  0
  148.2476  139.5564  153.8669 C   0  0  0  0  0  0  0  0  0  0  0  0
  147.4735  140.4266  154.2613 O   0  0  0  0  0  0  0  0  0  0  0  0
  149.5784  139.2996  154.5987 C   0  0  2  0  0  0  0  0  0  0  0  0
  149.4089  138.9105  156.0819 C   0  0  0  0  0  0  0  0  0  0  0  0
  150.1342  140.0088  156.8424 C   0  0  0  0  0  0  0  0  0  0  0  0
  150.1327  141.1669  155.8523 C   0  0  1  0  0  0  0  0  0  0  0  0
  151.2291  142.2109  156.1123 C   0  0  0  0  0  0  0  0  0  0  0  0
  150.8197  143.1987  157.1012 N   0  0  0  0  0  0  0  0  0  0  0  0
  151.3234  143.2823  158.3867 C   0  0  0  0  0  0  0  0  0  0  0  0
  150.9969  144.3468  159.1308 N   0  0  0  0  0  0  0  0  0  0  0  0
  151.5080  144.4045  160.3801 C   0  0  0  0  0  0  0  0  0  0  0  0
  152.3471  143.3892  160.8803 C   0  0  0  0  0  0  0  0  0  0  0  0
  153.0045  143.4573  162.4737 Cl  0  0  0  0  0  0  0  0  0  0  0  0
  152.6214  142.3154  160.0101 C   0  0  0  0  0  0  0  0  0  0  0  0
  152.1058  142.2666  158.7618 N   0  0  0  0  0  0  0  0  0  0  0  0
  150.3636  140.4924  154.6240 O   0  0  0  0  0  0  0  0  0  0  0  0
  147.0997  138.9263  152.3062 H   0  0  0  0  0  0  0  0  0  0  0  0
  148.6136  138.0702  152.5262 H   0  0  0  0  0  0  0  0  0  0  0  0
  150.1276  138.5302  154.0552 H   0  0  0  0  0  0  0  0  0  0  0  0
  148.3617  138.8815  156.3865 H   0  0  0  0  0  0  0  0  0  0  0  0
  149.8365  137.9309  156.2966 H   0  0  0  0  0  0  0  0  0  0  0  0
  149.6550  140.2596  157.7890 H   0  0  0  0  0  0  0  0  0  0  0  0
  151.1576  139.6951  157.0533 H   0  0  0  0  0  0  0  0  0  0  0  0
  149.1448  141.6308  155.8356 H   0  0  0  0  0  0  0  0  0  0  0  0
  152.1416  141.7204  156.4530 H   0  0  0  0  0  0  0  0  0  0  0  0
  151.4831  142.7273  155.1864 H   0  0  0  0  0  0  0  0  0  0  0  0
  150.0071  143.7604  156.8929 H   0  0  0  0  0  0  0  0  0  0  0  0
  151.2460  145.2635  160.9800 H   0  0  0  0  0  0  0  0  0  0  0  0
  153.2550  141.4948  160.3133 H   0  0  0  0  0  0  0  0  0  0  0  0
  1  2  1  0  0  0  0
  1 18  1  0  0  0  0
  1 19  1  0  0  0  0
  2  3  2  0  0  0  0
  2  4  1  0  0  0  0
  4 17  1  0  0  0  0
  4  5  1  0  0  0  0
  4 20  1  0  0  0  0
  5  6  1  0  0  0  0
  5 21  1  0  0  0  0
  5 22  1  0  0  0  0
  6  7  1  0  0  0  0
  6 23  1  0  0  0  0
  6 24  1  0  0  0  0
  7  8  1  0  0  0  0
  7 17  1  0  0  0  0
  7 25  1  0  0  0  0
  8  9  1  0  0  0  0
  8 26  1  0  0  0  0
  8 27  1  0  0  0  0
  9 10  1  0  0  0  0
  9 28  1  0  0  0  0
 10 16  1  0  0  0  0
 10 11  2  0  0  0  0
 11 12  1  0  0  0  0
 12 13  2  0  0  0  0
 12 29  1  0  0  0  0
 13 14  1  0  0  0  0
 13 15  1  0  0  0  0
 15 16  2  0  0  0  0
 15 30  1  0  0  0  0
M  END
> <s_m_source_file>
AV-unprocessed.smi

> <i_m_source_file_index>
2922

> <i_lp_mmshare_version>
43012

> <i_f3d_flags>
0

> <s_epik_input>
W05IMl1DKD1PKVtDQEBIXTFbQ0gyXVtDSDJdW0NASF0oTzEpW0NIMl1bTkhdYzJuW2NIXWMoQ2wpW2NIXW4y

> <s_epik_cmdline>
J2VwaWtfcHl0aG9uJywgJy1waCcsICc3LjAnLCAnLXRuJywgJzgnLCAnLW1hJywgJzIwMCcsICctbWV0YWxfYmluZGluZycsICctaW1hZScsICc8aW5maWxlLm1hZT4nLCAnLW9tYWUnLCAnPG91dGZpbGUubWFlPic=

> <r_lp_tautomer_probability>
1

> <r_epik_Ionization_Penalty>
6.13883e-06

> <r_epik_Ionization_Penalty_Charging>
0

> <r_epik_Ionization_Penalty_Neutral>
6.13883e-06

> <r_epik_State_Penalty>
-0

> <r_epik_Charging_Adjusted_Penalty>
0

> <i_epik_Tot_Q>
0

> <i_epik_Tot_abs_Q>
0

> <r_epik_Metal_State_Penalty>
-0

> <b_epik_Metal_Only>
0

> <s_lp_Force_Field>
OPLS_2005

> <r_lp_Energy>
9.74106

> <b_lp_Chiralities_Consistent>
1

> <s_lp_Variant>
AV-unprocessed.smi:2922-1

> <Gold.Version>
5.8.1

> <Gold.Id.Protein>
6NUR|6NUR_protein|mol2

> <Gold.PLP.Fitness>
39.1379

> <Gold.PLP.PLP>
-30.7429

> <Gold.PLP.part.hbond>
-4.0000

> <Gold.PLP.part.metal>
0.0000

> <Gold.PLP.part.buried>
-5.7973

> <Gold.PLP.part.nonpolar>
-20.2481

> <Gold.PLP.part.repulsive>
0.3947

> <Gold.PLP.ligand.clash>
0.0000

> <Gold.PLP.ligand.torsion>
0.3026

> <Gold.PLP.Chemscore.Hbond>
2.9920

> <Gold.PLP.Chemscore.CHOScore>
0.0000

> <Gold.PLP.Chemscore.Metal>
0.0000

> <Gold.Chemscore.Hbonds>
donor molecule, donor type, donor heavy atom, donor atom, acceptor molecule, acceptor atom, score
      L1  H     1    19       P1  7948  1.00
      L1  H     9    28       P1  8028  1.00
      P1  H  7989  7998       L1    17  0.98

> <Gold.PLP.Chemscore.Internal.Correction>
0.0241

> <Gold.Rescore>
     Score         DG    S(hbond)    S(metal)    S(lipo)     H(rot)  DE(clash)    DE(int)     intcor
     17.84     -18.88       2.92        0.00      73.00       1.91       0.63       0.41       ----

> <Gold.Chemscore.Fitness>
17.8438

> <Gold.Chemscore.DG>
-18.8764

> <Gold.Chemscore.ZeroCoef>
-5.4800

> <Gold.Chemscore.Hbond>
2.9210

> <Gold.Chemscore.Metal>
0.0000

> <Gold.Chemscore.Lipo>
72.9950

> <Gold.Chemscore.Internal_Hbond>
0.0000

> <Gold.Chemscore.DEClash>
0.6254

> <Gold.Chemscore.DEInternal>
0.4072

> <Gold.Chemscore.Rot>
1.9142

> <Gold.Chemscore.Internal.Correction>
   9.000000E+99

> <Gold.Chemscore.Hbonds>
donor molecule, donor type, donor heavy atom, donor atom, acceptor molecule, acceptor atom, score
      L1  H     1    19       P1  7948  0.94
      L1  H     9    28       P1  8028  0.95
      P1  H  7989  7998       L1    17  0.93

> <Gold.Chemscore.Hbond.Weighted>
-9.7562

> <Gold.Chemscore.Metal.Weighted>
-0.0000

> <Gold.Chemscore.Lipo.Weighted>
-8.5404

> <Gold.Chemscore.Internal_Hbond.Weighted>
0.0000

> <Gold.Chemscore.DEClash.Weighted>
0.6254

> <Gold.Chemscore.DEInternal.Weighted>
0.4072

> <Gold.Chemscore.Rot.Weighted>
4.9002

> <Gold.Chemscore.Internal.Correction.Weighted>
   9.000000E+99

> <Gold.Protein.RotatedTorsions>
[ 6907 6896 6895 6894 ] final -117.70 input  -60.11 | X-H torsion
[ 7974 7965 7964 7962 ] final  -28.63 input  175.53 | X-H torsion
[ 8008 7997 7996 7995 ] final  150.93 input   59.86 | X-H torsion
[ 10167 10162 10161 10158 ] final   33.93 input  -65.29 | X-H torsion
[ 10718 10713 10712 10709 ] final -123.74 input   66.30 | X-H torsion
[ 10763 10752 10751 10750 ] final  -90.33 input  -60.55 | X-H torsion
[ 11005 11000 10999 10996 ] final  124.05 input  -57.11 | X-H torsion

> <Gold.Protein.ActiveResidues>
 VAL166  LYS551  ARG553  GLY616  TRP617  ASP618  TYR619  PRO620  LYS621  CYS622 
 ASP623  PHE694  ASN695  SER759  ASP760  ASP761  ALA762  ILE779  LEU786  VAL792 
 PHE793  MET794  SER795  GLU796  ALA797  LYS798  CYS799  TRP800  GLU811  SER814 

> <Gold.Protein.RotatedAtoms>
  150.8158  133.8339  159.3160 H   0  0  0  0  0  0  0  0  0  0  0  0  # atno 6907 bound_to 6896
  151.6111  135.1038  160.0091 H   0  0  0  0  0  0  0  0  0  0  0  0  # atno 6908 bound_to 6896
  152.4250  133.7139  159.6551 H   0  0  0  0  0  0  0  0  0  0  0  0  # atno 6909 bound_to 6896
  146.1274  140.5307  142.8708 H   0  0  0  0  0  0  0  0  0  0  0  0  # atno 7974 bound_to 7965
  156.2695  140.2061  156.6095 H   0  0  0  0  0  0  0  0  0  0  0  0  # atno 8008 bound_to 7997
  154.6842  140.0537  157.0321 H   0  0  0  0  0  0  0  0  0  0  0  0  # atno 8009 bound_to 7997
  155.0957  140.3201  155.4564 H   0  0  0  0  0  0  0  0  0  0  0  0  # atno 8010 bound_to 7997
  140.4362  144.1254  150.6166 H   0  0  0  0  0  0  0  0  0  0  0  0  # atno 10167 bound_to 10162
  156.1528  130.6547  150.9938 H   0  0  0  0  0  0  0  0  0  0  0  0  # atno 10718 bound_to 10713
  154.6647  135.5308  153.8061 H   0  0  0  0  0  0  0  0  0  0  0  0  # atno 10763 bound_to 10752
  153.0463  135.6514  154.0818 H   0  0  0  0  0  0  0  0  0  0  0  0  # atno 10764 bound_to 10752
  154.0723  135.2953  155.3285 H   0  0  0  0  0  0  0  0  0  0  0  0  # atno 10765 bound_to 10752
  139.9341  134.9640  156.8352 H   0  0  0  0  0  0  0  0  0  0  0  0  # atno 11005 bound_to 11000
  144.7656  140.5523  143.6705 LP  0  0  0  0  0  0  0  0  0  0  0  0  # atno 17320 bound_to 7965
  145.5334  139.1475  143.3487 LP  0  0  0  0  0  0  0  0  0  0  0  0  # atno 17321 bound_to 7965
  140.4371  143.2542  151.9521 LP  0  0  0  0  0  0  0  0  0  0  0  0  # atno 17342 bound_to 10162
  139.4787  144.5690  151.8119 LP  0  0  0  0  0  0  0  0  0  0  0  0  # atno 17343 bound_to 10162
  157.6671  131.0869  150.7703 LP  0  0  0  0  0  0  0  0  0  0  0  0  # atno 17370 bound_to 10713
  156.7770  130.4847  149.5408 LP  0  0  0  0  0  0  0  0  0  0  0  0  # atno 17371 bound_to 10713
  140.6123  134.0071  155.7582 LP  0  0  0  0  0  0  0  0  0  0  0  0  # atno 17394 bound_to 11000
  141.0945  133.9865  157.3182 LP  0  0  0  0  0  0  0  0  0  0  0  0  # atno 17395 bound_to 11000

$$$$
