AV-unprocessed.smi:2905|AV-procd|sdf|11161|dock1
  -GOLD-   2272016 43D 1   1.00000     0.00000
 Structure written by MMmdl.
 39 40  0  0  0  0  0  0  0  0  1 V2000
  144.9766  131.5136  151.6628 C   0  0  0  0  0  0  0  0  0  0  0  0
  145.3520  132.7397  150.7947 C   0  0  0  0  0  0  0  0  0  0  0  0
  146.8879  132.8763  150.8337 C   0  0  0  0  0  0  0  0  0  0  0  0
  144.8725  132.4467  149.3583 C   0  0  0  0  0  0  0  0  0  0  0  0
  144.6998  134.0358  151.3090 C   0  0  0  0  0  0  0  0  0  0  0  0
  143.8671  133.9561  152.3552 N   0  0  0  0  0  0  0  0  0  0  0  0
  143.3012  135.0997  152.7964 C   0  0  0  0  0  0  0  0  0  0  0  0
  143.5731  136.3465  152.1841 C   0  0  0  0  0  0  0  0  0  0  0  0
  143.0014  137.5894  152.5656 N   0  0  0  0  0  0  0  0  0  0  0  0
  141.8312  137.8207  153.1915 C   0  0  0  0  0  0  0  0  0  0  0  0
  141.0793  136.9456  153.6147 O   0  0  0  0  0  0  0  0  0  0  0  0
  141.5467  139.1246  153.3610 N   0  0  0  0  0  0  0  0  0  0  0  0
  140.3678  139.7163  153.9965 C   0  0  0  0  0  0  0  0  0  0  0  0
  139.0422  139.3209  153.2964 C   0  0  0  0  0  0  0  0  0  0  0  0
  138.2938  140.6218  153.1929 C   0  0  0  0  0  0  0  0  0  0  0  0
  139.0358  141.6649  153.5591 C   0  0  0  0  0  0  0  0  0  0  0  0
  140.4239  141.2629  153.9778 C   0  0  0  0  0  0  0  0  0  0  0  0
  144.4552  136.3108  151.0859 C   0  0  0  0  0  0  0  0  0  0  0  0
  145.0166  135.1612  150.6558 N   0  0  0  0  0  0  0  0  0  0  0  0
  145.4437  130.6030  151.2861 H   0  0  0  0  0  0  0  0  0  0  0  0
  143.8995  131.3408  151.6721 H   0  0  0  0  0  0  0  0  0  0  0  0
  145.3023  131.6366  152.6967 H   0  0  0  0  0  0  0  0  0  0  0  0
  147.2403  133.0809  151.8452 H   0  0  0  0  0  0  0  0  0  0  0  0
  147.2372  133.6878  150.1943 H   0  0  0  0  0  0  0  0  0  0  0  0
  147.3777  131.9639  150.4919 H   0  0  0  0  0  0  0  0  0  0  0  0
  145.2994  131.5182  148.9775 H   0  0  0  0  0  0  0  0  0  0  0  0
  145.1595  133.2396  148.6672 H   0  0  0  0  0  0  0  0  0  0  0  0
  143.7868  132.3521  149.3164 H   0  0  0  0  0  0  0  0  0  0  0  0
  142.6182  134.9901  153.6241 H   0  0  0  0  0  0  0  0  0  0  0  0
  143.5585  138.4050  152.3570 H   0  0  0  0  0  0  0  0  0  0  0  0
  142.2458  139.7803  153.0431 H   0  0  0  0  0  0  0  0  0  0  0  0
  140.3194  139.4051  155.0418 H   0  0  0  0  0  0  0  0  0  0  0  0
  139.2022  138.9192  152.2948 H   0  0  0  0  0  0  0  0  0  0  0  0
  138.4789  138.5908  153.8781 H   0  0  0  0  0  0  0  0  0  0  0  0
  137.2756  140.6758  152.8367 H   0  0  0  0  0  0  0  0  0  0  0  0
  138.7131  142.6955  153.5460 H   0  0  0  0  0  0  0  0  0  0  0  0
  140.6697  141.6716  154.9584 H   0  0  0  0  0  0  0  0  0  0  0  0
  141.1413  141.6470  153.2514 H   0  0  0  0  0  0  0  0  0  0  0  0
  144.7151  137.2101  150.5468 H   0  0  0  0  0  0  0  0  0  0  0  0
  1  2  1  0  0  0  0
  1 20  1  0  0  0  0
  1 21  1  0  0  0  0
  1 22  1  0  0  0  0
  2  3  1  0  0  0  0
  2  4  1  0  0  0  0
  2  5  1  0  0  0  0
  3 23  1  0  0  0  0
  3 24  1  0  0  0  0
  3 25  1  0  0  0  0
  4 26  1  0  0  0  0
  4 27  1  0  0  0  0
  4 28  1  0  0  0  0
  5 19  1  0  0  0  0
  5  6  2  0  0  0  0
  6  7  1  0  0  0  0
  7  8  2  0  0  0  0
  7 29  1  0  0  0  0
  8  9  1  0  0  0  0
  8 18  1  0  0  0  0
  9 10  1  0  0  0  0
  9 30  1  0  0  0  0
 10 11  2  0  0  0  0
 10 12  1  0  0  0  0
 12 13  1  0  0  0  0
 12 31  1  0  0  0  0
 13 17  1  0  0  0  0
 13 14  1  0  0  0  0
 13 32  1  0  0  0  0
 14 15  1  0  0  0  0
 14 33  1  0  0  0  0
 14 34  1  0  0  0  0
 15 16  2  0  0  0  0
 15 35  1  0  0  0  0
 16 17  1  0  0  0  0
 16 36  1  0  0  0  0
 17 37  1  0  0  0  0
 17 38  1  0  0  0  0
 18 19  2  0  0  0  0
 18 39  1  0  0  0  0
M  END
> <s_m_source_file>
AV-unprocessed.smi

> <i_m_source_file_index>
2905

> <i_lp_mmshare_version>
43012

> <i_f3d_flags>
0

> <s_epik_input>
W0NIM11DKFtDSDNdKShbQ0gzXSljMW5bY0hdYyhbY0hdbjEpW05IXUMoPU8pW05IXVtDSF0yW0NIMl1bQ0hdPVtDSF1bQ0gyXTI=

> <s_epik_cmdline>
J2VwaWtfcHl0aG9uJywgJy1waCcsICc3LjAnLCAnLXRuJywgJzgnLCAnLW1hJywgJzIwMCcsICctbWV0YWxfYmluZGluZycsICctaW1hZScsICc8aW5maWxlLm1hZT4nLCAnLW9tYWUnLCAnPG91dGZpbGUubWFlPic=

> <r_lp_tautomer_probability>
1

> <r_epik_Ionization_Penalty>
2.65275e-05

> <r_epik_Ionization_Penalty_Charging>
0

> <r_epik_Ionization_Penalty_Neutral>
2.65275e-05

> <r_epik_State_Penalty>
-0

> <r_epik_Charging_Adjusted_Penalty>
0

> <i_epik_Tot_Q>
0

> <i_epik_Tot_abs_Q>
0

> <r_epik_Metal_State_Penalty>
-0

> <b_epik_Metal_Only>
0

> <s_lp_Force_Field>
OPLS_2005

> <r_lp_Energy>
27.7511

> <b_lp_Chiralities_Consistent>
1

> <s_lp_Variant>
AV-unprocessed.smi:2905-1

> <Gold.Version>
5.8.1

> <Gold.Id.Protein>
6NUR|6NUR_protein|mol2

> <Gold.PLP.Fitness>
37.2261

> <Gold.PLP.PLP>
-31.1810

> <Gold.PLP.part.hbond>
-3.3490

> <Gold.PLP.part.metal>
0.0000

> <Gold.PLP.part.buried>
0.2612

> <Gold.PLP.part.nonpolar>
-27.4873

> <Gold.PLP.part.repulsive>
0.5165

> <Gold.PLP.ligand.clash>
0.0000

> <Gold.PLP.ligand.torsion>
0.1751

> <Gold.PLP.Chemscore.Hbond>
1.8960

> <Gold.PLP.Chemscore.CHOScore>
0.2337

> <Gold.PLP.Chemscore.Metal>
0.0000

> <Gold.Chemscore.Hbonds>
donor molecule, donor type, donor heavy atom, donor atom, acceptor molecule, acceptor atom, score
      L1  H     9    30       P1 10175  0.90
      L1  H    12    31       P1 10175  1.00
      L1  C    18    39       P1 10171  0.35

> <Gold.PLP.Chemscore.Internal.Correction>
0.0063

> <Gold.Rescore>
     Score         DG    S(hbond)    S(metal)    S(lipo)     H(rot)  DE(clash)    DE(int)     intcor
     14.41     -17.33       1.84        0.00      74.26       1.17       1.74       1.18       ----

> <Gold.Chemscore.Fitness>
14.4097

> <Gold.Chemscore.DG>
-17.3289

> <Gold.Chemscore.ZeroCoef>
-5.4800

> <Gold.Chemscore.Hbond>
1.8428

> <Gold.Chemscore.Metal>
0.0000

> <Gold.Chemscore.Lipo>
74.2641

> <Gold.Chemscore.Internal_Hbond>
0.0000

> <Gold.Chemscore.DEClash>
1.7425

> <Gold.Chemscore.DEInternal>
1.1767

> <Gold.Chemscore.Rot>
1.1699

> <Gold.Chemscore.Internal.Correction>
   9.000000E+99

> <Gold.Chemscore.Hbonds>
donor molecule, donor type, donor heavy atom, donor atom, acceptor molecule, acceptor atom, score
      L1  H     9    30       P1 10175  0.82
      L1  H    12    31       P1 10175  0.73

> <Gold.Chemscore.Hbond.Weighted>
-6.1548

> <Gold.Chemscore.Metal.Weighted>
-0.0000

> <Gold.Chemscore.Lipo.Weighted>
-8.6889

> <Gold.Chemscore.Internal_Hbond.Weighted>
0.0000

> <Gold.Chemscore.DEClash.Weighted>
1.7425

> <Gold.Chemscore.DEInternal.Weighted>
1.1767

> <Gold.Chemscore.Rot.Weighted>
2.9949

> <Gold.Chemscore.Internal.Correction.Weighted>
   9.000000E+99

> <Gold.Protein.RotatedTorsions>
[ 6907 6896 6895 6894 ] final -116.48 input  -60.11 | X-H torsion
[ 7974 7965 7964 7962 ] final -141.94 input  175.53 | X-H torsion
[ 8008 7997 7996 7995 ] final -157.90 input   59.86 | X-H torsion
[ 10167 10162 10161 10158 ] final  -98.71 input  -65.29 | X-H torsion
[ 10718 10713 10712 10709 ] final -102.06 input   66.30 | X-H torsion
[ 10763 10752 10751 10750 ] final   17.02 input  -60.55 | X-H torsion
[ 11005 11000 10999 10996 ] final -104.48 input  -57.11 | X-H torsion

> <Gold.Protein.ActiveResidues>
 VAL166  LYS551  ARG553  GLY616  TRP617  ASP618  TYR619  PRO620  LYS621  CYS622 
 ASP623  PHE694  ASN695  SER759  ASP760  ASP761  ALA762  ILE779  LEU786  VAL792 
 PHE793  MET794  SER795  GLU796  ALA797  LYS798  CYS799  TRP800  GLU811  SER814 

> <Gold.Protein.RotatedAtoms>
  150.8059  133.8511  159.3205 H   0  0  0  0  0  0  0  0  0  0  0  0  # atno 6907 bound_to 6896
  151.6310  135.1021  160.0131 H   0  0  0  0  0  0  0  0  0  0  0  0  # atno 6908 bound_to 6896
  152.4150  133.6983  159.6466 H   0  0  0  0  0  0  0  0  0  0  0  0  # atno 6909 bound_to 6896
  144.8481  140.6019  143.5408 H   0  0  0  0  0  0  0  0  0  0  0  0  # atno 7974 bound_to 7965
  155.7395  140.0812  157.2252 H   0  0  0  0  0  0  0  0  0  0  0  0  # atno 8008 bound_to 7997
  154.4023  140.1580  156.2655 H   0  0  0  0  0  0  0  0  0  0  0  0  # atno 8009 bound_to 7997
  155.9034  140.3408  155.6046 H   0  0  0  0  0  0  0  0  0  0  0  0  # atno 8010 bound_to 7997
  140.2701  143.3350  152.0543 H   0  0  0  0  0  0  0  0  0  0  0  0  # atno 10167 bound_to 10162
  156.0216  130.5402  150.7054 H   0  0  0  0  0  0  0  0  0  0  0  0  # atno 10718 bound_to 10713
  153.1377  135.6753  153.9076 H   0  0  0  0  0  0  0  0  0  0  0  0  # atno 10763 bound_to 10752
  153.8543  135.3089  155.3435 H   0  0  0  0  0  0  0  0  0  0  0  0  # atno 10764 bound_to 10752
  154.7761  135.4913  153.9831 H   0  0  0  0  0  0  0  0  0  0  0  0  # atno 10765 bound_to 10752
  141.1098  133.8727  157.1616 H   0  0  0  0  0  0  0  0  0  0  0  0  # atno 11005 bound_to 11000
  145.4555  139.1518  143.3895 LP  0  0  0  0  0  0  0  0  0  0  0  0  # atno 17320 bound_to 7965
  146.2762  140.4683  142.8794 LP  0  0  0  0  0  0  0  0  0  0  0  0  # atno 17321 bound_to 7965
  139.4991  144.6662  151.6350 LP  0  0  0  0  0  0  0  0  0  0  0  0  # atno 17342 bound_to 10162
  140.5897  143.9802  150.6317 LP  0  0  0  0  0  0  0  0  0  0  0  0  # atno 17343 bound_to 10162
  157.4705  131.0892  151.0648 LP  0  0  0  0  0  0  0  0  0  0  0  0  # atno 17370 bound_to 10713
  157.1110  130.6021  149.5482 LP  0  0  0  0  0  0  0  0  0  0  0  0  # atno 17371 bound_to 10713
  139.9986  135.0036  157.0140 LP  0  0  0  0  0  0  0  0  0  0  0  0  # atno 17394 bound_to 11000
  140.4805  134.1295  155.7216 LP  0  0  0  0  0  0  0  0  0  0  0  0  # atno 17395 bound_to 11000

$$$$
