AV-unprocessed.smi:1966|AV-procd|sdf|7952|dock8
  -GOLD-   2272010123D 1   1.00000     0.00000
 Structure written by MMmdl.
 53 54  0  0  0  0  0  0  0  0  1 V2000
  141.7480  138.4121  153.1141 C   0  0  0  0  0  0  0  0  0  0  0  0
  143.0356  137.7246  153.5550 C   0  0  0  0  0  0  0  0  0  0  0  0
  143.0135  136.5505  153.9228 O   0  0  0  0  0  0  0  0  0  0  0  0
  144.1531  138.4672  153.5099 N   0  0  0  0  0  0  0  0  0  0  0  0
  145.4913  138.0110  153.8934 C   0  0  2  0  0  0  0  0  0  0  0  0
  146.2029  139.1442  154.6585 C   0  0  0  0  0  0  0  0  0  0  0  0
  145.6275  140.2180  154.8412 O   0  0  0  0  0  0  0  0  0  0  0  0
  147.4463  138.8646  155.0910 N   0  0  0  0  0  0  0  0  0  0  0  0
  148.3489  139.7151  155.7836 C   0  0  0  0  0  0  0  0  0  0  0  0
  149.7554  139.6582  155.6415 C   0  0  0  0  0  0  0  0  0  0  0  0
  150.5524  140.5362  156.4004 C   0  0  0  0  0  0  0  0  0  0  0  0
  149.9221  141.4373  157.2825 C   0  0  0  0  0  0  0  0  0  0  0  0
  150.7144  142.3122  158.0390 N   0  0  0  0  0  0  0  0  0  0  0  0
  151.4250  143.2977  157.2346 C   0  0  0  0  0  0  0  0  0  0  0  0
  152.1594  144.3106  158.1353 C   0  0  1  0  0  0  0  0  0  0  0  0
  151.2220  145.3322  158.8033 C   0  0  0  0  0  0  0  0  0  0  0  0
  152.9731  143.6221  159.0893 O   0  0  0  0  0  0  0  0  0  0  0  0
  152.2791  142.6682  159.8944 C   0  0  2  0  0  0  0  0  0  0  0  0
  153.2942  142.0151  160.8378 C   0  0  0  0  0  0  0  0  0  0  0  0
  151.5897  141.6350  158.9851 C   0  0  0  0  0  0  0  0  0  0  0  0
  148.5774  141.4880  157.4344 N   0  0  0  0  0  0  0  0  0  0  0  0
  147.8190  140.6422  156.7050 C   0  0  0  0  0  0  0  0  0  0  0  0
  146.2915  137.6534  152.6057 C   0  0  0  0  0  0  0  0  0  0  0  0
  146.6097  138.9026  151.7603 C   0  0  0  0  0  0  0  0  0  0  0  0
  145.5736  136.6152  151.7180 C   0  0  0  0  0  0  0  0  0  0  0  0
  141.6982  139.4289  153.5050 H   0  0  0  0  0  0  0  0  0  0  0  0
  140.8763  137.8658  153.4757 H   0  0  0  0  0  0  0  0  0  0  0  0
  141.6978  138.4564  152.0260 H   0  0  0  0  0  0  0  0  0  0  0  0
  144.0729  139.4255  153.2023 H   0  0  0  0  0  0  0  0  0  0  0  0
  145.4088  137.1242  154.5259 H   0  0  0  0  0  0  0  0  0  0  0  0
  147.7571  137.9124  154.9613 H   0  0  0  0  0  0  0  0  0  0  0  0
  150.2357  138.9523  154.9817 H   0  0  0  0  0  0  0  0  0  0  0  0
  151.6285  140.5126  156.3087 H   0  0  0  0  0  0  0  0  0  0  0  0
  152.1500  142.7858  156.6001 H   0  0  0  0  0  0  0  0  0  0  0  0
  150.7293  143.8129  156.5711 H   0  0  0  0  0  0  0  0  0  0  0  0
  152.8442  144.8778  157.5046 H   0  0  0  0  0  0  0  0  0  0  0  0
  150.6997  145.9247  158.0518 H   0  0  0  0  0  0  0  0  0  0  0  0
  151.7840  146.0217  159.4335 H   0  0  0  0  0  0  0  0  0  0  0  0
  150.4629  144.8551  159.4224 H   0  0  0  0  0  0  0  0  0  0  0  0
  151.5310  143.1765  160.5029 H   0  0  0  0  0  0  0  0  0  0  0  0
  152.8140  141.2786  161.4824 H   0  0  0  0  0  0  0  0  0  0  0  0
  153.7652  142.7605  161.4792 H   0  0  0  0  0  0  0  0  0  0  0  0
  154.0827  141.5092  160.2800 H   0  0  0  0  0  0  0  0  0  0  0  0
  151.0099  140.9326  159.5856 H   0  0  0  0  0  0  0  0  0  0  0  0
  152.3381  141.0557  158.4422 H   0  0  0  0  0  0  0  0  0  0  0  0
  146.7522  140.7125  156.8605 H   0  0  0  0  0  0  0  0  0  0  0  0
  147.2477  137.2178  152.9016 H   0  0  0  0  0  0  0  0  0  0  0  0
  145.6971  139.4170  151.4581 H   0  0  0  0  0  0  0  0  0  0  0  0
  147.1542  138.6356  150.8542 H   0  0  0  0  0  0  0  0  0  0  0  0
  147.2302  139.6158  152.3028 H   0  0  0  0  0  0  0  0  0  0  0  0
  144.5833  136.9650  151.4247 H   0  0  0  0  0  0  0  0  0  0  0  0
  145.4533  135.6555  152.2208 H   0  0  0  0  0  0  0  0  0  0  0  0
  146.1388  136.4219  150.8058 H   0  0  0  0  0  0  0  0  0  0  0  0
  1  2  1  0  0  0  0
  1 26  1  0  0  0  0
  1 27  1  0  0  0  0
  1 28  1  0  0  0  0
  2  3  2  0  0  0  0
  2  4  1  0  0  0  0
  4  5  1  0  0  0  0
  4 29  1  0  0  0  0
  5  6  1  0  0  0  0
  5 23  1  0  0  0  0
  5 30  1  0  0  0  0
  6  7  2  0  0  0  0
  6  8  1  0  0  0  0
  8  9  1  0  0  0  0
  8 31  1  0  0  0  0
  9 22  1  0  0  0  0
  9 10  2  0  0  0  0
 10 11  1  0  0  0  0
 10 32  1  0  0  0  0
 11 12  2  0  0  0  0
 11 33  1  0  0  0  0
 12 13  1  0  0  0  0
 12 21  1  0  0  0  0
 13 20  1  0  0  0  0
 13 14  1  0  0  0  0
 14 15  1  0  0  0  0
 14 34  1  0  0  0  0
 14 35  1  0  0  0  0
 15 16  1  0  0  0  0
 15 17  1  0  0  0  0
 15 36  1  0  0  0  0
 16 37  1  0  0  0  0
 16 38  1  0  0  0  0
 16 39  1  0  0  0  0
 17 18  1  0  0  0  0
 18 19  1  0  0  0  0
 18 20  1  0  0  0  0
 18 40  1  0  0  0  0
 19 41  1  0  0  0  0
 19 42  1  0  0  0  0
 19 43  1  0  0  0  0
 20 44  1  0  0  0  0
 20 45  1  0  0  0  0
 21 22  2  0  0  0  0
 22 46  1  0  0  0  0
 23 24  1  0  0  0  0
 23 25  1  0  0  0  0
 23 47  1  0  0  0  0
 24 48  1  0  0  0  0
 24 49  1  0  0  0  0
 24 50  1  0  0  0  0
 25 51  1  0  0  0  0
 25 52  1  0  0  0  0
 25 53  1  0  0  0  0
M  END
> <s_m_source_file>
AV-unprocessed.smi

> <i_m_source_file_index>
1966

> <i_lp_mmshare_version>
43012

> <i_f3d_flags>
0

> <s_epik_input>
W0NIM11DKD1PKVtOSF1bQ0BASF0oW0NIXShbQ0gzXSlbQ0gzXSlDKD1PKVtOSF1jMVtjSF1bY0hdYyhuW2NIXTEpTjJbQ0gyXVtDQEBIXShbQ0gzXSlPW0NAQEhdKFtDSDNdKVtDSDJdMg==

> <s_epik_cmdline>
J2VwaWtfcHl0aG9uJywgJy1waCcsICc3LjAnLCAnLXRuJywgJzgnLCAnLW1hJywgJzIwMCcsICctbWV0YWxfYmluZGluZycsICctaW1hZScsICc8aW5maWxlLm1hZT4nLCAnLW9tYWUnLCAnPG91dGZpbGUubWFlPic=

> <r_lp_tautomer_probability>
1

> <r_epik_Ionization_Penalty>
0.000679699

> <r_epik_Ionization_Penalty_Charging>
0

> <r_epik_Ionization_Penalty_Neutral>
0.000679699

> <r_epik_State_Penalty>
0.000430485

> <r_epik_Charging_Adjusted_Penalty>
0.000430485

> <i_epik_Tot_Q>
0

> <i_epik_Tot_abs_Q>
0

> <r_epik_Metal_State_Penalty>
-0

> <b_epik_Metal_Only>
0

> <s_lp_Force_Field>
OPLS_2005

> <r_lp_Energy>
29.6381

> <b_lp_Chiralities_Consistent>
1

> <s_lp_Variant>
AV-unprocessed.smi:1966-5

> <Gold.Version>
5.8.1

> <Gold.Id.Protein>
6NUR|6NUR_protein|mol2

> <Gold.PLP.Fitness>
41.8002

> <Gold.PLP.PLP>
-39.8667

> <Gold.PLP.part.hbond>
-0.9605

> <Gold.PLP.part.metal>
0.0000

> <Gold.PLP.part.buried>
-2.4303

> <Gold.PLP.part.nonpolar>
-37.3689

> <Gold.PLP.part.repulsive>
0.3095

> <Gold.PLP.ligand.clash>
0.0000

> <Gold.PLP.ligand.torsion>
0.6065

> <Gold.PLP.Chemscore.Hbond>
1.0000

> <Gold.PLP.Chemscore.CHOScore>
0.0000

> <Gold.PLP.Chemscore.Metal>
0.0000

> <Gold.Chemscore.Hbonds>
donor molecule, donor type, donor heavy atom, donor atom, acceptor molecule, acceptor atom, score
      L1  H     4    29       P1 10175  0.47

> <Gold.PLP.Chemscore.Internal.Correction>
0.1465

> <Gold.Rescore>
     Score         DG    S(hbond)    S(metal)    S(lipo)     H(rot)  DE(clash)    DE(int)     intcor
     15.46     -17.10       1.00        0.00     107.61       1.68       0.08       1.56       ----

> <Gold.Chemscore.Fitness>
15.4599

> <Gold.Chemscore.DG>
-17.1044

> <Gold.Chemscore.ZeroCoef>
-5.4800

> <Gold.Chemscore.Hbond>
0.9953

> <Gold.Chemscore.Metal>
0.0000

> <Gold.Chemscore.Lipo>
107.6086

> <Gold.Chemscore.Internal_Hbond>
0.0000

> <Gold.Chemscore.DEClash>
0.0809

> <Gold.Chemscore.DEInternal>
1.5636

> <Gold.Chemscore.Rot>
1.6759

> <Gold.Chemscore.Internal.Correction>
   9.000000E+99

> <Gold.Chemscore.Hbonds>
donor molecule, donor type, donor heavy atom, donor atom, acceptor molecule, acceptor atom, score
      L1  H     4    29       P1 10175  0.47

> <Gold.Chemscore.Hbond.Weighted>
-3.3244

> <Gold.Chemscore.Metal.Weighted>
-0.0000

> <Gold.Chemscore.Lipo.Weighted>
-12.5902

> <Gold.Chemscore.Internal_Hbond.Weighted>
0.0000

> <Gold.Chemscore.DEClash.Weighted>
0.0809

> <Gold.Chemscore.DEInternal.Weighted>
1.5636

> <Gold.Chemscore.Rot.Weighted>
4.2902

> <Gold.Chemscore.Internal.Correction.Weighted>
   9.000000E+99

> <Gold.Protein.RotatedTorsions>
[ 6907 6896 6895 6894 ] final   51.23 input  -60.11 | X-H torsion
[ 7974 7965 7964 7962 ] final  -64.18 input  175.53 | X-H torsion
[ 8008 7997 7996 7995 ] final  -49.12 input   59.86 | X-H torsion
[ 10167 10162 10161 10158 ] final  128.53 input  -65.29 | X-H torsion
[ 10718 10713 10712 10709 ] final   90.75 input   66.30 | X-H torsion
[ 10763 10752 10751 10750 ] final -148.14 input  -60.55 | X-H torsion
[ 11005 11000 10999 10996 ] final   43.98 input  -57.11 | X-H torsion

> <Gold.Protein.ActiveResidues>
 VAL166  LYS551  ARG553  GLY616  TRP617  ASP618  TYR619  PRO620  LYS621  CYS622 
 ASP623  PHE694  ASN695  SER759  ASP760  ASP761  ALA762  ILE779  LEU786  VAL792 
 PHE793  MET794  SER795  GLU796  ALA797  LYS798  CYS799  TRP800  GLU811  SER814 

> <Gold.Protein.RotatedAtoms>
  152.3104  134.7504  160.0337 H   0  0  0  0  0  0  0  0  0  0  0  0  # atno 6907 bound_to 6896
  151.7986  133.3362  159.3528 H   0  0  0  0  0  0  0  0  0  0  0  0  # atno 6908 bound_to 6896
  150.7317  134.5705  159.5932 H   0  0  0  0  0  0  0  0  0  0  0  0  # atno 6909 bound_to 6896
  145.7699  140.8818  143.0385 H   0  0  0  0  0  0  0  0  0  0  0  0  # atno 7974 bound_to 7965
  154.4039  140.1305  156.4450 H   0  0  0  0  0  0  0  0  0  0  0  0  # atno 8008 bound_to 7997
  155.7422  140.3489  155.5089 H   0  0  0  0  0  0  0  0  0  0  0  0  # atno 8009 bound_to 7997
  155.9028  140.1022  157.1327 H   0  0  0  0  0  0  0  0  0  0  0  0  # atno 8010 bound_to 7997
  139.5522  144.6822  151.4289 H   0  0  0  0  0  0  0  0  0  0  0  0  # atno 10167 bound_to 10162
  157.6959  131.0382  150.3625 H   0  0  0  0  0  0  0  0  0  0  0  0  # atno 10718 bound_to 10713
  154.8249  135.3342  154.6927 H   0  0  0  0  0  0  0  0  0  0  0  0  # atno 10763 bound_to 10752
  153.7554  135.6936  153.4941 H   0  0  0  0  0  0  0  0  0  0  0  0  # atno 10764 bound_to 10752
  153.2147  135.4470  155.0370 H   0  0  0  0  0  0  0  0  0  0  0  0  # atno 10765 bound_to 10752
  140.1594  134.4360  155.8328 H   0  0  0  0  0  0  0  0  0  0  0  0  # atno 11005 bound_to 11000
  144.6814  139.9841  143.7484 LP  0  0  0  0  0  0  0  0  0  0  0  0  # atno 17320 bound_to 7965
  146.0180  139.3226  143.0830 LP  0  0  0  0  0  0  0  0  0  0  0  0  # atno 17321 bound_to 7965
  140.6787  143.8130  150.7093 LP  0  0  0  0  0  0  0  0  0  0  0  0  # atno 17342 bound_to 10162
  140.1577  143.4302  152.2088 LP  0  0  0  0  0  0  0  0  0  0  0  0  # atno 17343 bound_to 10162
  156.4060  130.3925  149.6925 LP  0  0  0  0  0  0  0  0  0  0  0  0  # atno 17370 bound_to 10713
  156.4226  130.7776  151.2794 LP  0  0  0  0  0  0  0  0  0  0  0  0  # atno 17371 bound_to 10713
  141.2208  133.6906  156.7566 LP  0  0  0  0  0  0  0  0  0  0  0  0  # atno 17394 bound_to 11000
  140.2508  134.8542  157.3665 LP  0  0  0  0  0  0  0  0  0  0  0  0  # atno 17395 bound_to 11000

$$$$
