AV-unprocessed.smi:160|AV-procd|sdf|1346|dock7
  -GOLD-   2262019 43D 1   1.00000     0.00000
 Structure written by MMmdl.
 29 30  0  0  0  0  0  0  0  0  1 V2000
  145.1730  142.2236  154.5128 N   0  0  0  0  0  0  0  0  0  0  0  0
  146.3966  142.0637  155.0277 C   0  0  0  0  0  0  0  0  0  0  0  0
  146.8225  142.7642  155.9447 O   0  0  0  0  0  0  0  0  0  0  0  0
  147.2340  140.9721  154.4208 C   0  0  0  0  0  0  0  0  0  0  0  0
  146.7057  140.0963  153.5150 N   0  0  0  0  0  0  0  0  0  0  0  0
  147.7852  139.3600  153.2839 C   0  0  0  0  0  0  0  0  0  0  0  0
  148.8631  139.7353  153.9798 N   0  0  0  0  0  0  0  0  0  0  0  0
  150.2485  139.1699  153.9864 C   0  0  1  0  0  0  0  0  0  0  0  0
  151.0451  140.0217  154.7542 O   0  0  0  0  0  0  0  0  0  0  0  0
  151.8108  139.2730  155.6954 C   0  0  1  0  0  0  0  0  0  0  0  0
  152.1744  140.1308  156.9202 C   0  0  0  0  0  0  0  0  0  0  0  0
  152.9700  139.3854  157.8173 O   0  0  0  0  0  0  0  0  0  0  0  0
  150.9454  138.0383  155.9844 C   0  0  1  0  0  0  0  0  0  0  0  0
  149.9766  138.3105  156.9830 O   0  0  0  0  0  0  0  0  0  0  0  0
  150.3246  137.7653  154.6197 C   0  0  1  0  0  0  0  0  0  0  0  0
  149.1048  137.0447  154.6856 O   0  0  0  0  0  0  0  0  0  0  0  0
  148.5203  140.8092  154.7333 N   0  0  0  0  0  0  0  0  0  0  0  0
  150.5535  139.1837  152.9393 H   0  0  0  0  0  0  0  0  0  0  0  0
  152.7192  138.9321  155.1946 H   0  0  0  0  0  0  0  0  0  0  0  0
  151.5482  137.1954  156.3237 H   0  0  0  0  0  0  0  0  0  0  0  0
  151.0324  137.1874  154.0240 H   0  0  0  0  0  0  0  0  0  0  0  0
  144.5616  142.9390  154.8777 H   0  0  0  0  0  0  0  0  0  0  0  0
  144.8688  141.6233  153.7596 H   0  0  0  0  0  0  0  0  0  0  0  0
  147.7896  138.5283  152.5949 H   0  0  0  0  0  0  0  0  0  0  0  0
  152.6911  141.0450  156.6256 H   0  0  0  0  0  0  0  0  0  0  0  0
  151.2708  140.4246  157.4552 H   0  0  0  0  0  0  0  0  0  0  0  0
  152.5768  138.5336  157.9299 H   0  0  0  0  0  0  0  0  0  0  0  0
  149.5267  137.5042  157.1857 H   0  0  0  0  0  0  0  0  0  0  0  0
  148.9076  136.7064  153.8256 H   0  0  0  0  0  0  0  0  0  0  0  0
  1  2  1  0  0  0  0
  1 22  1  0  0  0  0
  1 23  1  0  0  0  0
  2  3  2  0  0  0  0
  2  4  1  0  0  0  0
  4 17  2  0  0  0  0
  4  5  1  0  0  0  0
  5  6  2  0  0  0  0
  6  7  1  0  0  0  0
  6 24  1  0  0  0  0
  7  8  1  0  0  0  0
  7 17  1  0  0  0  0
  8 18  1  0  0  0  0
  8 15  1  0  0  0  0
  8  9  1  0  0  0  0
  9 10  1  0  0  0  0
 10 19  1  0  0  0  0
 10 11  1  0  0  0  0
 10 13  1  0  0  0  0
 11 12  1  0  0  0  0
 11 25  1  0  0  0  0
 11 26  1  0  0  0  0
 12 27  1  0  0  0  0
 13 20  1  0  0  0  0
 13 14  1  0  0  0  0
 13 15  1  0  0  0  0
 14 28  1  0  0  0  0
 15 21  1  0  0  0  0
 15 16  1  0  0  0  0
 16 29  1  0  0  0  0
M  END
> <s_m_source_file>
AV-unprocessed.smi

> <i_m_source_file_index>
160

> <i_lp_mmshare_version>
43012

> <i_f3d_flags>
0

> <s_epik_input>
W05IMl1DKD1PKWMxbltjSF1uKG4xKVtDQEBIXTJPW0NASF0oW0NIMl1bT0hdKVtDQEBIXShbT0hdKVtDQEhdMltPSF0=

> <s_epik_cmdline>
J2VwaWtfcHl0aG9uJywgJy1waCcsICc3LjAnLCAnLXRuJywgJzgnLCAnLW1hJywgJzIwMCcsICctbWV0YWxfYmluZGluZycsICctaW1hZScsICc8aW5maWxlLm1hZT4nLCAnLW9tYWUnLCAnPG91dGZpbGUubWFlPic=

> <r_lp_tautomer_probability>
1

> <r_epik_Ionization_Penalty>
1.06932e-05

> <r_epik_Ionization_Penalty_Charging>
0

> <r_epik_Ionization_Penalty_Neutral>
1.06932e-05

> <r_epik_State_Penalty>
-0

> <r_epik_Charging_Adjusted_Penalty>
0

> <i_epik_Tot_Q>
0

> <i_epik_Tot_abs_Q>
0

> <r_epik_Metal_State_Penalty>
0.0142097

> <b_epik_Metal_Only>
0

> <s_epik_Chemistry_Notes>
This compound contains an acetal/aminal-like group ( X-CH(R)-Y where X, Y are N, S, or O) that may be acid/base labile, releasing an aldehyde.

> <s_lp_Force_Field>
OPLS_2005

> <r_lp_Energy>
47.6591

> <b_lp_Chiralities_Consistent>
1

> <s_lp_Variant>
AV-unprocessed.smi:160-4

> <Gold.Version>
5.8.1

> <Gold.Id.Protein>
6NUR|6NUR_protein|mol2

> <Gold.PLP.Fitness>
34.2444

> <Gold.PLP.PLP>
-19.5218

> <Gold.PLP.part.hbond>
-4.0000

> <Gold.PLP.part.metal>
0.0000

> <Gold.PLP.part.buried>
-0.6486

> <Gold.PLP.part.nonpolar>
-14.6849

> <Gold.PLP.part.repulsive>
0.4303

> <Gold.PLP.ligand.clash>
0.0000

> <Gold.PLP.ligand.torsion>
0.1417

> <Gold.PLP.Chemscore.Hbond>
4.0000

> <Gold.PLP.Chemscore.CHOScore>
1.0000

> <Gold.PLP.Chemscore.Metal>
0.0000

> <Gold.Chemscore.Hbonds>
donor molecule, donor type, donor heavy atom, donor atom, acceptor molecule, acceptor atom, score
      L1  H     1    23       P1 10175  0.69
      L1  H    16    29       P1  7948  1.00
      P1  H  7989  7998       L1     9  0.80
      P1  H  7997  8009       L1    12  0.50
      L1  C     6    24       P1  7948  0.69
      L1  C     6    24       P1  7957  0.06

> <Gold.PLP.Chemscore.Internal.Correction>
0.0059

> <Gold.Rescore>
     Score         DG    S(hbond)    S(metal)    S(lipo)     H(rot)  DE(clash)    DE(int)     intcor
      7.48      -8.54       3.15        0.00      25.07       4.06       0.43       0.63       ----

> <Gold.Chemscore.Fitness>
7.4787

> <Gold.Chemscore.DG>
-8.5386

> <Gold.Chemscore.ZeroCoef>
-5.4800

> <Gold.Chemscore.Hbond>
3.1495

> <Gold.Chemscore.Metal>
0.0000

> <Gold.Chemscore.Lipo>
25.0666

> <Gold.Chemscore.Internal_Hbond>
0.0000

> <Gold.Chemscore.DEClash>
0.4304

> <Gold.Chemscore.DEInternal>
0.6295

> <Gold.Chemscore.Rot>
4.0600

> <Gold.Chemscore.Internal.Correction>
   9.000000E+99

> <Gold.Chemscore.Hbonds>
donor molecule, donor type, donor heavy atom, donor atom, acceptor molecule, acceptor atom, score
      L1  H     1    23       P1 10175  0.08
      L1  H    16    29       P1  7948  0.95
      P1  H  7989  7998       L1     9  0.12
      P1  H  7997  8009       L1    12  0.02

> <Gold.Chemscore.Hbond.Weighted>
-10.5194

> <Gold.Chemscore.Metal.Weighted>
-0.0000

> <Gold.Chemscore.Lipo.Weighted>
-2.9328

> <Gold.Chemscore.Internal_Hbond.Weighted>
0.0000

> <Gold.Chemscore.DEClash.Weighted>
0.4304

> <Gold.Chemscore.DEInternal.Weighted>
0.6295

> <Gold.Chemscore.Rot.Weighted>
10.3936

> <Gold.Chemscore.Internal.Correction.Weighted>
   9.000000E+99

> <Gold.Protein.RotatedTorsions>
[ 6907 6896 6895 6894 ] final   34.85 input  -60.11 | X-H torsion
[ 7974 7965 7964 7962 ] final   23.75 input  175.53 | X-H torsion
[ 8008 7997 7996 7995 ] final  159.45 input   59.86 | X-H torsion
[ 10167 10162 10161 10158 ] final -109.74 input  -65.29 | X-H torsion
[ 10718 10713 10712 10709 ] final   83.39 input   66.30 | X-H torsion
[ 10763 10752 10751 10750 ] final   36.33 input  -60.55 | X-H torsion
[ 11005 11000 10999 10996 ] final -111.96 input  -57.11 | X-H torsion

> <Gold.Protein.ActiveResidues>
 VAL166  LYS551  ARG553  GLY616  TRP617  ASP618  TYR619  PRO620  LYS621  CYS622 
 ASP623  PHE694  ASN695  SER759  ASP760  ASP761  ALA762  ILE779  LEU786  VAL792 
 PHE793  MET794  SER795  GLU796  ALA797  LYS798  CYS799  TRP800  GLU811  SER814 

> <Gold.Protein.RotatedAtoms>
  152.1080  134.9295  160.0567 H   0  0  0  0  0  0  0  0  0  0  0  0  # atno 6907 bound_to 6896
  152.0483  133.4003  159.4374 H   0  0  0  0  0  0  0  0  0  0  0  0  # atno 6908 bound_to 6896
  150.6842  134.3257  159.4849 H   0  0  0  0  0  0  0  0  0  0  0  0  # atno 6909 bound_to 6896
  146.1970  139.7700  142.8790 H   0  0  0  0  0  0  0  0  0  0  0  0  # atno 7974 bound_to 7965
  156.2238  140.1831  156.7413 H   0  0  0  0  0  0  0  0  0  0  0  0  # atno 8008 bound_to 7997
  154.5907  140.0651  156.9263 H   0  0  0  0  0  0  0  0  0  0  0  0  # atno 8009 bound_to 7997
  155.2341  140.3317  155.4302 H   0  0  0  0  0  0  0  0  0  0  0  0  # atno 8010 bound_to 7997
  140.1521  143.4190  152.1487 H   0  0  0  0  0  0  0  0  0  0  0  0  # atno 10167 bound_to 10162
  157.6878  131.0089  150.2516 H   0  0  0  0  0  0  0  0  0  0  0  0  # atno 10718 bound_to 10713
  153.0081  135.6309  154.1968 H   0  0  0  0  0  0  0  0  0  0  0  0  # atno 10763 bound_to 10752
  154.1711  135.2818  155.3082 H   0  0  0  0  0  0  0  0  0  0  0  0  # atno 10764 bound_to 10752
  154.5908  135.5618  153.7336 H   0  0  0  0  0  0  0  0  0  0  0  0  # atno 10765 bound_to 10752
  141.0703  133.9390  157.2497 H   0  0  0  0  0  0  0  0  0  0  0  0  # atno 11005 bound_to 11000
  145.3612  141.0326  143.3284 LP  0  0  0  0  0  0  0  0  0  0  0  0  # atno 17320 bound_to 7965
  144.8600  139.5191  143.6816 LP  0  0  0  0  0  0  0  0  0  0  0  0  # atno 17321 bound_to 7965
  139.5421  144.7266  151.4701 LP  0  0  0  0  0  0  0  0  0  0  0  0  # atno 17342 bound_to 10162
  140.6696  143.8323  150.6983 LP  0  0  0  0  0  0  0  0  0  0  0  0  # atno 17343 bound_to 10162
  156.3111  130.3772  149.7660 LP  0  0  0  0  0  0  0  0  0  0  0  0  # atno 17370 bound_to 10713
  156.5260  130.8236  151.3220 LP  0  0  0  0  0  0  0  0  0  0  0  0  # atno 17371 bound_to 10713
  139.9517  135.0174  156.9013 LP  0  0  0  0  0  0  0  0  0  0  0  0  # atno 17394 bound_to 11000
  140.5687  134.0465  155.7423 LP  0  0  0  0  0  0  0  0  0  0  0  0  # atno 17395 bound_to 11000

$$$$
