AV-unprocessed.smi:1669|AV-procd|sdf|6687|dock10
  -GOLD-   22720 7413D 1   1.00000     0.00000
 Structure written by MMmdl.
 47 49  0  0  0  0  0  0  0  0  1 V2000
  148.5351  135.9425  157.5686 C   0  0  0  0  0  0  0  0  0  0  0  0
  149.3005  136.2724  158.7675 N   0  0  0  0  0  0  0  0  0  0  0  0
  148.4321  136.8306  159.8088 C   0  0  0  0  0  0  0  0  0  0  0  0
  147.5919  135.7889  160.5270 C   0  0  0  0  0  0  0  0  0  0  0  0
  147.4462  134.4974  159.9776 C   0  0  0  0  0  0  0  0  0  0  0  0
  146.6674  133.5299  160.6417 C   0  0  0  0  0  0  0  0  0  0  0  0
  146.0358  133.8486  161.8596 C   0  0  0  0  0  0  0  0  0  0  0  0
  146.1827  135.1354  162.4130 C   0  0  0  0  0  0  0  0  0  0  0  0
  146.9591  136.1046  161.7478 C   0  0  0  0  0  0  0  0  0  0  0  0
  150.4065  137.1694  158.4244 C   0  0  0  0  0  0  0  0  0  0  0  0
  151.3275  136.6861  157.2856 C   0  0  2  0  0  0  0  0  0  0  0  0
  151.8627  135.4331  157.6599 O   0  0  0  0  0  0  0  0  0  0  0  0
  152.4784  137.6706  156.9913 C   0  0  0  0  0  0  0  0  0  0  0  0
  152.0070  138.9091  156.3876 N   0  0  0  0  0  0  0  0  0  0  0  0
  151.7129  139.1616  155.0872 C   0  0  0  0  0  0  0  0  0  0  0  0
  151.8579  138.1055  154.0289 C   0  0  0  0  0  0  0  0  0  0  0  0
  150.7664  137.2107  153.9621 O   0  0  0  0  0  0  0  0  0  0  0  0
  151.3051  140.4050  154.8199 N   0  0  0  0  0  0  0  0  0  0  0  0
  151.3346  141.0110  156.0607 C   0  0  0  0  0  0  0  0  0  0  0  0
  151.0107  142.3311  156.4478 C   0  0  0  0  0  0  0  0  0  0  0  0
  151.1253  142.7275  157.7965 C   0  0  0  0  0  0  0  0  0  0  0  0
  151.5657  141.8128  158.7752 C   0  0  0  0  0  0  0  0  0  0  0  0
  151.8933  140.4929  158.4107 C   0  0  0  0  0  0  0  0  0  0  0  0
  151.7744  140.1022  157.0635 C   0  0  0  0  0  0  0  0  0  0  0  0
  149.1796  135.5046  156.8059 H   0  0  0  0  0  0  0  0  0  0  0  0
  148.0641  136.8308  157.1453 H   0  0  0  0  0  0  0  0  0  0  0  0
  147.7536  135.2137  157.7851 H   0  0  0  0  0  0  0  0  0  0  0  0
  149.0249  137.3176  160.5809 H   0  0  0  0  0  0  0  0  0  0  0  0
  147.7864  137.6019  159.3865 H   0  0  0  0  0  0  0  0  0  0  0  0
  147.9302  134.2485  159.0440 H   0  0  0  0  0  0  0  0  0  0  0  0
  146.5549  132.5433  160.2169 H   0  0  0  0  0  0  0  0  0  0  0  0
  145.4397  133.1062  162.3696 H   0  0  0  0  0  0  0  0  0  0  0  0
  145.6996  135.3794  163.3478 H   0  0  0  0  0  0  0  0  0  0  0  0
  147.0652  137.0904  162.1767 H   0  0  0  0  0  0  0  0  0  0  0  0
  149.9985  138.1372  158.1290 H   0  0  0  0  0  0  0  0  0  0  0  0
  151.0044  137.3598  159.3174 H   0  0  0  0  0  0  0  0  0  0  0  0
  150.7496  136.5125  156.3789 H   0  0  0  0  0  0  0  0  0  0  0  0
  151.8912  134.8773  156.8962 H   0  0  0  0  0  0  0  0  0  0  0  0
  152.9901  137.9349  157.9175 H   0  0  0  0  0  0  0  0  0  0  0  0
  153.2323  137.2075  156.3549 H   0  0  0  0  0  0  0  0  0  0  0  0
  151.9748  138.5899  153.0592 H   0  0  0  0  0  0  0  0  0  0  0  0
  152.7604  137.5238  154.2159 H   0  0  0  0  0  0  0  0  0  0  0  0
  150.9488  136.5697  153.2917 H   0  0  0  0  0  0  0  0  0  0  0  0
  150.6736  143.0398  155.7058 H   0  0  0  0  0  0  0  0  0  0  0  0
  150.8749  143.7389  158.0816 H   0  0  0  0  0  0  0  0  0  0  0  0
  151.6511  142.1244  159.8058 H   0  0  0  0  0  0  0  0  0  0  0  0
  152.2306  139.7892  159.1573 H   0  0  0  0  0  0  0  0  0  0  0  0
  1  2  1  0  0  0  0
  1 25  1  0  0  0  0
  1 26  1  0  0  0  0
  1 27  1  0  0  0  0
  2  3  1  0  0  0  0
  2 10  1  0  0  0  0
  3  4  1  0  0  0  0
  3 28  1  0  0  0  0
  3 29  1  0  0  0  0
  4  9  1  0  0  0  0
  4  5  2  0  0  0  0
  5  6  1  0  0  0  0
  5 30  1  0  0  0  0
  6  7  2  0  0  0  0
  6 31  1  0  0  0  0
  7  8  1  0  0  0  0
  7 32  1  0  0  0  0
  8  9  2  0  0  0  0
  8 33  1  0  0  0  0
  9 34  1  0  0  0  0
 10 11  1  0  0  0  0
 10 35  1  0  0  0  0
 10 36  1  0  0  0  0
 11 12  1  0  0  0  0
 11 13  1  0  0  0  0
 11 37  1  0  0  0  0
 12 38  1  0  0  0  0
 13 14  1  0  0  0  0
 13 39  1  0  0  0  0
 13 40  1  0  0  0  0
 14 24  1  0  0  0  0
 14 15  1  0  0  0  0
 15 16  1  0  0  0  0
 15 18  2  0  0  0  0
 16 17  1  0  0  0  0
 16 41  1  0  0  0  0
 16 42  1  0  0  0  0
 17 43  1  0  0  0  0
 18 19  1  0  0  0  0
 19 24  2  0  0  0  0
 19 20  1  0  0  0  0
 20 21  2  0  0  0  0
 20 44  1  0  0  0  0
 21 22  1  0  0  0  0
 21 45  1  0  0  0  0
 22 23  2  0  0  0  0
 22 46  1  0  0  0  0
 23 24  1  0  0  0  0
 23 47  1  0  0  0  0
M  END
> <s_m_source_file>
AV-unprocessed.smi

> <i_m_source_file_index>
1669

> <i_lp_mmshare_version>
43012

> <i_f3d_flags>
0

> <s_epik_input>
W2NIXTFbY0hdW2NIXVtjSF1bY0hdYzFbQ0gyXU4oW0NIM10pW0NIMl1bQ0BIXShbT0hdKVtDSDJdbihjKG4yKVtDSDJdW09IXSljKGMyMylbY0hdW2NIXVtjSF1bY0hdMw==

> <s_epik_cmdline>
J2VwaWtfcHl0aG9uJywgJy1waCcsICc3LjAnLCAnLXRuJywgJzgnLCAnLW1hJywgJzIwMCcsICctbWV0YWxfYmluZGluZycsICctaW1hZScsICc8aW5maWxlLm1hZT4nLCAnLW9tYWUnLCAnPG91dGZpbGUubWFlPic=

> <r_epik_Ionization_Penalty>
1.56301

> <r_epik_Ionization_Penalty_Charging>
0

> <r_epik_Ionization_Penalty_Neutral>
1.56301

> <r_epik_State_Penalty>
1.64771

> <r_epik_Charging_Adjusted_Penalty>
1.64771

> <i_epik_Tot_Q>
0

> <i_epik_Tot_abs_Q>
0

> <r_epik_Metal_State_Penalty>
1.61258

> <b_epik_Metal_Only>
0

> <s_lp_Force_Field>
OPLS_2005

> <r_lp_Energy>
20.891

> <b_lp_Chiralities_Consistent>
1

> <s_lp_Variant>
AV-unprocessed.smi:1669-5

> <Gold.Version>
5.8.1

> <Gold.Id.Protein>
6NUR|6NUR_protein|mol2

> <Gold.PLP.Fitness>
55.2222

> <Gold.PLP.PLP>
-47.9596

> <Gold.PLP.part.hbond>
-4.8122

> <Gold.PLP.part.metal>
0.0000

> <Gold.PLP.part.buried>
-4.7575

> <Gold.PLP.part.nonpolar>
-37.8612

> <Gold.PLP.part.repulsive>
0.0626

> <Gold.PLP.ligand.clash>
0.0000

> <Gold.PLP.ligand.torsion>
1.0216

> <Gold.PLP.Chemscore.Hbond>
3.0000

> <Gold.PLP.Chemscore.CHOScore>
0.0000

> <Gold.PLP.Chemscore.Metal>
0.0000

> <Gold.Chemscore.Hbonds>
donor molecule, donor type, donor heavy atom, donor atom, acceptor molecule, acceptor atom, score
      L1  H    17    43       P1  7949  0.90
      P1  H  6896  6908       L1     2  0.23
      P1  H  7989  7998       L1    18  0.76

> <Gold.PLP.Chemscore.Internal.Correction>
0.3057

> <Gold.Rescore>
     Score         DG    S(hbond)    S(metal)    S(lipo)     H(rot)  DE(clash)    DE(int)     intcor
     16.38     -17.48       1.84        0.00     117.11       3.06       0.13       0.97       ----

> <Gold.Chemscore.Fitness>
16.3810

> <Gold.Chemscore.DG>
-17.4800

> <Gold.Chemscore.ZeroCoef>
-5.4800

> <Gold.Chemscore.Hbond>
1.8365

> <Gold.Chemscore.Metal>
0.0000

> <Gold.Chemscore.Lipo>
117.1099

> <Gold.Chemscore.Internal_Hbond>
0.0000

> <Gold.Chemscore.DEClash>
0.1287

> <Gold.Chemscore.DEInternal>
0.9703

> <Gold.Chemscore.Rot>
3.0609

> <Gold.Chemscore.Internal.Correction>
   9.000000E+99

> <Gold.Chemscore.Hbonds>
donor molecule, donor type, donor heavy atom, donor atom, acceptor molecule, acceptor atom, score
      L1  H    17    43       P1  7949  0.17
      P1  H  6896  6908       L1     2  0.02
      P1  H  7989  7998       L1    18  0.66

> <Gold.Chemscore.Hbond.Weighted>
-6.1340

> <Gold.Chemscore.Metal.Weighted>
-0.0000

> <Gold.Chemscore.Lipo.Weighted>
-13.7019

> <Gold.Chemscore.Internal_Hbond.Weighted>
0.0000

> <Gold.Chemscore.DEClash.Weighted>
0.1287

> <Gold.Chemscore.DEInternal.Weighted>
0.9703

> <Gold.Chemscore.Rot.Weighted>
7.8358

> <Gold.Chemscore.Internal.Correction.Weighted>
   9.000000E+99

> <Gold.Protein.RotatedTorsions>
[ 6907 6896 6895 6894 ] final  171.48 input  -60.11 | X-H torsion
[ 7974 7965 7964 7962 ] final  139.66 input  175.53 | X-H torsion
[ 8008 7997 7996 7995 ] final   96.65 input   59.86 | X-H torsion
[ 10167 10162 10161 10158 ] final  103.31 input  -65.29 | X-H torsion
[ 10718 10713 10712 10709 ] final   32.65 input   66.30 | X-H torsion
[ 10763 10752 10751 10750 ] final  140.32 input  -60.55 | X-H torsion
[ 11005 11000 10999 10996 ] final -162.42 input  -57.11 | X-H torsion

> <Gold.Protein.ActiveResidues>
 VAL166  LYS551  ARG553  GLY616  TRP617  ASP618  TYR619  PRO620  LYS621  CYS622 
 ASP623  PHE694  ASN695  SER759  ASP760  ASP761  ALA762  ILE779  LEU786  VAL792 
 PHE793  MET794  SER795  GLU796  ALA797  LYS798  CYS799  TRP800  GLU811  SER814 

> <Gold.Protein.RotatedAtoms>
  151.7996  133.3368  159.3522 H   0  0  0  0  0  0  0  0  0  0  0  0  # atno 6907 bound_to 6896
  150.7363  134.5766  159.5927 H   0  0  0  0  0  0  0  0  0  0  0  0  # atno 6908 bound_to 6896
  152.3152  134.7449  160.0378 H   0  0  0  0  0  0  0  0  0  0  0  0  # atno 6909 bound_to 6896
  144.9258  139.5109  143.5641 H   0  0  0  0  0  0  0  0  0  0  0  0  # atno 7974 bound_to 7965
  156.0818  140.3269  155.7704 H   0  0  0  0  0  0  0  0  0  0  0  0  # atno 8008 bound_to 7997
  155.5140  140.0579  157.2936 H   0  0  0  0  0  0  0  0  0  0  0  0  # atno 8009 bound_to 7997
  154.4586  140.1955  156.0324 H   0  0  0  0  0  0  0  0  0  0  0  0  # atno 8010 bound_to 7997
  139.7274  144.7044  151.0776 H   0  0  0  0  0  0  0  0  0  0  0  0  # atno 10167 bound_to 10162
  157.2879  130.7288  149.6594 H   0  0  0  0  0  0  0  0  0  0  0  0  # atno 10718 bound_to 10713
  153.9208  135.3001  155.3447 H   0  0  0  0  0  0  0  0  0  0  0  0  # atno 10763 bound_to 10752
  154.7576  135.4950  153.9407 H   0  0  0  0  0  0  0  0  0  0  0  0  # atno 10764 bound_to 10752
  153.1143  135.6767  153.9549 H   0  0  0  0  0  0  0  0  0  0  0  0  # atno 10765 bound_to 10752
  140.6094  134.4865  157.5214 H   0  0  0  0  0  0  0  0  0  0  0  0  # atno 11005 bound_to 11000
  146.3225  139.8172  142.8934 LP  0  0  0  0  0  0  0  0  0  0  0  0  # atno 17320 bound_to 7965
  145.3222  141.0246  143.3494 LP  0  0  0  0  0  0  0  0  0  0  0  0  # atno 17321 bound_to 7965
  140.7765  143.5088  150.9679 LP  0  0  0  0  0  0  0  0  0  0  0  0  # atno 17342 bound_to 10162
  139.8775  143.7114  152.3160 LP  0  0  0  0  0  0  0  0  0  0  0  0  # atno 17343 bound_to 10162
  155.9666  130.4318  150.4934 LP  0  0  0  0  0  0  0  0  0  0  0  0  # atno 17370 bound_to 10713
  157.2891  131.0622  151.2146 LP  0  0  0  0  0  0  0  0  0  0  0  0  # atno 17371 bound_to 10713
  139.9198  134.8171  156.1247 LP  0  0  0  0  0  0  0  0  0  0  0  0  # atno 17394 bound_to 11000
  141.0818  133.6751  156.2352 LP  0  0  0  0  0  0  0  0  0  0  0  0  # atno 17395 bound_to 11000

$$$$
