#       Name:                AV-unprocessed.smi:1484
#       Creating user name   scv26
#       Creation time:       Fri Mar 27 06:08:56 2020


#       File generated by GOLD software.
#

@<TRIPOS>MOLECULE
AV-unprocessed.smi:1484
    44    45     1
SMALL
NO_CHARGES


@<TRIPOS>ATOM
      1 ****        -3.7780  -2.0629  -2.3248 C.3            1 S1                 0.0000
      2 ****        -3.2358  -1.3439  -1.0811 C.3            1 S1                 0.0000
      3 ****        -3.7011  -2.0328   0.2162 C.3            1 S1                 0.0000
      4 ****        -3.1591  -1.3145   1.4621 C.3            1 S1                 0.0000
      5 ****        -1.6272  -1.2049   1.4222 C.3            1 S1                 0.0000
      6 ****        -1.1474  -0.5181   0.1301 C.3            1 S1                 0.0000
      7 ****         0.3124  -0.5068   0.0884 N.am           1 S1                 0.0000
      8 ****         1.0980   0.5751   0.2071 C.2            1 S1                 0.0000
      9 ****         0.6588   1.7160   0.3611 O.2            1 S1                 0.0000
     10 ****         2.6094   0.3018   0.1398 C.3            1 S1                 0.0000
     11 ****         3.4500   1.5025   0.2606 N.am           1 S1                 0.0000
     12 ****         3.9876   1.9762  -1.0120 N.pl3          1 S1                -1.0000
     13 ****         4.7642   3.0918  -1.0291 C.2            1 S1                 0.0000
     14 ****         5.2380   3.5581  -2.0626 O.2            1 S1                 0.0000
     15 ****         5.0434   3.7507   0.2361 C.2            1 S1                 0.0000
     16 ****         4.5549   3.2765   1.3990 C.2            1 S1                 0.0000
     17 ****         3.7160   2.0860   1.4642 C.2            1 S1                 0.0000
     18 ****         3.2755   1.6413   2.5245 O.2            1 S1                 0.0000
     19 ****        -1.6981  -1.2413  -1.1139 C.3            1 S1                 0.0000
     20 ****        -3.4088  -3.0872  -2.3844 H              1 S1                 0.0000
     21 ****        -3.4778  -1.5475  -3.2376 H              1 S1                 0.0000
     22 ****        -4.8676  -2.1021  -2.3122 H              1 S1                 0.0000
     23 ****        -3.6395  -0.3302  -1.0871 H              1 S1                 0.0000
     24 ****        -4.7906  -2.0589   0.2553 H              1 S1                 0.0000
     25 ****        -3.3673  -3.0714   0.2225 H              1 S1                 0.0000
     26 ****        -3.5949  -0.3169   1.5282 H              1 S1                 0.0000
     27 ****        -3.4689  -1.8470   2.3617 H              1 S1                 0.0000
     28 ****        -1.2752  -0.6506   2.2932 H              1 S1                 0.0000
     29 ****        -1.1927  -2.2031   1.4945 H              1 S1                 0.0000
     30 ****        -1.5337   0.5028   0.1213 H              1 S1                 0.0000
     31 ****         0.7668  -1.3997  -0.0360 H              1 S1                 0.0000
     32 ****         2.8714  -0.4090   0.9253 H              1 S1                 0.0000
     33 ****         2.8208  -0.2129  -0.7994 H              1 S1                 0.0000
     34 ****         5.6581   4.6388   0.2440 H              1 S1                 0.0000
     35 ****         4.7895   3.7969   2.3155 H              1 S1                 0.0000
     36 ****        -1.2679  -2.2420  -1.1781 H              1 S1                 0.0000
     37 ****        -1.3829  -0.7120  -2.0143 H              1 S1                 0.0000
     38 ****        -0.3283   1.8704   0.4030 LP             1 S1                 0.0000
     39 ****         1.2895   2.4876   0.4441 LP             1 S1                 0.0000
     40 ****         3.7869   1.4860  -1.8602 LP             1 S1                 0.0000
     41 ****         5.0574   3.1141  -2.9402 LP             1 S1                 0.0000
     42 ****         5.8041   4.3816  -2.0260 LP             1 S1                 0.0000
     43 ****         2.7000   0.8235   2.5230 LP             1 S1                 0.0000
     44 ****         3.4932   2.0980   3.3871 LP             1 S1                 0.0000
@<TRIPOS>BOND
    1    1    2 1     
    2    1   20 1     
    3    1   21 1     
    4    1   22 1     
    5    2   19 1     
    6    2    3 1     
    7    2   23 1     
    8    3    4 1     
    9    3   24 1     
   10    3   25 1     
   11    4    5 1     
   12    4   26 1     
   13    4   27 1     
   14    5    6 1     
   15    5   28 1     
   16    5   29 1     
   17    6    7 1     
   18    6   19 1     
   19    6   30 1     
   20    7    8 am    
   21    7   31 1     
   22    8    9 2     
   23    8   10 1     
   24   10   32 1     
   25   10   33 1     
   26   10   11 1     
   27   11   12 1     
   28   11   17 am    
   29   12   13 1     
   30   13   14 2     
   31   13   15 1     
   32   15   34 1     
   33   15   16 2     
   34   16   35 1     
   35   16   17 1     
   36   17   18 2     
   37   19   36 1     
   38   19   37 1     
   39    9   38 1     
   40    9   39 1     
   41   12   40 1     
   42   14   41 1     
   43   14   42 1     
   44   18   43 1     
   45   18   44 1     
@<TRIPOS>SUBSTRUCTURE
      1 S1             1
@<TRIPOS>SET
LONE_PAIRS      STATIC     ATOMS    <user>   **** ""
7 38 39 40 41 42 43 44
DONOR_HYDROGENS      STATIC     ATOMS    <user>   **** ""
1 31
ATOM$BLUE        STATIC     ATOMS    COLORGROUP SYSTEM
7 38 39 40 41 42 43 44
ATOM$RED        STATIC     ATOMS    COLORGROUP SYSTEM
1 31
