AV-unprocessed.smi:101|AV-procd|sdf|922|dock10
  -GOLD-   2262017433D 1   1.00000     0.00000
 Structure written by MMmdl.
 44 46  0  0  0  0  0  0  0  0  1 V2000
  150.1471  135.5499  155.7304 C   0  0  0  0  0  0  0  0  0  0  0  0
  149.1882  136.4956  156.4356 C   0  0  0  0  0  0  0  0  0  0  0  0
  148.6843  137.6032  155.8339 C   0  0  0  0  0  0  0  0  0  0  0  0
  147.7906  138.4816  156.4391 N   0  0  0  0  0  0  0  0  0  0  0  0
  147.2847  139.7246  155.7171 C   0  0  1  0  0  0  0  0  0  0  0  0
  147.8158  140.8628  156.3384 O   0  0  0  0  0  0  0  0  0  0  0  0
  148.9075  141.3955  155.5934 C   0  0  1  0  0  0  0  0  0  0  0  0
  150.2232  140.6709  155.9482 C   0  0  0  0  0  0  0  0  0  0  0  0
  150.7159  141.1668  157.1820 O   0  0  0  0  0  0  0  0  0  0  0  0
  151.9188  140.7648  157.6385 C   0  0  0  0  0  0  0  0  0  0  0  0
  152.5891  139.8768  157.1078 O   0  0  0  0  0  0  0  0  0  0  0  0
  152.3414  141.4880  158.8714 C   0  0  0  0  0  0  0  0  0  0  0  0
  151.7830  142.7559  159.1560 C   0  0  0  0  0  0  0  0  0  0  0  0
  152.1748  143.4706  160.3043 C   0  0  0  0  0  0  0  0  0  0  0  0
  153.1294  142.9255  161.1826 C   0  0  0  0  0  0  0  0  0  0  0  0
  153.6924  141.6650  160.9105 C   0  0  0  0  0  0  0  0  0  0  0  0
  153.3022  140.9489  159.7621 C   0  0  0  0  0  0  0  0  0  0  0  0
  148.4238  141.1689  154.1605 C   0  0  1  0  0  0  0  0  0  0  0  0
  149.4834  141.1834  153.2230 O   0  0  0  0  0  0  0  0  0  0  0  0
  147.7413  139.8069  154.2348 C   0  0  2  0  0  0  0  0  0  0  0  0
  146.6445  139.7753  153.3434 O   0  0  0  0  0  0  0  0  0  0  0  0
  147.4889  138.2971  157.8073 C   0  0  0  0  0  0  0  0  0  0  0  0
  146.8222  139.0964  158.4627 O   0  0  0  0  0  0  0  0  0  0  0  0
  147.9908  137.1517  158.4224 N   0  0  0  0  0  0  0  0  0  0  0  0
  148.8156  136.1997  157.8202 C   0  0  0  0  0  0  0  0  0  0  0  0
  149.1812  135.2172  158.4632 O   0  0  0  0  0  0  0  0  0  0  0  0
  147.7495  137.0044  159.3917 H   0  0  0  0  0  0  0  0  0  0  0  0
  150.3897  135.8936  154.7244 H   0  0  0  0  0  0  0  0  0  0  0  0
  149.7053  134.5565  155.6446 H   0  0  0  0  0  0  0  0  0  0  0  0
  151.0810  135.4643  156.2870 H   0  0  0  0  0  0  0  0  0  0  0  0
  149.0132  137.7994  154.8247 H   0  0  0  0  0  0  0  0  0  0  0  0
  146.2026  139.6961  155.8566 H   0  0  0  0  0  0  0  0  0  0  0  0
  149.0145  142.4610  155.7998 H   0  0  0  0  0  0  0  0  0  0  0  0
  150.0687  139.5925  155.9961 H   0  0  0  0  0  0  0  0  0  0  0  0
  150.9765  140.8524  155.1812 H   0  0  0  0  0  0  0  0  0  0  0  0
  151.0509  143.1963  158.4943 H   0  0  0  0  0  0  0  0  0  0  0  0
  151.7428  144.4386  160.5105 H   0  0  0  0  0  0  0  0  0  0  0  0
  153.4298  143.4737  162.0633 H   0  0  0  0  0  0  0  0  0  0  0  0
  154.4257  141.2460  161.5836 H   0  0  0  0  0  0  0  0  0  0  0  0
  153.7564  139.9856  159.5811 H   0  0  0  0  0  0  0  0  0  0  0  0
  147.7002  141.9451  153.9043 H   0  0  0  0  0  0  0  0  0  0  0  0
  149.3207  140.5155  152.5743 H   0  0  0  0  0  0  0  0  0  0  0  0
  148.4578  139.0171  154.0049 H   0  0  0  0  0  0  0  0  0  0  0  0
  145.8485  139.8380  153.8496 H   0  0  0  0  0  0  0  0  0  0  0  0
  1  2  1  0  0  0  0
  1 28  1  0  0  0  0
  1 29  1  0  0  0  0
  1 30  1  0  0  0  0
  2 25  1  0  0  0  0
  2  3  2  0  0  0  0
  3  4  1  0  0  0  0
  3 31  1  0  0  0  0
  4  5  1  0  0  0  0
  4 22  1  0  0  0  0
  5 20  1  0  0  0  0
  5  6  1  0  0  0  0
  5 32  1  0  0  0  0
  6  7  1  0  0  0  0
  7  8  1  0  0  0  0
  7 18  1  0  0  0  0
  7 33  1  0  0  0  0
  8  9  1  0  0  0  0
  8 34  1  0  0  0  0
  8 35  1  0  0  0  0
  9 10  1  0  0  0  0
 10 11  2  0  0  0  0
 10 12  1  0  0  0  0
 12 17  1  0  0  0  0
 12 13  2  0  0  0  0
 13 14  1  0  0  0  0
 13 36  1  0  0  0  0
 14 15  2  0  0  0  0
 14 37  1  0  0  0  0
 15 16  1  0  0  0  0
 15 38  1  0  0  0  0
 16 17  2  0  0  0  0
 16 39  1  0  0  0  0
 17 40  1  0  0  0  0
 18 19  1  0  0  0  0
 18 20  1  0  0  0  0
 18 41  1  0  0  0  0
 19 42  1  0  0  0  0
 20 21  1  0  0  0  0
 20 43  1  0  0  0  0
 21 44  1  0  0  0  0
 22 23  2  0  0  0  0
 22 24  1  0  0  0  0
 24 27  1  0  0  0  0
 24 25  1  0  0  0  0
 25 26  2  0  0  0  0
M  END
> <s_m_source_file>
AV-unprocessed.smi

> <i_m_source_file_index>
101

> <i_lp_mmshare_version>
43012

> <i_f3d_flags>
0

> <s_epik_input>
Tz1jMVtuSF1jKD1PKW4oW2NIXWMxW0NIM10pW0NAQEhdMk9bQ0BIXShbQ0BASF0oW09IXSlbQ0BIXTJbT0hdKVtDSDJdT0MoPU8pYzNbY0hdW2NIXVtjSF1bY0hdW2NIXTM=

> <s_epik_cmdline>
J2VwaWtfcHl0aG9uJywgJy1waCcsICc3LjAnLCAnLXRuJywgJzgnLCAnLW1hJywgJzIwMCcsICctbWV0YWxfYmluZGluZycsICctaW1hZScsICc8aW5maWxlLm1hZT4nLCAnLW9tYWUnLCAnPG91dGZpbGUubWFlPic=

> <r_lp_tautomer_probability>
0.999537

> <r_epik_Ionization_Penalty>
0.00263537

> <r_epik_Ionization_Penalty_Charging>
0.00263428

> <r_epik_Ionization_Penalty_Neutral>
1.09111e-06

> <r_epik_State_Penalty>
0.00183335

> <r_epik_Charging_Adjusted_Penalty>
0.00446763

> <i_epik_Tot_Q>
0

> <i_epik_Tot_abs_Q>
0

> <r_epik_Metal_State_Penalty>
1.00528

> <b_epik_Metal_Only>
0

> <s_epik_Chemistry_Notes>
This compound has an ester and may undergo hydrolysis at high or low pH. This compound contains an acetal/aminal-like group ( X-CH(R)-Y where X, Y are N, S, or O) that may be acid/base labile, releasing an aldehyde.

> <s_lp_Force_Field>
OPLS_2005

> <r_lp_Energy>
31.3632

> <b_lp_Chiralities_Consistent>
1

> <s_lp_Variant>
AV-unprocessed.smi:101-10

> <Gold.Version>
5.8.1

> <Gold.Id.Protein>
6NUR|6NUR_protein|mol2

> <Gold.PLP.Fitness>
49.4870

> <Gold.PLP.PLP>
-38.2940

> <Gold.PLP.part.hbond>
-5.9915

> <Gold.PLP.part.metal>
0.0000

> <Gold.PLP.part.buried>
-5.6996

> <Gold.PLP.part.nonpolar>
-26.4027

> <Gold.PLP.part.repulsive>
0.1728

> <Gold.PLP.ligand.clash>
0.0000

> <Gold.PLP.ligand.torsion>
0.4329

> <Gold.PLP.Chemscore.Hbond>
3.9842

> <Gold.PLP.Chemscore.CHOScore>
0.0000

> <Gold.PLP.Chemscore.Metal>
0.0000

> <Gold.Chemscore.Hbonds>
donor molecule, donor type, donor heavy atom, donor atom, acceptor molecule, acceptor atom, score
      L1  H    19    42       P1  7957  0.86
      P1  H  6896  6907       L1    26  1.00
      P1  H  7989  7998       L1    19  0.07
      P1  H  7997  8009       L1    11  1.00
      P1  H  8011  8017       L1    19  1.00

> <Gold.PLP.Chemscore.Internal.Correction>
0.1063

> <Gold.Rescore>
     Score         DG    S(hbond)    S(metal)    S(lipo)     H(rot)  DE(clash)    DE(int)     intcor
     18.82     -19.64       3.44        0.00      95.40       3.32       0.03       0.79       ----

> <Gold.Chemscore.Fitness>
18.8205

> <Gold.Chemscore.DG>
-19.6418

> <Gold.Chemscore.ZeroCoef>
-5.4800

> <Gold.Chemscore.Hbond>
3.4408

> <Gold.Chemscore.Metal>
0.0000

> <Gold.Chemscore.Lipo>
95.3984

> <Gold.Chemscore.Internal_Hbond>
0.0000

> <Gold.Chemscore.DEClash>
0.0314

> <Gold.Chemscore.DEInternal>
0.7899

> <Gold.Chemscore.Rot>
3.3172

> <Gold.Chemscore.Internal.Correction>
   9.000000E+99

> <Gold.Chemscore.Hbonds>
donor molecule, donor type, donor heavy atom, donor atom, acceptor molecule, acceptor atom, score
      L1  H    19    42       P1  7957  0.80
      P1  H  6896  6907       L1    26  0.99
      P1  H  7989  7998       L1    19  0.02
      P1  H  7997  8009       L1    11  0.98
      P1  H  8011  8017       L1    19  0.28

> <Gold.Chemscore.Hbond.Weighted>
-11.4922

> <Gold.Chemscore.Metal.Weighted>
-0.0000

> <Gold.Chemscore.Lipo.Weighted>
-11.1616

> <Gold.Chemscore.Internal_Hbond.Weighted>
0.0000

> <Gold.Chemscore.DEClash.Weighted>
0.0314

> <Gold.Chemscore.DEInternal.Weighted>
0.7899

> <Gold.Chemscore.Rot.Weighted>
8.4920

> <Gold.Chemscore.Internal.Correction.Weighted>
   9.000000E+99

> <Gold.Protein.RotatedTorsions>
[ 6907 6896 6895 6894 ] final  -69.63 input  -60.11 | X-H torsion
[ 7974 7965 7964 7962 ] final   58.50 input  175.53 | X-H torsion
[ 8008 7997 7996 7995 ] final -168.26 input   59.86 | X-H torsion
[ 10167 10162 10161 10158 ] final   46.37 input  -65.29 | X-H torsion
[ 10718 10713 10712 10709 ] final  -13.59 input   66.30 | X-H torsion
[ 10763 10752 10751 10750 ] final   66.43 input  -60.55 | X-H torsion
[ 11005 11000 10999 10996 ] final  150.98 input  -57.11 | X-H torsion

> <Gold.Protein.ActiveResidues>
 VAL166  LYS551  ARG553  GLY616  TRP617  ASP618  TYR619  PRO620  LYS621  CYS622 
 ASP623  PHE694  ASN695  SER759  ASP760  ASP761  ALA762  ILE779  LEU786  VAL792 
 PHE793  MET794  SER795  GLU796  ALA797  LYS798  CYS799  TRP800  GLU811  SER814 

> <Gold.Protein.RotatedAtoms>
  150.7296  134.5568  159.5822 H   0  0  0  0  0  0  0  0  0  0  0  0  # atno 6907 bound_to 6896
  152.3042  134.7572  160.0360 H   0  0  0  0  0  0  0  0  0  0  0  0  # atno 6908 bound_to 6896
  151.8142  133.3350  159.3601 H   0  0  0  0  0  0  0  0  0  0  0  0  # atno 6909 bound_to 6896
  145.9175  139.3702  143.0498 H   0  0  0  0  0  0  0  0  0  0  0  0  # atno 7974 bound_to 7965
  155.8889  140.1021  157.1432 H   0  0  0  0  0  0  0  0  0  0  0  0  # atno 8008 bound_to 7997
  154.4013  140.1314  156.4355 H   0  0  0  0  0  0  0  0  0  0  0  0  # atno 8009 bound_to 7997
  155.7556  140.3464  155.5174 H   0  0  0  0  0  0  0  0  0  0  0  0  # atno 8010 bound_to 7997
  140.3146  144.2779  150.6193 H   0  0  0  0  0  0  0  0  0  0  0  0  # atno 10167 bound_to 10162
  156.6281  130.4894  149.6139 H   0  0  0  0  0  0  0  0  0  0  0  0  # atno 10718 bound_to 10713
  153.0140  135.5321  154.6823 H   0  0  0  0  0  0  0  0  0  0  0  0  # atno 10763 bound_to 10752
  154.5979  135.2865  155.0568 H   0  0  0  0  0  0  0  0  0  0  0  0  # atno 10764 bound_to 10752
  154.1636  135.6543  153.5044 H   0  0  0  0  0  0  0  0  0  0  0  0  # atno 10765 bound_to 10752
  140.1178  134.8883  157.2029 H   0  0  0  0  0  0  0  0  0  0  0  0  # atno 11005 bound_to 11000
  145.8593  140.9484  143.0708 LP  0  0  0  0  0  0  0  0  0  0  0  0  # atno 17320 bound_to 7965
  144.6749  140.0509  143.7479 LP  0  0  0  0  0  0  0  0  0  0  0  0  # atno 17321 bound_to 7965
  140.5538  143.2202  151.7882 LP  0  0  0  0  0  0  0  0  0  0  0  0  # atno 17342 bound_to 10162
  139.4886  144.4441  151.9730 LP  0  0  0  0  0  0  0  0  0  0  0  0  # atno 17343 bound_to 10162
  156.2257  130.6764  151.1413 LP  0  0  0  0  0  0  0  0  0  0  0  0  # atno 17370 bound_to 10713
  157.7208  131.0682  150.6143 LP  0  0  0  0  0  0  0  0  0  0  0  0  # atno 17371 bound_to 10713
  140.3005  134.3137  155.7291 LP  0  0  0  0  0  0  0  0  0  0  0  0  # atno 17394 bound_to 11000
  141.2145  133.7589  156.9633 LP  0  0  0  0  0  0  0  0  0  0  0  0  # atno 17395 bound_to 11000

$$$$
