AV-unprocessed.smi:2153|AV-procd|sdf|8767|dock7
  -GOLD-   2272011543D 1   1.00000     0.00000
 Structure written by MMmdl.
 48 49  0  0  0  0  0  0  0  0  1 V2000
  144.3252  134.6231  152.9735 C   0  0  0  0  0  0  0  0  0  0  0  0
  144.3452  133.4884  151.9371 C   0  0  1  0  0  0  0  0  0  0  0  0
  144.5990  134.0214  150.5109 C   0  0  0  0  0  0  0  0  0  0  0  0
  144.5791  132.8875  149.4730 C   0  0  0  0  0  0  0  0  0  0  0  0
  145.5716  131.7729  149.8377 C   0  0  0  0  0  0  0  0  0  0  0  0
  145.3157  131.2461  151.2579 C   0  0  0  0  0  0  0  0  0  0  0  0
  145.3629  132.3838  152.3019 C   0  0  1  0  0  0  0  0  0  0  0  0
  146.6440  132.9990  152.3691 O   0  0  0  0  0  0  0  0  0  0  0  0
  147.6724  132.2523  153.0003 C   0  0  0  0  0  0  0  0  0  0  0  0
  148.9283  133.1308  153.1046 C   0  0  0  0  0  0  0  0  0  0  0  0
  148.6681  134.3566  153.8541 N   0  0  0  0  0  0  0  0  0  0  0  0
  149.2276  134.6690  155.0338 C   0  0  0  0  0  0  0  0  0  0  0  0
  150.0616  133.9570  155.5951 O   0  0  0  0  0  0  0  0  0  0  0  0
  148.7933  135.9980  155.6649 C   0  0  0  0  0  0  0  0  0  0  0  0
  149.7931  137.0571  155.4757 N   0  0  0  0  0  0  0  0  0  0  0  0
  150.8256  136.8695  154.5749 C   0  0  0  0  0  0  0  0  0  0  0  0
  151.8080  137.7734  154.3685 C   0  0  0  0  0  0  0  0  0  0  0  0
  151.8311  139.0314  155.1040 C   0  0  0  0  0  0  0  0  0  0  0  0
  152.7143  139.8792  154.9667 O   0  0  0  0  0  0  0  0  0  0  0  0
  150.7567  139.2062  156.0062 N   0  0  0  0  0  0  0  0  0  0  0  0
  150.7427  140.4337  156.7744 C   0  0  0  0  0  0  0  0  0  0  0  0
  149.7372  138.2511  156.2270 C   0  0  0  0  0  0  0  0  0  0  0  0
  148.8313  138.4308  157.0436 O   0  0  0  0  0  0  0  0  0  0  0  0
  145.2787  135.1512  153.0066 H   0  0  0  0  0  0  0  0  0  0  0  0
  144.1230  134.2384  153.9732 H   0  0  0  0  0  0  0  0  0  0  0  0
  143.5517  135.3541  152.7384 H   0  0  0  0  0  0  0  0  0  0  0  0
  143.3529  133.0348  151.9457 H   0  0  0  0  0  0  0  0  0  0  0  0
  143.8455  134.7652  150.2501 H   0  0  0  0  0  0  0  0  0  0  0  0
  145.5608  134.5348  150.4717 H   0  0  0  0  0  0  0  0  0  0  0  0
  143.5729  132.4721  149.4081 H   0  0  0  0  0  0  0  0  0  0  0  0
  144.8127  133.2822  148.4847 H   0  0  0  0  0  0  0  0  0  0  0  0
  145.4950  130.9578  149.1179 H   0  0  0  0  0  0  0  0  0  0  0  0
  146.5924  132.1494  149.7697 H   0  0  0  0  0  0  0  0  0  0  0  0
  144.3326  130.7747  151.2899 H   0  0  0  0  0  0  0  0  0  0  0  0
  146.0255  130.4563  151.5009 H   0  0  0  0  0  0  0  0  0  0  0  0
  145.1128  131.9822  153.2853 H   0  0  0  0  0  0  0  0  0  0  0  0
  147.3559  131.9472  153.9984 H   0  0  0  0  0  0  0  0  0  0  0  0
  147.8991  131.3492  152.4338 H   0  0  0  0  0  0  0  0  0  0  0  0
  149.7495  132.5692  153.5532 H   0  0  0  0  0  0  0  0  0  0  0  0
  149.2599  133.4117  152.1050 H   0  0  0  0  0  0  0  0  0  0  0  0
  147.9970  135.0002  153.4606 H   0  0  0  0  0  0  0  0  0  0  0  0
  147.8478  136.2966  155.2104 H   0  0  0  0  0  0  0  0  0  0  0  0
  148.5786  135.8592  156.7262 H   0  0  0  0  0  0  0  0  0  0  0  0
  150.8561  135.9479  154.0116 H   0  0  0  0  0  0  0  0  0  0  0  0
  152.5895  137.5608  153.6539 H   0  0  0  0  0  0  0  0  0  0  0  0
  149.7600  140.6052  157.2137 H   0  0  0  0  0  0  0  0  0  0  0  0
  150.9661  141.2619  156.0995 H   0  0  0  0  0  0  0  0  0  0  0  0
  151.5054  140.3316  157.5480 H   0  0  0  0  0  0  0  0  0  0  0  0
  1  2  1  0  0  0  0
  1 24  1  0  0  0  0
  1 25  1  0  0  0  0
  1 26  1  0  0  0  0
  2  7  1  0  0  0  0
  2  3  1  0  0  0  0
  2 27  1  0  0  0  0
  3  4  1  0  0  0  0
  3 28  1  0  0  0  0
  3 29  1  0  0  0  0
  4  5  1  0  0  0  0
  4 30  1  0  0  0  0
  4 31  1  0  0  0  0
  5  6  1  0  0  0  0
  5 32  1  0  0  0  0
  5 33  1  0  0  0  0
  6  7  1  0  0  0  0
  6 34  1  0  0  0  0
  6 35  1  0  0  0  0
  7  8  1  0  0  0  0
  7 36  1  0  0  0  0
  8  9  1  0  0  0  0
  9 10  1  0  0  0  0
  9 37  1  0  0  0  0
  9 38  1  0  0  0  0
 10 11  1  0  0  0  0
 10 39  1  0  0  0  0
 10 40  1  0  0  0  0
 11 12  1  0  0  0  0
 11 41  1  0  0  0  0
 12 13  2  0  0  0  0
 12 14  1  0  0  0  0
 14 15  1  0  0  0  0
 14 42  1  0  0  0  0
 14 43  1  0  0  0  0
 15 22  1  0  0  0  0
 15 16  1  0  0  0  0
 16 17  2  0  0  0  0
 16 44  1  0  0  0  0
 17 18  1  0  0  0  0
 17 45  1  0  0  0  0
 18 19  2  0  0  0  0
 18 20  1  0  0  0  0
 20 21  1  0  0  0  0
 20 22  1  0  0  0  0
 21 46  1  0  0  0  0
 21 47  1  0  0  0  0
 21 48  1  0  0  0  0
 22 23  2  0  0  0  0
M  END
> <s_m_source_file>
AV-unprocessed.smi

> <i_m_source_file_index>
2153

> <i_lp_mmshare_version>
43012

> <i_f3d_flags>
0

> <s_epik_input>
W0NIM11bQ0BASF0xW0NIMl1bQ0gyXVtDSDJdW0NIMl1bQ0BIXTFPW0NIMl1bQ0gyXVtOSF1DKD1PKVtDSDJdbjJbY0hdW2NIXWMoPU8pbihbQ0gzXSljMj1P

> <s_epik_cmdline>
J2VwaWtfcHl0aG9uJywgJy1waCcsICc3LjAnLCAnLXRuJywgJzgnLCAnLW1hJywgJzIwMCcsICctbWV0YWxfYmluZGluZycsICctaW1hZScsICc8aW5maWxlLm1hZT4nLCAnLW9tYWUnLCAnPG91dGZpbGUubWFlPic=

> <r_lp_tautomer_probability>
1

> <r_epik_Ionization_Penalty>
4.02205e-08

> <r_epik_Ionization_Penalty_Charging>
1.23606e-08

> <r_epik_Ionization_Penalty_Neutral>
2.78599e-08

> <r_epik_State_Penalty>
-0

> <r_epik_Charging_Adjusted_Penalty>
1.23606e-08

> <i_epik_Tot_Q>
0

> <i_epik_Tot_abs_Q>
0

> <r_epik_Metal_State_Penalty>
-0

> <b_epik_Metal_Only>
0

> <s_lp_Force_Field>
OPLS_2005

> <r_lp_Energy>
16.8304

> <b_lp_Chiralities_Consistent>
1

> <s_lp_Variant>
AV-unprocessed.smi:2153-2

> <Gold.Version>
5.8.1

> <Gold.Id.Protein>
6NUR|6NUR_protein|mol2

> <Gold.PLP.Fitness>
43.2603

> <Gold.PLP.PLP>
-37.9331

> <Gold.PLP.part.hbond>
-3.0000

> <Gold.PLP.part.metal>
0.0000

> <Gold.PLP.part.buried>
-3.2582

> <Gold.PLP.part.nonpolar>
-31.9015

> <Gold.PLP.part.repulsive>
0.1884

> <Gold.PLP.ligand.clash>
0.0000

> <Gold.PLP.ligand.torsion>
0.5216

> <Gold.PLP.Chemscore.Hbond>
1.4035

> <Gold.PLP.Chemscore.CHOScore>
0.6628

> <Gold.PLP.Chemscore.Metal>
0.0000

> <Gold.Chemscore.Hbonds>
donor molecule, donor type, donor heavy atom, donor atom, acceptor molecule, acceptor atom, score
      L1  H    11    41       P1  7948  0.11
      P1  H  7989  7998       L1    19  0.31
      P1  H  7997  8010       L1    19  1.00
      L1  C    16    44       P1  7948  0.02
      L1  C    16    44       P1  7949  0.64

> <Gold.PLP.Chemscore.Internal.Correction>
0.1717

> <Gold.Rescore>
     Score         DG    S(hbond)    S(metal)    S(lipo)     H(rot)  DE(clash)    DE(int)     intcor
     13.66     -14.18       1.15        0.00      89.61       2.20       0.04       0.48       ----

> <Gold.Chemscore.Fitness>
13.6588

> <Gold.Chemscore.DG>
-14.1815

> <Gold.Chemscore.ZeroCoef>
-5.4800

> <Gold.Chemscore.Hbond>
1.1500

> <Gold.Chemscore.Metal>
0.0000

> <Gold.Chemscore.Lipo>
89.6091

> <Gold.Chemscore.Internal_Hbond>
0.0000

> <Gold.Chemscore.DEClash>
0.0402

> <Gold.Chemscore.DEInternal>
0.4824

> <Gold.Chemscore.Rot>
2.1968

> <Gold.Chemscore.Internal.Correction>
   9.000000E+99

> <Gold.Chemscore.Hbonds>
donor molecule, donor type, donor heavy atom, donor atom, acceptor molecule, acceptor atom, score
      L1  H    11    41       P1  7948  0.10
      P1  H  7989  7998       L1    19  0.03
      P1  H  7997  8010       L1    19  0.95

> <Gold.Chemscore.Hbond.Weighted>
-3.8409

> <Gold.Chemscore.Metal.Weighted>
-0.0000

> <Gold.Chemscore.Lipo.Weighted>
-10.4843

> <Gold.Chemscore.Internal_Hbond.Weighted>
0.0000

> <Gold.Chemscore.DEClash.Weighted>
0.0402

> <Gold.Chemscore.DEInternal.Weighted>
0.4824

> <Gold.Chemscore.Rot.Weighted>
5.6238

> <Gold.Chemscore.Internal.Correction.Weighted>
   9.000000E+99

> <Gold.Protein.RotatedTorsions>
[ 6907 6896 6895 6894 ] final   97.58 input  -60.11 | X-H torsion
[ 7974 7965 7964 7962 ] final   47.09 input  175.53 | X-H torsion
[ 8008 7997 7996 7995 ] final  113.62 input   59.86 | X-H torsion
[ 10167 10162 10161 10158 ] final  109.50 input  -65.29 | X-H torsion
[ 10718 10713 10712 10709 ] final  -80.92 input   66.30 | X-H torsion
[ 10763 10752 10751 10750 ] final  153.43 input  -60.55 | X-H torsion
[ 11005 11000 10999 10996 ] final   -5.45 input  -57.11 | X-H torsion

> <Gold.Protein.ActiveResidues>
 VAL166  LYS551  ARG553  GLY616  TRP617  ASP618  TYR619  PRO620  LYS621  CYS622 
 ASP623  PHE694  ASN695  SER759  ASP760  ASP761  ALA762  ILE779  LEU786  VAL792 
 PHE793  MET794  SER795  GLU796  ALA797  LYS798  CYS799  TRP800  GLU811  SER814 

> <Gold.Protein.RotatedAtoms>
  152.5421  134.0711  159.8194 H   0  0  0  0  0  0  0  0  0  0  0  0  # atno 6907 bound_to 6896
  151.0826  133.5371  159.2627 H   0  0  0  0  0  0  0  0  0  0  0  0  # atno 6908 bound_to 6896
  151.2192  135.0520  159.8997 H   0  0  0  0  0  0  0  0  0  0  0  0  # atno 6909 bound_to 6896
  146.0330  139.4787  142.9826 H   0  0  0  0  0  0  0  0  0  0  0  0  # atno 7974 bound_to 7965
  156.2269  140.2976  156.0090 H   0  0  0  0  0  0  0  0  0  0  0  0  # atno 8008 bound_to 7997
  155.2331  140.0419  157.2982 H   0  0  0  0  0  0  0  0  0  0  0  0  # atno 8009 bound_to 7997
  154.5931  140.2407  155.7901 H   0  0  0  0  0  0  0  0  0  0  0  0  # atno 8010 bound_to 7997
  139.6762  144.7122  151.1598 H   0  0  0  0  0  0  0  0  0  0  0  0  # atno 10167 bound_to 10162
  156.0060  130.4588  150.3874 H   0  0  0  0  0  0  0  0  0  0  0  0  # atno 10718 bound_to 10713
  154.1361  135.2823  155.3173 H   0  0  0  0  0  0  0  0  0  0  0  0  # atno 10763 bound_to 10752
  154.6321  135.5432  153.7695 H   0  0  0  0  0  0  0  0  0  0  0  0  # atno 10764 bound_to 10752
  153.0265  135.6465  154.1510 H   0  0  0  0  0  0  0  0  0  0  0  0  # atno 10765 bound_to 10752
  140.6913  133.9069  155.8620 H   0  0  0  0  0  0  0  0  0  0  0  0  # atno 11005 bound_to 11000
  145.7009  141.0136  143.1505 LP  0  0  0  0  0  0  0  0  0  0  0  0  # atno 17320 bound_to 7965
  144.7039  139.8644  143.7436 LP  0  0  0  0  0  0  0  0  0  0  0  0  # atno 17321 bound_to 7965
  140.7636  143.5769  150.8936 LP  0  0  0  0  0  0  0  0  0  0  0  0  # atno 17342 bound_to 10162
  139.9438  143.6351  152.3047 LP  0  0  0  0  0  0  0  0  0  0  0  0  # atno 17343 bound_to 10162
  157.1951  131.0424  151.2680 LP  0  0  0  0  0  0  0  0  0  0  0  0  # atno 17370 bound_to 10713
  157.4026  130.7342  149.6779 LP  0  0  0  0  0  0  0  0  0  0  0  0  # atno 17371 bound_to 10713
  141.0239  134.0850  157.4090 LP  0  0  0  0  0  0  0  0  0  0  0  0  # atno 17394 bound_to 11000
  139.8923  135.0123  156.6837 LP  0  0  0  0  0  0  0  0  0  0  0  0  # atno 17395 bound_to 11000

$$$$
