AV-unprocessed.smi:1922|AV-procd|sdf|7787|dock10
  -GOLD-   22720 9533D 1   1.00000     0.00000
 Structure written by MMmdl.
 34 35  0  0  0  0  0  0  0  0  2 V2000
  153.7296  139.5360  158.6091 O   0  0  0  0  0  0  0  0  0  0  0  0
  152.6344  139.8585  159.0724 C   0  0  0  0  0  0  0  0  0  0  0  0
  151.3799  139.0098  158.8126 C   0  0  0  0  0  0  0  0  0  0  0  0
  151.1630  138.6764  157.3971 N   0  0  0  0  0  0  0  0  0  0  0  0
  150.7675  139.8173  156.5756 N   0  5  0  0  0  0  0  0  0  0  0  0
  150.5559  139.6341  155.2453 C   0  0  0  0  0  0  0  0  0  0  0  0
  150.2405  140.5493  154.4883 O   0  0  0  0  0  0  0  0  0  0  0  0
  150.7061  138.2924  154.7070 C   0  0  0  0  0  0  0  0  0  0  0  0
  151.0462  137.2525  155.4939 C   0  0  0  0  0  0  0  0  0  0  0  0
  151.2897  137.4037  156.9233 C   0  0  0  0  0  0  0  0  0  0  0  0
  151.5899  136.4559  157.6501 O   0  0  0  0  0  0  0  0  0  0  0  0
  152.4466  140.9575  159.8189 N   0  0  0  0  0  0  0  0  0  0  0  0
  153.4840  141.9036  160.2162 C   0  0  0  0  0  0  0  0  0  0  0  0
  153.0953  143.3529  159.8687 C   0  0  0  0  0  0  0  0  0  0  0  0
  152.0718  143.9582  160.8314 C   0  0  0  0  0  0  0  0  0  0  0  0
  151.4889  145.1611  160.0823 C   0  0  0  0  0  0  0  0  0  0  0  0
  151.6911  144.8742  158.5863 C   0  0  0  0  0  0  0  0  0  0  0  0
  152.4294  143.5334  158.5001 C   0  0  0  0  0  0  0  0  0  0  0  0
  151.4443  138.0869  159.3919 H   0  0  0  0  0  0  0  0  0  0  0  0
  150.5210  139.5492  159.2158 H   0  0  0  0  0  0  0  0  0  0  0  0
  150.5387  138.1252  153.6533 H   0  0  0  0  0  0  0  0  0  0  0  0
  151.1443  136.2727  155.0514 H   0  0  0  0  0  0  0  0  0  0  0  0
  151.5112  141.1440  160.1497 H   0  0  0  0  0  0  0  0  0  0  0  0
  153.7138  141.8104  161.2791 H   0  0  0  0  0  0  0  0  0  0  0  0
  154.3963  141.6341  159.6838 H   0  0  0  0  0  0  0  0  0  0  0  0
  153.9915  143.9752  159.8965 H   0  0  0  0  0  0  0  0  0  0  0  0
  151.2785  143.2362  161.0315 H   0  0  0  0  0  0  0  0  0  0  0  0
  152.5125  144.2377  161.7888 H   0  0  0  0  0  0  0  0  0  0  0  0
  150.4390  145.3170  160.3318 H   0  0  0  0  0  0  0  0  0  0  0  0
  152.0272  146.0687  160.3578 H   0  0  0  0  0  0  0  0  0  0  0  0
  150.7438  144.8374  158.0476 H   0  0  0  0  0  0  0  0  0  0  0  0
  152.2910  145.6659  158.1358 H   0  0  0  0  0  0  0  0  0  0  0  0
  153.1454  143.5058  157.6781 H   0  0  0  0  0  0  0  0  0  0  0  0
  151.7069  142.7333  158.3322 H   0  0  0  0  0  0  0  0  0  0  0  0
  1  2  2  0  0  0  0
  2  3  1  0  0  0  0
  2 12  1  0  0  0  0
  3 19  1  0  0  0  0
  3 20  1  0  0  0  0
  3  4  1  0  0  0  0
  4  5  1  0  0  0  0
  4 10  1  0  0  0  0
  5  6  1  0  0  0  0
  6  7  2  0  0  0  0
  6  8  1  0  0  0  0
  8 21  1  0  0  0  0
  8  9  2  0  0  0  0
  9 22  1  0  0  0  0
  9 10  1  0  0  0  0
 10 11  2  0  0  0  0
 12 13  1  0  0  0  0
 12 23  1  0  0  0  0
 13 14  1  0  0  0  0
 13 24  1  0  0  0  0
 13 25  1  0  0  0  0
 14 18  1  0  0  0  0
 14 15  1  0  0  0  0
 14 26  1  0  0  0  0
 15 16  1  0  0  0  0
 15 27  1  0  0  0  0
 15 28  1  0  0  0  0
 16 17  1  0  0  0  0
 16 29  1  0  0  0  0
 16 30  1  0  0  0  0
 17 18  1  0  0  0  0
 17 31  1  0  0  0  0
 17 32  1  0  0  0  0
 18 33  1  0  0  0  0
 18 34  1  0  0  0  0
M  CHG  1   5  -1
M  END
> <s_m_source_file>
AV-unprocessed.smi

> <i_m_source_file_index>
1922

> <i_lp_mmshare_version>
43012

> <i_f3d_flags>
0

> <s_epik_input>
W0NIMl0xW0NIMl1bQ0gyXVtDSDJdW0NIXTFbQ0gyXVtOSF1DKD1PKVtDSDJdbjJbbkhdYyg9TylbY0hdW2NIXWMyPU8=

> <s_epik_cmdline>
J2VwaWtfcHl0aG9uJywgJy1waCcsICc3LjAnLCAnLXRuJywgJzgnLCAnLW1hJywgJzIwMCcsICctbWV0YWxfYmluZGluZycsICctaW1hZScsICc8aW5maWxlLm1hZT4nLCAnLW9tYWUnLCAnPG91dGZpbGUubWFlPic=

> <r_lp_tautomer_probability>
1

> <r_epik_Ionization_Penalty>
0.0984168

> <r_epik_Ionization_Penalty_Charging>
0.0984168

> <r_epik_Ionization_Penalty_Neutral>
1.97085e-08

> <r_epik_State_Penalty>
0.0346886

> <r_epik_Charging_Adjusted_Penalty>
0.133105

> <i_epik_Tot_Q>
-1

> <i_epik_Tot_abs_Q>
1

> <r_epik_Metal_State_Penalty>
0.0346886

> <b_epik_Metal_Only>
0

> <s_lp_Force_Field>
OPLS_2005

> <r_lp_Energy>
36.8816

> <b_lp_Chiralities_Consistent>
1

> <s_lp_Variant>
AV-unprocessed.smi:1922-1

> <Gold.Version>
5.8.1

> <Gold.Id.Protein>
6NUR|6NUR_protein|mol2

> <Gold.PLP.Fitness>
44.3413

> <Gold.PLP.PLP>
-39.0675

> <Gold.PLP.part.hbond>
-2.3527

> <Gold.PLP.part.metal>
0.0000

> <Gold.PLP.part.buried>
-5.9770

> <Gold.PLP.part.nonpolar>
-31.2643

> <Gold.PLP.part.repulsive>
0.2477

> <Gold.PLP.ligand.clash>
0.0000

> <Gold.PLP.ligand.torsion>
0.3562

> <Gold.PLP.Chemscore.Hbond>
1.9920

> <Gold.PLP.Chemscore.CHOScore>
0.0000

> <Gold.PLP.Chemscore.Metal>
0.0000

> <Gold.Chemscore.Hbonds>
donor molecule, donor type, donor heavy atom, donor atom, acceptor molecule, acceptor atom, score
      P1  H  7989  7998       L1     7  0.90
      P1  H  7997  8009       L1     1  1.00

> <Gold.PLP.Chemscore.Internal.Correction>
0.0102

> <Gold.Rescore>
     Score         DG    S(hbond)    S(metal)    S(lipo)     H(rot)  DE(clash)    DE(int)     intcor
     19.59     -20.01       2.67        0.00      90.49       1.94       0.02       0.40       ----

> <Gold.Chemscore.Fitness>
19.5853

> <Gold.Chemscore.DG>
-20.0083

> <Gold.Chemscore.ZeroCoef>
-5.4800

> <Gold.Chemscore.Hbond>
2.6670

> <Gold.Chemscore.Metal>
0.0000

> <Gold.Chemscore.Lipo>
90.4870

> <Gold.Chemscore.Internal_Hbond>
0.0000

> <Gold.Chemscore.DEClash>
0.0249

> <Gold.Chemscore.DEInternal>
0.3981

> <Gold.Chemscore.Rot>
1.9401

> <Gold.Chemscore.Internal.Correction>
   9.000000E+99

> <Gold.Chemscore.Hbonds>
donor molecule, donor type, donor heavy atom, donor atom, acceptor molecule, acceptor atom, score
      P1  H  7989  7998       L1     7  0.53
      P1  H  7997  8009       L1     1  0.96

> <Gold.Chemscore.Hbond.Weighted>
-8.9079

> <Gold.Chemscore.Metal.Weighted>
-0.0000

> <Gold.Chemscore.Lipo.Weighted>
-10.5870

> <Gold.Chemscore.Internal_Hbond.Weighted>
0.0000

> <Gold.Chemscore.DEClash.Weighted>
0.0249

> <Gold.Chemscore.DEInternal.Weighted>
0.3981

> <Gold.Chemscore.Rot.Weighted>
4.9666

> <Gold.Chemscore.Internal.Correction.Weighted>
   9.000000E+99

> <Gold.Protein.RotatedTorsions>
[ 6907 6896 6895 6894 ] final -139.41 input  -60.11 | X-H torsion
[ 7974 7965 7964 7962 ] final  -36.09 input  175.53 | X-H torsion
[ 8008 7997 7996 7995 ] final  124.55 input   59.86 | X-H torsion
[ 10167 10162 10161 10158 ] final   75.91 input  -65.29 | X-H torsion
[ 10718 10713 10712 10709 ] final  -26.74 input   66.30 | X-H torsion
[ 10763 10752 10751 10750 ] final  176.90 input  -60.55 | X-H torsion
[ 11005 11000 10999 10996 ] final  -18.55 input  -57.11 | X-H torsion

> <Gold.Protein.ActiveResidues>
 VAL166  LYS551  ARG553  GLY616  TRP617  ASP618  TYR619  PRO620  LYS621  CYS622 
 ASP623  PHE694  ASN695  SER759  ASP760  ASP761  ALA762  ILE779  LEU786  VAL792 
 PHE793  MET794  SER795  GLU796  ALA797  LYS798  CYS799  TRP800  GLU811  SER814 

> <Gold.Protein.RotatedAtoms>
  151.0474  133.5654  159.2645 H   0  0  0  0  0  0  0  0  0  0  0  0  # atno 6907 bound_to 6896
  151.2677  135.0674  159.9132 H   0  0  0  0  0  0  0  0  0  0  0  0  # atno 6908 bound_to 6896
  152.5375  134.0209  159.8035 H   0  0  0  0  0  0  0  0  0  0  0  0  # atno 6909 bound_to 6896
  146.0691  140.6236  142.8961 H   0  0  0  0  0  0  0  0  0  0  0  0  # atno 7974 bound_to 7965
  156.2805  140.2737  156.1806 H   0  0  0  0  0  0  0  0  0  0  0  0  # atno 8008 bound_to 7997
  155.0560  140.0386  157.2578 H   0  0  0  0  0  0  0  0  0  0  0  0  # atno 8009 bound_to 7997
  154.7156  140.2677  155.6594 H   0  0  0  0  0  0  0  0  0  0  0  0  # atno 8010 bound_to 7997
  139.9979  144.5708  150.7762 H   0  0  0  0  0  0  0  0  0  0  0  0  # atno 10167 bound_to 10162
  156.4472  130.4476  149.7013 H   0  0  0  0  0  0  0  0  0  0  0  0  # atno 10718 bound_to 10713
  154.4873  135.2777  155.1524 H   0  0  0  0  0  0  0  0  0  0  0  0  # atno 10763 bound_to 10752
  154.3210  135.6210  153.5511 H   0  0  0  0  0  0  0  0  0  0  0  0  # atno 10764 bound_to 10752
  152.9883  135.5742  154.5287 H   0  0  0  0  0  0  0  0  0  0  0  0  # atno 10765 bound_to 10752
  140.8279  133.8019  155.9728 H   0  0  0  0  0  0  0  0  0  0  0  0  # atno 11005 bound_to 11000
  144.7221  140.4406  143.7000 LP  0  0  0  0  0  0  0  0  0  0  0  0  # atno 17320 bound_to 7965
  145.6423  139.1552  143.2908 LP  0  0  0  0  0  0  0  0  0  0  0  0  # atno 17321 bound_to 7965
  140.7430  143.2840  151.3517 LP  0  0  0  0  0  0  0  0  0  0  0  0  # atno 17342 bound_to 10162
  139.6293  144.0753  152.2462 LP  0  0  0  0  0  0  0  0  0  0  0  0  # atno 17343 bound_to 10162
  156.3854  130.7600  151.2597 LP  0  0  0  0  0  0  0  0  0  0  0  0  # atno 17370 bound_to 10713
  157.7504  131.0283  150.4044 LP  0  0  0  0  0  0  0  0  0  0  0  0  # atno 17371 bound_to 10713
  140.9029  134.2356  157.5031 LP  0  0  0  0  0  0  0  0  0  0  0  0  # atno 17394 bound_to 11000
  139.8706  134.9715  156.4738 LP  0  0  0  0  0  0  0  0  0  0  0  0  # atno 17395 bound_to 11000

$$$$
