#       Name:                AV-unprocessed.smi:2750
#       Creating user name   scv26
#       Creation time:       Fri Mar 27 15:04:02 2020


#       File generated by GOLD software.
#

@<TRIPOS>MOLECULE
AV-unprocessed.smi:2750
    35    36     1
SMALL
NO_CHARGES


@<TRIPOS>ATOM
      1 ****        -4.7714   1.6342  -1.5129 O.co2          1 S1                 0.0000
      2 ****        -4.1317   0.8949  -0.7335 C.2            1 S1                 0.0000
      3 ****        -3.9053   1.1345   0.4734 O.co2          1 S1                -1.0000
      4 ****        -3.5923  -0.4186  -1.3041 C.3            1 S1                 0.0000
      5 ****        -2.1526  -0.5328  -1.1574 N.pl3          1 S1                 0.0000
      6 ****        -1.4348  -1.0360  -0.0922 C.2            1 S1                 0.0000
      7 ****        -0.1360  -0.8701  -0.4791 C.2            1 S1                 0.0000
      8 ****         1.1210  -1.1833   0.2754 C.3            1 S1                 0.0000
      9 ****         1.6261   0.0085   1.1140 C.3            1 S1                 0.0000
     10 ****         1.9014   1.1946   0.3202 N.am           1 S1                 0.0000
     11 ****         3.1756   1.5949   0.4235 C.2            1 S1                 0.0000
     12 ****         3.6756   2.5669  -0.1377 O.2            1 S1                 0.0000
     13 ****         3.8083   0.7488   1.2438 N.am           1 S1                 0.0000
     14 ****         3.0097  -0.2176   1.6936 C.2            1 S1                 0.0000
     15 ****         3.3156  -1.1421   2.4442 O.2            1 S1                 0.0000
     16 ****        -0.1168  -0.2906  -1.7477 N.2            1 S1                 0.0000
     17 ****        -1.3348  -0.0930  -2.1441 N.2            1 S1                 0.0000
     18 ****        -4.0638  -1.2536  -0.7852 H              1 S1                 0.0000
     19 ****        -3.8543  -0.5109  -2.3596 H              1 S1                 0.0000
     20 ****        -1.8910  -1.4259   0.8056 H              1 S1                 0.0000
     21 ****         0.9482  -2.0363   0.9327 H              1 S1                 0.0000
     22 ****         1.8972  -1.5024  -0.4223 H              1 S1                 0.0000
     23 ****         0.9210   0.2576   1.9084 H              1 S1                 0.0000
     24 ****         1.1991   1.6513  -0.2442 H              1 S1                 0.0000
     25 ****         4.7852   0.8275   1.4853 H              1 S1                 0.0000
     26 ****        -5.1507   2.4988  -1.1835 LP             1 S1                 0.0000
     27 ****        -4.9036   1.3609  -2.4657 LP             1 S1                 0.0000
     28 ****        -4.2473   1.9775   0.8885 LP             1 S1                 0.0000
     29 ****        -3.3823   0.4829   1.0230 LP             1 S1                 0.0000
     30 ****         3.1168   3.1407  -0.7364 LP             1 S1                 0.0000
     31 ****         4.6414   2.7841   0.0042 LP             1 S1                 0.0000
     32 ****         2.6273  -1.8151   2.7149 LP             1 S1                 0.0000
     33 ****         4.2528  -1.2211   2.7840 LP             1 S1                 0.0000
     34 ****         0.7061  -0.0637  -2.2686 LP             1 S1                 0.0000
     35 ****        -1.6179   0.3087  -3.0150 LP             1 S1                 0.0000
@<TRIPOS>BOND
    1    1    2 ar    
    2    2    3 ar    
    3    2    4 1     
    4    4    5 1     
    5    4   18 1     
    6    4   19 1     
    7    5   17 1     
    8    5    6 1     
    9    6    7 2     
   10    6   20 1     
   11    7    8 1     
   12    7   16 1     
   13    8    9 1     
   14    8   21 1     
   15    8   22 1     
   16    9   14 1     
   17    9   10 1     
   18    9   23 1     
   19   10   11 am    
   20   10   24 1     
   21   11   12 2     
   22   11   13 am    
   23   13   14 am    
   24   13   25 1     
   25   14   15 2     
   26   16   17 2     
   27    1   26 1     
   28    1   27 1     
   29    3   28 1     
   30    3   29 1     
   31   12   30 1     
   32   12   31 1     
   33   15   32 1     
   34   15   33 1     
   35   16   34 1     
   36   17   35 1     
@<TRIPOS>SUBSTRUCTURE
      1 S1             1
@<TRIPOS>SET
LONE_PAIRS      STATIC     ATOMS    <user>   **** ""
10 26 27 28 29 30 31 32 33 34 35
DONOR_HYDROGENS      STATIC     ATOMS    <user>   **** ""
2 24 25
ATOM$BLUE        STATIC     ATOMS    COLORGROUP SYSTEM
10 26 27 28 29 30 31 32 33 34 35
ATOM$RED        STATIC     ATOMS    COLORGROUP SYSTEM
2 24 25
