AV-unprocessed.smi:2311|AV-procd|sdf|9261|dock7
  -GOLD-   2272012483D 1   1.00000     0.00000
 Structure written by MMmdl.
 40 41  0  0  0  0  0  0  0  0  1 V2000
  150.1841  140.9786  155.4915 C   0  0  0  0  0  0  0  0  0  0  0  0
  148.9304  140.7660  154.6696 C   0  0  0  0  0  0  0  0  0  0  0  0
  147.9830  141.7967  154.5125 C   0  0  0  0  0  0  0  0  0  0  0  0
  146.8387  141.5327  153.7386 C   0  0  0  0  0  0  0  0  0  0  0  0
  146.6895  140.2581  153.1587 C   0  0  0  0  0  0  0  0  0  0  0  0
  147.6870  139.2787  153.3659 C   0  0  0  0  0  0  0  0  0  0  0  0
  147.4424  138.0277  152.7395 N   0  0  0  0  0  0  0  0  0  0  0  0
  146.2601  137.4256  152.5182 C   0  0  0  0  0  0  0  0  0  0  0  0
  145.1594  137.8777  152.8353 O   0  0  0  0  0  0  0  0  0  0  0  0
  146.4238  136.2492  151.8952 N   0  0  0  0  0  0  0  0  0  0  0  0
  145.3439  135.3461  151.5066 C   0  0  2  0  0  0  0  0  0  0  0  0
  144.3294  135.2283  152.6501 C   0  0  0  0  0  0  0  0  0  0  0  0
  143.2490  134.1930  152.3090 C   0  0  0  0  0  0  0  0  0  0  0  0
  143.8435  132.9312  152.0107 O   0  0  0  0  0  0  0  0  0  0  0  0
  144.7719  132.9102  150.9211 C   0  0  0  0  0  0  0  0  0  0  0  0
  145.3663  131.4921  150.9251 C   0  0  0  0  0  0  0  0  0  0  0  0
  144.0475  133.1438  149.5778 C   0  0  0  0  0  0  0  0  0  0  0  0
  145.8933  133.9467  151.1741 C   0  0  0  0  0  0  0  0  0  0  0  0
  148.7874  139.5436  154.1137 N   0  0  0  0  0  0  0  0  0  0  0  0
  150.2976  142.0251  155.7757 H   0  0  0  0  0  0  0  0  0  0  0  0
  151.0674  140.6835  154.9244 H   0  0  0  0  0  0  0  0  0  0  0  0
  150.1443  140.3799  156.4018 H   0  0  0  0  0  0  0  0  0  0  0  0
  148.1258  142.7639  154.9720 H   0  0  0  0  0  0  0  0  0  0  0  0
  146.0870  142.2943  153.5920 H   0  0  0  0  0  0  0  0  0  0  0  0
  145.8159  140.0394  152.5618 H   0  0  0  0  0  0  0  0  0  0  0  0
  148.2632  137.5350  152.4207 H   0  0  0  0  0  0  0  0  0  0  0  0
  147.3633  135.9556  151.6719 H   0  0  0  0  0  0  0  0  0  0  0  0
  144.8352  135.7587  150.6340 H   0  0  0  0  0  0  0  0  0  0  0  0
  144.8363  134.9272  153.5683 H   0  0  0  0  0  0  0  0  0  0  0  0
  143.8682  136.1962  152.8499 H   0  0  0  0  0  0  0  0  0  0  0  0
  142.5807  134.0645  153.1605 H   0  0  0  0  0  0  0  0  0  0  0  0
  142.6270  134.5353  151.4822 H   0  0  0  0  0  0  0  0  0  0  0  0
  146.1088  131.3707  150.1355 H   0  0  0  0  0  0  0  0  0  0  0  0
  144.5927  130.7390  150.7710 H   0  0  0  0  0  0  0  0  0  0  0  0
  145.8541  131.2690  151.8746 H   0  0  0  0  0  0  0  0  0  0  0  0
  144.7350  133.0268  148.7395 H   0  0  0  0  0  0  0  0  0  0  0  0
  143.6173  134.1410  149.4973 H   0  0  0  0  0  0  0  0  0  0  0  0
  143.2377  132.4267  149.4401 H   0  0  0  0  0  0  0  0  0  0  0  0
  146.5587  133.9944  150.3108 H   0  0  0  0  0  0  0  0  0  0  0  0
  146.5080  133.6091  152.0103 H   0  0  0  0  0  0  0  0  0  0  0  0
  1  2  1  0  0  0  0
  1 20  1  0  0  0  0
  1 21  1  0  0  0  0
  1 22  1  0  0  0  0
  2 19  1  0  0  0  0
  2  3  2  0  0  0  0
  3  4  1  0  0  0  0
  3 23  1  0  0  0  0
  4  5  2  0  0  0  0
  4 24  1  0  0  0  0
  5  6  1  0  0  0  0
  5 25  1  0  0  0  0
  6  7  1  0  0  0  0
  6 19  2  0  0  0  0
  7  8  1  0  0  0  0
  7 26  1  0  0  0  0
  8  9  2  0  0  0  0
  8 10  1  0  0  0  0
 10 11  1  0  0  0  0
 10 27  1  0  0  0  0
 11 18  1  0  0  0  0
 11 12  1  0  0  0  0
 11 28  1  0  0  0  0
 12 13  1  0  0  0  0
 12 29  1  0  0  0  0
 12 30  1  0  0  0  0
 13 14  1  0  0  0  0
 13 31  1  0  0  0  0
 13 32  1  0  0  0  0
 14 15  1  0  0  0  0
 15 16  1  0  0  0  0
 15 17  1  0  0  0  0
 15 18  1  0  0  0  0
 16 33  1  0  0  0  0
 16 34  1  0  0  0  0
 16 35  1  0  0  0  0
 17 36  1  0  0  0  0
 17 37  1  0  0  0  0
 17 38  1  0  0  0  0
 18 39  1  0  0  0  0
 18 40  1  0  0  0  0
M  END
> <s_m_source_file>
AV-unprocessed.smi

> <i_m_source_file_index>
2311

> <i_lp_mmshare_version>
43012

> <i_f3d_flags>
0

> <s_epik_input>
W0NIM11jMVtjSF1bY0hdW2NIXWMobjEpW05IXUMoPU8pW05IXVtDQEBIXShbQ0gyXTIpW0NIMl1bQ0gyXU9DMihbQ0gzXSlbQ0gzXQ==

> <s_epik_cmdline>
J2VwaWtfcHl0aG9uJywgJy1waCcsICc3LjAnLCAnLXRuJywgJzgnLCAnLW1hJywgJzIwMCcsICctbWV0YWxfYmluZGluZycsICctaW1hZScsICc8aW5maWxlLm1hZT4nLCAnLW9tYWUnLCAnPG91dGZpbGUubWFlPic=

> <r_lp_tautomer_probability>
1

> <r_epik_Ionization_Penalty>
8.54628e-05

> <r_epik_Ionization_Penalty_Charging>
0

> <r_epik_Ionization_Penalty_Neutral>
8.54628e-05

> <r_epik_State_Penalty>
-0

> <r_epik_Charging_Adjusted_Penalty>
0

> <i_epik_Tot_Q>
0

> <i_epik_Tot_abs_Q>
0

> <r_epik_Metal_State_Penalty>
-0

> <b_epik_Metal_Only>
0

> <s_lp_Force_Field>
OPLS_2005

> <r_lp_Energy>
12.4956

> <b_lp_Chiralities_Consistent>
1

> <s_lp_Variant>
AV-unprocessed.smi:2311-1

> <Gold.Version>
5.8.1

> <Gold.Id.Protein>
6NUR|6NUR_protein|mol2

> <Gold.PLP.Fitness>
37.4505

> <Gold.PLP.PLP>
-32.3749

> <Gold.PLP.part.hbond>
-1.8816

> <Gold.PLP.part.metal>
0.0000

> <Gold.PLP.part.buried>
-1.7494

> <Gold.PLP.part.nonpolar>
-31.3902

> <Gold.PLP.part.repulsive>
2.5000

> <Gold.PLP.ligand.clash>
0.0000

> <Gold.PLP.ligand.torsion>
0.4263

> <Gold.PLP.Chemscore.Hbond>
1.9760

> <Gold.PLP.Chemscore.CHOScore>
0.0000

> <Gold.PLP.Chemscore.Metal>
0.0000

> <Gold.Chemscore.Hbonds>
donor molecule, donor type, donor heavy atom, donor atom, acceptor molecule, acceptor atom, score
      L1  H     7    26       P1  7948  1.00
      L1  H    10    27       P1  7948  0.98

> <Gold.PLP.Chemscore.Internal.Correction>
0.0002

> <Gold.Rescore>
     Score         DG    S(hbond)    S(metal)    S(lipo)     H(rot)  DE(clash)    DE(int)     intcor
     14.33     -18.11       1.89        0.00      75.99       1.00       0.35       3.43       ----

> <Gold.Chemscore.Fitness>
14.3252

> <Gold.Chemscore.DG>
-18.1080

> <Gold.Chemscore.ZeroCoef>
-5.4800

> <Gold.Chemscore.Hbond>
1.8855

> <Gold.Chemscore.Metal>
0.0000

> <Gold.Chemscore.Lipo>
75.9862

> <Gold.Chemscore.Internal_Hbond>
0.0000

> <Gold.Chemscore.DEClash>
0.3489

> <Gold.Chemscore.DEInternal>
3.4338

> <Gold.Chemscore.Rot>
1.0000

> <Gold.Chemscore.Internal.Correction>
   9.000000E+99

> <Gold.Chemscore.Hbonds>
donor molecule, donor type, donor heavy atom, donor atom, acceptor molecule, acceptor atom, score
      L1  H     7    26       P1  7948  0.92
      L1  H    10    27       P1  7948  0.91

> <Gold.Chemscore.Hbond.Weighted>
-6.2976

> <Gold.Chemscore.Metal.Weighted>
-0.0000

> <Gold.Chemscore.Lipo.Weighted>
-8.8904

> <Gold.Chemscore.Internal_Hbond.Weighted>
0.0000

> <Gold.Chemscore.DEClash.Weighted>
0.3489

> <Gold.Chemscore.DEInternal.Weighted>
3.4338

> <Gold.Chemscore.Rot.Weighted>
2.5600

> <Gold.Chemscore.Internal.Correction.Weighted>
   9.000000E+99

> <Gold.Protein.RotatedTorsions>
[ 6907 6896 6895 6894 ] final  -51.29 input  -60.11 | X-H torsion
[ 7974 7965 7964 7962 ] final  168.34 input  175.53 | X-H torsion
[ 8008 7997 7996 7995 ] final  135.74 input   59.86 | X-H torsion
[ 10167 10162 10161 10158 ] final -154.77 input  -65.29 | X-H torsion
[ 10718 10713 10712 10709 ] final -118.74 input   66.30 | X-H torsion
[ 10763 10752 10751 10750 ] final -157.98 input  -60.55 | X-H torsion
[ 11005 11000 10999 10996 ] final  161.05 input  -57.11 | X-H torsion

> <Gold.Protein.ActiveResidues>
 VAL166  LYS551  ARG553  GLY616  TRP617  ASP618  TYR619  PRO620  LYS621  CYS622 
 ASP623  PHE694  ASN695  SER759  ASP760  ASP761  ALA762  ILE779  LEU786  VAL792 
 PHE793  MET794  SER795  GLU796  ALA797  LYS798  CYS799  TRP800  GLU811  SER814 

> <Gold.Protein.RotatedAtoms>
  150.8625  134.7981  159.7093 H   0  0  0  0  0  0  0  0  0  0  0  0  # atno 6907 bound_to 6896
  152.4657  134.5076  159.9754 H   0  0  0  0  0  0  0  0  0  0  0  0  # atno 6908 bound_to 6896
  151.5178  133.3434  159.2931 H   0  0  0  0  0  0  0  0  0  0  0  0  # atno 6909 bound_to 6896
  144.7392  139.8893  143.6402 H   0  0  0  0  0  0  0  0  0  0  0  0  # atno 7974 bound_to 7965
  156.3003  140.2463  156.3631 H   0  0  0  0  0  0  0  0  0  0  0  0  # atno 8008 bound_to 7997
  154.8858  140.0411  157.1829 H   0  0  0  0  0  0  0  0  0  0  0  0  # atno 8009 bound_to 7997
  154.8648  140.2926  155.5521 H   0  0  0  0  0  0  0  0  0  0  0  0  # atno 8010 bound_to 7997
  139.6986  143.9300  152.2418 H   0  0  0  0  0  0  0  0  0  0  0  0  # atno 10167 bound_to 10162
  156.1129  130.6263  150.9329 H   0  0  0  0  0  0  0  0  0  0  0  0  # atno 10718 bound_to 10713
  154.7593  135.3113  154.8410 H   0  0  0  0  0  0  0  0  0  0  0  0  # atno 10763 bound_to 10752
  153.9175  135.6799  153.4753 H   0  0  0  0  0  0  0  0  0  0  0  0  # atno 10764 bound_to 10752
  153.1192  135.4830  154.9098 H   0  0  0  0  0  0  0  0  0  0  0  0  # atno 10765 bound_to 10752
  140.2120  134.8260  157.3130 H   0  0  0  0  0  0  0  0  0  0  0  0  # atno 11005 bound_to 11000
  146.1154  139.4164  143.0262 LP  0  0  0  0  0  0  0  0  0  0  0  0  # atno 17320 bound_to 7965
  145.7383  141.0017  143.1315 LP  0  0  0  0  0  0  0  0  0  0  0  0  # atno 17321 bound_to 7965
  139.9136  144.6841  150.8535 LP  0  0  0  0  0  0  0  0  0  0  0  0  # atno 17342 bound_to 10162
  140.7703  143.3425  151.2178 LP  0  0  0  0  0  0  0  0  0  0  0  0  # atno 17343 bound_to 10162
  157.6311  131.0921  150.8440 LP  0  0  0  0  0  0  0  0  0  0  0  0  # atno 17370 bound_to 10713
  156.8548  130.5093  149.5308 LP  0  0  0  0  0  0  0  0  0  0  0  0  # atno 17371 bound_to 10713
  140.1941  134.4335  155.7699 LP  0  0  0  0  0  0  0  0  0  0  0  0  # atno 17394 bound_to 11000
  141.2226  133.7041  156.8076 LP  0  0  0  0  0  0  0  0  0  0  0  0  # atno 17395 bound_to 11000

$$$$
