AV-unprocessed.smi:2764|AV-procd|sdf|10640|dock9
  -GOLD-   2272015 93D 1   1.00000     0.00000
 Structure written by MMmdl.
 47 49  0  0  0  0  0  0  0  0  2 V2000
  149.3030  139.5727  155.6002 O   0  0  0  0  0  0  0  0  0  0  0  0
  148.8936  140.7301  155.5086 C   0  0  0  0  0  0  0  0  0  0  0  0
  149.3807  141.7809  156.1919 N   0  0  0  0  0  0  0  0  0  0  0  0
  150.4680  141.8065  157.1059 C   0  0  0  0  0  0  0  0  0  0  0  0
  150.7448  143.0726  157.6704 C   0  0  0  0  0  0  0  0  0  0  0  0
  151.8078  143.2062  158.5851 C   0  0  0  0  0  0  0  0  0  0  0  0
  152.5664  142.0678  158.9100 C   0  0  0  0  0  0  0  0  0  0  0  0
  153.5984  142.1475  159.7829 F   0  0  0  0  0  0  0  0  0  0  0  0
  152.2257  140.8444  158.3043 C   0  0  0  0  0  0  0  0  0  0  0  0
  151.2068  140.7149  157.4278 N   0  0  0  0  0  0  0  0  0  0  0  0
  147.8879  141.1038  154.6999 N   0  0  0  0  0  0  0  0  0  0  0  0
  147.1145  140.2578  153.7876 C   0  0  2  0  0  0  0  0  0  0  0  0
  146.9787  138.8065  154.2871 C   0  0  0  0  0  0  0  0  0  0  0  0
  146.1322  137.9698  153.3128 C   0  0  0  0  0  0  0  0  0  0  0  0
  146.6975  138.0101  151.9381 N   0  3  1  0  0  0  0  0  0  0  0  0
  146.0009  137.0920  150.9997 C   0  0  0  0  0  0  0  0  0  0  0  0
  145.5010  135.8157  151.7033 C   0  0  2  0  0  0  0  0  0  0  0  0
  145.2836  134.6132  150.8042 C   0  0  0  0  0  0  0  0  0  0  0  0
  144.3538  133.7442  151.6463 C   0  0  0  0  0  0  0  0  0  0  0  0
  143.5983  134.6447  152.4508 O   0  0  0  0  0  0  0  0  0  0  0  0
  144.1056  135.9670  152.3096 C   0  0  0  0  0  0  0  0  0  0  0  0
  146.7905  139.4034  151.4262 C   0  0  0  0  0  0  0  0  0  0  0  0
  147.6609  140.2742  152.3465 C   0  0  0  0  0  0  0  0  0  0  0  0
  148.9340  142.6706  156.0266 H   0  0  0  0  0  0  0  0  0  0  0  0
  150.1519  143.9367  157.4078 H   0  0  0  0  0  0  0  0  0  0  0  0
  152.0361  144.1647  159.0273 H   0  0  0  0  0  0  0  0  0  0  0  0
  152.7846  139.9474  158.5265 H   0  0  0  0  0  0  0  0  0  0  0  0
  147.6340  142.0811  154.7103 H   0  0  0  0  0  0  0  0  0  0  0  0
  146.1151  140.6946  153.7668 H   0  0  0  0  0  0  0  0  0  0  0  0
  147.9593  138.3413  154.3910 H   0  0  0  0  0  0  0  0  0  0  0  0
  146.5228  138.7914  155.2777 H   0  0  0  0  0  0  0  0  0  0  0  0
  146.1010  136.9389  153.6682 H   0  0  0  0  0  0  0  0  0  0  0  0
  145.1032  138.3330  153.2962 H   0  0  0  0  0  0  0  0  0  0  0  0
  145.1287  137.5953  150.5795 H   0  0  0  0  0  0  0  0  0  0  0  0
  146.6377  136.8513  150.1465 H   0  0  0  0  0  0  0  0  0  0  0  0
  146.1933  135.5419  152.5017 H   0  0  0  0  0  0  0  0  0  0  0  0
  144.7807  134.9104  149.8827 H   0  0  0  0  0  0  0  0  0  0  0  0
  146.2080  134.0986  150.5410 H   0  0  0  0  0  0  0  0  0  0  0  0
  143.7057  133.1168  151.0342 H   0  0  0  0  0  0  0  0  0  0  0  0
  144.9316  133.0942  152.3043 H   0  0  0  0  0  0  0  0  0  0  0  0
  144.1196  136.4912  153.2655 H   0  0  0  0  0  0  0  0  0  0  0  0
  143.4482  136.5162  151.6341 H   0  0  0  0  0  0  0  0  0  0  0  0
  147.2141  139.4094  150.4229 H   0  0  0  0  0  0  0  0  0  0  0  0
  145.7893  139.8299  151.3452 H   0  0  0  0  0  0  0  0  0  0  0  0
  147.6905  141.2965  151.9680 H   0  0  0  0  0  0  0  0  0  0  0  0
  148.6856  139.9028  152.3159 H   0  0  0  0  0  0  0  0  0  0  0  0
  147.6430  137.6640  152.0191 H   0  0  0  0  0  0  0  0  0  0  0  0
  1  2  2  0  0  0  0
  2  3  1  0  0  0  0
  2 11  1  0  0  0  0
  3  4  1  0  0  0  0
  3 24  1  0  0  0  0
  4 10  1  0  0  0  0
  4  5  2  0  0  0  0
  5  6  1  0  0  0  0
  5 25  1  0  0  0  0
  6  7  2  0  0  0  0
  6 26  1  0  0  0  0
  7  8  1  0  0  0  0
  7  9  1  0  0  0  0
  9 10  2  0  0  0  0
  9 27  1  0  0  0  0
 11 12  1  0  0  0  0
 11 28  1  0  0  0  0
 12 23  1  0  0  0  0
 12 13  1  0  0  0  0
 12 29  1  0  0  0  0
 13 14  1  0  0  0  0
 13 30  1  0  0  0  0
 13 31  1  0  0  0  0
 14 15  1  0  0  0  0
 14 32  1  0  0  0  0
 14 33  1  0  0  0  0
 15 16  1  0  0  0  0
 15 22  1  0  0  0  0
 15 47  1  0  0  0  0
 16 17  1  0  0  0  0
 16 34  1  0  0  0  0
 16 35  1  0  0  0  0
 17 21  1  0  0  0  0
 17 18  1  0  0  0  0
 17 36  1  0  0  0  0
 18 19  1  0  0  0  0
 18 37  1  0  0  0  0
 18 38  1  0  0  0  0
 19 20  1  0  0  0  0
 19 39  1  0  0  0  0
 19 40  1  0  0  0  0
 20 21  1  0  0  0  0
 21 41  1  0  0  0  0
 21 42  1  0  0  0  0
 22 23  1  0  0  0  0
 22 43  1  0  0  0  0
 22 44  1  0  0  0  0
 23 45  1  0  0  0  0
 23 46  1  0  0  0  0
M  CHG  1  15   1
M  END
> <s_m_source_file>
AV-unprocessed.smi

> <i_m_source_file_index>
2764

> <i_lp_mmshare_version>
43012

> <i_f3d_flags>
0

> <s_epik_input>
bjFbY0hdYyhGKVtjSF1bY0hdYzFbTkhdQyg9TylbTkhdW0NIXTJbQ0gyXVtDSDJdTihbQ0gyXVtDSDJdMilbQ0gyXVtDQEBIXTNbQ0gyXVtDSDJdT1tDSDJdMw==

> <s_epik_cmdline>
J2VwaWtfcHl0aG9uJywgJy1waCcsICc3LjAnLCAnLXRuJywgJzgnLCAnLW1hJywgJzIwMCcsICctbWV0YWxfYmluZGluZycsICctaW1hZScsICc8aW5maWxlLm1hZT4nLCAnLW9tYWUnLCAnPG91dGZpbGUubWFlPic=

> <r_epik_Ionization_Penalty>
0.0075076

> <r_epik_Ionization_Penalty_Charging>
0.00747775

> <r_epik_Ionization_Penalty_Neutral>
2.98483e-05

> <r_epik_State_Penalty>
0.00558817

> <r_epik_Charging_Adjusted_Penalty>
0.0130659

> <i_epik_Tot_Q>
1

> <i_epik_Tot_abs_Q>
1

> <r_epik_Metal_State_Penalty>
-0

> <b_epik_Metal_Only>
0

> <s_lp_Force_Field>
OPLS_2005

> <r_lp_Energy>
38.4399

> <b_lp_Chiralities_Consistent>
1

> <s_lp_Variant>
AV-unprocessed.smi:2764-1

> <Gold.Version>
5.8.1

> <Gold.Id.Protein>
6NUR|6NUR_protein|mol2

> <Gold.PLP.Fitness>
42.1892

> <Gold.PLP.PLP>
-34.9160

> <Gold.PLP.part.hbond>
-2.0000

> <Gold.PLP.part.metal>
0.0000

> <Gold.PLP.part.buried>
4.9248

> <Gold.PLP.part.nonpolar>
-38.1443

> <Gold.PLP.part.repulsive>
0.4305

> <Gold.PLP.ligand.clash>
0.0000

> <Gold.PLP.ligand.torsion>
0.8877

> <Gold.PLP.Chemscore.Hbond>
3.0000

> <Gold.PLP.Chemscore.CHOScore>
0.0000

> <Gold.PLP.Chemscore.Metal>
0.0000

> <Gold.Chemscore.Hbonds>
donor molecule, donor type, donor heavy atom, donor atom, acceptor molecule, acceptor atom, score
      L1  H     3    24       P1  8028  0.88
      L1  H    15    47       P1  7948  2.00

> <Gold.PLP.Chemscore.Internal.Correction>
0.0486

> <Gold.Rescore>
     Score         DG    S(hbond)    S(metal)    S(lipo)     H(rot)  DE(clash)    DE(int)     intcor
     12.87     -19.46       1.93        0.00      97.07       1.49       3.08       3.51       ----

> <Gold.Chemscore.Fitness>
12.8717

> <Gold.Chemscore.DG>
-19.4552

> <Gold.Chemscore.ZeroCoef>
-5.4800

> <Gold.Chemscore.Hbond>
1.9252

> <Gold.Chemscore.Metal>
0.0000

> <Gold.Chemscore.Lipo>
97.0679

> <Gold.Chemscore.Internal_Hbond>
0.0000

> <Gold.Chemscore.DEClash>
3.0765

> <Gold.Chemscore.DEInternal>
3.5070

> <Gold.Chemscore.Rot>
1.4891

> <Gold.Chemscore.Internal.Correction>
   9.000000E+99

> <Gold.Chemscore.Hbonds>
donor molecule, donor type, donor heavy atom, donor atom, acceptor molecule, acceptor atom, score
      L1  H     3    24       P1  8028  0.84
      L1  H    15    47       P1  7948  0.95

> <Gold.Chemscore.Hbond.Weighted>
-6.4303

> <Gold.Chemscore.Metal.Weighted>
-0.0000

> <Gold.Chemscore.Lipo.Weighted>
-11.3569

> <Gold.Chemscore.Internal_Hbond.Weighted>
0.0000

> <Gold.Chemscore.DEClash.Weighted>
3.0765

> <Gold.Chemscore.DEInternal.Weighted>
3.5070

> <Gold.Chemscore.Rot.Weighted>
3.8121

> <Gold.Chemscore.Internal.Correction.Weighted>
   9.000000E+99

> <Gold.Protein.RotatedTorsions>
[ 6907 6896 6895 6894 ] final  125.59 input  -60.11 | X-H torsion
[ 7974 7965 7964 7962 ] final  159.99 input  175.53 | X-H torsion
[ 8008 7997 7996 7995 ] final -171.65 input   59.86 | X-H torsion
[ 10167 10162 10161 10158 ] final  166.04 input  -65.29 | X-H torsion
[ 10718 10713 10712 10709 ] final   93.81 input   66.30 | X-H torsion
[ 10763 10752 10751 10750 ] final   45.91 input  -60.55 | X-H torsion
[ 11005 11000 10999 10996 ] final  -34.64 input  -57.11 | X-H torsion

> <Gold.Protein.ActiveResidues>
 VAL166  LYS551  ARG553  GLY616  TRP617  ASP618  TYR619  PRO620  LYS621  CYS622 
 ASP623  PHE694  ASN695  SER759  ASP760  ASP761  ALA762  ILE779  LEU786  VAL792 
 PHE793  MET794  SER795  GLU796  ALA797  LYS798  CYS799  TRP800  GLU811  SER814 

> <Gold.Protein.RotatedAtoms>
  152.3979  133.6774  159.6291 H   0  0  0  0  0  0  0  0  0  0  0  0  # atno 6907 bound_to 6896
  150.7875  133.8842  159.3303 H   0  0  0  0  0  0  0  0  0  0  0  0  # atno 6908 bound_to 6896
  151.6615  135.0990  160.0232 H   0  0  0  0  0  0  0  0  0  0  0  0  # atno 6909 bound_to 6896
  144.7761  139.7694  143.6278 H   0  0  0  0  0  0  0  0  0  0  0  0  # atno 7974 bound_to 7965
  155.9343  140.1097  157.1107 H   0  0  0  0  0  0  0  0  0  0  0  0  # atno 8008 bound_to 7997
  154.4076  140.1231  156.4909 H   0  0  0  0  0  0  0  0  0  0  0  0  # atno 8009 bound_to 7997
  155.7041  140.3471  155.4948 H   0  0  0  0  0  0  0  0  0  0  0  0  # atno 8010 bound_to 7997
  139.4917  144.4069  151.9345 H   0  0  0  0  0  0  0  0  0  0  0  0  # atno 10167 bound_to 10162
  157.6952  131.0491  150.4091 H   0  0  0  0  0  0  0  0  0  0  0  0  # atno 10718 bound_to 10713
  152.9818  135.6025  154.3513 H   0  0  0  0  0  0  0  0  0  0  0  0  # atno 10763 bound_to 10752
  154.3203  135.2770  155.2525 H   0  0  0  0  0  0  0  0  0  0  0  0  # atno 10764 bound_to 10752
  154.4694  135.5945  153.6367 H   0  0  0  0  0  0  0  0  0  0  0  0  # atno 10765 bound_to 10752
  140.9732  133.7097  156.1559 H   0  0  0  0  0  0  0  0  0  0  0  0  # atno 11005 bound_to 11000
  146.1940  139.5196  142.9786 LP  0  0  0  0  0  0  0  0  0  0  0  0  # atno 17320 bound_to 7965
  145.6183  141.0327  143.1928 LP  0  0  0  0  0  0  0  0  0  0  0  0  # atno 17321 bound_to 7965
  140.3509  144.3090  150.5949 LP  0  0  0  0  0  0  0  0  0  0  0  0  # atno 17342 bound_to 10162
  140.5486  143.2210  151.7965 LP  0  0  0  0  0  0  0  0  0  0  0  0  # atno 17343 bound_to 10162
  156.4476  130.4005  149.6656 LP  0  0  0  0  0  0  0  0  0  0  0  0  # atno 17370 bound_to 10713
  156.3817  130.7582  151.2576 LP  0  0  0  0  0  0  0  0  0  0  0  0  # atno 17371 bound_to 10713
  140.7297  134.4268  157.5567 LP  0  0  0  0  0  0  0  0  0  0  0  0  # atno 17394 bound_to 11000
  139.8920  134.8765  156.2290 LP  0  0  0  0  0  0  0  0  0  0  0  0  # atno 17395 bound_to 11000

$$$$
