AV-unprocessed.smi:2838|AV-procd|sdf|10929|dock3
  -GOLD-   2272015373D 1   1.00000     0.00000
 Structure written by MMmdl.
 48 49  0  0  0  0  0  0  0  0  1 V2000
  148.8930  132.4876  154.4710 C   0  0  0  0  0  0  0  0  0  0  0  0
  147.7312  133.3595  153.9639 C   0  0  1  0  0  0  0  0  0  0  0  0
  148.2216  134.7320  153.8286 N   0  0  0  0  0  0  0  0  0  0  0  0
  148.4557  135.5887  154.8341 C   0  0  0  0  0  0  0  0  0  0  0  0
  148.2827  135.3124  156.0206 O   0  0  0  0  0  0  0  0  0  0  0  0
  148.9085  136.7657  154.3697 N   0  0  0  0  0  0  0  0  0  0  0  0
  149.2532  137.9325  155.1038 C   0  0  0  0  0  0  0  0  0  0  0  0
  149.0431  137.9491  156.4971 C   0  0  0  0  0  0  0  0  0  0  0  0
  149.3604  139.0188  157.2560 N   0  0  0  0  0  0  0  0  0  0  0  0
  149.9278  140.0677  156.6459 C   0  0  0  0  0  0  0  0  0  0  0  0
  150.1491  141.3368  157.4876 C   0  0  0  0  0  0  0  0  0  0  0  0
  150.7706  142.4679  156.6349 C   0  0  0  0  0  0  0  0  0  0  0  0
  151.1459  141.0749  158.6414 C   0  0  0  0  0  0  0  0  0  0  0  0
  148.8038  141.8076  158.0700 C   0  0  0  0  0  0  0  0  0  0  0  0
  150.1433  140.1659  155.3274 N   0  0  0  0  0  0  0  0  0  0  0  0
  149.8286  139.1037  154.5557 C   0  0  0  0  0  0  0  0  0  0  0  0
  147.1267  132.8582  152.6248 C   0  0  0  0  0  0  0  0  0  0  0  0
  145.9942  133.7691  152.1030 C   0  0  0  0  0  0  0  0  0  0  0  0
  145.3629  133.2015  150.8217 C   0  0  0  0  0  0  0  0  0  0  0  0
  144.8759  131.8873  151.0610 O   0  0  0  0  0  0  0  0  0  0  0  0
  145.9095  130.9782  151.4171 C   0  0  0  0  0  0  0  0  0  0  0  0
  146.5746  131.4218  152.7301 C   0  0  0  0  0  0  0  0  0  0  0  0
  148.5638  131.4795  154.7216 H   0  0  0  0  0  0  0  0  0  0  0  0
  149.3309  132.9094  155.3766 H   0  0  0  0  0  0  0  0  0  0  0  0
  149.6852  132.4068  153.7262 H   0  0  0  0  0  0  0  0  0  0  0  0
  146.9463  133.3239  154.7212 H   0  0  0  0  0  0  0  0  0  0  0  0
  148.3961  135.0546  152.8882 H   0  0  0  0  0  0  0  0  0  0  0  0
  149.0625  136.8204  153.3736 H   0  0  0  0  0  0  0  0  0  0  0  0
  148.6088  137.1023  157.0083 H   0  0  0  0  0  0  0  0  0  0  0  0
  150.9714  143.3545  157.2373 H   0  0  0  0  0  0  0  0  0  0  0  0
  150.1094  142.7814  155.8263 H   0  0  0  0  0  0  0  0  0  0  0  0
  151.7149  142.1551  156.1876 H   0  0  0  0  0  0  0  0  0  0  0  0
  152.1042  140.7145  158.2654 H   0  0  0  0  0  0  0  0  0  0  0  0
  150.7681  140.3350  159.3479 H   0  0  0  0  0  0  0  0  0  0  0  0
  151.3391  141.9837  159.2126 H   0  0  0  0  0  0  0  0  0  0  0  0
  148.9241  142.7090  158.6718 H   0  0  0  0  0  0  0  0  0  0  0  0
  148.3596  141.0426  158.7078 H   0  0  0  0  0  0  0  0  0  0  0  0
  148.0870  142.0329  157.2794 H   0  0  0  0  0  0  0  0  0  0  0  0
  150.0576  139.2097  153.5073 H   0  0  0  0  0  0  0  0  0  0  0  0
  147.9204  132.8569  151.8757 H   0  0  0  0  0  0  0  0  0  0  0  0
  145.2247  133.8753  152.8689 H   0  0  0  0  0  0  0  0  0  0  0  0
  146.3664  134.7724  151.8954 H   0  0  0  0  0  0  0  0  0  0  0  0
  144.5319  133.8316  150.5045 H   0  0  0  0  0  0  0  0  0  0  0  0
  146.0838  133.1916  150.0029 H   0  0  0  0  0  0  0  0  0  0  0  0
  145.4764  129.9848  151.5357 H   0  0  0  0  0  0  0  0  0  0  0  0
  146.6436  130.9108  150.6127 H   0  0  0  0  0  0  0  0  0  0  0  0
  147.3695  130.7177  152.9731 H   0  0  0  0  0  0  0  0  0  0  0  0
  145.8470  131.3643  153.5409 H   0  0  0  0  0  0  0  0  0  0  0  0
  1  2  1  0  0  0  0
  1 23  1  0  0  0  0
  1 24  1  0  0  0  0
  1 25  1  0  0  0  0
  2  3  1  0  0  0  0
  2 17  1  0  0  0  0
  2 26  1  0  0  0  0
  3  4  1  0  0  0  0
  3 27  1  0  0  0  0
  4  5  2  0  0  0  0
  4  6  1  0  0  0  0
  6  7  1  0  0  0  0
  6 28  1  0  0  0  0
  7 16  1  0  0  0  0
  7  8  2  0  0  0  0
  8  9  1  0  0  0  0
  8 29  1  0  0  0  0
  9 10  2  0  0  0  0
 10 11  1  0  0  0  0
 10 15  1  0  0  0  0
 11 12  1  0  0  0  0
 11 13  1  0  0  0  0
 11 14  1  0  0  0  0
 12 30  1  0  0  0  0
 12 31  1  0  0  0  0
 12 32  1  0  0  0  0
 13 33  1  0  0  0  0
 13 34  1  0  0  0  0
 13 35  1  0  0  0  0
 14 36  1  0  0  0  0
 14 37  1  0  0  0  0
 14 38  1  0  0  0  0
 15 16  2  0  0  0  0
 16 39  1  0  0  0  0
 17 22  1  0  0  0  0
 17 18  1  0  0  0  0
 17 40  1  0  0  0  0
 18 19  1  0  0  0  0
 18 41  1  0  0  0  0
 18 42  1  0  0  0  0
 19 20  1  0  0  0  0
 19 43  1  0  0  0  0
 19 44  1  0  0  0  0
 20 21  1  0  0  0  0
 21 22  1  0  0  0  0
 21 45  1  0  0  0  0
 21 46  1  0  0  0  0
 22 47  1  0  0  0  0
 22 48  1  0  0  0  0
M  END
> <s_m_source_file>
AV-unprocessed.smi

> <i_m_source_file_index>
2838

> <i_lp_mmshare_version>
43012

> <i_f3d_flags>
0

> <s_epik_input>
W0NIMl0xW0NIMl1PW0NIMl1bQ0gyXVtDSF0xW0NASF0oW0NIM10pW05IXUMoPU8pW05IXWMyW2NIXW5jKEMoW0NIM10pKFtDSDNdKVtDSDNdKW5bY0hdMg==

> <s_epik_cmdline>
J2VwaWtfcHl0aG9uJywgJy1waCcsICc3LjAnLCAnLXRuJywgJzgnLCAnLW1hJywgJzIwMCcsICctbWV0YWxfYmluZGluZycsICctaW1hZScsICc8aW5maWxlLm1hZT4nLCAnLW9tYWUnLCAnPG91dGZpbGUubWFlPic=

> <r_lp_tautomer_probability>
1

> <r_epik_Ionization_Penalty>
2.74753e-05

> <r_epik_Ionization_Penalty_Charging>
0

> <r_epik_Ionization_Penalty_Neutral>
2.74753e-05

> <r_epik_State_Penalty>
-0

> <r_epik_Charging_Adjusted_Penalty>
0

> <i_epik_Tot_Q>
0

> <i_epik_Tot_abs_Q>
0

> <r_epik_Metal_State_Penalty>
-0

> <b_epik_Metal_Only>
0

> <s_lp_Force_Field>
OPLS_2005

> <r_lp_Energy>
9.11835

> <b_lp_Chiralities_Consistent>
1

> <s_lp_Variant>
AV-unprocessed.smi:2838-2

> <Gold.Version>
5.8.1

> <Gold.Id.Protein>
6NUR|6NUR_protein|mol2

> <Gold.PLP.Fitness>
37.1703

> <Gold.PLP.PLP>
-28.1670

> <Gold.PLP.part.hbond>
-2.1565

> <Gold.PLP.part.metal>
0.0000

> <Gold.PLP.part.buried>
-3.5487

> <Gold.PLP.part.nonpolar>
-22.2309

> <Gold.PLP.part.repulsive>
0.2107

> <Gold.PLP.ligand.clash>
0.0000

> <Gold.PLP.ligand.torsion>
0.3141

> <Gold.PLP.Chemscore.Hbond>
2.1602

> <Gold.PLP.Chemscore.CHOScore>
1.0000

> <Gold.PLP.Chemscore.Metal>
0.0000

> <Gold.Chemscore.Hbonds>
donor molecule, donor type, donor heavy atom, donor atom, acceptor molecule, acceptor atom, score
      L1  H     3    27       P1  7948  1.00
      L1  H     6    28       P1  7948  1.00
      L1  C    16    39       P1  7957  1.00

> <Gold.PLP.Chemscore.Internal.Correction>
0.1508

> <Gold.Rescore>
     Score         DG    S(hbond)    S(metal)    S(lipo)     H(rot)  DE(clash)    DE(int)     intcor
     15.08     -16.78       1.90        0.00      71.51       1.34       0.01       1.69       ----

> <Gold.Chemscore.Fitness>
15.0759

> <Gold.Chemscore.DG>
-16.7817

> <Gold.Chemscore.ZeroCoef>
-5.4800

> <Gold.Chemscore.Hbond>
1.9024

> <Gold.Chemscore.Metal>
0.0000

> <Gold.Chemscore.Lipo>
71.5058

> <Gold.Chemscore.Internal_Hbond>
0.0000

> <Gold.Chemscore.DEClash>
0.0108

> <Gold.Chemscore.DEInternal>
1.6950

> <Gold.Chemscore.Rot>
1.3354

> <Gold.Chemscore.Internal.Correction>
   9.000000E+99

> <Gold.Chemscore.Hbonds>
donor molecule, donor type, donor heavy atom, donor atom, acceptor molecule, acceptor atom, score
      L1  H     3    27       P1  7948  0.74
      L1  H     6    28       P1  7948  0.96

> <Gold.Chemscore.Hbond.Weighted>
-6.3540

> <Gold.Chemscore.Metal.Weighted>
-0.0000

> <Gold.Chemscore.Lipo.Weighted>
-8.3662

> <Gold.Chemscore.Internal_Hbond.Weighted>
0.0000

> <Gold.Chemscore.DEClash.Weighted>
0.0108

> <Gold.Chemscore.DEInternal.Weighted>
1.6950

> <Gold.Chemscore.Rot.Weighted>
3.4185

> <Gold.Chemscore.Internal.Correction.Weighted>
   9.000000E+99

> <Gold.Protein.RotatedTorsions>
[ 6907 6896 6895 6894 ] final  -23.95 input  -60.11 | X-H torsion
[ 7974 7965 7964 7962 ] final   95.93 input  175.53 | X-H torsion
[ 8008 7997 7996 7995 ] final -127.68 input   59.86 | X-H torsion
[ 10167 10162 10161 10158 ] final -156.94 input  -65.29 | X-H torsion
[ 10718 10713 10712 10709 ] final  -46.99 input   66.30 | X-H torsion
[ 10763 10752 10751 10750 ] final  164.97 input  -60.55 | X-H torsion
[ 11005 11000 10999 10996 ] final  128.84 input  -57.11 | X-H torsion

> <Gold.Protein.ActiveResidues>
 VAL166  LYS551  ARG553  GLY616  TRP617  ASP618  TYR619  PRO620  LYS621  CYS622 
 ASP623  PHE694  ASN695  SER759  ASP760  ASP761  ALA762  ILE779  LEU786  VAL792 
 PHE793  MET794  SER795  GLU796  ALA797  LYS798  CYS799  TRP800  GLU811  SER814 

> <Gold.Protein.RotatedAtoms>
  151.1965  135.0425  159.8854 H   0  0  0  0  0  0  0  0  0  0  0  0  # atno 6907 bound_to 6896
  152.5436  134.0897  159.8282 H   0  0  0  0  0  0  0  0  0  0  0  0  # atno 6908 bound_to 6896
  151.1032  133.5180  159.2641 H   0  0  0  0  0  0  0  0  0  0  0  0  # atno 6909 bound_to 6896
  145.4457  139.2297  143.3067 H   0  0  0  0  0  0  0  0  0  0  0  0  # atno 7974 bound_to 7965
  155.2501  140.0432  157.2985 H   0  0  0  0  0  0  0  0  0  0  0  0  # atno 8008 bound_to 7997
  154.5774  140.2391  155.8072 H   0  0  0  0  0  0  0  0  0  0  0  0  # atno 8009 bound_to 7997
  156.2168  140.2982  155.9866 H   0  0  0  0  0  0  0  0  0  0  0  0  # atno 8010 bound_to 7997
  139.6810  143.9581  152.2336 H   0  0  0  0  0  0  0  0  0  0  0  0  # atno 10167 bound_to 10162
  156.2128  130.4161  149.9092 H   0  0  0  0  0  0  0  0  0  0  0  0  # atno 10718 bound_to 10713
  154.3170  135.2756  155.2538 H   0  0  0  0  0  0  0  0  0  0  0  0  # atno 10763 bound_to 10752
  154.4908  135.5834  153.6461 H   0  0  0  0  0  0  0  0  0  0  0  0  # atno 10764 bound_to 10752
  152.9881  135.6134  154.3351 H   0  0  0  0  0  0  0  0  0  0  0  0  # atno 10765 bound_to 10752
  139.9582  134.9608  156.9060 H   0  0  0  0  0  0  0  0  0  0  0  0  # atno 11005 bound_to 11000
  146.2532  140.5210  142.8884 LP  0  0  0  0  0  0  0  0  0  0  0  0  # atno 17320 bound_to 7965
  144.8093  140.6357  143.6426 LP  0  0  0  0  0  0  0  0  0  0  0  0  # atno 17321 bound_to 7965
  139.9371  144.6705  150.8304 LP  0  0  0  0  0  0  0  0  0  0  0  0  # atno 17342 bound_to 10162
  140.7652  143.3269  151.2496 LP  0  0  0  0  0  0  0  0  0  0  0  0  # atno 17343 bound_to 10162
  156.6765  130.8841  151.3570 LP  0  0  0  0  0  0  0  0  0  0  0  0  # atno 17370 bound_to 10713
  157.7047  130.9372  150.0895 LP  0  0  0  0  0  0  0  0  0  0  0  0  # atno 17371 bound_to 10713
  140.5560  134.0581  155.7384 LP  0  0  0  0  0  0  0  0  0  0  0  0  # atno 17394 bound_to 11000
  141.1256  133.9388  157.2641 LP  0  0  0  0  0  0  0  0  0  0  0  0  # atno 17395 bound_to 11000

$$$$
