AV-unprocessed.smi:2416|AV-procd|sdf|9544|dock4
  -GOLD-   2272013173D 1   1.00000     0.00000
 Structure written by MMmdl.
 40 41  0  0  0  0  0  0  0  0  1 V2000
  150.6579  138.8772  154.0768 C   0  0  0  0  0  0  0  0  0  0  0  0
  149.2642  138.7892  154.3470 O   0  0  0  0  0  0  0  0  0  0  0  0
  148.5209  140.0148  154.3913 C   0  0  1  0  0  0  0  0  0  0  0  0
  149.2450  141.0442  155.2691 C   0  0  0  0  0  0  0  0  0  0  0  0
  148.0722  140.4150  152.9728 C   0  0  0  0  0  0  0  0  0  0  0  0
  146.8102  139.5708  153.1646 C   0  0  1  0  0  0  0  0  0  0  0  0
  146.9854  138.2237  152.6208 N   0  0  0  0  0  0  0  0  0  0  0  0
  145.9866  137.3646  152.3768 C   0  0  0  0  0  0  0  0  0  0  0  0
  144.8002  137.6333  152.5681 O   0  0  0  0  0  0  0  0  0  0  0  0
  146.4555  136.1928  151.9131 N   0  0  0  0  0  0  0  0  0  0  0  0
  145.7219  135.0215  151.5859 C   0  0  0  0  0  0  0  0  0  0  0  0
  146.5075  133.9120  151.1986 C   0  0  0  0  0  0  0  0  0  0  0  0
  145.8759  132.6993  150.8601 C   0  0  0  0  0  0  0  0  0  0  0  0
  144.4728  132.6293  150.9185 C   0  0  0  0  0  0  0  0  0  0  0  0
  143.8212  131.4846  150.6044 F   0  0  0  0  0  0  0  0  0  0  0  0
  143.7640  133.7793  151.3120 C   0  0  0  0  0  0  0  0  0  0  0  0
  144.3682  134.9420  151.6366 N   0  0  0  0  0  0  0  0  0  0  0  0
  147.0260  139.6758  154.6992 C   0  0  0  0  0  0  0  0  0  0  0  0
  146.7578  138.4343  155.5666 C   0  0  0  0  0  0  0  0  0  0  0  0
  146.2054  140.8019  155.3456 C   0  0  0  0  0  0  0  0  0  0  0  0
  151.0520  137.8734  153.9191 H   0  0  0  0  0  0  0  0  0  0  0  0
  151.2042  139.3077  154.9157 H   0  0  0  0  0  0  0  0  0  0  0  0
  150.8734  139.4600  153.1819 H   0  0  0  0  0  0  0  0  0  0  0  0
  148.6553  141.9502  155.4044 H   0  0  0  0  0  0  0  0  0  0  0  0
  150.1891  141.3640  154.8290 H   0  0  0  0  0  0  0  0  0  0  0  0
  149.4561  140.6407  156.2597 H   0  0  0  0  0  0  0  0  0  0  0  0
  147.8478  141.4795  152.8915 H   0  0  0  0  0  0  0  0  0  0  0  0
  148.7168  140.0961  152.1539 H   0  0  0  0  0  0  0  0  0  0  0  0
  145.9110  140.0770  152.8087 H   0  0  0  0  0  0  0  0  0  0  0  0
  147.9331  137.9230  152.4463 H   0  0  0  0  0  0  0  0  0  0  0  0
  147.4559  136.1244  151.7995 H   0  0  0  0  0  0  0  0  0  0  0  0
  147.5849  133.9839  151.1611 H   0  0  0  0  0  0  0  0  0  0  0  0
  146.4582  131.8397  150.5627 H   0  0  0  0  0  0  0  0  0  0  0  0
  142.6854  133.7667  151.3696 H   0  0  0  0  0  0  0  0  0  0  0  0
  145.6963  138.1856  155.5885 H   0  0  0  0  0  0  0  0  0  0  0  0
  147.0795  138.5917  156.5963 H   0  0  0  0  0  0  0  0  0  0  0  0
  147.2799  137.5479  155.2073 H   0  0  0  0  0  0  0  0  0  0  0  0
  145.1410  140.5642  155.3532 H   0  0  0  0  0  0  0  0  0  0  0  0
  146.3130  141.7452  154.8096 H   0  0  0  0  0  0  0  0  0  0  0  0
  146.5069  140.9804  156.3784 H   0  0  0  0  0  0  0  0  0  0  0  0
  1  2  1  0  0  0  0
  1 21  1  0  0  0  0
  1 22  1  0  0  0  0
  1 23  1  0  0  0  0
  2  3  1  0  0  0  0
  3 18  1  0  0  0  0
  3  4  1  0  0  0  0
  3  5  1  0  0  0  0
  4 24  1  0  0  0  0
  4 25  1  0  0  0  0
  4 26  1  0  0  0  0
  5  6  1  0  0  0  0
  5 27  1  0  0  0  0
  5 28  1  0  0  0  0
  6  7  1  0  0  0  0
  6 18  1  0  0  0  0
  6 29  1  0  0  0  0
  7  8  1  0  0  0  0
  7 30  1  0  0  0  0
  8  9  2  0  0  0  0
  8 10  1  0  0  0  0
 10 11  1  0  0  0  0
 10 31  1  0  0  0  0
 11 17  1  0  0  0  0
 11 12  2  0  0  0  0
 12 13  1  0  0  0  0
 12 32  1  0  0  0  0
 13 14  2  0  0  0  0
 13 33  1  0  0  0  0
 14 15  1  0  0  0  0
 14 16  1  0  0  0  0
 16 17  2  0  0  0  0
 16 34  1  0  0  0  0
 18 19  1  0  0  0  0
 18 20  1  0  0  0  0
 19 35  1  0  0  0  0
 19 36  1  0  0  0  0
 19 37  1  0  0  0  0
 20 38  1  0  0  0  0
 20 39  1  0  0  0  0
 20 40  1  0  0  0  0
M  END
> <s_m_source_file>
AV-unprocessed.smi

> <i_m_source_file_index>
2416

> <i_lp_mmshare_version>
43012

> <i_f3d_flags>
0

> <s_epik_input>
W0NIM11PW0NAQF0xKFtDSDNdKVtDSDJdW0NASF0oQzEoW0NIM10pW0NIM10pW05IXUMoPU8pW05IXWMyW2NIXVtjSF1jKEYpW2NIXW4y

> <s_epik_cmdline>
J2VwaWtfcHl0aG9uJywgJy1waCcsICc3LjAnLCAnLXRuJywgJzgnLCAnLW1hJywgJzIwMCcsICctbWV0YWxfYmluZGluZycsICctaW1hZScsICc8aW5maWxlLm1hZT4nLCAnLW9tYWUnLCAnPG91dGZpbGUubWFlPic=

> <r_lp_tautomer_probability>
1

> <r_epik_Ionization_Penalty>
3.67756e-05

> <r_epik_Ionization_Penalty_Charging>
0

> <r_epik_Ionization_Penalty_Neutral>
3.67756e-05

> <r_epik_State_Penalty>
-0

> <r_epik_Charging_Adjusted_Penalty>
0

> <i_epik_Tot_Q>
0

> <i_epik_Tot_abs_Q>
0

> <r_epik_Metal_State_Penalty>
-0

> <b_epik_Metal_Only>
0

> <s_lp_Force_Field>
OPLS_2005

> <r_lp_Energy>
27.553

> <b_lp_Chiralities_Consistent>
1

> <s_lp_Variant>
AV-unprocessed.smi:2416-1

> <Gold.Version>
5.8.1

> <Gold.Id.Protein>
6NUR|6NUR_protein|mol2

> <Gold.PLP.Fitness>
34.1973

> <Gold.PLP.PLP>
-26.7469

> <Gold.PLP.part.hbond>
-1.8057

> <Gold.PLP.part.metal>
0.0000

> <Gold.PLP.part.buried>
-0.5919

> <Gold.PLP.part.nonpolar>
-27.3170

> <Gold.PLP.part.repulsive>
1.9896

> <Gold.PLP.ligand.clash>
0.0000

> <Gold.PLP.ligand.torsion>
0.4418

> <Gold.PLP.Chemscore.Hbond>
1.6543

> <Gold.PLP.Chemscore.CHOScore>
0.9962

> <Gold.PLP.Chemscore.Metal>
0.0000

> <Gold.Chemscore.Hbonds>
donor molecule, donor type, donor heavy atom, donor atom, acceptor molecule, acceptor atom, score
      L1  H     7    30       P1  7948  0.78
      L1  H    10    31       P1  7948  0.86
      L1  C    16    34       P1 10186  0.93

> <Gold.PLP.Chemscore.Internal.Correction>
0.3828

> <Gold.Rescore>
     Score         DG    S(hbond)    S(metal)    S(lipo)     H(rot)  DE(clash)    DE(int)     intcor
     12.32     -16.54       1.88        0.00      68.60       1.27       2.62       1.59       ----

> <Gold.Chemscore.Fitness>
12.3218

> <Gold.Chemscore.DG>
-16.5404

> <Gold.Chemscore.ZeroCoef>
-5.4800

> <Gold.Chemscore.Hbond>
1.8783

> <Gold.Chemscore.Metal>
0.0000

> <Gold.Chemscore.Lipo>
68.5991

> <Gold.Chemscore.Internal_Hbond>
0.0000

> <Gold.Chemscore.DEClash>
2.6238

> <Gold.Chemscore.DEInternal>
1.5948

> <Gold.Chemscore.Rot>
1.2653

> <Gold.Chemscore.Internal.Correction>
   9.000000E+99

> <Gold.Chemscore.Hbonds>
donor molecule, donor type, donor heavy atom, donor atom, acceptor molecule, acceptor atom, score
      L1  H     7    30       P1  7948  0.73
      L1  H    10    31       P1  7948  0.84

> <Gold.Chemscore.Hbond.Weighted>
-6.2735

> <Gold.Chemscore.Metal.Weighted>
-0.0000

> <Gold.Chemscore.Lipo.Weighted>
-8.0261

> <Gold.Chemscore.Internal_Hbond.Weighted>
0.0000

> <Gold.Chemscore.DEClash.Weighted>
2.6238

> <Gold.Chemscore.DEInternal.Weighted>
1.5948

> <Gold.Chemscore.Rot.Weighted>
3.2392

> <Gold.Chemscore.Internal.Correction.Weighted>
   9.000000E+99

> <Gold.Protein.RotatedTorsions>
[ 6907 6896 6895 6894 ] final   22.24 input  -60.11 | X-H torsion
[ 7974 7965 7964 7962 ] final   -3.26 input  175.53 | X-H torsion
[ 8008 7997 7996 7995 ] final  168.14 input   59.86 | X-H torsion
[ 10167 10162 10161 10158 ] final   19.01 input  -65.29 | X-H torsion
[ 10718 10713 10712 10709 ] final  -82.48 input   66.30 | X-H torsion
[ 10763 10752 10751 10750 ] final -146.63 input  -60.55 | X-H torsion
[ 11005 11000 10999 10996 ] final -176.47 input  -57.11 | X-H torsion

> <Gold.Protein.ActiveResidues>
 VAL166  LYS551  ARG553  GLY616  TRP617  ASP618  TYR619  PRO620  LYS621  CYS622 
 ASP623  PHE694  ASN695  SER759  ASP760  ASP761  ALA762  ILE779  LEU786  VAL792 
 PHE793  MET794  SER795  GLU796  ALA797  LYS798  CYS799  TRP800  GLU811  SER814 

> <Gold.Protein.RotatedAtoms>
  151.9241  135.0285  160.0524 H   0  0  0  0  0  0  0  0  0  0  0  0  # atno 6907 bound_to 6896
  152.2174  133.4953  159.5152 H   0  0  0  0  0  0  0  0  0  0  0  0  # atno 6908 bound_to 6896
  150.6991  134.1304  159.4110 H   0  0  0  0  0  0  0  0  0  0  0  0  # atno 6909 bound_to 6896
  146.2392  140.1694  142.8332 H   0  0  0  0  0  0  0  0  0  0  0  0  # atno 7974 bound_to 7965
  156.1573  140.1598  156.8671 H   0  0  0  0  0  0  0  0  0  0  0  0  # atno 8008 bound_to 7997
  154.5127  140.0797  156.8057 H   0  0  0  0  0  0  0  0  0  0  0  0  # atno 8009 bound_to 7997
  155.3778  140.3403  155.4248 H   0  0  0  0  0  0  0  0  0  0  0  0  # atno 8010 bound_to 7997
  140.5610  143.9336  150.6643 H   0  0  0  0  0  0  0  0  0  0  0  0  # atno 10167 bound_to 10162
  156.0032  130.4635  150.4111 H   0  0  0  0  0  0  0  0  0  0  0  0  # atno 10718 bound_to 10713
  154.8326  135.3381  154.6692 H   0  0  0  0  0  0  0  0  0  0  0  0  # atno 10763 bound_to 10752
  153.7310  135.6952  153.4994 H   0  0  0  0  0  0  0  0  0  0  0  0  # atno 10764 bound_to 10752
  153.2312  135.4416  155.0549 H   0  0  0  0  0  0  0  0  0  0  0  0  # atno 10765 bound_to 10752
  140.4517  134.6337  157.4804 H   0  0  0  0  0  0  0  0  0  0  0  0  # atno 11005 bound_to 11000
  145.0024  140.8643  143.5274 LP  0  0  0  0  0  0  0  0  0  0  0  0  # atno 17320 bound_to 7965
  145.1716  139.2401  143.5339 LP  0  0  0  0  0  0  0  0  0  0  0  0  # atno 17321 bound_to 7965
  140.2787  143.3404  152.1171 LP  0  0  0  0  0  0  0  0  0  0  0  0  # atno 17342 bound_to 10162
  139.5070  144.6824  151.5973 LP  0  0  0  0  0  0  0  0  0  0  0  0  # atno 17343 bound_to 10162
  157.2174  131.0474  151.2566 LP  0  0  0  0  0  0  0  0  0  0  0  0  # atno 17370 bound_to 10713
  157.3833  130.7243  149.6645 LP  0  0  0  0  0  0  0  0  0  0  0  0  # atno 17371 bound_to 10713
  140.0002  134.6848  155.9542 LP  0  0  0  0  0  0  0  0  0  0  0  0  # atno 17394 bound_to 11000
  141.1661  133.6537  156.4485 LP  0  0  0  0  0  0  0  0  0  0  0  0  # atno 17395 bound_to 11000

$$$$
