AV-unprocessed.smi:3140|AV-procd|sdf|11959|dock8
  -GOLD-   2272017363D 1   1.00000     0.00000
 Structure written by MMmdl.
 38 39  0  0  0  0  0  0  0  0  2 V2000
  144.1067  136.7528  152.6562 C   0  0  0  0  0  0  0  0  0  0  0  0
  145.4341  136.2484  152.0741 C   0  0  1  0  0  0  0  0  0  0  0  0
  145.2293  135.6964  150.6464 C   0  0  0  0  0  0  0  0  0  0  0  0
  145.2041  134.2453  150.5976 N   0  0  0  0  0  0  0  0  0  0  0  0
  144.1638  133.4168  150.2323 C   0  0  0  0  0  0  0  0  0  0  0  0
  144.6041  132.1310  150.3657 C   0  0  0  0  0  0  0  0  0  0  0  0
  145.9450  132.2766  150.8191 C   0  0  0  0  0  0  0  0  0  0  0  0
  146.3013  133.5438  150.9568 N   0  0  0  0  0  0  0  0  0  0  0  0
  146.4260  137.3481  152.0875 N   0  3  0  0  0  0  0  0  0  0  0  0
  146.5498  138.0581  153.3773 C   0  0  0  0  0  0  0  0  0  0  0  0
  147.3359  139.3670  153.2110 C   0  0  0  0  0  0  0  0  0  0  0  0
  148.5346  139.3811  154.0445 N   0  0  0  0  0  0  0  0  0  0  0  0
  149.0056  138.1702  154.6954 C   0  0  0  0  0  0  0  0  0  0  0  0
  150.3704  138.5456  155.2914 C   0  0  0  0  0  0  0  0  0  0  0  0
  150.4323  140.0766  155.2569 C   0  0  0  0  0  0  0  0  0  0  0  0
  149.2783  140.4532  154.3435 C   0  0  0  0  0  0  0  0  0  0  0  0
  149.0841  141.6022  153.9494 O   0  0  0  0  0  0  0  0  0  0  0  0
  143.3654  135.9541  152.6920 H   0  0  0  0  0  0  0  0  0  0  0  0
  143.6913  137.5648  152.0583 H   0  0  0  0  0  0  0  0  0  0  0  0
  144.2389  137.1221  153.6738 H   0  0  0  0  0  0  0  0  0  0  0  0
  145.7850  135.4419  152.7204 H   0  0  0  0  0  0  0  0  0  0  0  0
  144.2842  136.0589  150.2397 H   0  0  0  0  0  0  0  0  0  0  0  0
  146.0117  136.0603  149.9779 H   0  0  0  0  0  0  0  0  0  0  0  0
  143.2066  133.8058  149.9170 H   0  0  0  0  0  0  0  0  0  0  0  0
  144.0525  131.2233  150.1698 H   0  0  0  0  0  0  0  0  0  0  0  0
  146.6635  131.5049  151.0542 H   0  0  0  0  0  0  0  0  0  0  0  0
  147.3260  136.9633  151.8363 H   0  0  0  0  0  0  0  0  0  0  0  0
  145.5520  138.2626  153.7683 H   0  0  0  0  0  0  0  0  0  0  0  0
  147.0475  137.4165  154.1036 H   0  0  0  0  0  0  0  0  0  0  0  0
  147.6264  139.5005  152.1673 H   0  0  0  0  0  0  0  0  0  0  0  0
  146.7043  140.2189  153.4674 H   0  0  0  0  0  0  0  0  0  0  0  0
  148.3020  137.8863  155.4792 H   0  0  0  0  0  0  0  0  0  0  0  0
  149.0857  137.3425  153.9897 H   0  0  0  0  0  0  0  0  0  0  0  0
  150.4917  138.1537  156.3019 H   0  0  0  0  0  0  0  0  0  0  0  0
  151.1732  138.1299  154.6809 H   0  0  0  0  0  0  0  0  0  0  0  0
  150.2659  140.5043  156.2462 H   0  0  0  0  0  0  0  0  0  0  0  0
  151.3836  140.4436  154.8707 H   0  0  0  0  0  0  0  0  0  0  0  0
  146.1605  138.0267  151.3881 H   0  0  0  0  0  0  0  0  0  0  0  0
  1  2  1  0  0  0  0
  1 18  1  0  0  0  0
  1 19  1  0  0  0  0
  1 20  1  0  0  0  0
  2  3  1  0  0  0  0
  2  9  1  0  0  0  0
  2 21  1  0  0  0  0
  3  4  1  0  0  0  0
  3 22  1  0  0  0  0
  3 23  1  0  0  0  0
  4  8  1  0  0  0  0
  4  5  1  0  0  0  0
  5  6  2  0  0  0  0
  5 24  1  0  0  0  0
  6  7  1  0  0  0  0
  6 25  1  0  0  0  0
  7  8  2  0  0  0  0
  7 26  1  0  0  0  0
  9 10  1  0  0  0  0
  9 27  1  0  0  0  0
  9 38  1  0  0  0  0
 10 11  1  0  0  0  0
 10 28  1  0  0  0  0
 10 29  1  0  0  0  0
 11 12  1  0  0  0  0
 11 30  1  0  0  0  0
 11 31  1  0  0  0  0
 12 16  1  0  0  0  0
 12 13  1  0  0  0  0
 13 14  1  0  0  0  0
 13 32  1  0  0  0  0
 13 33  1  0  0  0  0
 14 15  1  0  0  0  0
 14 34  1  0  0  0  0
 14 35  1  0  0  0  0
 15 16  1  0  0  0  0
 15 36  1  0  0  0  0
 15 37  1  0  0  0  0
 16 17  2  0  0  0  0
M  CHG  1   9   1
M  END
> <s_m_source_file>
AV-unprocessed.smi

> <i_m_source_file_index>
3140

> <i_lp_mmshare_version>
43012

> <i_f3d_flags>
0

> <s_epik_input>
bjFbY0hdW2NIXVtjSF1uMVtDSDJdW0NAQEhdKFtDSDNdKVtOSF1bQ0gyXVtDSDJdTjJbQ0gyXVtDSDJdW0NIMl1DMj1P

> <s_epik_cmdline>
J2VwaWtfcHl0aG9uJywgJy1waCcsICc3LjAnLCAnLXRuJywgJzgnLCAnLW1hJywgJzIwMCcsICctbWV0YWxfYmluZGluZycsICctaW1hZScsICc8aW5maWxlLm1hZT4nLCAnLW9tYWUnLCAnPG91dGZpbGUubWFlPic=

> <r_lp_tautomer_probability>
1

> <r_epik_Ionization_Penalty>
0.00826299

> <r_epik_Ionization_Penalty_Charging>
0.00825899

> <r_epik_Ionization_Penalty_Neutral>
3.99893e-06

> <r_epik_State_Penalty>
0.00621436

> <r_epik_Charging_Adjusted_Penalty>
0.0144734

> <i_epik_Tot_Q>
1

> <i_epik_Tot_abs_Q>
1

> <r_epik_Metal_State_Penalty>
0.00621472

> <b_epik_Metal_Only>
0

> <s_lp_Force_Field>
OPLS_2005

> <r_lp_Energy>
19.0418

> <b_lp_Chiralities_Consistent>
1

> <s_lp_Variant>
AV-unprocessed.smi:3140-2

> <Gold.Version>
5.8.1

> <Gold.Id.Protein>
6NUR|6NUR_protein|mol2

> <Gold.PLP.Fitness>
44.6190

> <Gold.PLP.PLP>
-33.1121

> <Gold.PLP.part.hbond>
-2.6494

> <Gold.PLP.part.metal>
0.0000

> <Gold.PLP.part.buried>
-2.6975

> <Gold.PLP.part.nonpolar>
-28.5209

> <Gold.PLP.part.repulsive>
0.4530

> <Gold.PLP.ligand.clash>
0.0000

> <Gold.PLP.ligand.torsion>
1.2484

> <Gold.PLP.Chemscore.Hbond>
2.6560

> <Gold.PLP.Chemscore.CHOScore>
2.0000

> <Gold.PLP.Chemscore.Metal>
0.0000

> <Gold.Chemscore.Hbonds>
donor molecule, donor type, donor heavy atom, donor atom, acceptor molecule, acceptor atom, score
      L1  H     9    27       P1  7948  2.00
      P1  H  8011  8017       L1    17  0.66
      L1  C     5    24       P1 10186  1.00
      L1  C     7    26       P1 10747  1.00

> <Gold.PLP.Chemscore.Internal.Correction>
0.0357

> <Gold.Rescore>
     Score         DG    S(hbond)    S(metal)    S(lipo)     H(rot)  DE(clash)    DE(int)     intcor
     12.78     -14.12       1.63        0.00      72.14       2.06       0.10       1.24       ----

> <Gold.Chemscore.Fitness>
12.7753

> <Gold.Chemscore.DG>
-14.1158

> <Gold.Chemscore.ZeroCoef>
-5.4800

> <Gold.Chemscore.Hbond>
1.6340

> <Gold.Chemscore.Metal>
0.0000

> <Gold.Chemscore.Lipo>
72.1442

> <Gold.Chemscore.Internal_Hbond>
0.0000

> <Gold.Chemscore.DEClash>
0.1041

> <Gold.Chemscore.DEInternal>
1.2364

> <Gold.Chemscore.Rot>
2.0557

> <Gold.Chemscore.Internal.Correction>
   9.000000E+99

> <Gold.Chemscore.Hbonds>
donor molecule, donor type, donor heavy atom, donor atom, acceptor molecule, acceptor atom, score
      L1  H     9    27       P1  7948  1.00
      P1  H  8011  8017       L1    17  0.63

> <Gold.Chemscore.Hbond.Weighted>
-5.4576

> <Gold.Chemscore.Metal.Weighted>
-0.0000

> <Gold.Chemscore.Lipo.Weighted>
-8.4409

> <Gold.Chemscore.Internal_Hbond.Weighted>
0.0000

> <Gold.Chemscore.DEClash.Weighted>
0.1041

> <Gold.Chemscore.DEInternal.Weighted>
1.2364

> <Gold.Chemscore.Rot.Weighted>
5.2627

> <Gold.Chemscore.Internal.Correction.Weighted>
   9.000000E+99

> <Gold.Protein.RotatedTorsions>
[ 6907 6896 6895 6894 ] final -134.47 input  -60.11 | X-H torsion
[ 7974 7965 7964 7962 ] final  -26.73 input  175.53 | X-H torsion
[ 8008 7997 7996 7995 ] final   82.37 input   59.86 | X-H torsion
[ 10167 10162 10161 10158 ] final -127.30 input  -65.29 | X-H torsion
[ 10718 10713 10712 10709 ] final   62.89 input   66.30 | X-H torsion
[ 10763 10752 10751 10750 ] final  125.39 input  -60.55 | X-H torsion
[ 11005 11000 10999 10996 ] final -120.54 input  -57.11 | X-H torsion

> <Gold.Protein.ActiveResidues>
 VAL166  LYS551  ARG553  GLY616  TRP617  ASP618  TYR619  PRO620  LYS621  CYS622 
 ASP623  PHE694  ASN695  SER759  ASP760  ASP761  ALA762  ILE779  LEU786  VAL792 
 PHE793  MET794  SER795  GLU796  ALA797  LYS798  CYS799  TRP800  GLU811  SER814 

> <Gold.Protein.RotatedAtoms>
  150.9862  133.6195  159.2714 H   0  0  0  0  0  0  0  0  0  0  0  0  # atno 6907 bound_to 6896
  151.3432  135.0867  159.9388 H   0  0  0  0  0  0  0  0  0  0  0  0  # atno 6908 bound_to 6896
  152.5231  133.9470  159.7708 H   0  0  0  0  0  0  0  0  0  0  0  0  # atno 6909 bound_to 6896
  146.1406  140.5058  142.8654 H   0  0  0  0  0  0  0  0  0  0  0  0  # atno 7974 bound_to 7965
  155.9097  140.3428  155.6089 H   0  0  0  0  0  0  0  0  0  0  0  0  # atno 8008 bound_to 7997
  155.7402  140.0806  157.2268 H   0  0  0  0  0  0  0  0  0  0  0  0  # atno 8009 bound_to 7997
  154.4054  140.1572  156.2595 H   0  0  0  0  0  0  0  0  0  0  0  0  # atno 8010 bound_to 7997
  139.9623  143.5936  152.2441 H   0  0  0  0  0  0  0  0  0  0  0  0  # atno 10167 bound_to 10162
  157.5933  130.9075  149.9646 H   0  0  0  0  0  0  0  0  0  0  0  0  # atno 10718 bound_to 10713
  153.6765  135.3321  155.3167 H   0  0  0  0  0  0  0  0  0  0  0  0  # atno 10763 bound_to 10752
  154.8477  135.4399  154.1650 H   0  0  0  0  0  0  0  0  0  0  0  0  # atno 10764 bound_to 10752
  153.2655  135.6995  153.7610 H   0  0  0  0  0  0  0  0  0  0  0  0  # atno 10765 bound_to 10752
  141.0136  134.0228  157.3380 H   0  0  0  0  0  0  0  0  0  0  0  0  # atno 11005 bound_to 11000
  144.7788  140.5796  143.6620 LP  0  0  0  0  0  0  0  0  0  0  0  0  # atno 17320 bound_to 7965
  145.5056  139.1481  143.3633 LP  0  0  0  0  0  0  0  0  0  0  0  0  # atno 17321 bound_to 7965
  139.6544  144.7662  151.2084 LP  0  0  0  0  0  0  0  0  0  0  0  0  # atno 17342 bound_to 10162
  140.7549  143.6108  150.8607 LP  0  0  0  0  0  0  0  0  0  0  0  0  # atno 17343 bound_to 10162
  156.0991  130.3657  150.0251 LP  0  0  0  0  0  0  0  0  0  0  0  0  # atno 17370 bound_to 10713
  156.8370  130.9412  151.3634 LP  0  0  0  0  0  0  0  0  0  0  0  0  # atno 17371 bound_to 10713
  139.9104  135.0189  156.7667 LP  0  0  0  0  0  0  0  0  0  0  0  0  # atno 17394 bound_to 11000
  140.6692  133.9575  155.7847 LP  0  0  0  0  0  0  0  0  0  0  0  0  # atno 17395 bound_to 11000

$$$$
