AV-unprocessed.smi:146|AV-procd|sdf|1200|dock3
  -GOLD-   2262018363D 1   1.00000     0.00000
 Structure written by MMmdl.
 55 59  0  0  0  0  0  0  0  0  1 V2000
  147.0329  136.7960  159.3634 C   0  0  0  0  0  0  0  0  0  0  0  0
  145.8459  137.1239  158.4439 C   0  0  0  0  0  0  0  0  0  0  0  0
  145.6763  138.6557  158.3806 C   0  0  0  0  0  0  0  0  0  0  0  0
  146.1001  136.5298  157.0438 C   0  0  0  0  0  0  0  0  0  0  0  0
  144.8782  136.5406  156.2524 N   0  0  0  0  0  0  0  0  0  0  0  0
  145.0567  136.4171  154.9142 C   0  0  0  0  0  0  0  0  0  0  0  0
  144.8240  137.4769  154.0946 N   0  0  0  0  0  0  0  0  0  0  0  0
  144.9894  137.3567  152.7742 C   0  0  0  0  0  0  0  0  0  0  0  0
  145.3793  136.2886  152.0763 N   0  0  0  0  0  0  0  0  0  0  0  0
  145.6270  135.2254  152.8930 C   0  0  0  0  0  0  0  0  0  0  0  0
  145.4883  135.2029  154.3097 C   0  0  0  0  0  0  0  0  0  0  0  0
  145.8309  133.9481  154.7991 N   0  0  0  0  0  0  0  0  0  0  0  0
  146.1420  133.2647  153.7319 C   0  0  0  0  0  0  0  0  0  0  0  0
  146.0603  133.9577  152.5445 N   0  0  0  0  0  0  0  0  0  0  0  0
  146.3538  133.4412  151.2160 C   0  0  0  0  0  0  0  0  0  0  0  0
  145.4081  132.3135  150.7517 C   0  0  0  0  0  0  0  0  0  0  0  0
  145.5498  131.0735  151.6522 C   0  0  0  0  0  0  0  0  0  0  0  0
  146.9062  130.7818  151.9234 O   0  0  0  0  0  0  0  0  0  0  0  0
  143.9611  132.7338  150.4594 C   0  0  0  0  0  0  0  0  0  0  0  0
  143.9777  132.0945  149.1657 O   0  0  0  0  0  0  0  0  0  0  0  0
  145.4155  132.0035  149.2474 C   0  0  0  0  0  0  0  0  0  0  0  0
  143.8036  135.7861  156.8831 C   0  0  0  0  0  0  0  0  0  0  0  0
  143.5106  136.3351  158.2963 C   0  0  1  0  0  0  0  0  0  0  0  0
  142.6637  137.6124  158.2821 C   0  0  0  0  0  0  0  0  0  0  0  0
  141.2344  137.1581  158.5909 C   0  0  0  0  0  0  0  0  0  0  0  0
  141.2871  135.7423  158.6409 O   0  0  0  0  0  0  0  0  0  0  0  0
  142.5905  135.3766  159.0580 C   0  0  0  0  0  0  0  0  0  0  0  0
  144.7175  136.4815  159.0584 O   0  0  0  0  0  0  0  0  0  0  0  0
  147.9613  137.2238  158.9835 H   0  0  0  0  0  0  0  0  0  0  0  0
  147.1781  135.7187  159.4524 H   0  0  0  0  0  0  0  0  0  0  0  0
  146.8738  137.1884  160.3684 H   0  0  0  0  0  0  0  0  0  0  0  0
  146.6008  139.1357  158.0580 H   0  0  0  0  0  0  0  0  0  0  0  0
  145.4165  139.0647  159.3574 H   0  0  0  0  0  0  0  0  0  0  0  0
  144.9072  138.9608  157.6731 H   0  0  0  0  0  0  0  0  0  0  0  0
  146.9082  137.0707  156.5516 H   0  0  0  0  0  0  0  0  0  0  0  0
  146.4335  135.4948  157.1335 H   0  0  0  0  0  0  0  0  0  0  0  0
  144.7789  138.2432  152.1941 H   0  0  0  0  0  0  0  0  0  0  0  0
  146.4517  132.2309  153.7824 H   0  0  0  0  0  0  0  0  0  0  0  0
  146.3275  134.2756  150.5140 H   0  0  0  0  0  0  0  0  0  0  0  0
  147.3883  133.0959  151.2153 H   0  0  0  0  0  0  0  0  0  0  0  0
  145.0486  131.2358  152.6070 H   0  0  0  0  0  0  0  0  0  0  0  0
  145.0752  130.1975  151.2101 H   0  0  0  0  0  0  0  0  0  0  0  0
  147.4073  130.9245  151.1347 H   0  0  0  0  0  0  0  0  0  0  0  0
  143.2235  132.2978  151.1343 H   0  0  0  0  0  0  0  0  0  0  0  0
  143.8212  133.8129  150.3752 H   0  0  0  0  0  0  0  0  0  0  0  0
  145.8955  132.7667  148.6339 H   0  0  0  0  0  0  0  0  0  0  0  0
  145.7911  131.0102  148.9979 H   0  0  0  0  0  0  0  0  0  0  0  0
  142.8991  135.8201  156.2738 H   0  0  0  0  0  0  0  0  0  0  0  0
  144.1082  134.7401  156.9444 H   0  0  0  0  0  0  0  0  0  0  0  0
  142.9869  138.3098  159.0554 H   0  0  0  0  0  0  0  0  0  0  0  0
  142.7203  138.1320  157.3251 H   0  0  0  0  0  0  0  0  0  0  0  0
  140.9101  137.5422  159.5589 H   0  0  0  0  0  0  0  0  0  0  0  0
  140.5204  137.4900  157.8369 H   0  0  0  0  0  0  0  0  0  0  0  0
  142.8004  134.3251  158.8608 H   0  0  0  0  0  0  0  0  0  0  0  0
  142.6701  135.5365  160.1347 H   0  0  0  0  0  0  0  0  0  0  0  0
  1  2  1  0  0  0  0
  1 29  1  0  0  0  0
  1 30  1  0  0  0  0
  1 31  1  0  0  0  0
  2 28  1  0  0  0  0
  2  3  1  0  0  0  0
  2  4  1  0  0  0  0
  3 32  1  0  0  0  0
  3 33  1  0  0  0  0
  3 34  1  0  0  0  0
  4  5  1  0  0  0  0
  4 35  1  0  0  0  0
  4 36  1  0  0  0  0
  5  6  1  0  0  0  0
  5 22  1  0  0  0  0
  6 11  1  0  0  0  0
  6  7  2  0  0  0  0
  7  8  1  0  0  0  0
  8  9  2  0  0  0  0
  8 37  1  0  0  0  0
  9 10  1  0  0  0  0
 10 14  1  0  0  0  0
 10 11  2  0  0  0  0
 11 12  1  0  0  0  0
 12 13  2  0  0  0  0
 13 14  1  0  0  0  0
 13 38  1  0  0  0  0
 14 15  1  0  0  0  0
 15 16  1  0  0  0  0
 15 39  1  0  0  0  0
 15 40  1  0  0  0  0
 16 21  1  0  0  0  0
 16 17  1  0  0  0  0
 16 19  1  0  0  0  0
 17 18  1  0  0  0  0
 17 41  1  0  0  0  0
 17 42  1  0  0  0  0
 18 43  1  0  0  0  0
 19 20  1  0  0  0  0
 19 44  1  0  0  0  0
 19 45  1  0  0  0  0
 20 21  1  0  0  0  0
 21 46  1  0  0  0  0
 21 47  1  0  0  0  0
 22 23  1  0  0  0  0
 22 48  1  0  0  0  0
 22 49  1  0  0  0  0
 23 27  1  0  0  0  0
 23 24  1  0  0  0  0
 23 28  1  0  0  0  0
 24 25  1  0  0  0  0
 24 50  1  0  0  0  0
 24 51  1  0  0  0  0
 25 26  1  0  0  0  0
 25 52  1  0  0  0  0
 25 53  1  0  0  0  0
 26 27  1  0  0  0  0
 27 54  1  0  0  0  0
 27 55  1  0  0  0  0
M  END
> <s_m_source_file>
AV-unprocessed.smi

> <i_m_source_file_index>
146

> <i_lp_mmshare_version>
43012

> <i_f3d_flags>
0

> <s_epik_input>
W0NIMl0xT1tDSDJdW0NIMl1bQ0BAXTEyW0NIMl1OKFtDSDJdQyhPMikoW0NIM10pW0NIM10pYyhuW2NIXW4zKWMoYzM0KW5bY0hdbjRbQ0gyXUM1KFtDSDJdW09IXSlbQ0gyXU9bQ0gyXTU=

> <s_epik_cmdline>
J2VwaWtfcHl0aG9uJywgJy1waCcsICc3LjAnLCAnLXRuJywgJzgnLCAnLW1hJywgJzIwMCcsICctbWV0YWxfYmluZGluZycsICctaW1hZScsICc8aW5maWxlLm1hZT4nLCAnLW9tYWUnLCAnPG91dGZpbGUubWFlPic=

> <r_lp_tautomer_probability>
1

> <r_epik_Ionization_Penalty>
0.00353822

> <r_epik_Ionization_Penalty_Charging>
0

> <r_epik_Ionization_Penalty_Neutral>
0.00353822

> <r_epik_State_Penalty>
0.0023805

> <r_epik_Charging_Adjusted_Penalty>
0.0023805

> <i_epik_Tot_Q>
0

> <i_epik_Tot_abs_Q>
0

> <r_epik_Metal_State_Penalty>
-0

> <b_epik_Metal_Only>
0

> <s_lp_Force_Field>
OPLS_2005

> <r_lp_Energy>
57.4997

> <b_lp_Chiralities_Consistent>
1

> <s_lp_Variant>
AV-unprocessed.smi:146-2

> <Gold.Version>
5.8.1

> <Gold.Id.Protein>
6NUR|6NUR_protein|mol2

> <Gold.PLP.Fitness>
38.8138

> <Gold.PLP.PLP>
-25.4565

> <Gold.PLP.part.hbond>
-3.0000

> <Gold.PLP.part.metal>
0.0000

> <Gold.PLP.part.buried>
-6.9384

> <Gold.PLP.part.nonpolar>
-17.7268

> <Gold.PLP.part.repulsive>
0.5844

> <Gold.PLP.ligand.clash>
0.0000

> <Gold.PLP.ligand.torsion>
0.5026

> <Gold.PLP.Chemscore.Hbond>
2.5770

> <Gold.PLP.Chemscore.CHOScore>
2.0000

> <Gold.PLP.Chemscore.Metal>
0.0000

> <Gold.Chemscore.Hbonds>
donor molecule, donor type, donor heavy atom, donor atom, acceptor molecule, acceptor atom, score
      L1  H    18    43       P1 10747  0.98
      P1  H 10785 10796       L1    20  0.53
      P1  H 11000 11005       L1    26  1.00
      L1  C     8    37       P1 10171  0.91
      L1  C     8    37       P1 10175  1.00

> <Gold.PLP.Chemscore.Internal.Correction>
0.6315

> <Gold.Rescore>
     Score         DG    S(hbond)    S(metal)    S(lipo)     H(rot)  DE(clash)    DE(int)     intcor
     13.66     -14.20       2.56        0.00      54.83       2.44       0.00       0.54       ----

> <Gold.Chemscore.Fitness>
13.6585

> <Gold.Chemscore.DG>
-14.1968

> <Gold.Chemscore.ZeroCoef>
-5.4800

> <Gold.Chemscore.Hbond>
2.5574

> <Gold.Chemscore.Metal>
0.0000

> <Gold.Chemscore.Lipo>
54.8321

> <Gold.Chemscore.Internal_Hbond>
0.0000

> <Gold.Chemscore.DEClash>
0.0000

> <Gold.Chemscore.DEInternal>
0.5383

> <Gold.Chemscore.Rot>
2.4376

> <Gold.Chemscore.Internal.Correction>
   9.000000E+99

> <Gold.Chemscore.Hbonds>
donor molecule, donor type, donor heavy atom, donor atom, acceptor molecule, acceptor atom, score
      L1  H    18    43       P1 10747  0.93
      P1  H 10785 10796       L1    20  0.34
      P1  H 11000 11005       L1    26  0.78

> <Gold.Chemscore.Hbond.Weighted>
-8.5416

> <Gold.Chemscore.Metal.Weighted>
-0.0000

> <Gold.Chemscore.Lipo.Weighted>
-6.4154

> <Gold.Chemscore.Internal_Hbond.Weighted>
0.0000

> <Gold.Chemscore.DEClash.Weighted>
0.0000

> <Gold.Chemscore.DEInternal.Weighted>
0.5383

> <Gold.Chemscore.Rot.Weighted>
6.2402

> <Gold.Chemscore.Internal.Correction.Weighted>
   9.000000E+99

> <Gold.Protein.RotatedTorsions>
[ 6907 6896 6895 6894 ] final   37.11 input  -60.11 | X-H torsion
[ 7974 7965 7964 7962 ] final  127.26 input  175.53 | X-H torsion
[ 8008 7997 7996 7995 ] final  103.39 input   59.86 | X-H torsion
[ 10167 10162 10161 10158 ] final  -44.07 input  -65.29 | X-H torsion
[ 10718 10713 10712 10709 ] final -118.74 input   66.30 | X-H torsion
[ 10763 10752 10751 10750 ] final -147.41 input  -60.55 | X-H torsion
[ 11005 11000 10999 10996 ] final -162.97 input  -57.11 | X-H torsion

> <Gold.Protein.ActiveResidues>
 VAL166  LYS551  ARG553  GLY616  TRP617  ASP618  TYR619  PRO620  LYS621  CYS622 
 ASP623  PHE694  ASN695  SER759  ASP760  ASP761  ALA762  ILE779  LEU786  VAL792 
 PHE793  MET794  SER795  GLU796  ALA797  LYS798  CYS799  TRP800  GLU811  SER814 

> <Gold.Protein.RotatedAtoms>
  152.1388  134.9078  160.0554 H   0  0  0  0  0  0  0  0  0  0  0  0  # atno 6907 bound_to 6896
  152.0155  133.3873  159.4245 H   0  0  0  0  0  0  0  0  0  0  0  0  # atno 6908 bound_to 6896
  150.6863  134.3605  159.4992 H   0  0  0  0  0  0  0  0  0  0  0  0  # atno 6909 bound_to 6896
  145.0525  139.3871  143.5046 H   0  0  0  0  0  0  0  0  0  0  0  0  # atno 7974 bound_to 7965
  156.1479  140.3165  155.8601 H   0  0  0  0  0  0  0  0  0  0  0  0  # atno 8008 bound_to 7997
  155.4028  140.0501  157.3053 H   0  0  0  0  0  0  0  0  0  0  0  0  # atno 8009 bound_to 7997
  154.5033  140.2137  155.9314 H   0  0  0  0  0  0  0  0  0  0  0  0  # atno 8010 bound_to 7997
  140.6911  143.2949  151.3442 H   0  0  0  0  0  0  0  0  0  0  0  0  # atno 10167 bound_to 10162
  156.1129  130.6263  150.9329 H   0  0  0  0  0  0  0  0  0  0  0  0  # atno 10718 bound_to 10713
  154.8287  135.3361  154.6814 H   0  0  0  0  0  0  0  0  0  0  0  0  # atno 10763 bound_to 10752
  153.7437  135.6944  153.4965 H   0  0  0  0  0  0  0  0  0  0  0  0  # atno 10764 bound_to 10752
  153.2226  135.4444  155.0457 H   0  0  0  0  0  0  0  0  0  0  0  0  # atno 10765 bound_to 10752
  140.6033  134.4925  157.5207 H   0  0  0  0  0  0  0  0  0  0  0  0  # atno 11005 bound_to 11000
  146.3519  140.0183  142.8661 LP  0  0  0  0  0  0  0  0  0  0  0  0  # atno 17320 bound_to 7965
  145.1509  140.9622  143.4433 LP  0  0  0  0  0  0  0  0  0  0  0  0  # atno 17321 bound_to 7965
  139.6314  144.0713  152.2479 LP  0  0  0  0  0  0  0  0  0  0  0  0  # atno 17342 bound_to 10162
  140.0189  144.6168  150.7583 LP  0  0  0  0  0  0  0  0  0  0  0  0  # atno 17343 bound_to 10162
  157.6311  131.0921  150.8440 LP  0  0  0  0  0  0  0  0  0  0  0  0  # atno 17370 bound_to 10713
  156.8548  130.5093  149.5308 LP  0  0  0  0  0  0  0  0  0  0  0  0  # atno 17371 bound_to 10713
  139.9223  134.8124  156.1174 LP  0  0  0  0  0  0  0  0  0  0  0  0  # atno 17394 bound_to 11000
  141.0857  133.6735  156.2432 LP  0  0  0  0  0  0  0  0  0  0  0  0  # atno 17395 bound_to 11000

$$$$
