AV-unprocessed.smi:2673|AV-procd|sdf|10356|dock1
  -GOLD-   2272014383D 1   1.00000     0.00000
 Structure written by MMmdl.
 32 33  0  0  0  0  0  0  0  0  1 V2000
  147.6267  141.0877  158.4309 O   0  0  0  0  0  0  0  0  0  0  0  0
  147.8405  142.2125  157.9811 C   0  0  0  0  0  0  0  0  0  0  0  0
  147.4293  143.3601  158.5487 N   0  0  0  0  0  0  0  0  0  0  0  0
  146.7059  143.5362  159.7581 C   0  0  0  0  0  0  0  0  0  0  0  0
  146.2742  142.5214  160.5233 N   0  0  0  0  0  0  0  0  0  0  0  0
  145.5984  142.9714  161.6502 N   0  0  0  0  0  0  0  0  0  0  0  0
  145.5468  144.3058  161.6904 C   0  0  0  0  0  0  0  0  0  0  0  0
  146.3178  145.1435  160.3547 S   0  0  0  0  0  0  0  0  0  0  0  0
  148.5178  142.4590  156.8473 N   0  0  0  0  0  0  0  0  0  0  0  0
  149.1634  141.5164  155.9168 C   0  0  0  0  0  0  0  0  0  0  0  0
  150.6983  141.4866  156.1721 C   0  0  0  0  0  0  0  0  0  0  0  0
  151.2025  142.7207  156.1303 F   0  0  0  0  0  0  0  0  0  0  0  0
  150.9572  140.9730  157.3761 F   0  0  0  0  0  0  0  0  0  0  0  0
  151.3414  140.7582  155.2601 F   0  0  0  0  0  0  0  0  0  0  0  0
  148.5571  140.0862  156.0140 C   0  0  0  0  0  0  0  0  0  0  0  0
  147.0631  140.0372  155.6450 C   0  0  0  0  0  0  0  0  0  0  0  0
  146.8243  140.5955  154.2350 C   0  0  0  0  0  0  0  0  0  0  0  0
  147.3994  142.0121  154.0954 C   0  0  0  0  0  0  0  0  0  0  0  0
  148.8902  142.0525  154.4851 C   0  0  0  0  0  0  0  0  0  0  0  0
  147.6720  144.2112  158.0635 H   0  0  0  0  0  0  0  0  0  0  0  0
  145.0513  144.8002  162.5126 H   0  0  0  0  0  0  0  0  0  0  0  0
  148.6175  143.4310  156.5948 H   0  0  0  0  0  0  0  0  0  0  0  0
  149.0980  139.4232  155.3380 H   0  0  0  0  0  0  0  0  0  0  0  0
  148.7034  139.6592  157.0054 H   0  0  0  0  0  0  0  0  0  0  0  0
  146.7039  139.0091  155.6991 H   0  0  0  0  0  0  0  0  0  0  0  0
  146.4787  140.6029  156.3714 H   0  0  0  0  0  0  0  0  0  0  0  0
  147.2914  139.9392  153.4997 H   0  0  0  0  0  0  0  0  0  0  0  0
  145.7573  140.6012  154.0110 H   0  0  0  0  0  0  0  0  0  0  0  0
  147.2783  142.3577  153.0684 H   0  0  0  0  0  0  0  0  0  0  0  0
  146.8291  142.7029  154.7174 H   0  0  0  0  0  0  0  0  0  0  0  0
  149.2614  143.0734  154.3867 H   0  0  0  0  0  0  0  0  0  0  0  0
  149.4486  141.4624  153.7576 H   0  0  0  0  0  0  0  0  0  0  0  0
  1  2  2  0  0  0  0
  2  3  1  0  0  0  0
  2  9  1  0  0  0  0
  3  4  1  0  0  0  0
  3 20  1  0  0  0  0
  4  8  1  0  0  0  0
  4  5  2  0  0  0  0
  5  6  1  0  0  0  0
  6  7  2  0  0  0  0
  7  8  1  0  0  0  0
  7 21  1  0  0  0  0
  9 10  1  0  0  0  0
  9 22  1  0  0  0  0
 10 19  1  0  0  0  0
 10 11  1  0  0  0  0
 10 15  1  0  0  0  0
 11 12  1  0  0  0  0
 11 13  1  0  0  0  0
 11 14  1  0  0  0  0
 15 16  1  0  0  0  0
 15 23  1  0  0  0  0
 15 24  1  0  0  0  0
 16 17  1  0  0  0  0
 16 25  1  0  0  0  0
 16 26  1  0  0  0  0
 17 18  1  0  0  0  0
 17 27  1  0  0  0  0
 17 28  1  0  0  0  0
 18 19  1  0  0  0  0
 18 29  1  0  0  0  0
 18 30  1  0  0  0  0
 19 31  1  0  0  0  0
 19 32  1  0  0  0  0
M  END
> <s_m_source_file>
AV-unprocessed.smi

> <i_m_source_file_index>
2673

> <i_lp_mmshare_version>
43012

> <i_f3d_flags>
0

> <s_epik_input>
czFbY0hdbm5jMVtOSF1DKD1PKVtOSF1DMihDKEYpKEYpRilbQ0gyXVtDSDJdW0NIMl1bQ0gyXVtDSDJdMg==

> <s_epik_cmdline>
J2VwaWtfcHl0aG9uJywgJy1waCcsICc3LjAnLCAnLXRuJywgJzgnLCAnLW1hJywgJzIwMCcsICctbWV0YWxfYmluZGluZycsICctaW1hZScsICc8aW5maWxlLm1hZT4nLCAnLW9tYWUnLCAnPG91dGZpbGUubWFlPic=

> <r_lp_tautomer_probability>
1

> <r_epik_Ionization_Penalty>
1.40881

> <r_epik_Ionization_Penalty_Charging>
0

> <r_epik_Ionization_Penalty_Neutral>
1.40881

> <r_epik_State_Penalty>
1.51827

> <r_epik_Charging_Adjusted_Penalty>
1.51827

> <i_epik_Tot_Q>
0

> <i_epik_Tot_abs_Q>
0

> <r_epik_Metal_State_Penalty>
1.5692

> <b_epik_Metal_Only>
0

> <s_lp_Force_Field>
OPLS_2005

> <r_lp_Energy>
12.8136

> <b_lp_Chiralities_Consistent>
1

> <s_lp_Variant>
AV-unprocessed.smi:2673-2

> <Gold.Version>
5.8.1

> <Gold.Id.Protein>
6NUR|6NUR_protein|mol2

> <Gold.PLP.Fitness>
35.6938

> <Gold.PLP.PLP>
-27.6330

> <Gold.PLP.part.hbond>
-4.0000

> <Gold.PLP.part.metal>
0.0000

> <Gold.PLP.part.buried>
-1.4816

> <Gold.PLP.part.nonpolar>
-21.4729

> <Gold.PLP.part.repulsive>
0.1505

> <Gold.PLP.ligand.clash>
0.0000

> <Gold.PLP.ligand.torsion>
0.4849

> <Gold.PLP.Chemscore.Hbond>
3.0000

> <Gold.PLP.Chemscore.CHOScore>
0.0000

> <Gold.PLP.Chemscore.Metal>
0.0000

> <Gold.Chemscore.Hbonds>
donor molecule, donor type, donor heavy atom, donor atom, acceptor molecule, acceptor atom, score
      L1  H     3    20       P1  8029  1.00
      L1  H     9    22       P1  8028  1.00
      P1  H  6933  6944       L1     5  0.02
      P1  H  6934  6946       L1     5  1.00

> <Gold.PLP.Chemscore.Internal.Correction>
0.0306

> <Gold.Rescore>
     Score         DG    S(hbond)    S(metal)    S(lipo)     H(rot)  DE(clash)    DE(int)     intcor
     11.65     -14.99       2.02        0.00      45.40       1.00       0.16       3.18       ----

> <Gold.Chemscore.Fitness>
11.6495

> <Gold.Chemscore.DG>
-14.9866

> <Gold.Chemscore.ZeroCoef>
-5.4800

> <Gold.Chemscore.Hbond>
2.0223

> <Gold.Chemscore.Metal>
0.0000

> <Gold.Chemscore.Lipo>
45.4029

> <Gold.Chemscore.Internal_Hbond>
0.0000

> <Gold.Chemscore.DEClash>
0.1574

> <Gold.Chemscore.DEInternal>
3.1797

> <Gold.Chemscore.Rot>
1.0000

> <Gold.Chemscore.Internal.Correction>
   9.000000E+99

> <Gold.Chemscore.Hbonds>
donor molecule, donor type, donor heavy atom, donor atom, acceptor molecule, acceptor atom, score
      L1  H     3    20       P1  8029  0.30
      L1  H     9    22       P1  8028  0.59
      P1  H  6934  6946       L1     5  0.82

> <Gold.Chemscore.Hbond.Weighted>
-6.7545

> <Gold.Chemscore.Metal.Weighted>
-0.0000

> <Gold.Chemscore.Lipo.Weighted>
-5.3121

> <Gold.Chemscore.Internal_Hbond.Weighted>
0.0000

> <Gold.Chemscore.DEClash.Weighted>
0.1574

> <Gold.Chemscore.DEInternal.Weighted>
3.1797

> <Gold.Chemscore.Rot.Weighted>
2.5600

> <Gold.Chemscore.Internal.Correction.Weighted>
   9.000000E+99

> <Gold.Protein.RotatedTorsions>
[ 6907 6896 6895 6894 ] final -118.08 input  -60.11 | X-H torsion
[ 7974 7965 7964 7962 ] final -164.04 input  175.53 | X-H torsion
[ 8008 7997 7996 7995 ] final  108.91 input   59.86 | X-H torsion
[ 10167 10162 10161 10158 ] final  -57.52 input  -65.29 | X-H torsion
[ 10718 10713 10712 10709 ] final   54.30 input   66.30 | X-H torsion
[ 10763 10752 10751 10750 ] final -116.71 input  -60.55 | X-H torsion
[ 11005 11000 10999 10996 ] final   91.67 input  -57.11 | X-H torsion

> <Gold.Protein.ActiveResidues>
 VAL166  LYS551  ARG553  GLY616  TRP617  ASP618  TYR619  PRO620  LYS621  CYS622 
 ASP623  PHE694  ASN695  SER759  ASP760  ASP761  ALA762  ILE779  LEU786  VAL792 
 PHE793  MET794  SER795  GLU796  ALA797  LYS798  CYS799  TRP800  GLU811  SER814 

> <Gold.Protein.RotatedAtoms>
  150.8190  133.8286  159.3147 H   0  0  0  0  0  0  0  0  0  0  0  0  # atno 6907 bound_to 6896
  151.6050  135.1043  160.0078 H   0  0  0  0  0  0  0  0  0  0  0  0  # atno 6908 bound_to 6896
  152.4280  133.7188  159.6578 H   0  0  0  0  0  0  0  0  0  0  0  0  # atno 6909 bound_to 6896
  144.7308  140.3018  143.6203 H   0  0  0  0  0  0  0  0  0  0  0  0  # atno 7974 bound_to 7965
  156.1939  140.3067  155.9387 H   0  0  0  0  0  0  0  0  0  0  0  0  # atno 8008 bound_to 7997
  155.3111  140.0451  157.3052 H   0  0  0  0  0  0  0  0  0  0  0  0  # atno 8009 bound_to 7997
  154.5485  140.2284  155.8532 H   0  0  0  0  0  0  0  0  0  0  0  0  # atno 8010 bound_to 7997
  140.6253  143.2436  151.5378 H   0  0  0  0  0  0  0  0  0  0  0  0  # atno 10167 bound_to 10162
  157.5245  130.8587  149.8603 H   0  0  0  0  0  0  0  0  0  0  0  0  # atno 10718 bound_to 10713
  154.8529  135.4336  154.1864 H   0  0  0  0  0  0  0  0  0  0  0  0  # atno 10763 bound_to 10752
  153.2943  135.6964  153.7269 H   0  0  0  0  0  0  0  0  0  0  0  0  # atno 10764 bound_to 10752
  153.6424  135.3465  155.3050 H   0  0  0  0  0  0  0  0  0  0  0  0  # atno 10765 bound_to 10752
  139.8835  134.8688  156.3462 H   0  0  0  0  0  0  0  0  0  0  0  0  # atno 11005 bound_to 11000
  145.7752  139.1871  143.2189 LP  0  0  0  0  0  0  0  0  0  0  0  0  # atno 17320 bound_to 7965
  146.0878  140.7690  142.9610 LP  0  0  0  0  0  0  0  0  0  0  0  0  # atno 17321 bound_to 7965
  139.5475  144.2483  152.1469 LP  0  0  0  0  0  0  0  0  0  0  0  0  # atno 17342 bound_to 10162
  140.1713  144.4932  150.6578 LP  0  0  0  0  0  0  0  0  0  0  0  0  # atno 17343 bound_to 10162
  156.0377  130.3747  150.1517 LP  0  0  0  0  0  0  0  0  0  0  0  0  # atno 17370 bound_to 10713
  156.9704  130.9833  151.3460 LP  0  0  0  0  0  0  0  0  0  0  0  0  # atno 17371 bound_to 10713
  140.9625  133.7379  156.0421 LP  0  0  0  0  0  0  0  0  0  0  0  0  # atno 17394 bound_to 11000
  140.7971  134.3551  157.5449 LP  0  0  0  0  0  0  0  0  0  0  0  0  # atno 17395 bound_to 11000

$$$$
