#       Name:                AV-unprocessed.smi:2226
#       Creating user name   scv26
#       Creation time:       Fri Mar 27 12:21:23 2020


#       File generated by GOLD software.
#

@<TRIPOS>MOLECULE
AV-unprocessed.smi:2226
    45    47     1
SMALL
NO_CHARGES


@<TRIPOS>ATOM
      1 ****        -3.3927  -2.9173  -0.4451 C.3            1 S1                 0.0000
      2 ****        -2.7073  -1.6035  -0.3993 N.4            1 S1                 1.0000
      3 ****        -1.9004  -1.2803  -1.6003 C.3            1 S1                 0.0000
      4 ****        -0.6317  -2.1657  -1.6858 C.3            1 S1                 0.0000
      5 ****         0.2130  -2.1829  -0.3988 C.3            1 S1                 0.0000
      6 ****        -0.6492  -2.2521   0.8738 C.3            1 S1                 0.0000
      7 ****        -1.9130  -1.3580   0.8282 C.3            1 S1                 0.0000
      8 ****        -1.6468   0.1595   0.9651 C.3            1 S1                 0.0000
      9 ****        -1.1414   0.8785  -0.3175 C.3            1 S1                 0.0000
     10 ****         0.3061   1.0844  -0.3352 N.am           1 S1                 0.0000
     11 ****         0.9803   1.9689   0.4165 C.2            1 S1                 0.0000
     12 ****         0.4451   2.7126   1.2388 O.2            1 S1                 0.0000
     13 ****         2.2967   1.9376   0.1585 N.am           1 S1                 0.0000
     14 ****         3.2807   2.7254   0.7988 C.2            1 S1                 0.0000
     15 ****         4.5794   2.6777   0.5070 N.pl3          1 S1                 1.0000
     16 ****         5.2454   3.5642   1.3166 C.2            1 S1                 0.0000
     17 ****         4.2826   4.1438   2.1076 C.2            1 S1                 0.0000
     18 ****         3.0417   3.6267   1.7936 O.3            1 S1                 0.0000
     19 ****        -1.6429   0.2443  -1.6405 C.3            1 S1                 0.0000
     20 ****        -2.6913  -3.7508  -0.4722 H              1 S1                 0.0000
     21 ****        -4.0282  -2.9829  -1.3286 H              1 S1                 0.0000
     22 ****        -4.0318  -3.0429   0.4293 H              1 S1                 0.0000
     23 ****        -2.5066  -1.5092  -2.4782 H              1 S1                 0.0000
     24 ****        -0.9347  -3.1890  -1.9094 H              1 S1                 0.0000
     25 ****        -0.0141  -1.8577  -2.5301 H              1 S1                 0.0000
     26 ****         0.8933  -3.0347  -0.4228 H              1 S1                 0.0000
     27 ****         0.8660  -1.3178  -0.3628 H              1 S1                 0.0000
     28 ****        -0.9571  -3.2872   1.0238 H              1 S1                 0.0000
     29 ****        -0.0434  -2.0024   1.7454 H              1 S1                 0.0000
     30 ****        -2.5305  -1.6375   1.6833 H              1 S1                 0.0000
     31 ****        -2.5978   0.6225   1.2334 H              1 S1                 0.0000
     32 ****        -0.9935   0.3534   1.8164 H              1 S1                 0.0000
     33 ****        -1.5599   1.8870  -0.2960 H              1 S1                 0.0000
     34 ****         0.8324   0.5168  -0.9837 H              1 S1                 0.0000
     35 ****         5.0392   2.1013  -0.1868 H              1 S1                 0.0000
     36 ****         6.3166   3.6918   1.2512 H              1 S1                 0.0000
     37 ****         4.3081   4.8892   2.8893 H              1 S1                 0.0000
     38 ****        -0.9835   0.4996  -2.4714 H              1 S1                 0.0000
     39 ****        -2.5952   0.7189  -1.8822 H              1 S1                 0.0000
     40 ****        -3.4565  -0.9262  -0.3811 H              1 S1                 0.0000
     41 ****         2.6231   1.2951  -0.5480 H              1 S1                 0.0000
     42 ****        -0.5450   2.6772   1.3750 LP             1 S1                 0.0000
     43 ****         1.0004   3.3520   1.7705 LP             1 S1                 0.0000
     44 ****         2.6371   3.1747   2.5886 LP             1 S1                 0.0000
     45 ****         2.4295   4.3499   1.4739 LP             1 S1                 0.0000
@<TRIPOS>BOND
    1    1    2 1     
    2    1   20 1     
    3    1   21 1     
    4    1   22 1     
    5    2    7 1     
    6    2    3 1     
    7    2   40 1     
    8    3   19 1     
    9    3    4 1     
   10    3   23 1     
   11    4    5 1     
   12    4   24 1     
   13    4   25 1     
   14    5    6 1     
   15    5   26 1     
   16    5   27 1     
   17    6    7 1     
   18    6   28 1     
   19    6   29 1     
   20    7    8 1     
   21    7   30 1     
   22    8    9 1     
   23    8   31 1     
   24    8   32 1     
   25    9   10 1     
   26    9   19 1     
   27    9   33 1     
   28   10   34 1     
   29   10   11 am    
   30   11   13 am    
   31   11   12 2     
   32   13   14 1     
   33   13   41 1     
   34   14   18 1     
   35   14   15 2     
   36   15   35 1     
   37   15   16 1     
   38   16   36 1     
   39   16   17 2     
   40   17   37 1     
   41   17   18 1     
   42   19   38 1     
   43   19   39 1     
   44   12   42 1     
   45   12   43 1     
   46   18   44 1     
   47   18   45 1     
@<TRIPOS>SUBSTRUCTURE
      1 S1             1
@<TRIPOS>SET
LONE_PAIRS      STATIC     ATOMS    <user>   **** ""
4 42 43 44 45
DONOR_HYDROGENS      STATIC     ATOMS    <user>   **** ""
4 40 34 41 35
ATOM$BLUE        STATIC     ATOMS    COLORGROUP SYSTEM
4 42 43 44 45
ATOM$RED        STATIC     ATOMS    COLORGROUP SYSTEM
4 40 34 41 35
