AV-unprocessed.smi:2212|AV-procd|sdf|8952|dock10
  -GOLD-   2272012173D 1   1.00000     0.00000
 Structure written by MMmdl.
 32 33  0  0  0  0  0  0  0  0  2 V2000
  146.4682  140.0266  155.9460 C   0  0  0  0  0  0  0  0  0  0  0  0
  147.5333  139.1757  155.5404 O   0  0  0  0  0  0  0  0  0  0  0  0
  148.1288  139.4501  154.2675 C   0  0  0  0  0  0  0  0  0  0  0  0
  147.1100  139.3455  153.1224 C   0  0  0  0  0  0  0  0  0  0  0  0
  147.0625  137.9975  152.5637 N   0  0  0  0  0  0  0  0  0  0  0  0
  145.9509  137.2686  152.3875 C   0  0  0  0  0  0  0  0  0  0  0  0
  144.8188  137.6767  152.6492 O   0  0  0  0  0  0  0  0  0  0  0  0
  146.2333  136.0504  151.8965 N   0  0  0  0  0  0  0  0  0  0  0  0
  145.3141  135.0083  151.6137 C   0  0  0  0  0  0  0  0  0  0  0  0
  145.1299  134.3932  150.4432 N   0  3  0  0  0  0  0  0  0  0  0  0
  144.1479  133.4460  150.5877 C   0  0  0  0  0  0  0  0  0  0  0  0
  143.7502  133.5213  151.9006 C   0  0  0  0  0  0  0  0  0  0  0  0
  144.4737  134.4981  152.5564 O   0  0  0  0  0  0  0  0  0  0  0  0
  148.9303  140.7573  154.4194 C   0  0  0  0  0  0  0  0  0  0  0  0
  150.1488  139.9316  154.8340 C   0  0  0  0  0  0  0  0  0  0  0  0
  149.4930  138.7407  154.1327 C   0  0  0  0  0  0  0  0  0  0  0  0
  146.0171  139.6238  156.8526 H   0  0  0  0  0  0  0  0  0  0  0  0
  145.6845  140.0997  155.1928 H   0  0  0  0  0  0  0  0  0  0  0  0
  146.8217  141.0305  156.1804 H   0  0  0  0  0  0  0  0  0  0  0  0
  146.1183  139.6436  153.4669 H   0  0  0  0  0  0  0  0  0  0  0  0
  147.3521  140.0415  152.3196 H   0  0  0  0  0  0  0  0  0  0  0  0
  147.9507  137.5817  152.3235 H   0  0  0  0  0  0  0  0  0  0  0  0
  145.6153  134.5702  149.5719 H   0  0  0  0  0  0  0  0  0  0  0  0
  143.8365  132.8265  149.7589 H   0  0  0  0  0  0  0  0  0  0  0  0
  143.0161  132.9899  152.4888 H   0  0  0  0  0  0  0  0  0  0  0  0
  149.0867  141.2720  153.4701 H   0  0  0  0  0  0  0  0  0  0  0  0
  148.5585  141.4405  155.1839 H   0  0  0  0  0  0  0  0  0  0  0  0
  151.0926  140.2576  154.3964 H   0  0  0  0  0  0  0  0  0  0  0  0
  150.2247  139.7990  155.9144 H   0  0  0  0  0  0  0  0  0  0  0  0
  149.6010  137.7960  154.6644 H   0  0  0  0  0  0  0  0  0  0  0  0
  149.8146  138.6446  153.0944 H   0  0  0  0  0  0  0  0  0  0  0  0
  147.2046  135.8429  151.7159 H   0  0  0  0  0  0  0  0  0  0  0  0
  1  2  1  0  0  0  0
  1 17  1  0  0  0  0
  1 18  1  0  0  0  0
  1 19  1  0  0  0  0
  2  3  1  0  0  0  0
  3 16  1  0  0  0  0
  3  4  1  0  0  0  0
  3 14  1  0  0  0  0
  4  5  1  0  0  0  0
  4 20  1  0  0  0  0
  4 21  1  0  0  0  0
  5 22  1  0  0  0  0
  5  6  1  0  0  0  0
  6  8  1  0  0  0  0
  6  7  2  0  0  0  0
  8  9  1  0  0  0  0
  8 32  1  0  0  0  0
  9 13  1  0  0  0  0
  9 10  2  0  0  0  0
 10 23  1  0  0  0  0
 10 11  1  0  0  0  0
 11 24  1  0  0  0  0
 11 12  2  0  0  0  0
 12 25  1  0  0  0  0
 12 13  1  0  0  0  0
 14 15  1  0  0  0  0
 14 26  1  0  0  0  0
 14 27  1  0  0  0  0
 15 16  1  0  0  0  0
 15 28  1  0  0  0  0
 15 29  1  0  0  0  0
 16 30  1  0  0  0  0
 16 31  1  0  0  0  0
M  CHG  1  10   1
M  END
> <s_m_source_file>
AV-unprocessed.smi

> <i_m_source_file_index>
2212

> <i_lp_mmshare_version>
43012

> <i_f3d_flags>
0

> <s_epik_input>
W0NIMl0xW0NIMl1bQ0gyXUMxKE9bQ0gzXSlbQ0gyXVtOSF1DKD1PKVtOSF1jMm5bY0hdW2NIXW8y

> <s_epik_cmdline>
J2VwaWtfcHl0aG9uJywgJy1waCcsICc3LjAnLCAnLXRuJywgJzgnLCAnLW1hJywgJzIwMCcsICctbWV0YWxfYmluZGluZycsICctaW1hZScsICc8aW5maWxlLm1hZT4nLCAnLW9tYWUnLCAnPG91dGZpbGUubWFlPic=

> <r_epik_Ionization_Penalty>
6.73843

> <r_epik_Ionization_Penalty_Charging>
6.66704

> <r_epik_Ionization_Penalty_Neutral>
0.0713889

> <r_epik_State_Penalty>
1.94951

> <r_epik_Charging_Adjusted_Penalty>
8.61656

> <i_epik_Tot_Q>
1

> <i_epik_Tot_abs_Q>
1

> <r_epik_Metal_State_Penalty>
1.97013

> <b_epik_Metal_Only>
0

> <s_lp_Force_Field>
OPLS_2005

> <r_lp_Energy>
24.3681

> <b_lp_Chiralities_Consistent>
1

> <s_lp_Variant>
AV-unprocessed.smi:2212-2

> <Gold.Version>
5.8.1

> <Gold.Id.Protein>
6NUR|6NUR_protein|mol2

> <Gold.PLP.Fitness>
32.5806

> <Gold.PLP.PLP>
-22.9943

> <Gold.PLP.part.hbond>
-2.9679

> <Gold.PLP.part.metal>
0.0000

> <Gold.PLP.part.buried>
-2.7742

> <Gold.PLP.part.nonpolar>
-18.8528

> <Gold.PLP.part.repulsive>
1.1373

> <Gold.PLP.ligand.clash>
0.0000

> <Gold.PLP.ligand.torsion>
1.1781

> <Gold.PLP.Chemscore.Hbond>
2.9750

> <Gold.PLP.Chemscore.CHOScore>
0.9149

> <Gold.PLP.Chemscore.Metal>
0.0000

> <Gold.Chemscore.Hbonds>
donor molecule, donor type, donor heavy atom, donor atom, acceptor molecule, acceptor atom, score
      L1  H     5    22       P1  7948  1.00
      L1  H     8    32       P1  7948  1.00
      L1  H    10    23       P1  7921  1.00
      L1  C    12    25       P1 10957  0.78

> <Gold.PLP.Chemscore.Internal.Correction>
0.2728

> <Gold.Rescore>
     Score         DG    S(hbond)    S(metal)    S(lipo)     H(rot)  DE(clash)    DE(int)     intcor
     15.06     -16.34       2.93        0.00      45.78       1.67       0.23       1.05       ----

> <Gold.Chemscore.Fitness>
15.0624

> <Gold.Chemscore.DG>
-16.3439

> <Gold.Chemscore.ZeroCoef>
-5.4800

> <Gold.Chemscore.Hbond>
2.9251

> <Gold.Chemscore.Metal>
0.0000

> <Gold.Chemscore.Lipo>
45.7840

> <Gold.Chemscore.Internal_Hbond>
0.0000

> <Gold.Chemscore.DEClash>
0.2310

> <Gold.Chemscore.DEInternal>
1.0505

> <Gold.Chemscore.Rot>
1.6650

> <Gold.Chemscore.Internal.Correction>
   9.000000E+99

> <Gold.Chemscore.Hbonds>
donor molecule, donor type, donor heavy atom, donor atom, acceptor molecule, acceptor atom, score
      L1  H     5    22       P1  7948  0.97
      L1  H     8    32       P1  7948  0.97
      L1  H    10    23       P1  7921  0.86

> <Gold.Chemscore.Hbond.Weighted>
-9.7697

> <Gold.Chemscore.Metal.Weighted>
-0.0000

> <Gold.Chemscore.Lipo.Weighted>
-5.3567

> <Gold.Chemscore.Internal_Hbond.Weighted>
0.0000

> <Gold.Chemscore.DEClash.Weighted>
0.2310

> <Gold.Chemscore.DEInternal.Weighted>
1.0505

> <Gold.Chemscore.Rot.Weighted>
4.2625

> <Gold.Chemscore.Internal.Correction.Weighted>
   9.000000E+99

> <Gold.Protein.RotatedTorsions>
[ 6907 6896 6895 6894 ] final  -97.98 input  -60.11 | X-H torsion
[ 7974 7965 7964 7962 ] final  -28.07 input  175.53 | X-H torsion
[ 8008 7997 7996 7995 ] final  -31.29 input   59.86 | X-H torsion
[ 10167 10162 10161 10158 ] final -160.64 input  -65.29 | X-H torsion
[ 10718 10713 10712 10709 ] final  -87.27 input   66.30 | X-H torsion
[ 10763 10752 10751 10750 ] final   78.19 input  -60.55 | X-H torsion
[ 11005 11000 10999 10996 ] final  131.02 input  -57.11 | X-H torsion

> <Gold.Protein.ActiveResidues>
 VAL166  LYS551  ARG553  GLY616  TRP617  ASP618  TYR619  PRO620  LYS621  CYS622 
 ASP623  PHE694  ASN695  SER759  ASP760  ASP761  ALA762  ILE779  LEU786  VAL792 
 PHE793  MET794  SER795  GLU796  ALA797  LYS798  CYS799  TRP800  GLU811  SER814 

> <Gold.Protein.RotatedAtoms>
  150.7032  134.1265  159.4053 H   0  0  0  0  0  0  0  0  0  0  0  0  # atno 6907 bound_to 6896
  151.9251  135.0279  160.0534 H   0  0  0  0  0  0  0  0  0  0  0  0  # atno 6908 bound_to 6896
  152.2223  133.4958  159.5206 H   0  0  0  0  0  0  0  0  0  0  0  0  # atno 6909 bound_to 6896
  146.1314  140.5234  142.8692 H   0  0  0  0  0  0  0  0  0  0  0  0  # atno 7974 bound_to 7965
  154.4219  140.1768  156.1543 H   0  0  0  0  0  0  0  0  0  0  0  0  # atno 8008 bound_to 7997
  155.9890  140.3370  155.6710 H   0  0  0  0  0  0  0  0  0  0  0  0  # atno 8009 bound_to 7997
  155.6398  140.0679  157.2613 H   0  0  0  0  0  0  0  0  0  0  0  0  # atno 8010 bound_to 7997
  139.6525  144.0059  152.2171 H   0  0  0  0  0  0  0  0  0  0  0  0  # atno 10167 bound_to 10162
  155.9986  130.4794  150.4841 H   0  0  0  0  0  0  0  0  0  0  0  0  # atno 10718 bound_to 10713
  153.0855  135.4886  154.8589 H   0  0  0  0  0  0  0  0  0  0  0  0  # atno 10763 bound_to 10752
  154.7205  135.3038  154.9056 H   0  0  0  0  0  0  0  0  0  0  0  0  # atno 10764 bound_to 10752
  153.9722  135.6800  153.4800 H   0  0  0  0  0  0  0  0  0  0  0  0  # atno 10765 bound_to 10752
  139.9705  134.9578  156.9377 H   0  0  0  0  0  0  0  0  0  0  0  0  # atno 11005 bound_to 11000
  144.7694  140.5604  143.6680 LP  0  0  0  0  0  0  0  0  0  0  0  0  # atno 17320 bound_to 7965
  145.5252  139.1476  143.3530 LP  0  0  0  0  0  0  0  0  0  0  0  0  # atno 17321 bound_to 7965
  139.9777  144.6450  150.7930 LP  0  0  0  0  0  0  0  0  0  0  0  0  # atno 17342 bound_to 10162
  140.7544  143.3026  151.3042 LP  0  0  0  0  0  0  0  0  0  0  0  0  # atno 17343 bound_to 10162
  157.2844  131.0613  151.2176 LP  0  0  0  0  0  0  0  0  0  0  0  0  # atno 17370 bound_to 10713
  157.3211  130.6938  149.6270 LP  0  0  0  0  0  0  0  0  0  0  0  0  # atno 17371 bound_to 10713
  140.5303  134.0820  155.7314 LP  0  0  0  0  0  0  0  0  0  0  0  0  # atno 17394 bound_to 11000
  141.1385  133.9180  157.2380 LP  0  0  0  0  0  0  0  0  0  0  0  0  # atno 17395 bound_to 11000

$$$$
