AV-unprocessed.smi:3191|AV-procd|sdf|12198|dock8
  -GOLD-   2272018 33D 1   1.00000     0.00000
 Structure written by MMmdl.
 35 36  0  0  0  0  0  0  0  0  1 V2000
  152.1388  142.1202  160.6438 C   0  0  0  0  0  0  0  0  0  0  0  0
  151.9519  143.2420  159.7445 N   0  0  0  0  0  0  0  0  0  0  0  0
  152.4425  144.4802  159.8924 C   0  0  0  0  0  0  0  0  0  0  0  0
  152.1162  145.3213  158.9202 N   0  0  0  0  0  0  0  0  0  0  0  0
  151.3383  144.5491  158.0618 C   0  0  0  0  0  0  0  0  0  0  0  0
  151.2284  143.2676  158.5548 C   0  0  0  0  0  0  0  0  0  0  0  0
  150.5119  142.0828  157.9917 C   0  0  0  0  0  0  0  0  0  0  0  0
  150.9212  141.7696  156.5437 C   0  0  0  0  0  0  0  0  0  0  0  0
  149.8212  141.9999  155.6152 N   0  0  0  0  0  0  0  0  0  0  0  0
  149.3591  141.0999  154.7338 C   0  0  0  0  0  0  0  0  0  0  0  0
  149.8401  139.9715  154.6194 O   0  0  0  0  0  0  0  0  0  0  0  0
  148.2138  141.6002  153.9093 C   0  0  1  0  0  0  0  0  0  0  0  0
  146.9358  140.7869  153.8948 C   0  0  0  0  0  0  0  0  0  0  0  0
  146.9523  142.1323  154.5857 C   0  0  0  0  0  0  0  0  0  0  0  0
  146.7877  142.1958  156.0996 C   0  0  0  0  0  0  0  0  0  0  0  0
  146.2479  143.3150  153.9442 C   0  0  0  0  0  0  0  0  0  0  0  0
  148.4920  142.0875  152.9757 H   0  0  0  0  0  0  0  0  0  0  0  0
  152.7670  142.4117  161.4861 H   0  0  0  0  0  0  0  0  0  0  0  0
  152.6185  141.2967  160.1148 H   0  0  0  0  0  0  0  0  0  0  0  0
  151.1725  141.7875  161.0232 H   0  0  0  0  0  0  0  0  0  0  0  0
  153.0538  144.7737  160.7332 H   0  0  0  0  0  0  0  0  0  0  0  0
  150.9215  144.9708  157.1590 H   0  0  0  0  0  0  0  0  0  0  0  0
  150.6909  141.2149  158.6272 H   0  0  0  0  0  0  0  0  0  0  0  0
  149.4369  142.2619  158.0323 H   0  0  0  0  0  0  0  0  0  0  0  0
  151.7566  142.4054  156.2492 H   0  0  0  0  0  0  0  0  0  0  0  0
  151.2717  140.7401  156.4550 H   0  0  0  0  0  0  0  0  0  0  0  0
  149.3763  142.9058  155.6482 H   0  0  0  0  0  0  0  0  0  0  0  0
  146.4179  140.7052  152.9414 H   0  0  0  0  0  0  0  0  0  0  0  0
  146.8747  139.8980  154.5205 H   0  0  0  0  0  0  0  0  0  0  0  0
  145.7454  142.3799  156.3614 H   0  0  0  0  0  0  0  0  0  0  0  0
  147.3948  143.0021  156.5116 H   0  0  0  0  0  0  0  0  0  0  0  0
  147.0812  141.2615  156.5766 H   0  0  0  0  0  0  0  0  0  0  0  0
  145.1823  143.2955  154.1751 H   0  0  0  0  0  0  0  0  0  0  0  0
  146.3604  143.2920  152.8598 H   0  0  0  0  0  0  0  0  0  0  0  0
  146.6679  144.2515  154.3123 H   0  0  0  0  0  0  0  0  0  0  0  0
  1  2  1  0  0  0  0
  1 18  1  0  0  0  0
  1 19  1  0  0  0  0
  1 20  1  0  0  0  0
  2  6  1  0  0  0  0
  2  3  1  0  0  0  0
  3  4  2  0  0  0  0
  3 21  1  0  0  0  0
  4  5  1  0  0  0  0
  5  6  2  0  0  0  0
  5 22  1  0  0  0  0
  6  7  1  0  0  0  0
  7  8  1  0  0  0  0
  7 23  1  0  0  0  0
  7 24  1  0  0  0  0
  8  9  1  0  0  0  0
  8 25  1  0  0  0  0
  8 26  1  0  0  0  0
  9 10  1  0  0  0  0
  9 27  1  0  0  0  0
 10 11  2  0  0  0  0
 10 12  1  0  0  0  0
 12 17  1  0  0  0  0
 12 14  1  0  0  0  0
 12 13  1  0  0  0  0
 13 14  1  0  0  0  0
 13 28  1  0  0  0  0
 13 29  1  0  0  0  0
 14 15  1  0  0  0  0
 14 16  1  0  0  0  0
 15 30  1  0  0  0  0
 15 31  1  0  0  0  0
 15 32  1  0  0  0  0
 16 33  1  0  0  0  0
 16 34  1  0  0  0  0
 16 35  1  0  0  0  0
M  END
> <s_m_source_file>
AV-unprocessed.smi

> <i_m_source_file_index>
3191

> <i_lp_mmshare_version>
43012

> <i_f3d_flags>
0

> <s_epik_input>
W0NIM11uMVtjSF1uW2NIXWMxW0NIMl1bQ0gyXVtOSF1DKD1PKVtDQEBIXShbQ0gyXTIpQzIoW0NIM10pW0NIM10=

> <s_epik_cmdline>
J2VwaWtfcHl0aG9uJywgJy1waCcsICc3LjAnLCAnLXRuJywgJzgnLCAnLW1hJywgJzIwMCcsICctbWV0YWxfYmluZGluZycsICctaW1hZScsICc8aW5maWxlLm1hZT4nLCAnLW9tYWUnLCAnPG91dGZpbGUubWFlPic=

> <r_lp_tautomer_probability>
1

> <r_epik_Ionization_Penalty>
0.874249

> <r_epik_Ionization_Penalty_Charging>
0.874249

> <r_epik_Ionization_Penalty_Neutral>
1.97773e-08

> <r_epik_State_Penalty>
0.911868

> <r_epik_Charging_Adjusted_Penalty>
1.78612

> <i_epik_Tot_Q>
0

> <i_epik_Tot_abs_Q>
0

> <r_epik_Metal_State_Penalty>
0.361186

> <b_epik_Metal_Only>
0

> <s_lp_Force_Field>
OPLS_2005

> <r_lp_Energy>
11.7772

> <b_lp_Chiralities_Consistent>
1

> <s_lp_Variant>
AV-unprocessed.smi:3191-3

> <Gold.Version>
5.8.1

> <Gold.Id.Protein>
6NUR|6NUR_protein|mol2

> <Gold.PLP.Fitness>
48.2383

> <Gold.PLP.PLP>
-40.1912

> <Gold.PLP.part.hbond>
-2.5442

> <Gold.PLP.part.metal>
0.0000

> <Gold.PLP.part.buried>
-5.0613

> <Gold.PLP.part.nonpolar>
-31.5911

> <Gold.PLP.part.repulsive>
0.3709

> <Gold.PLP.ligand.clash>
0.0000

> <Gold.PLP.ligand.torsion>
0.4625

> <Gold.PLP.Chemscore.Hbond>
1.9600

> <Gold.PLP.Chemscore.CHOScore>
1.0000

> <Gold.PLP.Chemscore.Metal>
0.0000

> <Gold.Chemscore.Hbonds>
donor molecule, donor type, donor heavy atom, donor atom, acceptor molecule, acceptor atom, score
      L1  H     9    27       P1  8028  1.00
      P1  H  7989  7998       L1    11  0.16
      L1  C     5    22       P1  8028  1.00

> <Gold.PLP.Chemscore.Internal.Correction>
0.0921

> <Gold.Rescore>
     Score         DG    S(hbond)    S(metal)    S(lipo)     H(rot)  DE(clash)    DE(int)     intcor
     14.78     -15.54       1.68        0.00      75.02       1.69       0.08       0.68       ----

> <Gold.Chemscore.Fitness>
14.7767

> <Gold.Chemscore.DG>
-15.5357

> <Gold.Chemscore.ZeroCoef>
-5.4800

> <Gold.Chemscore.Hbond>
1.6795

> <Gold.Chemscore.Metal>
0.0000

> <Gold.Chemscore.Lipo>
75.0209

> <Gold.Chemscore.Internal_Hbond>
0.0000

> <Gold.Chemscore.DEClash>
0.0837

> <Gold.Chemscore.DEInternal>
0.6753

> <Gold.Chemscore.Rot>
1.6919

> <Gold.Chemscore.Internal.Correction>
   9.000000E+99

> <Gold.Chemscore.Hbonds>
donor molecule, donor type, donor heavy atom, donor atom, acceptor molecule, acceptor atom, score
      L1  H     9    27       P1  8028  1.00
      P1  H  7989  7998       L1    11  0.01

> <Gold.Chemscore.Hbond.Weighted>
-5.6094

> <Gold.Chemscore.Metal.Weighted>
-0.0000

> <Gold.Chemscore.Lipo.Weighted>
-8.7774

> <Gold.Chemscore.Internal_Hbond.Weighted>
0.0000

> <Gold.Chemscore.DEClash.Weighted>
0.0837

> <Gold.Chemscore.DEInternal.Weighted>
0.6753

> <Gold.Chemscore.Rot.Weighted>
4.3312

> <Gold.Chemscore.Internal.Correction.Weighted>
   9.000000E+99

> <Gold.Protein.RotatedTorsions>
[ 6907 6896 6895 6894 ] final -143.49 input  -60.11 | X-H torsion
[ 7974 7965 7964 7962 ] final   38.11 input  175.53 | X-H torsion
[ 8008 7997 7996 7995 ] final  139.94 input   59.86 | X-H torsion
[ 10167 10162 10161 10158 ] final  -98.75 input  -65.29 | X-H torsion
[ 10718 10713 10712 10709 ] final  104.40 input   66.30 | X-H torsion
[ 10763 10752 10751 10750 ] final  -90.51 input  -60.55 | X-H torsion
[ 11005 11000 10999 10996 ] final   20.71 input  -57.11 | X-H torsion

> <Gold.Protein.ActiveResidues>
 VAL166  LYS551  ARG553  GLY616  TRP617  ASP618  TYR619  PRO620  LYS621  CYS622 
 ASP623  PHE694  ASN695  SER759  ASP760  ASP761  ALA762  ILE779  LEU786  VAL792 
 PHE793  MET794  SER795  GLU796  ALA797  LYS798  CYS799  TRP800  GLU811  SER814 

> <Gold.Protein.RotatedAtoms>
  151.1012  133.5242  159.2609 H   0  0  0  0  0  0  0  0  0  0  0  0  # atno 6907 bound_to 6896
  151.2072  135.0466  159.8906 H   0  0  0  0  0  0  0  0  0  0  0  0  # atno 6908 bound_to 6896
  152.5443  134.0833  159.8298 H   0  0  0  0  0  0  0  0  0  0  0  0  # atno 6909 bound_to 6896
  146.1087  139.5812  142.9367 H   0  0  0  0  0  0  0  0  0  0  0  0  # atno 7974 bound_to 7965
  156.2984  140.2354  156.4320 H   0  0  0  0  0  0  0  0  0  0  0  0  # atno 8008 bound_to 7997
  154.8262  140.0435  157.1465 H   0  0  0  0  0  0  0  0  0  0  0  0  # atno 8009 bound_to 7997
  154.9259  140.3010  155.5196 H   0  0  0  0  0  0  0  0  0  0  0  0  # atno 8010 bound_to 7997
  140.2697  143.3352  152.0546 H   0  0  0  0  0  0  0  0  0  0  0  0  # atno 10167 bound_to 10162
  157.6741  131.0803  150.5701 H   0  0  0  0  0  0  0  0  0  0  0  0  # atno 10718 bound_to 10713
  154.6665  135.5301  153.8084 H   0  0  0  0  0  0  0  0  0  0  0  0  # atno 10763 bound_to 10752
  153.0474  135.6518  154.0790 H   0  0  0  0  0  0  0  0  0  0  0  0  # atno 10764 bound_to 10752
  154.0694  135.2955  155.3291 H   0  0  0  0  0  0  0  0  0  0  0  0  # atno 10765 bound_to 10752
  140.3996  134.1732  155.7663 H   0  0  0  0  0  0  0  0  0  0  0  0  # atno 11005 bound_to 11000
  145.5709  141.0394  143.2175 LP  0  0  0  0  0  0  0  0  0  0  0  0  # atno 17320 bound_to 7965
  144.7492  139.7237  143.7280 LP  0  0  0  0  0  0  0  0  0  0  0  0  # atno 17321 bound_to 7965
  139.4992  144.6664  151.6345 LP  0  0  0  0  0  0  0  0  0  0  0  0  # atno 17342 bound_to 10162
  140.5899  143.9797  150.6318 LP  0  0  0  0  0  0  0  0  0  0  0  0  # atno 17343 bound_to 10162
  156.6002  130.4352  149.5900 LP  0  0  0  0  0  0  0  0  0  0  0  0  # atno 17370 bound_to 10713
  156.2512  130.6908  151.1646 LP  0  0  0  0  0  0  0  0  0  0  0  0  # atno 17371 bound_to 10713
  141.1861  133.8309  157.1079 LP  0  0  0  0  0  0  0  0  0  0  0  0  # atno 17394 bound_to 11000
  140.0346  134.9884  157.0846 LP  0  0  0  0  0  0  0  0  0  0  0  0  # atno 17395 bound_to 11000

$$$$
