#       Name:                AV-unprocessed.smi:1443
#       Creating user name   scv26
#       Creation time:       Fri Mar 27 05:55:50 2020


#       File generated by GOLD software.
#

@<TRIPOS>MOLECULE
AV-unprocessed.smi:1443
    31    32     1
SMALL
NO_CHARGES


@<TRIPOS>ATOM
      1 ****         5.3440  -4.0645   4.2452 C.3            1 S1                 0.0000
      2 ****         4.0167  -5.2876   4.4100 S.3            1 S1                 0.0000
      3 ****         2.5911  -4.5729   3.6558 C.2            1 S1                 0.0000
      4 ****         1.3998  -5.1927   3.7350 N.2            1 S1                 0.0000
      5 ****         0.2538  -4.2655   2.9092 S.3            1 S1                 0.0000
      6 ****         1.4618  -3.0852   2.4959 C.2            1 S1                 0.0000
      7 ****         1.1589  -1.9292   1.7199 N.am           1 S1                 0.0000
      8 ****         1.9439  -0.9303   1.2630 C.2            1 S1                 0.0000
      9 ****         3.1505  -0.9154   1.5002 O.2            1 S1                 0.0000
     10 ****         1.3305   0.0252   0.5475 N.am           1 S1                 0.0000
     11 ****         1.9538   1.1833  -0.0075 C.3            1 S1                 0.0000
     12 ****         1.0749   2.3928  -0.2424 C.3            1 S1                 0.0000
     13 ****         1.5929   1.6092  -1.4189 C.3            1 S1                 0.0000
     14 ****         0.6491   0.8011  -2.2871 C.3            1 S1                 0.0000
     15 ****         2.6601  -3.4093   2.9833 N.2            1 S1                 0.0000
     16 ****         6.2753  -4.4647   4.6454 H              1 S1                 0.0000
     17 ****         5.0925  -3.1601   4.7981 H              1 S1                 0.0000
     18 ****         5.5003  -3.8051   3.1982 H              1 S1                 0.0000
     19 ****         0.1920  -1.8606   1.4372 H              1 S1                 0.0000
     20 ****         0.3362  -0.0703   0.3973 H              1 S1                 0.0000
     21 ****         2.9737   1.3962   0.3098 H              1 S1                 0.0000
     22 ****         0.0168   2.3053  -0.0015 H              1 S1                 0.0000
     23 ****         1.5119   3.3726  -0.0609 H              1 S1                 0.0000
     24 ****         2.3979   2.0763  -1.9832 H              1 S1                 0.0000
     25 ****        -0.1757   0.3983  -1.7003 H              1 S1                 0.0000
     26 ****         1.1844  -0.0285  -2.7489 H              1 S1                 0.0000
     27 ****         0.2360   1.4306  -3.0753 H              1 S1                 0.0000
     28 ****         1.2221  -6.0576   4.2043 LP             1 S1                 0.0000
     29 ****         3.5634  -1.6501   2.0385 LP             1 S1                 0.0000
     30 ****         3.7188  -0.1686   1.1548 LP             1 S1                 0.0000
     31 ****         3.4910  -2.8655   2.8659 LP             1 S1                 0.0000
@<TRIPOS>BOND
    1    1    2 1     
    2    1   16 1     
    3    1   17 1     
    4    1   18 1     
    5    2    3 1     
    6    3   15 1     
    7    3    4 2     
    8    4    5 1     
    9    5    6 1     
   10    6    7 1     
   11    6   15 2     
   12    7    8 am    
   13    7   19 1     
   14    8    9 2     
   15    8   10 am    
   16   10   11 1     
   17   10   20 1     
   18   11   13 1     
   19   11   12 1     
   20   11   21 1     
   21   12   13 1     
   22   12   22 1     
   23   12   23 1     
   24   13   14 1     
   25   13   24 1     
   26   14   25 1     
   27   14   26 1     
   28   14   27 1     
   29    4   28 1     
   30    9   29 1     
   31    9   30 1     
   32   15   31 1     
@<TRIPOS>SUBSTRUCTURE
      1 S1             1
@<TRIPOS>SET
LONE_PAIRS      STATIC     ATOMS    <user>   **** ""
4 28 29 30 31
DONOR_HYDROGENS      STATIC     ATOMS    <user>   **** ""
2 19 20
ATOM$BLUE        STATIC     ATOMS    COLORGROUP SYSTEM
4 28 29 30 31
ATOM$RED        STATIC     ATOMS    COLORGROUP SYSTEM
2 19 20
