AV-unprocessed.smi:3278|AV-procd|sdf|12543|dock6
  -GOLD-   2272018453D 1   1.00000     0.00000
 Structure written by MMmdl.
 39 40  0  0  0  0  0  0  0  0  2 V2000
  153.0836  138.2318  154.7442 C   0  0  0  0  0  0  0  0  0  0  0  0
  151.8271  138.9491  154.7761 N   0  0  0  0  0  0  0  0  0  0  0  0
  151.3476  139.8021  155.7453 C   0  0  0  0  0  0  0  0  0  0  0  0
  150.1177  140.2434  155.3394 C   0  0  0  0  0  0  0  0  0  0  0  0
  149.1829  141.2048  156.0429 C   0  0  2  0  0  0  0  0  0  0  0  0
  147.9044  140.4683  156.4783 C   0  0  0  0  0  0  0  0  0  0  0  0
  148.7581  142.2503  155.1880 O   0  0  0  0  0  0  0  0  0  0  0  0
  149.8743  141.8581  157.2593 C   0  0  0  0  0  0  0  0  0  0  0  0
  150.9906  142.7390  156.8455 N   0  3  0  0  0  0  0  0  0  0  0  0
  151.8936  143.1798  157.9311 C   0  0  1  0  0  0  0  0  0  0  0  0
  151.2119  144.2406  158.8241 C   0  0  0  0  0  0  0  0  0  0  0  0
  152.1322  144.7632  159.9398 C   0  0  0  0  0  0  0  0  0  0  0  0
  152.5902  143.6533  160.8954 C   0  0  0  0  0  0  0  0  0  0  0  0
  153.5532  142.3947  160.0167 S   0  0  0  0  0  0  0  0  0  0  0  0
  152.3270  141.9543  158.7555 C   0  0  0  0  0  0  0  0  0  0  0  0
  149.9338  139.5803  154.0901 C   0  0  0  0  0  0  0  0  0  0  0  0
  150.9582  138.8139  153.7548 N   0  0  0  0  0  0  0  0  0  0  0  0
  153.6657  138.4570  155.6384 H   0  0  0  0  0  0  0  0  0  0  0  0
  153.6560  138.5280  153.8647 H   0  0  0  0  0  0  0  0  0  0  0  0
  152.8952  137.1585  154.7052 H   0  0  0  0  0  0  0  0  0  0  0  0
  151.9164  140.0263  156.6358 H   0  0  0  0  0  0  0  0  0  0  0  0
  148.1295  139.6562  157.1706 H   0  0  0  0  0  0  0  0  0  0  0  0
  147.3865  140.0340  155.6220 H   0  0  0  0  0  0  0  0  0  0  0  0
  147.2061  141.1400  156.9795 H   0  0  0  0  0  0  0  0  0  0  0  0
  148.8508  143.0732  155.6444 H   0  0  0  0  0  0  0  0  0  0  0  0
  149.1553  142.4352  157.8428 H   0  0  0  0  0  0  0  0  0  0  0  0
  150.2566  141.0785  157.9180 H   0  0  0  0  0  0  0  0  0  0  0  0
  151.5352  142.2719  156.1345 H   0  0  0  0  0  0  0  0  0  0  0  0
  152.7858  143.6106  157.4740 H   0  0  0  0  0  0  0  0  0  0  0  0
  150.8929  145.0921  158.2239 H   0  0  0  0  0  0  0  0  0  0  0  0
  150.3046  143.8252  159.2651 H   0  0  0  0  0  0  0  0  0  0  0  0
  153.0027  145.2529  159.5015 H   0  0  0  0  0  0  0  0  0  0  0  0
  151.6061  145.5304  160.5087 H   0  0  0  0  0  0  0  0  0  0  0  0
  153.2053  144.0708  161.6928 H   0  0  0  0  0  0  0  0  0  0  0  0
  151.7305  143.1787  161.3695 H   0  0  0  0  0  0  0  0  0  0  0  0
  151.4672  141.4955  159.2454 H   0  0  0  0  0  0  0  0  0  0  0  0
  152.7669  141.1955  158.1072 H   0  0  0  0  0  0  0  0  0  0  0  0
  149.0914  139.6380  153.4162 H   0  0  0  0  0  0  0  0  0  0  0  0
  150.5757  143.5630  156.4341 H   0  0  0  0  0  0  0  0  0  0  0  0
  1  2  1  0  0  0  0
  1 18  1  0  0  0  0
  1 19  1  0  0  0  0
  1 20  1  0  0  0  0
  2 17  1  0  0  0  0
  2  3  1  0  0  0  0
  3  4  2  0  0  0  0
  3 21  1  0  0  0  0
  4  5  1  0  0  0  0
  4 16  1  0  0  0  0
  5  6  1  0  0  0  0
  5  7  1  0  0  0  0
  5  8  1  0  0  0  0
  6 22  1  0  0  0  0
  6 23  1  0  0  0  0
  6 24  1  0  0  0  0
  7 25  1  0  0  0  0
  8  9  1  0  0  0  0
  8 26  1  0  0  0  0
  8 27  1  0  0  0  0
  9 10  1  0  0  0  0
  9 28  1  0  0  0  0
  9 39  1  0  0  0  0
 10 15  1  0  0  0  0
 10 11  1  0  0  0  0
 10 29  1  0  0  0  0
 11 12  1  0  0  0  0
 11 30  1  0  0  0  0
 11 31  1  0  0  0  0
 12 13  1  0  0  0  0
 12 32  1  0  0  0  0
 12 33  1  0  0  0  0
 13 14  1  0  0  0  0
 13 34  1  0  0  0  0
 13 35  1  0  0  0  0
 14 15  1  0  0  0  0
 15 36  1  0  0  0  0
 15 37  1  0  0  0  0
 16 17  2  0  0  0  0
 16 38  1  0  0  0  0
M  CHG  1   9   1
M  END
> <s_m_source_file>
AV-unprocessed.smi

> <i_m_source_file_index>
3278

> <i_lp_mmshare_version>
43012

> <i_f3d_flags>
0

> <s_epik_input>
W0NIM11uMVtjSF1jKFtjSF1uMSlbQ0BAXShbQ0gzXSkoW09IXSlbQ0gyXVtOSF1bQ0BASF0yW0NIMl1bQ0gyXVtDSDJdU1tDSDJdMg==

> <s_epik_cmdline>
J2VwaWtfcHl0aG9uJywgJy1waCcsICc3LjAnLCAnLXRuJywgJzgnLCAnLW1hJywgJzIwMCcsICctbWV0YWxfYmluZGluZycsICctaW1hZScsICc8aW5maWxlLm1hZT4nLCAnLW9tYWUnLCAnPG91dGZpbGUubWFlPic=

> <r_lp_tautomer_probability>
1

> <r_epik_Ionization_Penalty>
0.0185703

> <r_epik_Ionization_Penalty_Charging>
0.0185619

> <r_epik_Ionization_Penalty_Neutral>
8.47286e-06

> <r_epik_State_Penalty>
0.0147768

> <r_epik_Charging_Adjusted_Penalty>
0.0333386

> <i_epik_Tot_Q>
1

> <i_epik_Tot_abs_Q>
1

> <r_epik_Metal_State_Penalty>
0.0147782

> <b_epik_Metal_Only>
0

> <s_lp_Force_Field>
OPLS_2005

> <r_lp_Energy>
8.58851

> <b_lp_Chiralities_Consistent>
1

> <s_lp_Variant>
AV-unprocessed.smi:3278-4

> <Gold.Version>
5.8.1

> <Gold.Id.Protein>
6NUR|6NUR_protein|mol2

> <Gold.PLP.Fitness>
50.0744

> <Gold.PLP.PLP>
-39.2355

> <Gold.PLP.part.hbond>
-2.4448

> <Gold.PLP.part.metal>
0.0000

> <Gold.PLP.part.buried>
-1.8103

> <Gold.PLP.part.nonpolar>
-34.6888

> <Gold.PLP.part.repulsive>
0.2394

> <Gold.PLP.ligand.clash>
0.0000

> <Gold.PLP.ligand.torsion>
0.3360

> <Gold.PLP.Chemscore.Hbond>
3.0000

> <Gold.PLP.Chemscore.CHOScore>
0.8257

> <Gold.PLP.Chemscore.Metal>
0.0000

> <Gold.Chemscore.Hbonds>
donor molecule, donor type, donor heavy atom, donor atom, acceptor molecule, acceptor atom, score
      L1  H     7    25       P1  8028  1.00
      L1  H     9    39       P1  8028  1.27
      L1  C    16    38       P1  7957  0.72

> <Gold.PLP.Chemscore.Internal.Correction>
0.0340

> <Gold.Rescore>
     Score         DG    S(hbond)    S(metal)    S(lipo)     H(rot)  DE(clash)    DE(int)     intcor
     19.09     -19.71       1.97        0.00     109.20       2.00       0.47       0.14       ----

> <Gold.Chemscore.Fitness>
19.0929

> <Gold.Chemscore.DG>
-19.7080

> <Gold.Chemscore.ZeroCoef>
-5.4800

> <Gold.Chemscore.Hbond>
1.9705

> <Gold.Chemscore.Metal>
0.0000

> <Gold.Chemscore.Lipo>
109.1991

> <Gold.Chemscore.Internal_Hbond>
0.0000

> <Gold.Chemscore.DEClash>
0.4720

> <Gold.Chemscore.DEInternal>
0.1431

> <Gold.Chemscore.Rot>
2.0038

> <Gold.Chemscore.Internal.Correction>
   9.000000E+99

> <Gold.Chemscore.Hbonds>
donor molecule, donor type, donor heavy atom, donor atom, acceptor molecule, acceptor atom, score
      L1  H     7    25       P1  8028  0.95
      L1  H     9    39       P1  8028  0.61

> <Gold.Chemscore.Hbond.Weighted>
-6.5813

> <Gold.Chemscore.Metal.Weighted>
-0.0000

> <Gold.Chemscore.Lipo.Weighted>
-12.7763

> <Gold.Chemscore.Internal_Hbond.Weighted>
0.0000

> <Gold.Chemscore.DEClash.Weighted>
0.4720

> <Gold.Chemscore.DEInternal.Weighted>
0.1431

> <Gold.Chemscore.Rot.Weighted>
5.1296

> <Gold.Chemscore.Internal.Correction.Weighted>
   9.000000E+99

> <Gold.Protein.RotatedTorsions>
[ 6907 6896 6895 6894 ] final  -57.90 input  -60.11 | X-H torsion
[ 7974 7965 7964 7962 ] final  -99.21 input  175.53 | X-H torsion
[ 8008 7997 7996 7995 ] final   30.23 input   59.86 | X-H torsion
[ 10167 10162 10161 10158 ] final   51.83 input  -65.29 | X-H torsion
[ 10718 10713 10712 10709 ] final   71.92 input   66.30 | X-H torsion
[ 10763 10752 10751 10750 ] final  -22.83 input  -60.55 | X-H torsion
[ 11005 11000 10999 10996 ] final  -89.60 input  -57.11 | X-H torsion

> <Gold.Protein.ActiveResidues>
 VAL166  LYS551  ARG553  GLY616  TRP617  ASP618  TYR619  PRO620  LYS621  CYS622 
 ASP623  PHE694  ASN695  SER759  ASP760  ASP761  ALA762  ILE779  LEU786  VAL792 
 PHE793  MET794  SER795  GLU796  ALA797  LYS798  CYS799  TRP800  GLU811  SER814 

> <Gold.Protein.RotatedAtoms>
  150.8049  134.7167  159.6634 H   0  0  0  0  0  0  0  0  0  0  0  0  # atno 6907 bound_to 6896
  152.4168  134.6024  160.0013 H   0  0  0  0  0  0  0  0  0  0  0  0  # atno 6908 bound_to 6896
  151.6251  133.3299  159.3132 H   0  0  0  0  0  0  0  0  0  0  0  0  # atno 6909 bound_to 6896
  145.3105  140.9399  143.2772 H   0  0  0  0  0  0  0  0  0  0  0  0  # atno 7974 bound_to 7965
  155.0871  140.3216  155.4584 H   0  0  0  0  0  0  0  0  0  0  0  0  # atno 8008 bound_to 7997
  156.2752  140.2084  156.5945 H   0  0  0  0  0  0  0  0  0  0  0  0  # atno 8009 bound_to 7997
  154.6932  140.0514  157.0372 H   0  0  0  0  0  0  0  0  0  0  0  0  # atno 8010 bound_to 7997
  140.2578  144.3407  150.6327 H   0  0  0  0  0  0  0  0  0  0  0  0  # atno 10167 bound_to 10162
  157.6476  130.9553  150.0856 H   0  0  0  0  0  0  0  0  0  0  0  0  # atno 10718 bound_to 10713
  153.6582  135.6977  153.5186 H   0  0  0  0  0  0  0  0  0  0  0  0  # atno 10763 bound_to 10752
  153.2653  135.4232  155.0933 H   0  0  0  0  0  0  0  0  0  0  0  0  # atno 10764 bound_to 10752
  154.8459  135.3565  154.6126 H   0  0  0  0  0  0  0  0  0  0  0  0  # atno 10765 bound_to 10752
  141.1581  133.7640  156.9618 H   0  0  0  0  0  0  0  0  0  0  0  0  # atno 11005 bound_to 11000
  144.9020  139.4638  143.6628 LP  0  0  0  0  0  0  0  0  0  0  0  0  # atno 17320 bound_to 7965
  146.3119  139.7779  142.9013 LP  0  0  0  0  0  0  0  0  0  0  0  0  # atno 17321 bound_to 7965
  140.5990  143.2167  151.7108 LP  0  0  0  0  0  0  0  0  0  0  0  0  # atno 17342 bound_to 10162
  139.5026  144.3822  152.0364 LP  0  0  0  0  0  0  0  0  0  0  0  0  # atno 17343 bound_to 10162
  156.1820  130.3650  149.9023 LP  0  0  0  0  0  0  0  0  0  0  0  0  # atno 17370 bound_to 10713
  156.6972  130.8919  151.3595 LP  0  0  0  0  0  0  0  0  0  0  0  0  # atno 17371 bound_to 10713
  140.1188  134.9430  157.2172 LP  0  0  0  0  0  0  0  0  0  0  0  0  # atno 17394 bound_to 11000
  140.3099  134.3035  155.7269 LP  0  0  0  0  0  0  0  0  0  0  0  0  # atno 17395 bound_to 11000

$$$$
