AV-unprocessed.smi:1916|AV-procd|sdf|7766|dock1
  -GOLD-   22720 9513D 1   1.00000     0.00000
 Structure written by MMmdl.
 46 48  0  0  0  0  0  0  0  0  2 V2000
  150.1393  136.2444  156.2922 O   0  0  0  0  0  0  0  0  0  0  0  0
  150.0412  136.3529  155.0698 C   0  0  0  0  0  0  0  0  0  0  0  0
  149.6680  135.3451  154.2672 N   0  0  0  0  0  0  0  0  0  0  0  0
  149.3321  133.9936  154.7067 C   0  0  0  0  0  0  0  0  0  0  0  0
  149.4461  132.9683  153.5644 C   0  0  0  0  0  0  0  0  0  0  0  0
  148.1939  132.8614  152.7112 C   0  0  0  0  0  0  0  0  0  0  0  0
  147.4778  131.6513  152.5849 C   0  0  0  0  0  0  0  0  0  0  0  0
  146.3128  131.6189  151.7902 C   0  0  0  0  0  0  0  0  0  0  0  0
  145.8882  132.7962  151.1401 C   0  0  0  0  0  0  0  0  0  0  0  0
  146.6403  133.9776  151.3010 C   0  0  0  0  0  0  0  0  0  0  0  0
  147.7504  133.9684  152.0715 N   0  3  0  0  0  0  0  0  0  0  0  0
  150.3517  137.6934  154.3845 C   0  0  2  0  0  0  0  0  0  0  0  0
  151.8492  138.0349  154.4726 C   0  0  0  0  0  0  0  0  0  0  0  0
  151.9001  139.2178  155.4242 C   0  0  0  0  0  0  0  0  0  0  0  0
  152.9599  139.6631  155.8618 O   0  0  0  0  0  0  0  0  0  0  0  0
  150.6714  139.6653  155.7204 N   0  0  0  0  0  0  0  0  0  0  0  0
  150.3746  140.7240  156.7014 C   0  0  0  0  0  0  0  0  0  0  0  0
  150.8899  142.1278  156.3288 C   0  0  0  0  0  0  0  0  0  0  0  0
  151.0772  142.8338  157.6682 C   0  0  0  0  0  0  0  0  0  0  0  0
  151.6210  141.7402  158.5839 C   0  0  0  0  0  0  0  0  0  0  0  0
  150.9652  140.4397  158.1021 C   0  0  0  0  0  0  0  0  0  0  0  0
  149.6334  138.8831  155.0565 C   0  0  0  0  0  0  0  0  0  0  0  0
  149.6035  135.5324  153.2773 H   0  0  0  0  0  0  0  0  0  0  0  0
  149.9674  133.6754  155.5349 H   0  0  0  0  0  0  0  0  0  0  0  0
  148.3101  134.0084  155.0871 H   0  0  0  0  0  0  0  0  0  0  0  0
  150.2891  133.2287  152.9226 H   0  0  0  0  0  0  0  0  0  0  0  0
  149.6760  131.9854  153.9775 H   0  0  0  0  0  0  0  0  0  0  0  0
  147.8140  130.7587  153.0927 H   0  0  0  0  0  0  0  0  0  0  0  0
  145.7510  130.7025  151.6822 H   0  0  0  0  0  0  0  0  0  0  0  0
  144.9987  132.7927  150.5272 H   0  0  0  0  0  0  0  0  0  0  0  0
  146.3893  134.9221  150.8408 H   0  0  0  0  0  0  0  0  0  0  0  0
  150.0504  137.6350  153.3371 H   0  0  0  0  0  0  0  0  0  0  0  0
  152.4660  137.2158  154.8468 H   0  0  0  0  0  0  0  0  0  0  0  0
  152.2420  138.3352  153.5008 H   0  0  0  0  0  0  0  0  0  0  0  0
  149.2895  140.7883  156.8000 H   0  0  0  0  0  0  0  0  0  0  0  0
  151.8635  142.0786  155.8405 H   0  0  0  0  0  0  0  0  0  0  0  0
  150.2099  142.6623  155.6648 H   0  0  0  0  0  0  0  0  0  0  0  0
  151.7422  143.6952  157.6011 H   0  0  0  0  0  0  0  0  0  0  0  0
  150.1128  143.1832  158.0394 H   0  0  0  0  0  0  0  0  0  0  0  0
  152.7027  141.6695  158.4625 H   0  0  0  0  0  0  0  0  0  0  0  0
  151.4210  141.9430  159.6365 H   0  0  0  0  0  0  0  0  0  0  0  0
  150.1727  140.1303  158.7845 H   0  0  0  0  0  0  0  0  0  0  0  0
  151.7057  139.6387  158.0873 H   0  0  0  0  0  0  0  0  0  0  0  0
  149.1428  139.5013  154.3036 H   0  0  0  0  0  0  0  0  0  0  0  0
  148.8713  138.5610  155.7682 H   0  0  0  0  0  0  0  0  0  0  0  0
  148.2795  134.8350  152.1734 H   0  0  0  0  0  0  0  0  0  0  0  0
  1  2  2  0  0  0  0
  2  3  1  0  0  0  0
  2 12  1  0  0  0  0
  3  4  1  0  0  0  0
  3 23  1  0  0  0  0
  4  5  1  0  0  0  0
  4 24  1  0  0  0  0
  4 25  1  0  0  0  0
  5  6  1  0  0  0  0
  5 26  1  0  0  0  0
  5 27  1  0  0  0  0
  6 11  1  0  0  0  0
  6  7  2  0  0  0  0
  7  8  1  0  0  0  0
  7 28  1  0  0  0  0
  8  9  2  0  0  0  0
  8 29  1  0  0  0  0
  9 10  1  0  0  0  0
  9 30  1  0  0  0  0
 10 11  2  0  0  0  0
 10 31  1  0  0  0  0
 11 46  1  0  0  0  0
 12 22  1  0  0  0  0
 12 13  1  0  0  0  0
 12 32  1  0  0  0  0
 13 14  1  0  0  0  0
 13 33  1  0  0  0  0
 13 34  1  0  0  0  0
 14 15  2  0  0  0  0
 14 16  1  0  0  0  0
 16 17  1  0  0  0  0
 16 22  1  0  0  0  0
 17 21  1  0  0  0  0
 17 18  1  0  0  0  0
 17 35  1  0  0  0  0
 18 19  1  0  0  0  0
 18 36  1  0  0  0  0
 18 37  1  0  0  0  0
 19 20  1  0  0  0  0
 19 38  1  0  0  0  0
 19 39  1  0  0  0  0
 20 21  1  0  0  0  0
 20 40  1  0  0  0  0
 20 41  1  0  0  0  0
 21 42  1  0  0  0  0
 21 43  1  0  0  0  0
 22 44  1  0  0  0  0
 22 45  1  0  0  0  0
M  CHG  1  11   1
M  END
> <s_m_source_file>
AV-unprocessed.smi

> <i_m_source_file_index>
1916

> <i_lp_mmshare_version>
43012

> <i_f3d_flags>
0

> <s_epik_input>
W0NIMl0xW0NIMl1bQ0gyXVtDSDJdW0NIXTFOKFtDSDJdMilDKD1PKVtDSDJdW0NASF0yQyg9TylbTkhdW0NIMl1bQ0gyXWMzW2NIXVtjSF1bY0hdW2NIXW4z

> <s_epik_cmdline>
J2VwaWtfcHl0aG9uJywgJy1waCcsICc3LjAnLCAnLXRuJywgJzgnLCAnLW1hJywgJzIwMCcsICctbWV0YWxfYmluZGluZycsICctaW1hZScsICc8aW5maWxlLm1hZT4nLCAnLW9tYWUnLCAnPG91dGZpbGUubWFlPic=

> <r_epik_Ionization_Penalty>
1.88249

> <r_epik_Ionization_Penalty_Charging>
1.88249

> <r_epik_Ionization_Penalty_Neutral>
3.64574e-08

> <r_epik_State_Penalty>
2.00238

> <r_epik_Charging_Adjusted_Penalty>
3.88487

> <i_epik_Tot_Q>
1

> <i_epik_Tot_abs_Q>
1

> <r_epik_Metal_State_Penalty>
2.02676

> <b_epik_Metal_Only>
0

> <s_lp_Force_Field>
OPLS_2005

> <r_lp_Energy>
42.8241

> <b_lp_Chiralities_Consistent>
1

> <s_lp_Variant>
AV-unprocessed.smi:1916-3

> <Gold.Version>
5.8.1

> <Gold.Id.Protein>
6NUR|6NUR_protein|mol2

> <Gold.PLP.Fitness>
53.0960

> <Gold.PLP.PLP>
-42.0048

> <Gold.PLP.part.hbond>
-3.0000

> <Gold.PLP.part.metal>
0.0000

> <Gold.PLP.part.buried>
-4.9697

> <Gold.PLP.part.nonpolar>
-34.0465

> <Gold.PLP.part.repulsive>
0.0712

> <Gold.PLP.ligand.clash>
0.0000

> <Gold.PLP.ligand.torsion>
0.4979

> <Gold.PLP.Chemscore.Hbond>
4.0000

> <Gold.PLP.Chemscore.CHOScore>
0.0000

> <Gold.PLP.Chemscore.Metal>
0.0000

> <Gold.Chemscore.Hbonds>
donor molecule, donor type, donor heavy atom, donor atom, acceptor molecule, acceptor atom, score
      L1  H     3    23       P1  7948  0.55
      L1  H    11    46       P1  7948  1.88
      P1  H  7997  8010       L1    15  0.94

> <Gold.PLP.Chemscore.Internal.Correction>
0.0870

> <Gold.Rescore>
     Score         DG    S(hbond)    S(metal)    S(lipo)     H(rot)  DE(clash)    DE(int)     intcor
     20.87     -21.42       2.87        0.00      91.74       1.72       0.04       0.51       ----

> <Gold.Chemscore.Fitness>
20.8702

> <Gold.Chemscore.DG>
-21.4160

> <Gold.Chemscore.ZeroCoef>
-5.4800

> <Gold.Chemscore.Hbond>
2.8729

> <Gold.Chemscore.Metal>
0.0000

> <Gold.Chemscore.Lipo>
91.7351

> <Gold.Chemscore.Internal_Hbond>
0.0000

> <Gold.Chemscore.DEClash>
0.0397

> <Gold.Chemscore.DEInternal>
0.5062

> <Gold.Chemscore.Rot>
1.7158

> <Gold.Chemscore.Internal.Correction>
   9.000000E+99

> <Gold.Chemscore.Hbonds>
donor molecule, donor type, donor heavy atom, donor atom, acceptor molecule, acceptor atom, score
      L1  H     3    23       P1  7948  0.03
      L1  H    11    46       P1  7948  0.20
      P1  H  7997  8010       L1    15  0.90

> <Gold.Chemscore.Hbond.Weighted>
-9.5954

> <Gold.Chemscore.Metal.Weighted>
-0.0000

> <Gold.Chemscore.Lipo.Weighted>
-10.7330

> <Gold.Chemscore.Internal_Hbond.Weighted>
0.0000

> <Gold.Chemscore.DEClash.Weighted>
0.0397

> <Gold.Chemscore.DEInternal.Weighted>
0.5062

> <Gold.Chemscore.Rot.Weighted>
4.3924

> <Gold.Chemscore.Internal.Correction.Weighted>
   9.000000E+99

> <Gold.Protein.RotatedTorsions>
[ 6907 6896 6895 6894 ] final   98.26 input  -60.11 | X-H torsion
[ 7974 7965 7964 7962 ] final  -13.43 input  175.53 | X-H torsion
[ 8008 7997 7996 7995 ] final   90.76 input   59.86 | X-H torsion
[ 10167 10162 10161 10158 ] final -144.29 input  -65.29 | X-H torsion
[ 10718 10713 10712 10709 ] final   -8.34 input   66.30 | X-H torsion
[ 10763 10752 10751 10750 ] final  127.58 input  -60.55 | X-H torsion
[ 11005 11000 10999 10996 ] final   13.28 input  -57.11 | X-H torsion

> <Gold.Protein.ActiveResidues>
 VAL166  LYS551  ARG553  GLY616  TRP617  ASP618  TYR619  PRO620  LYS621  CYS622 
 ASP623  PHE694  ASN695  SER759  ASP760  ASP761  ALA762  ILE779  LEU786  VAL792 
 PHE793  MET794  SER795  GLU796  ALA797  LYS798  CYS799  TRP800  GLU811  SER814 

> <Gold.Protein.RotatedAtoms>
  152.5412  134.0608  159.8150 H   0  0  0  0  0  0  0  0  0  0  0  0  # atno 6907 bound_to 6896
  151.0736  133.5439  159.2632 H   0  0  0  0  0  0  0  0  0  0  0  0  # atno 6908 bound_to 6896
  151.2293  135.0556  159.9035 H   0  0  0  0  0  0  0  0  0  0  0  0  # atno 6909 bound_to 6896
  146.2114  140.3203  142.8390 H   0  0  0  0  0  0  0  0  0  0  0  0  # atno 7974 bound_to 7965
  156.0158  140.3345  155.6987 H   0  0  0  0  0  0  0  0  0  0  0  0  # atno 8008 bound_to 7997
  155.6093  140.0663  157.2728 H   0  0  0  0  0  0  0  0  0  0  0  0  # atno 8009 bound_to 7997
  154.4297  140.1796  156.1243 H   0  0  0  0  0  0  0  0  0  0  0  0  # atno 8010 bound_to 7997
  139.7912  143.7963  152.2650 H   0  0  0  0  0  0  0  0  0  0  0  0  # atno 10167 bound_to 10162
  156.7040  130.5102  149.5909 H   0  0  0  0  0  0  0  0  0  0  0  0  # atno 10718 bound_to 10713
  153.7117  135.3267  155.3247 H   0  0  0  0  0  0  0  0  0  0  0  0  # atno 10763 bound_to 10752
  154.8383  135.4478  154.1307 H   0  0  0  0  0  0  0  0  0  0  0  0  # atno 10764 bound_to 10752
  153.2403  135.6970  153.7870 H   0  0  0  0  0  0  0  0  0  0  0  0  # atno 10765 bound_to 10752
  140.4825  134.0921  155.7754 H   0  0  0  0  0  0  0  0  0  0  0  0  # atno 11005 bound_to 11000
  144.8925  140.7541  143.5918 LP  0  0  0  0  0  0  0  0  0  0  0  0  # atno 17320 bound_to 7965
  145.3126  139.1814  143.4631 LP  0  0  0  0  0  0  0  0  0  0  0  0  # atno 17321 bound_to 7965
  139.8055  144.7357  150.9767 LP  0  0  0  0  0  0  0  0  0  0  0  0  # atno 17342 bound_to 10162
  140.7820  143.4302  151.0705 LP  0  0  0  0  0  0  0  0  0  0  0  0  # atno 17343 bound_to 10162
  156.1708  130.6436  151.0835 LP  0  0  0  0  0  0  0  0  0  0  0  0  # atno 17370 bound_to 10713
  157.6962  131.0793  150.6961 LP  0  0  0  0  0  0  0  0  0  0  0  0  # atno 17371 bound_to 10713
  141.1524  133.8945  157.2064 LP  0  0  0  0  0  0  0  0  0  0  0  0  # atno 17394 bound_to 11000
  139.9817  135.0096  156.9766 LP  0  0  0  0  0  0  0  0  0  0  0  0  # atno 17395 bound_to 11000

$$$$
