AV-unprocessed.smi:802|AV-procd|sdf|3792|dock10
  -GOLD-   22720 1233D 1   1.00000     0.00000
 Structure written by MMmdl.
 37 38  0  0  0  0  0  0  0  0  2 V2000
  147.3178  140.5348  154.4397 C   0  0  0  0  0  0  0  0  0  0  0  0
  148.7545  140.1472  154.6268 C   0  0  0  0  0  0  0  0  0  0  0  0
  149.3402  138.8546  154.5453 C   0  0  0  0  0  0  0  0  0  0  0  0
  150.6648  139.0840  154.7897 C   0  0  0  0  0  0  0  0  0  0  0  0
  151.8574  138.1900  154.8616 C   0  0  0  0  0  0  0  0  0  0  0  0
  152.2972  137.8657  156.6214 S   0  0  0  0  0  0  0  0  0  0  0  0
  151.0762  137.3444  157.2577 O   0  0  0  0  0  0  0  0  0  0  0  0
  153.4668  136.9720  156.5911 O   0  0  0  0  0  0  0  0  0  0  0  0
  152.6676  139.3637  157.1152 N   0  5  0  0  0  0  0  0  0  0  0  0
  151.7597  140.0607  158.0108 C   0  0  0  0  0  0  0  0  0  0  0  0
  152.3127  141.4709  158.3570 C   0  0  0  0  0  0  0  0  0  0  0  0
  152.5419  141.6881  159.8788 C   0  0  0  0  0  0  0  0  0  0  0  0
  153.1294  143.0788  160.1717 C   0  0  0  0  0  0  0  0  0  0  0  0
  152.2389  144.1930  159.6045 C   0  0  0  0  0  0  0  0  0  0  0  0
  152.0029  143.9953  158.1005 C   0  0  0  0  0  0  0  0  0  0  0  0
  151.4112  142.6070  157.8044 C   0  0  0  0  0  0  0  0  0  0  0  0
  150.8763  140.4070  155.0133 O   0  0  0  0  0  0  0  0  0  0  0  0
  149.6522  141.0769  154.9080 N   0  0  0  0  0  0  0  0  0  0  0  0
  146.7128  139.6751  154.1513 H   0  0  0  0  0  0  0  0  0  0  0  0
  147.2125  141.2900  153.6605 H   0  0  0  0  0  0  0  0  0  0  0  0
  146.8986  140.9424  155.3599 H   0  0  0  0  0  0  0  0  0  0  0  0
  148.8676  137.9072  154.3321 H   0  0  0  0  0  0  0  0  0  0  0  0
  151.6573  137.2349  154.3761 H   0  0  0  0  0  0  0  0  0  0  0  0
  152.7143  138.6479  154.3682 H   0  0  0  0  0  0  0  0  0  0  0  0
  150.7753  140.1716  157.5548 H   0  0  0  0  0  0  0  0  0  0  0  0
  151.5941  139.5086  158.9366 H   0  0  0  0  0  0  0  0  0  0  0  0
  153.2800  141.5689  157.8604 H   0  0  0  0  0  0  0  0  0  0  0  0
  151.6039  141.5805  160.4280 H   0  0  0  0  0  0  0  0  0  0  0  0
  153.2235  140.9399  160.2882 H   0  0  0  0  0  0  0  0  0  0  0  0
  153.2483  143.2116  161.2474 H   0  0  0  0  0  0  0  0  0  0  0  0
  154.1278  143.1519  159.7390 H   0  0  0  0  0  0  0  0  0  0  0  0
  151.2821  144.1995  160.1281 H   0  0  0  0  0  0  0  0  0  0  0  0
  152.6987  145.1649  159.7854 H   0  0  0  0  0  0  0  0  0  0  0  0
  151.3346  144.7708  157.7251 H   0  0  0  0  0  0  0  0  0  0  0  0
  152.9450  144.1124  157.5634 H   0  0  0  0  0  0  0  0  0  0  0  0
  151.2811  142.5158  156.7238 H   0  0  0  0  0  0  0  0  0  0  0  0
  150.4112  142.5533  158.2407 H   0  0  0  0  0  0  0  0  0  0  0  0
  1  2  1  0  0  0  0
  1 19  1  0  0  0  0
  1 20  1  0  0  0  0
  1 21  1  0  0  0  0
  2 18  2  0  0  0  0
  2  3  1  0  0  0  0
  3  4  2  0  0  0  0
  3 22  1  0  0  0  0
  4  5  1  0  0  0  0
  4 17  1  0  0  0  0
  5  6  1  0  0  0  0
  5 23  1  0  0  0  0
  5 24  1  0  0  0  0
  6  7  2  0  0  0  0
  6  8  2  0  0  0  0
  6  9  1  0  0  0  0
  9 10  1  0  0  0  0
 10 11  1  0  0  0  0
 10 25  1  0  0  0  0
 10 26  1  0  0  0  0
 11 16  1  0  0  0  0
 11 12  1  0  0  0  0
 11 27  1  0  0  0  0
 12 13  1  0  0  0  0
 12 28  1  0  0  0  0
 12 29  1  0  0  0  0
 13 14  1  0  0  0  0
 13 30  1  0  0  0  0
 13 31  1  0  0  0  0
 14 15  1  0  0  0  0
 14 32  1  0  0  0  0
 14 33  1  0  0  0  0
 15 16  1  0  0  0  0
 15 34  1  0  0  0  0
 15 35  1  0  0  0  0
 16 36  1  0  0  0  0
 16 37  1  0  0  0  0
 17 18  1  0  0  0  0
M  CHG  1   9  -1
M  END
> <s_m_source_file>
AV-unprocessed.smi

> <i_m_source_file_index>
802

> <i_lp_mmshare_version>
43012

> <i_f3d_flags>
0

> <s_epik_input>
W0NIM11jMVtjSF1jKG9uMSlbQ0gyXVMoPU8pKD1PKVtOSF1bQ0gyXVtDSF0yW0NIMl1bQ0gyXVtDSDJdW0NIMl1bQ0gyXTI=

> <s_epik_cmdline>
J2VwaWtfcHl0aG9uJywgJy1waCcsICc3LjAnLCAnLXRuJywgJzgnLCAnLW1hJywgJzIwMCcsICctbWV0YWxfYmluZGluZycsICctaW1hZScsICc8aW5maWxlLm1hZT4nLCAnLW9tYWUnLCAnPG91dGZpbGUubWFlPic=

> <r_lp_tautomer_probability>
1

> <r_epik_Ionization_Penalty>
5.54077

> <r_epik_Ionization_Penalty_Charging>
5.54077

> <r_epik_Ionization_Penalty_Neutral>
8.84355e-10

> <r_epik_State_Penalty>
5.54071

> <r_epik_Charging_Adjusted_Penalty>
11.0815

> <i_epik_Tot_Q>
-1

> <i_epik_Tot_abs_Q>
1

> <r_epik_Metal_State_Penalty>
1.54279

> <b_epik_Metal_Only>
1

> <s_lp_Force_Field>
OPLS_2005

> <r_lp_Energy>
6.62566

> <b_lp_Chiralities_Consistent>
1

> <s_lp_Variant>
AV-unprocessed.smi:802-2

> <Gold.Version>
5.8.1

> <Gold.Id.Protein>
6NUR|6NUR_protein|mol2

> <Gold.PLP.Fitness>
48.2219

> <Gold.PLP.PLP>
-39.1638

> <Gold.PLP.part.hbond>
-3.9011

> <Gold.PLP.part.metal>
0.0000

> <Gold.PLP.part.buried>
-4.2459

> <Gold.PLP.part.nonpolar>
-31.6263

> <Gold.PLP.part.repulsive>
0.2144

> <Gold.PLP.ligand.clash>
0.0000

> <Gold.PLP.ligand.torsion>
1.5099

> <Gold.PLP.Chemscore.Hbond>
3.6937

> <Gold.PLP.Chemscore.CHOScore>
0.0000

> <Gold.PLP.Chemscore.Metal>
0.0000

> <Gold.Chemscore.Hbonds>
donor molecule, donor type, donor heavy atom, donor atom, acceptor molecule, acceptor atom, score
      P1  H  7989  7998       L1    17  1.00
      P1  H  7997  8009       L1     9  2.00
      P1  H 10752 10765       L1     8  0.75

> <Gold.PLP.Chemscore.Internal.Correction>
0.9969

> <Gold.Rescore>
     Score         DG    S(hbond)    S(metal)    S(lipo)     H(rot)  DE(clash)    DE(int)     intcor
     19.11     -20.99       2.14        0.00     104.18       1.50       0.17       1.71       ----

> <Gold.Chemscore.Fitness>
19.1142

> <Gold.Chemscore.DG>
-20.9868

> <Gold.Chemscore.ZeroCoef>
-5.4800

> <Gold.Chemscore.Hbond>
2.1396

> <Gold.Chemscore.Metal>
0.0000

> <Gold.Chemscore.Lipo>
104.1828

> <Gold.Chemscore.Internal_Hbond>
0.0000

> <Gold.Chemscore.DEClash>
0.1668

> <Gold.Chemscore.DEInternal>
1.7058

> <Gold.Chemscore.Rot>
1.4956

> <Gold.Chemscore.Internal.Correction>
   9.000000E+99

> <Gold.Chemscore.Hbonds>
donor molecule, donor type, donor heavy atom, donor atom, acceptor molecule, acceptor atom, score
      P1  H  7989  7998       L1    17  0.09
      P1  H  7997  8009       L1     9  0.93
      P1  H 10752 10765       L1     8  0.67

> <Gold.Chemscore.Hbond.Weighted>
-7.1462

> <Gold.Chemscore.Metal.Weighted>
-0.0000

> <Gold.Chemscore.Lipo.Weighted>
-12.1894

> <Gold.Chemscore.Internal_Hbond.Weighted>
0.0000

> <Gold.Chemscore.DEClash.Weighted>
0.1668

> <Gold.Chemscore.DEInternal.Weighted>
1.7058

> <Gold.Chemscore.Rot.Weighted>
3.8287

> <Gold.Chemscore.Internal.Correction.Weighted>
   9.000000E+99

> <Gold.Protein.RotatedTorsions>
[ 6907 6896 6895 6894 ] final  173.69 input  -60.11 | X-H torsion
[ 7974 7965 7964 7962 ] final  151.32 input  175.53 | X-H torsion
[ 8008 7997 7996 7995 ] final  163.99 input   59.86 | X-H torsion
[ 10167 10162 10161 10158 ] final  -84.73 input  -65.29 | X-H torsion
[ 10718 10713 10712 10709 ] final   61.58 input   66.30 | X-H torsion
[ 10763 10752 10751 10750 ] final -128.09 input  -60.55 | X-H torsion
[ 11005 11000 10999 10996 ] final -146.30 input  -57.11 | X-H torsion

> <Gold.Protein.ActiveResidues>
 VAL166  LYS551  ARG553  GLY616  TRP617  ASP618  TYR619  PRO620  LYS621  CYS622 
 ASP623  PHE694  ASN695  SER759  ASP760  ASP761  ALA762  ILE779  LEU786  VAL792 
 PHE793  MET794  SER795  GLU796  ALA797  LYS798  CYS799  TRP800  GLU811  SER814 

> <Gold.Protein.RotatedAtoms>
  151.7643  133.3336  159.3426 H   0  0  0  0  0  0  0  0  0  0  0  0  # atno 6907 bound_to 6896
  150.7486  134.6077  159.6079 H   0  0  0  0  0  0  0  0  0  0  0  0  # atno 6908 bound_to 6896
  152.3384  134.7168  160.0322 H   0  0  0  0  0  0  0  0  0  0  0  0  # atno 6909 bound_to 6896
  144.8301  139.6522  143.6062 H   0  0  0  0  0  0  0  0  0  0  0  0  # atno 7974 bound_to 7965
  156.1914  140.1708  156.8084 H   0  0  0  0  0  0  0  0  0  0  0  0  # atno 8008 bound_to 7997
  154.5476  140.0724  156.8647 H   0  0  0  0  0  0  0  0  0  0  0  0  # atno 8009 bound_to 7997
  155.3091  140.3366  155.4247 H   0  0  0  0  0  0  0  0  0  0  0  0  # atno 8010 bound_to 7997
  140.4105  143.2625  151.9024 H   0  0  0  0  0  0  0  0  0  0  0  0  # atno 10167 bound_to 10162
  157.5838  130.9002  149.9479 H   0  0  0  0  0  0  0  0  0  0  0  0  # atno 10718 bound_to 10713
  154.8755  135.3940  154.3701 H   0  0  0  0  0  0  0  0  0  0  0  0  # atno 10763 bound_to 10752
  153.4461  135.7027  153.6143 H   0  0  0  0  0  0  0  0  0  0  0  0  # atno 10764 bound_to 10752
  153.4703  135.3792  155.2356 H   0  0  0  0  0  0  0  0  0  0  0  0  # atno 10765 bound_to 10752
  140.7834  134.3053  157.5038 H   0  0  0  0  0  0  0  0  0  0  0  0  # atno 11005 bound_to 11000
  146.2604  139.6398  142.9366 LP  0  0  0  0  0  0  0  0  0  0  0  0  # atno 17320 bound_to 7965
  145.4914  141.0438  143.2591 LP  0  0  0  0  0  0  0  0  0  0  0  0  # atno 17321 bound_to 7965
  139.4782  144.5542  151.8340 LP  0  0  0  0  0  0  0  0  0  0  0  0  # atno 17342 bound_to 10162
  140.4643  144.1677  150.5910 LP  0  0  0  0  0  0  0  0  0  0  0  0  # atno 17343 bound_to 10162
  156.0886  130.3665  150.0440 LP  0  0  0  0  0  0  0  0  0  0  0  0  # atno 17370 bound_to 10713
  156.8574  130.9480  151.3621 LP  0  0  0  0  0  0  0  0  0  0  0  0  # atno 17371 bound_to 10713
  139.8740  134.9332  156.3573 LP  0  0  0  0  0  0  0  0  0  0  0  0  # atno 17394 bound_to 11000
  140.9460  133.7482  156.0209 LP  0  0  0  0  0  0  0  0  0  0  0  0  # atno 17395 bound_to 11000

$$$$
