#       Name:                AV-unprocessed.smi:3211
#       Creating user name   scv26
#       Creation time:       Fri Mar 27 18:11:19 2020


#       File generated by GOLD software.
#

@<TRIPOS>MOLECULE
AV-unprocessed.smi:3211
    37    38     1
SMALL
NO_CHARGES


@<TRIPOS>ATOM
      1 ****        -2.3807   4.8821  -2.7926 C.3            1 S1                 0.0000
      2 ****        -3.2876   4.2159  -1.7526 C.3            1 S1                 0.0000
      3 ****        -2.5157   3.5137  -0.6861 C.2            1 S1                 0.0000
      4 ****        -2.1102   2.2447  -0.7838 N.2            1 S1                 0.0000
      5 ****        -1.3751   1.8269   0.3301 C.2            1 S1                 0.0000
      6 ****        -0.8426   0.4278   0.3952 C.3            1 S1                 0.0000
      7 ****         0.4192   0.2455  -0.4647 C.3            1 S1                 0.0000
      8 ****         0.9275  -1.1197  -0.3913 N.am           1 S1                 0.0000
      9 ****         1.6809  -1.6083   0.6058 C.2            1 S1                 0.0000
     10 ****         2.0268  -0.9339   1.5772 O.2            1 S1                 0.0000
     11 ****         2.0589  -3.0434   0.4344 C.3            1 S1                 0.0000
     12 ****         3.4187  -3.4755   0.9450 C.3            1 S1                 0.0000
     13 ****         2.1717  -3.8974   1.6837 C.3            1 S1                 0.0000
     14 ****         1.7099  -5.3386   1.6693 C.3            1 S1                 0.0000
     15 ****        -1.2189   2.8101   1.2752 C.2            1 S1                 0.0000
     16 ****        -1.9883   4.2984   0.7983 S.3            1 S1                 0.0000
     17 ****        -2.9714   5.3875  -3.5565 H              1 S1                 0.0000
     18 ****        -1.7488   4.1469  -3.2918 H              1 S1                 0.0000
     19 ****        -1.7298   5.6240  -2.3286 H              1 S1                 0.0000
     20 ****        -3.9277   4.9641  -1.2844 H              1 S1                 0.0000
     21 ****        -3.9496   3.4991  -2.2400 H              1 S1                 0.0000
     22 ****        -0.6215   0.1685   1.4313 H              1 S1                 0.0000
     23 ****        -1.6093  -0.2765   0.0698 H              1 S1                 0.0000
     24 ****         0.1936   0.4665  -1.5084 H              1 S1                 0.0000
     25 ****         1.1949   0.9501  -0.1596 H              1 S1                 0.0000
     26 ****         0.6873  -1.7382  -1.1526 H              1 S1                 0.0000
     27 ****         1.6987  -3.5355  -0.4683 H              1 S1                 0.0000
     28 ****         3.9490  -4.2232   0.3586 H              1 S1                 0.0000
     29 ****         4.0556  -2.7333   1.4233 H              1 S1                 0.0000
     30 ****         1.9983  -3.4032   2.6386 H              1 S1                 0.0000
     31 ****         1.9178  -5.8029   0.7048 H              1 S1                 0.0000
     32 ****         0.6371  -5.3893   1.8561 H              1 S1                 0.0000
     33 ****         2.2252  -5.9040   2.4458 H              1 S1                 0.0000
     34 ****        -0.6954   2.7501   2.2181 H              1 S1                 0.0000
     35 ****        -2.3104   1.6575  -1.5680 LP             1 S1                 0.0000
     36 ****         1.7453   0.0231   1.6472 LP             1 S1                 0.0000
     37 ****         2.5891  -1.3435   2.2956 LP             1 S1                 0.0000
@<TRIPOS>BOND
    1    1    2 1     
    2    1   17 1     
    3    1   18 1     
    4    1   19 1     
    5    2    3 1     
    6    2   20 1     
    7    2   21 1     
    8    3   16 1     
    9    3    4 2     
   10    4    5 1     
   11    5    6 1     
   12    5   15 2     
   13    6    7 1     
   14    6   22 1     
   15    6   23 1     
   16    7    8 1     
   17    7   24 1     
   18    7   25 1     
   19    8    9 am    
   20    8   26 1     
   21    9   10 2     
   22    9   11 1     
   23   11   13 1     
   24   11   12 1     
   25   11   27 1     
   26   12   13 1     
   27   12   28 1     
   28   12   29 1     
   29   13   14 1     
   30   13   30 1     
   31   14   31 1     
   32   14   32 1     
   33   14   33 1     
   34   15   16 1     
   35   15   34 1     
   36    4   35 1     
   37   10   36 1     
   38   10   37 1     
@<TRIPOS>SUBSTRUCTURE
      1 S1             1
@<TRIPOS>SET
LONE_PAIRS      STATIC     ATOMS    <user>   **** ""
3 35 36 37
DONOR_HYDROGENS      STATIC     ATOMS    <user>   **** ""
1 26
ATOM$BLUE        STATIC     ATOMS    COLORGROUP SYSTEM
3 35 36 37
ATOM$RED        STATIC     ATOMS    COLORGROUP SYSTEM
1 26
