AV-unprocessed.smi:276|AV-procd|sdf|2073|dock7
  -GOLD-   2262021333D 1   1.00000     0.00000
 Structure written by MMmdl.
 57 61  0  0  0  0  0  0  0  0  1 V2000
  147.3576  136.7564  162.8183 C   0  0  0  0  0  0  0  0  0  0  0  0
  147.8568  137.0156  161.5181 O   0  0  0  0  0  0  0  0  0  0  0  0
  148.1190  135.8278  160.7877 C   0  0  1  0  0  0  0  0  0  0  0  0
  147.0121  134.7698  160.8733 C   0  0  0  0  0  0  0  0  0  0  0  0
  147.2076  134.5035  159.3676 C   0  0  2  0  0  0  0  0  0  0  0  0
  148.1520  133.4013  159.1319 N   0  0  0  0  0  0  0  0  0  0  0  0
  147.7128  132.0766  159.5584 C   0  0  0  0  0  0  0  0  0  0  0  0
  148.6658  133.3280  157.8842 C   0  0  0  0  0  0  0  0  0  0  0  0
  149.8765  133.9043  157.6821 N   0  0  0  0  0  0  0  0  0  0  0  0
  150.4265  133.8935  156.4642 C   0  0  0  0  0  0  0  0  0  0  0  0
  149.9430  133.3728  155.3343 N   0  0  0  0  0  0  0  0  0  0  0  0
  148.7329  132.7777  155.5396 C   0  0  0  0  0  0  0  0  0  0  0  0
  148.0321  132.6971  156.7755 C   0  0  0  0  0  0  0  0  0  0  0  0
  146.8406  132.0036  156.5990 N   0  0  0  0  0  0  0  0  0  0  0  0
  146.8277  131.7094  155.3280 C   0  0  0  0  0  0  0  0  0  0  0  0
  147.9126  132.1612  154.6114 N   0  0  0  0  0  0  0  0  0  0  0  0
  148.1417  131.9939  153.1877 C   0  0  0  0  0  0  0  0  0  0  0  0
  147.5464  133.1318  152.3260 C   0  0  2  0  0  0  0  0  0  0  0  0
  147.5834  134.2833  153.1447 O   0  0  0  0  0  0  0  0  0  0  0  0
  146.0779  132.9357  151.8788 C   0  0  2  0  0  0  0  0  0  0  0  0
  145.8104  131.7757  150.9115 C   0  0  0  0  0  0  0  0  0  0  0  0
  144.6075  132.2257  150.0968 C   0  0  0  0  0  0  0  0  0  0  0  0
  144.4462  133.6994  150.4631 C   0  0  0  0  0  0  0  0  0  0  0  0
  145.6762  134.0415  151.0820 O   0  0  0  0  0  0  0  0  0  0  0  0
  147.8036  135.9367  159.2853 C   0  0  0  0  0  0  0  0  0  0  0  0
  146.9233  137.0895  158.7679 C   0  0  0  0  0  0  0  0  0  0  0  0
  148.2054  137.7963  158.3202 C   0  0  0  0  0  0  0  0  0  0  0  0
  148.8712  136.4191  158.2833 C   0  0  0  0  0  0  0  0  0  0  0  0
  147.1810  137.6986  163.3367 H   0  0  0  0  0  0  0  0  0  0  0  0
  148.0717  136.1777  163.4052 H   0  0  0  0  0  0  0  0  0  0  0  0
  146.4134  136.2119  162.7802 H   0  0  0  0  0  0  0  0  0  0  0  0
  149.1152  135.4166  160.9639 H   0  0  0  0  0  0  0  0  0  0  0  0
  147.2349  133.9462  161.5508 H   0  0  0  0  0  0  0  0  0  0  0  0
  146.0350  135.2034  161.0934 H   0  0  0  0  0  0  0  0  0  0  0  0
  146.2570  134.3946  158.8451 H   0  0  0  0  0  0  0  0  0  0  0  0
  148.3685  131.2899  159.1817 H   0  0  0  0  0  0  0  0  0  0  0  0
  146.7021  131.8742  159.2026 H   0  0  0  0  0  0  0  0  0  0  0  0
  147.7132  132.0005  160.6451 H   0  0  0  0  0  0  0  0  0  0  0  0
  151.3880  134.3786  156.3821 H   0  0  0  0  0  0  0  0  0  0  0  0
  146.0127  131.1657  154.8726 H   0  0  0  0  0  0  0  0  0  0  0  0
  149.2130  131.9008  153.0051 H   0  0  0  0  0  0  0  0  0  0  0  0
  147.6966  131.0392  152.9036 H   0  0  0  0  0  0  0  0  0  0  0  0
  148.1810  133.3114  151.4575 H   0  0  0  0  0  0  0  0  0  0  0  0
  148.1185  134.9362  152.7199 H   0  0  0  0  0  0  0  0  0  0  0  0
  145.4175  132.8514  152.7445 H   0  0  0  0  0  0  0  0  0  0  0  0
  146.6591  131.6319  150.2419 H   0  0  0  0  0  0  0  0  0  0  0  0
  145.6238  130.8359  151.4300 H   0  0  0  0  0  0  0  0  0  0  0  0
  144.8012  132.1026  149.0310 H   0  0  0  0  0  0  0  0  0  0  0  0
  143.7098  131.6584  150.3448 H   0  0  0  0  0  0  0  0  0  0  0  0
  144.2469  134.3300  149.5964 H   0  0  0  0  0  0  0  0  0  0  0  0
  143.6329  133.8327  151.1781 H   0  0  0  0  0  0  0  0  0  0  0  0
  146.2956  136.7917  157.9261 H   0  0  0  0  0  0  0  0  0  0  0  0
  146.3465  137.6208  159.5253 H   0  0  0  0  0  0  0  0  0  0  0  0
  148.1378  138.2999  157.3560 H   0  0  0  0  0  0  0  0  0  0  0  0
  148.6218  138.4474  159.0905 H   0  0  0  0  0  0  0  0  0  0  0  0
  149.8958  136.3955  158.6547 H   0  0  0  0  0  0  0  0  0  0  0  0
  148.7906  135.9721  157.2933 H   0  0  0  0  0  0  0  0  0  0  0  0
  1  2  1  0  0  0  0
  1 29  1  0  0  0  0
  1 30  1  0  0  0  0
  1 31  1  0  0  0  0
  2  3  1  0  0  0  0
  3 25  1  0  0  0  0
  3  4  1  0  0  0  0
  3 32  1  0  0  0  0
  4  5  1  0  0  0  0
  4 33  1  0  0  0  0
  4 34  1  0  0  0  0
  5  6  1  0  0  0  0
  5 25  1  0  0  0  0
  5 35  1  0  0  0  0
  6  7  1  0  0  0  0
  6  8  1  0  0  0  0
  7 36  1  0  0  0  0
  7 37  1  0  0  0  0
  7 38  1  0  0  0  0
  8 13  1  0  0  0  0
  8  9  2  0  0  0  0
  9 10  1  0  0  0  0
 10 11  2  0  0  0  0
 10 39  1  0  0  0  0
 11 12  1  0  0  0  0
 12 16  1  0  0  0  0
 12 13  2  0  0  0  0
 13 14  1  0  0  0  0
 14 15  2  0  0  0  0
 15 16  1  0  0  0  0
 15 40  1  0  0  0  0
 16 17  1  0  0  0  0
 17 18  1  0  0  0  0
 17 41  1  0  0  0  0
 17 42  1  0  0  0  0
 18 19  1  0  0  0  0
 18 20  1  0  0  0  0
 18 43  1  0  0  0  0
 19 44  1  0  0  0  0
 20 24  1  0  0  0  0
 20 21  1  0  0  0  0
 20 45  1  0  0  0  0
 21 22  1  0  0  0  0
 21 46  1  0  0  0  0
 21 47  1  0  0  0  0
 22 23  1  0  0  0  0
 22 48  1  0  0  0  0
 22 49  1  0  0  0  0
 23 24  1  0  0  0  0
 23 50  1  0  0  0  0
 23 51  1  0  0  0  0
 25 28  1  0  0  0  0
 25 26  1  0  0  0  0
 26 27  1  0  0  0  0
 26 52  1  0  0  0  0
 26 53  1  0  0  0  0
 27 28  1  0  0  0  0
 27 54  1  0  0  0  0
 27 55  1  0  0  0  0
 28 56  1  0  0  0  0
 28 57  1  0  0  0  0
M  END
> <s_m_source_file>
AV-unprocessed.smi

> <i_m_source_file_index>
276

> <i_lp_mmshare_version>
43012

> <i_f3d_flags>
0

> <s_epik_input>
W0NIMl0xW0NIMl1bQ0gyXUMxMltDQEhdKE9bQ0gzXSlbQ0gyXVtDQEhdMk4oW0NIM10pYyhuW2NIXW4zKWMoYzM0KW5bY0hdbjRbQ0gyXVtDQEhdKFtPSF0pW0NAQEhdNVtDSDJdW0NIMl1bQ0gyXU81

> <s_epik_cmdline>
J2VwaWtfcHl0aG9uJywgJy1waCcsICc3LjAnLCAnLXRuJywgJzgnLCAnLW1hJywgJzIwMCcsICctbWV0YWxfYmluZGluZycsICctaW1hZScsICc8aW5maWxlLm1hZT4nLCAnLW9tYWUnLCAnPG91dGZpbGUubWFlPic=

> <r_lp_tautomer_probability>
1

> <r_epik_Ionization_Penalty>
0.00204117

> <r_epik_Ionization_Penalty_Charging>
0

> <r_epik_Ionization_Penalty_Neutral>
0.00204117

> <r_epik_State_Penalty>
0.00127401

> <r_epik_Charging_Adjusted_Penalty>
0.00127401

> <i_epik_Tot_Q>
0

> <i_epik_Tot_abs_Q>
0

> <r_epik_Metal_State_Penalty>
-0

> <b_epik_Metal_Only>
0

> <s_lp_Force_Field>
OPLS_2005

> <r_lp_Energy>
57.8978

> <b_lp_Chiralities_Consistent>
1

> <s_lp_Variant>
AV-unprocessed.smi:276-4

> <Gold.Version>
5.8.1

> <Gold.Id.Protein>
6NUR|6NUR_protein|mol2

> <Gold.PLP.Fitness>
46.6390

> <Gold.PLP.PLP>
-37.8889

> <Gold.PLP.part.hbond>
-4.0000

> <Gold.PLP.part.metal>
0.0000

> <Gold.PLP.part.buried>
-4.8643

> <Gold.PLP.part.nonpolar>
-28.9434

> <Gold.PLP.part.repulsive>
0.2071

> <Gold.PLP.ligand.clash>
0.0000

> <Gold.PLP.ligand.torsion>
1.6445

> <Gold.PLP.Chemscore.Hbond>
3.7520

> <Gold.PLP.Chemscore.CHOScore>
0.0000

> <Gold.PLP.Chemscore.Metal>
0.0000

> <Gold.Chemscore.Hbonds>
donor molecule, donor type, donor heavy atom, donor atom, acceptor molecule, acceptor atom, score
      L1  H    19    44       P1  7948  1.00
      P1  H  6896  6907       L1     9  1.00
      P1  H  6931  6943       L1     2  0.95
      P1  H  6934  6947       L1     2  0.44

> <Gold.PLP.Chemscore.Internal.Correction>
0.7831

> <Gold.Rescore>
     Score         DG    S(hbond)    S(metal)    S(lipo)     H(rot)  DE(clash)    DE(int)     intcor
     15.53     -18.43       3.03        0.00      83.61       2.72       0.03       2.87       ----

> <Gold.Chemscore.Fitness>
15.5314

> <Gold.Chemscore.DG>
-18.4267

> <Gold.Chemscore.ZeroCoef>
-5.4800

> <Gold.Chemscore.Hbond>
3.0302

> <Gold.Chemscore.Metal>
0.0000

> <Gold.Chemscore.Lipo>
83.6055

> <Gold.Chemscore.Internal_Hbond>
0.0000

> <Gold.Chemscore.DEClash>
0.0291

> <Gold.Chemscore.DEInternal>
2.8662

> <Gold.Chemscore.Rot>
2.7172

> <Gold.Chemscore.Internal.Correction>
   9.000000E+99

> <Gold.Chemscore.Hbonds>
donor molecule, donor type, donor heavy atom, donor atom, acceptor molecule, acceptor atom, score
      L1  H    19    44       P1  7948  0.82
      P1  H  6896  6907       L1     9  0.59
      P1  H  6931  6943       L1     2  0.21
      P1  H  6934  6947       L1     2  0.27

> <Gold.Chemscore.Hbond.Weighted>
-10.1209

> <Gold.Chemscore.Metal.Weighted>
-0.0000

> <Gold.Chemscore.Lipo.Weighted>
-9.7818

> <Gold.Chemscore.Internal_Hbond.Weighted>
0.0000

> <Gold.Chemscore.DEClash.Weighted>
0.0291

> <Gold.Chemscore.DEInternal.Weighted>
2.8662

> <Gold.Chemscore.Rot.Weighted>
6.9560

> <Gold.Chemscore.Internal.Correction.Weighted>
   9.000000E+99

> <Gold.Protein.RotatedTorsions>
[ 6907 6896 6895 6894 ] final -106.43 input  -60.11 | X-H torsion
[ 7974 7965 7964 7962 ] final -165.61 input  175.53 | X-H torsion
[ 8008 7997 7996 7995 ] final  151.84 input   59.86 | X-H torsion
[ 10167 10162 10161 10158 ] final  -23.24 input  -65.29 | X-H torsion
[ 10718 10713 10712 10709 ] final   84.22 input   66.30 | X-H torsion
[ 10763 10752 10751 10750 ] final  -52.06 input  -60.55 | X-H torsion
[ 11005 11000 10999 10996 ] final  -58.60 input  -57.11 | X-H torsion

> <Gold.Protein.ActiveResidues>
 VAL166  LYS551  ARG553  GLY616  TRP617  ASP618  TYR619  PRO620  LYS621  CYS622 
 ASP623  PHE694  ASN695  SER759  ASP760  ASP761  ALA762  ILE779  LEU786  VAL792 
 PHE793  MET794  SER795  GLU796  ALA797  LYS798  CYS799  TRP800  GLU811  SER814 

> <Gold.Protein.RotatedAtoms>
  150.7389  133.9977  159.3627 H   0  0  0  0  0  0  0  0  0  0  0  0  # atno 6907 bound_to 6896
  151.7929  135.0728  160.0399 H   0  0  0  0  0  0  0  0  0  0  0  0  # atno 6908 bound_to 6896
  152.3195  133.5802  159.5771 H   0  0  0  0  0  0  0  0  0  0  0  0  # atno 6909 bound_to 6896
  144.7265  140.2788  143.6239 H   0  0  0  0  0  0  0  0  0  0  0  0  # atno 7974 bound_to 7965
  156.2656  140.2037  156.6239 H   0  0  0  0  0  0  0  0  0  0  0  0  # atno 8008 bound_to 7997
  154.6735  140.0547  157.0215 H   0  0  0  0  0  0  0  0  0  0  0  0  # atno 8009 bound_to 7997
  155.1102  140.3214  155.4526 H   0  0  0  0  0  0  0  0  0  0  0  0  # atno 8010 bound_to 7997
  140.7287  143.4461  151.0584 H   0  0  0  0  0  0  0  0  0  0  0  0  # atno 10167 bound_to 10162
  157.6894  131.0124  150.2640 H   0  0  0  0  0  0  0  0  0  0  0  0  # atno 10718 bound_to 10713
  154.1367  135.6511  153.4933 H   0  0  0  0  0  0  0  0  0  0  0  0  # atno 10763 bound_to 10752
  153.0178  135.5305  154.6946 H   0  0  0  0  0  0  0  0  0  0  0  0  # atno 10764 bound_to 10752
  154.6196  135.2963  155.0311 H   0  0  0  0  0  0  0  0  0  0  0  0  # atno 10765 bound_to 10752
  141.1214  133.6613  156.4945 H   0  0  0  0  0  0  0  0  0  0  0  0  # atno 11005 bound_to 11000
  145.7970  139.1949  143.2070 LP  0  0  0  0  0  0  0  0  0  0  0  0  # atno 17320 bound_to 7965
  146.0708  140.7870  142.9689 LP  0  0  0  0  0  0  0  0  0  0  0  0  # atno 17321 bound_to 7965
  139.8133  143.7920  152.3173 LP  0  0  0  0  0  0  0  0  0  0  0  0  # atno 17342 bound_to 10162
  139.7977  144.7386  150.9867 LP  0  0  0  0  0  0  0  0  0  0  0  0  # atno 17343 bound_to 10162
  156.3214  130.3786  149.7571 LP  0  0  0  0  0  0  0  0  0  0  0  0  # atno 17370 bound_to 10713
  156.5140  130.8185  151.3179 LP  0  0  0  0  0  0  0  0  0  0  0  0  # atno 17371 bound_to 10713
  140.4496  134.6941  157.5033 LP  0  0  0  0  0  0  0  0  0  0  0  0  # atno 17394 bound_to 11000
  140.0174  134.6598  155.9289 LP  0  0  0  0  0  0  0  0  0  0  0  0  # atno 17395 bound_to 11000

$$$$
