AV-unprocessed.smi:3156|AV-procd|sdf|12034|dock6
  -GOLD-   2272017453D 1   1.00000     0.00000
 Structure written by MMmdl.
 41 42  0  0  0  0  0  0  0  0  2 V2000
  144.2958  136.3173  151.9899 C   0  0  0  0  0  0  0  0  0  0  0  0
  145.7861  136.0835  151.6794 C   0  0  1  0  0  0  0  0  0  0  0  0
  146.6223  137.0014  152.4877 N   0  3  0  0  0  0  0  0  0  0  0  0
  146.4951  138.4388  152.1668 C   0  0  0  0  0  0  0  0  0  0  0  0
  147.0905  139.3132  153.2817 C   0  0  2  0  0  0  0  0  0  0  0  0
  147.1419  140.8119  152.9140 C   0  0  0  0  0  0  0  0  0  0  0  0
  147.7991  141.6178  154.0396 C   0  0  0  0  0  0  0  0  0  0  0  0
  149.1564  140.9993  154.3910 C   0  0  0  0  0  0  0  0  0  0  0  0
  149.0002  139.5003  154.6951 C   0  0  0  0  0  0  0  0  0  0  0  0
  148.3989  138.8352  153.5877 O   0  0  0  0  0  0  0  0  0  0  0  0
  146.2265  134.6152  151.9327 C   0  0  1  0  0  0  0  0  0  0  0  0
  146.0429  134.1705  153.3955 C   0  0  0  0  0  0  0  0  0  0  0  0
  145.5336  133.6815  151.0497 N   0  0  0  0  0  0  0  0  0  0  0  0
  146.0803  132.6881  150.2632 C   0  0  0  0  0  0  0  0  0  0  0  0
  145.0520  132.0670  149.6141 C   0  0  0  0  0  0  0  0  0  0  0  0
  143.8948  132.7472  150.0850 C   0  0  0  0  0  0  0  0  0  0  0  0
  144.1851  133.7090  150.9456 N   0  0  0  0  0  0  0  0  0  0  0  0
  143.6522  135.7095  151.3548 H   0  0  0  0  0  0  0  0  0  0  0  0
  144.0088  137.3547  151.8193 H   0  0  0  0  0  0  0  0  0  0  0  0
  144.0638  136.0763  153.0278 H   0  0  0  0  0  0  0  0  0  0  0  0
  145.9558  136.3087  150.6252 H   0  0  0  0  0  0  0  0  0  0  0  0
  146.4361  136.8555  153.4697 H   0  0  0  0  0  0  0  0  0  0  0  0
  147.0106  138.6532  151.2299 H   0  0  0  0  0  0  0  0  0  0  0  0
  145.4444  138.6887  152.0185 H   0  0  0  0  0  0  0  0  0  0  0  0
  146.4653  139.1911  154.1682 H   0  0  0  0  0  0  0  0  0  0  0  0
  147.7101  140.9570  151.9944 H   0  0  0  0  0  0  0  0  0  0  0  0
  146.1372  141.1897  152.7214 H   0  0  0  0  0  0  0  0  0  0  0  0
  147.9202  142.6597  153.7415 H   0  0  0  0  0  0  0  0  0  0  0  0
  147.1547  141.6152  154.9196 H   0  0  0  0  0  0  0  0  0  0  0  0
  149.8473  141.1322  153.5576 H   0  0  0  0  0  0  0  0  0  0  0  0
  149.5953  141.5143  155.2461 H   0  0  0  0  0  0  0  0  0  0  0  0
  149.9762  139.0536  154.8854 H   0  0  0  0  0  0  0  0  0  0  0  0
  148.4003  139.3469  155.5935 H   0  0  0  0  0  0  0  0  0  0  0  0
  147.2891  134.5375  151.6966 H   0  0  0  0  0  0  0  0  0  0  0  0
  146.6746  134.7415  154.0752 H   0  0  0  0  0  0  0  0  0  0  0  0
  146.3114  133.1210  153.5201 H   0  0  0  0  0  0  0  0  0  0  0  0
  145.0088  134.2875  153.7212 H   0  0  0  0  0  0  0  0  0  0  0  0
  147.1451  132.5092  150.2277 H   0  0  0  0  0  0  0  0  0  0  0  0
  145.1159  131.2468  148.9145 H   0  0  0  0  0  0  0  0  0  0  0  0
  142.8601  132.5713  149.8298 H   0  0  0  0  0  0  0  0  0  0  0  0
  147.5841  136.7509  152.3063 H   0  0  0  0  0  0  0  0  0  0  0  0
  1  2  1  0  0  0  0
  1 18  1  0  0  0  0
  1 19  1  0  0  0  0
  1 20  1  0  0  0  0
  2  3  1  0  0  0  0
  2 11  1  0  0  0  0
  2 21  1  0  0  0  0
  3  4  1  0  0  0  0
  3 22  1  0  0  0  0
  3 41  1  0  0  0  0
  4  5  1  0  0  0  0
  4 23  1  0  0  0  0
  4 24  1  0  0  0  0
  5 10  1  0  0  0  0
  5  6  1  0  0  0  0
  5 25  1  0  0  0  0
  6  7  1  0  0  0  0
  6 26  1  0  0  0  0
  6 27  1  0  0  0  0
  7  8  1  0  0  0  0
  7 28  1  0  0  0  0
  7 29  1  0  0  0  0
  8  9  1  0  0  0  0
  8 30  1  0  0  0  0
  8 31  1  0  0  0  0
  9 10  1  0  0  0  0
  9 32  1  0  0  0  0
  9 33  1  0  0  0  0
 11 12  1  0  0  0  0
 11 13  1  0  0  0  0
 11 34  1  0  0  0  0
 12 35  1  0  0  0  0
 12 36  1  0  0  0  0
 12 37  1  0  0  0  0
 13 17  1  0  0  0  0
 13 14  1  0  0  0  0
 14 15  2  0  0  0  0
 14 38  1  0  0  0  0
 15 16  1  0  0  0  0
 15 39  1  0  0  0  0
 16 17  2  0  0  0  0
 16 40  1  0  0  0  0
M  CHG  1   3   1
M  END
> <s_m_source_file>
AV-unprocessed.smi

> <i_m_source_file_index>
3156

> <i_lp_mmshare_version>
43012

> <i_f3d_flags>
0

> <s_epik_input>
bjFbY0hdW2NIXVtjSF1uMVtDQEBIXShbQ0gzXSlbQ0BIXShbQ0gzXSlbTkhdW0NIMl1bQ0BASF0yW0NIMl1bQ0gyXVtDSDJdW0NIMl1PMg==

> <s_epik_cmdline>
J2VwaWtfcHl0aG9uJywgJy1waCcsICc3LjAnLCAnLXRuJywgJzgnLCAnLW1hJywgJzIwMCcsICctbWV0YWxfYmluZGluZycsICctaW1hZScsICc8aW5maWxlLm1hZT4nLCAnLW9tYWUnLCAnPG91dGZpbGUubWFlPic=

> <r_lp_tautomer_probability>
1

> <r_epik_Ionization_Penalty>
0.00658015

> <r_epik_Ionization_Penalty_Charging>
0.00656881

> <r_epik_Ionization_Penalty_Neutral>
1.13431e-05

> <r_epik_State_Penalty>
0.0048654

> <r_epik_Charging_Adjusted_Penalty>
0.0114342

> <i_epik_Tot_Q>
1

> <i_epik_Tot_abs_Q>
1

> <r_epik_Metal_State_Penalty>
-0

> <b_epik_Metal_Only>
0

> <s_lp_Force_Field>
OPLS_2005

> <r_lp_Energy>
18.8572

> <b_lp_Chiralities_Consistent>
1

> <s_lp_Variant>
AV-unprocessed.smi:3156-6

> <Gold.Version>
5.8.1

> <Gold.Id.Protein>
6NUR|6NUR_protein|mol2

> <Gold.PLP.Fitness>
45.7742

> <Gold.PLP.PLP>
-34.9593

> <Gold.PLP.part.hbond>
-1.0000

> <Gold.PLP.part.metal>
0.0000

> <Gold.PLP.part.buried>
-3.6792

> <Gold.PLP.part.nonpolar>
-31.5731

> <Gold.PLP.part.repulsive>
1.3660

> <Gold.PLP.ligand.clash>
0.0000

> <Gold.PLP.ligand.torsion>
0.4377

> <Gold.PLP.Chemscore.Hbond>
2.0000

> <Gold.PLP.Chemscore.CHOScore>
1.8669

> <Gold.PLP.Chemscore.Metal>
0.0000

> <Gold.Chemscore.Hbonds>
donor molecule, donor type, donor heavy atom, donor atom, acceptor molecule, acceptor atom, score
      L1  H     3    41       P1  7948  1.95
      L1  C    14    38       P1 10747  1.00
      L1  C    16    40       P1 10186  0.70

> <Gold.PLP.Chemscore.Internal.Correction>
0.0896

> <Gold.Rescore>
     Score         DG    S(hbond)    S(metal)    S(lipo)     H(rot)  DE(clash)    DE(int)     intcor
     14.71     -15.08       1.00        0.00      88.51       1.59       0.00       0.37       ----

> <Gold.Chemscore.Fitness>
14.7076

> <Gold.Chemscore.DG>
-15.0828

> <Gold.Chemscore.ZeroCoef>
-5.4800

> <Gold.Chemscore.Hbond>
0.9961

> <Gold.Chemscore.Metal>
0.0000

> <Gold.Chemscore.Lipo>
88.5138

> <Gold.Chemscore.Internal_Hbond>
0.0000

> <Gold.Chemscore.DEClash>
0.0033

> <Gold.Chemscore.DEInternal>
0.3719

> <Gold.Chemscore.Rot>
1.5938

> <Gold.Chemscore.Internal.Correction>
   9.000000E+99

> <Gold.Chemscore.Hbonds>
donor molecule, donor type, donor heavy atom, donor atom, acceptor molecule, acceptor atom, score
      L1  H     3    41       P1  7948  0.91

> <Gold.Chemscore.Hbond.Weighted>
-3.3270

> <Gold.Chemscore.Metal.Weighted>
-0.0000

> <Gold.Chemscore.Lipo.Weighted>
-10.3561

> <Gold.Chemscore.Internal_Hbond.Weighted>
0.0000

> <Gold.Chemscore.DEClash.Weighted>
0.0033

> <Gold.Chemscore.DEInternal.Weighted>
0.3719

> <Gold.Chemscore.Rot.Weighted>
4.0802

> <Gold.Chemscore.Internal.Correction.Weighted>
   9.000000E+99

> <Gold.Protein.RotatedTorsions>
[ 6907 6896 6895 6894 ] final   23.86 input  -60.11 | X-H torsion
[ 7974 7965 7964 7962 ] final  156.76 input  175.53 | X-H torsion
[ 8008 7997 7996 7995 ] final  138.58 input   59.86 | X-H torsion
[ 10167 10162 10161 10158 ] final   31.08 input  -65.29 | X-H torsion
[ 10718 10713 10712 10709 ] final  169.13 input   66.30 | X-H torsion
[ 10763 10752 10751 10750 ] final -169.03 input  -60.55 | X-H torsion
[ 11005 11000 10999 10996 ] final -131.78 input  -57.11 | X-H torsion

> <Gold.Protein.ActiveResidues>
 VAL166  LYS551  ARG553  GLY616  TRP617  ASP618  TYR619  PRO620  LYS621  CYS622 
 ASP623  PHE694  ASN695  SER759  ASP760  ASP761  ALA762  ILE779  LEU786  VAL792 
 PHE793  MET794  SER795  GLU796  ALA797  LYS798  CYS799  TRP800  GLU811  SER814 

> <Gold.Protein.RotatedAtoms>
  151.9487  135.0179  160.0540 H   0  0  0  0  0  0  0  0  0  0  0  0  # atno 6907 bound_to 6896
  152.1972  133.4810  159.5047 H   0  0  0  0  0  0  0  0  0  0  0  0  # atno 6908 bound_to 6896
  150.6947  134.1554  159.4199 H   0  0  0  0  0  0  0  0  0  0  0  0  # atno 6909 bound_to 6896
  144.7943  139.7248  143.6208 H   0  0  0  0  0  0  0  0  0  0  0  0  # atno 7974 bound_to 7965
  156.2996  140.2390  156.4096 H   0  0  0  0  0  0  0  0  0  0  0  0  # atno 8008 bound_to 7997
  154.8453  140.0426  157.1588 H   0  0  0  0  0  0  0  0  0  0  0  0  # atno 8009 bound_to 7997
  154.9058  140.2983  155.5296 H   0  0  0  0  0  0  0  0  0  0  0  0  # atno 8010 bound_to 7997
  140.4620  144.0892  150.6215 H   0  0  0  0  0  0  0  0  0  0  0  0  # atno 10167 bound_to 10162
  157.0271  131.0249  151.2756 H   0  0  0  0  0  0  0  0  0  0  0  0  # atno 10718 bound_to 10713
  154.6566  135.2919  154.9920 H   0  0  0  0  0  0  0  0  0  0  0  0  # atno 10763 bound_to 10752
  154.0994  135.6579  153.4869 H   0  0  0  0  0  0  0  0  0  0  0  0  # atno 10764 bound_to 10752
  153.0406  135.5239  154.7498 H   0  0  0  0  0  0  0  0  0  0  0  0  # atno 10765 bound_to 10752
  140.9228  134.1422  157.4300 H   0  0  0  0  0  0  0  0  0  0  0  0  # atno 11005 bound_to 11000
  146.2206  139.5630  142.9620 LP  0  0  0  0  0  0  0  0  0  0  0  0  # atno 17320 bound_to 7965
  145.5713  141.0394  143.2173 LP  0  0  0  0  0  0  0  0  0  0  0  0  # atno 17321 bound_to 7965
  140.4082  143.2670  151.9865 LP  0  0  0  0  0  0  0  0  0  0  0  0  # atno 17342 bound_to 10162
  139.4807  144.5939  151.7724 LP  0  0  0  0  0  0  0  0  0  0  0  0  # atno 17343 bound_to 10162
  157.5205  130.7995  149.7804 LP  0  0  0  0  0  0  0  0  0  0  0  0  # atno 17370 bound_to 10713
  156.0082  130.3845  150.2356 LP  0  0  0  0  0  0  0  0  0  0  0  0  # atno 17371 bound_to 10713
  139.8779  134.9977  156.5863 LP  0  0  0  0  0  0  0  0  0  0  0  0  # atno 17394 bound_to 11000
  140.7965  133.8540  155.8690 LP  0  0  0  0  0  0  0  0  0  0  0  0  # atno 17395 bound_to 11000

$$$$
