AV-unprocessed.smi:2626|AV-procd|sdf|10237|dock5
  -GOLD-   2272014243D 1   1.00000     0.00000
 Structure written by MMmdl.
 27 28  0  0  0  0  0  0  0  0  1 V2000
  147.9806  141.9646  154.2016 C   0  0  0  0  0  0  0  0  0  0  0  0
  149.1914  141.3752  154.8947 C   0  0  0  0  0  0  0  0  0  0  0  0
  149.7653  140.2082  154.5397 C   0  0  0  0  0  0  0  0  0  0  0  0
  150.9386  139.7248  155.2784 C   0  0  0  0  0  0  0  0  0  0  0  0
  151.4821  138.6646  154.9774 O   0  0  0  0  0  0  0  0  0  0  0  0
  151.4106  140.5192  156.3365 N   0  0  0  0  0  0  0  0  0  0  0  0
  150.8089  141.6378  156.6286 C   0  0  0  0  0  0  0  0  0  0  0  0
  151.2288  142.4614  157.6615 N   0  0  0  0  0  0  0  0  0  0  0  0
  152.1566  141.9048  158.6408 C   0  0  0  0  0  0  0  0  0  0  0  0
  152.2487  142.8042  159.8854 C   0  0  0  0  0  0  0  0  0  0  0  0
  152.6259  144.1192  159.4959 O   0  0  0  0  0  0  0  0  0  0  0  0
  151.6736  144.6976  158.6119 C   0  0  0  0  0  0  0  0  0  0  0  0
  151.5685  143.8433  157.3373 C   0  0  0  0  0  0  0  0  0  0  0  0
  149.6974  142.1182  155.9462 N   0  0  0  0  0  0  0  0  0  0  0  0
  149.2397  142.9870  156.1814 H   0  0  0  0  0  0  0  0  0  0  0  0
  147.6410  141.3227  153.3880 H   0  0  0  0  0  0  0  0  0  0  0  0
  148.2200  142.9432  153.7847 H   0  0  0  0  0  0  0  0  0  0  0  0
  147.1578  142.0819  154.9075 H   0  0  0  0  0  0  0  0  0  0  0  0
  149.3702  139.6278  153.7188 H   0  0  0  0  0  0  0  0  0  0  0  0
  153.1416  141.8006  158.1834 H   0  0  0  0  0  0  0  0  0  0  0  0
  151.8338  140.9045  158.9336 H   0  0  0  0  0  0  0  0  0  0  0  0
  151.2971  142.8287  160.4188 H   0  0  0  0  0  0  0  0  0  0  0  0
  152.9929  142.4112  160.5780 H   0  0  0  0  0  0  0  0  0  0  0  0
  150.7042  144.7805  159.1059 H   0  0  0  0  0  0  0  0  0  0  0  0
  151.9910  145.7097  158.3603 H   0  0  0  0  0  0  0  0  0  0  0  0
  150.8137  144.2663  156.6725 H   0  0  0  0  0  0  0  0  0  0  0  0
  152.5162  143.8630  156.7968 H   0  0  0  0  0  0  0  0  0  0  0  0
  1 16  1  0  0  0  0
  1 17  1  0  0  0  0
  1 18  1  0  0  0  0
  1  2  1  0  0  0  0
  2  3  2  0  0  0  0
  2 14  1  0  0  0  0
  3  4  1  0  0  0  0
  3 19  1  0  0  0  0
  4  6  1  0  0  0  0
  4  5  2  0  0  0  0
  6  7  2  0  0  0  0
  7 14  1  0  0  0  0
  7  8  1  0  0  0  0
  8 13  1  0  0  0  0
  8  9  1  0  0  0  0
  9 10  1  0  0  0  0
  9 20  1  0  0  0  0
  9 21  1  0  0  0  0
 10 11  1  0  0  0  0
 10 22  1  0  0  0  0
 10 23  1  0  0  0  0
 11 12  1  0  0  0  0
 12 13  1  0  0  0  0
 12 24  1  0  0  0  0
 12 25  1  0  0  0  0
 13 26  1  0  0  0  0
 13 27  1  0  0  0  0
 14 15  1  0  0  0  0
M  END
> <s_m_source_file>
AV-unprocessed.smi

> <i_m_source_file_index>
2626

> <i_lp_mmshare_version>
43012

> <i_f3d_flags>
0

> <s_epik_input>
W0NIM11jMVtjSF1jKD1PKVtuSF1jKG4xKU4yW0NIMl1bQ0gyXU9bQ0gyXVtDSDJdMg==

> <s_epik_cmdline>
J2VwaWtfcHl0aG9uJywgJy1waCcsICc3LjAnLCAnLXRuJywgJzgnLCAnLW1hJywgJzIwMCcsICctbWV0YWxfYmluZGluZycsICctaW1hZScsICc8aW5maWxlLm1hZT4nLCAnLW9tYWUnLCAnPG91dGZpbGUubWFlPic=

> <r_lp_tautomer_probability>
0.108306

> <r_epik_Ionization_Penalty>
0.0767095

> <r_epik_Ionization_Penalty_Charging>
0.066018

> <r_epik_Ionization_Penalty_Neutral>
0.0106915

> <r_epik_State_Penalty>
1.70202

> <r_epik_Charging_Adjusted_Penalty>
1.76804

> <i_epik_Tot_Q>
0

> <i_epik_Tot_abs_Q>
0

> <r_epik_Metal_State_Penalty>
2.70096

> <b_epik_Metal_Only>
0

> <s_lp_Force_Field>
OPLS_2005

> <r_lp_Energy>
27.4859

> <b_lp_Chiralities_Consistent>
1

> <s_lp_Variant>
AV-unprocessed.smi:2626-2

> <Gold.Version>
5.8.1

> <Gold.Id.Protein>
6NUR|6NUR_protein|mol2

> <Gold.PLP.Fitness>
33.9429

> <Gold.PLP.PLP>
-31.1021

> <Gold.PLP.part.hbond>
-1.0000

> <Gold.PLP.part.metal>
0.0000

> <Gold.PLP.part.buried>
-2.6163

> <Gold.PLP.part.nonpolar>
-27.1448

> <Gold.PLP.part.repulsive>
0.2622

> <Gold.PLP.ligand.clash>
0.0000

> <Gold.PLP.ligand.torsion>
0.1962

> <Gold.PLP.Chemscore.Hbond>
0.9760

> <Gold.PLP.Chemscore.CHOScore>
0.0000

> <Gold.PLP.Chemscore.Metal>
0.0000

> <Gold.Chemscore.Hbonds>
donor molecule, donor type, donor heavy atom, donor atom, acceptor molecule, acceptor atom, score
      L1  H    14    15       P1  8028  0.93

> <Gold.PLP.Chemscore.Internal.Correction>
0.3051

> <Gold.Rescore>
     Score         DG    S(hbond)    S(metal)    S(lipo)     H(rot)  DE(clash)    DE(int)     intcor
     13.89     -14.12       0.99        0.00      67.61       1.00       0.02       0.21       ----

> <Gold.Chemscore.Fitness>
13.8924

> <Gold.Chemscore.DG>
-14.1201

> <Gold.Chemscore.ZeroCoef>
-5.4800

> <Gold.Chemscore.Hbond>
0.9850

> <Gold.Chemscore.Metal>
0.0000

> <Gold.Chemscore.Lipo>
67.6075

> <Gold.Chemscore.Internal_Hbond>
0.0000

> <Gold.Chemscore.DEClash>
0.0152

> <Gold.Chemscore.DEInternal>
0.2126

> <Gold.Chemscore.Rot>
1.0000

> <Gold.Chemscore.Internal.Correction>
   9.000000E+99

> <Gold.Chemscore.Hbonds>
donor molecule, donor type, donor heavy atom, donor atom, acceptor molecule, acceptor atom, score
      L1  H    14    15       P1  8028  0.90

> <Gold.Chemscore.Hbond.Weighted>
-3.2901

> <Gold.Chemscore.Metal.Weighted>
-0.0000

> <Gold.Chemscore.Lipo.Weighted>
-7.9101

> <Gold.Chemscore.Internal_Hbond.Weighted>
0.0000

> <Gold.Chemscore.DEClash.Weighted>
0.0152

> <Gold.Chemscore.DEInternal.Weighted>
0.2126

> <Gold.Chemscore.Rot.Weighted>
2.5600

> <Gold.Chemscore.Internal.Correction.Weighted>
   9.000000E+99

> <Gold.Protein.RotatedTorsions>
[ 6907 6896 6895 6894 ] final  -56.18 input  -60.11 | X-H torsion
[ 7974 7965 7964 7962 ] final  112.28 input  175.53 | X-H torsion
[ 8008 7997 7996 7995 ] final   41.53 input   59.86 | X-H torsion
[ 10167 10162 10161 10158 ] final   88.23 input  -65.29 | X-H torsion
[ 10718 10713 10712 10709 ] final  -14.85 input   66.30 | X-H torsion
[ 10763 10752 10751 10750 ] final  122.08 input  -60.55 | X-H torsion
[ 11005 11000 10999 10996 ] final  111.53 input  -57.11 | X-H torsion

> <Gold.Protein.ActiveResidues>
 VAL166  LYS551  ARG553  GLY616  TRP617  ASP618  TYR619  PRO620  LYS621  CYS622 
 ASP623  PHE694  ASN695  SER759  ASP760  ASP761  ALA762  ILE779  LEU786  VAL792 
 PHE793  MET794  SER795  GLU796  ALA797  LYS798  CYS799  TRP800  GLU811  SER814 

> <Gold.Protein.RotatedAtoms>
  150.8189  134.7386  159.6754 H   0  0  0  0  0  0  0  0  0  0  0  0  # atno 6907 bound_to 6896
  152.4306  134.5781  159.9950 H   0  0  0  0  0  0  0  0  0  0  0  0  # atno 6908 bound_to 6896
  151.5971  133.3323  159.3075 H   0  0  0  0  0  0  0  0  0  0  0  0  # atno 6909 bound_to 6896
  145.2315  139.2817  143.4165 H   0  0  0  0  0  0  0  0  0  0  0  0  # atno 7974 bound_to 7965
  155.2712  140.3366  155.4265 H   0  0  0  0  0  0  0  0  0  0  0  0  # atno 8008 bound_to 7997
  156.2132  140.1778  156.7690 H   0  0  0  0  0  0  0  0  0  0  0  0  # atno 8009 bound_to 7997
  154.5716  140.0669  156.8957 H   0  0  0  0  0  0  0  0  0  0  0  0  # atno 8010 bound_to 7997
  139.8694  144.6501  150.8967 H   0  0  0  0  0  0  0  0  0  0  0  0  # atno 10167 bound_to 10162
  156.6100  130.4847  149.6205 H   0  0  0  0  0  0  0  0  0  0  0  0  # atno 10718 bound_to 10713
  153.6242  135.3408  155.3021 H   0  0  0  0  0  0  0  0  0  0  0  0  # atno 10763 bound_to 10752
  154.8594  135.4280  154.2175 H   0  0  0  0  0  0  0  0  0  0  0  0  # atno 10764 bound_to 10752
  153.3055  135.7028  153.7236 H   0  0  0  0  0  0  0  0  0  0  0  0  # atno 10765 bound_to 10752
  139.8906  134.9510  156.6446 H   0  0  0  0  0  0  0  0  0  0  0  0  # atno 11005 bound_to 11000
  146.3351  140.2652  142.8603 LP  0  0  0  0  0  0  0  0  0  0  0  0  # atno 17320 bound_to 7965
  144.9672  140.8333  143.5477 LP  0  0  0  0  0  0  0  0  0  0  0  0  # atno 17321 bound_to 7965
  140.7763  143.3677  151.1708 LP  0  0  0  0  0  0  0  0  0  0  0  0  # atno 17342 bound_to 10162
  139.7298  143.9090  152.3015 LP  0  0  0  0  0  0  0  0  0  0  0  0  # atno 17343 bound_to 10162
  156.2397  130.6844  151.1544 LP  0  0  0  0  0  0  0  0  0  0  0  0  # atno 17370 bound_to 10713
  157.7257  131.0651  150.5943 LP  0  0  0  0  0  0  0  0  0  0  0  0  # atno 17371 bound_to 10713
  140.7567  133.8852  155.8387 LP  0  0  0  0  0  0  0  0  0  0  0  0  # atno 17394 bound_to 11000
  140.9956  134.1220  157.4367 LP  0  0  0  0  0  0  0  0  0  0  0  0  # atno 17395 bound_to 11000

$$$$
