AV-unprocessed.smi:2172|AV-procd|sdf|8836|dock4
  -GOLD-   2272012 33D 1   1.00000     0.00000
 Structure written by MMmdl.
 37 39  0  0  0  0  0  0  0  0  2 V2000
  151.9139  136.9823  154.1934 O   0  0  0  0  0  0  0  0  0  0  0  0
  151.9118  138.2249  154.8609 C   0  0  0  0  0  0  0  0  0  0  0  0
  150.6636  139.0032  154.6033 C   0  0  0  0  0  0  0  0  0  0  0  0
  149.6495  138.6234  153.7763 N   0  3  0  0  0  0  0  0  0  0  0  0
  148.6599  139.6064  153.7584 C   0  0  0  0  0  0  0  0  0  0  0  0
  147.4551  139.6707  153.0653 C   0  0  0  0  0  0  0  0  0  0  0  0
  146.6726  140.8272  153.2619 C   0  0  0  0  0  0  0  0  0  0  0  0
  147.0955  141.8612  154.1216 C   0  0  0  0  0  0  0  0  0  0  0  0
  148.3167  141.7822  154.8224 C   0  0  0  0  0  0  0  0  0  0  0  0
  149.0877  140.6366  154.6212 C   0  0  0  0  0  0  0  0  0  0  0  0
  150.3302  140.2220  155.1194 N   0  0  0  0  0  0  0  0  0  0  0  0
  151.0724  141.0929  156.0471 C   0  0  0  0  0  0  0  0  0  0  0  0
  150.3862  141.2095  157.4232 C   0  0  2  0  0  0  0  0  0  0  0  0
  149.7242  142.4559  157.4818 O   0  0  0  0  0  0  0  0  0  0  0  0
  151.3622  141.0167  158.5755 C   0  0  0  0  0  0  0  0  0  0  0  0
  152.0055  139.7723  158.7493 C   0  0  0  0  0  0  0  0  0  0  0  0
  152.9367  139.5932  159.7905 C   0  0  0  0  0  0  0  0  0  0  0  0
  153.2283  140.6571  160.6659 C   0  0  0  0  0  0  0  0  0  0  0  0
  154.3729  140.4395  161.9382 Cl  0  0  0  0  0  0  0  0  0  0  0  0
  152.5873  141.9000  160.4996 C   0  0  0  0  0  0  0  0  0  0  0  0
  151.6572  142.0798  159.4577 C   0  0  0  0  0  0  0  0  0  0  0  0
  151.1187  136.5210  154.4133 H   0  0  0  0  0  0  0  0  0  0  0  0
  152.0144  138.0515  155.9323 H   0  0  0  0  0  0  0  0  0  0  0  0
  152.7813  138.8022  154.5471 H   0  0  0  0  0  0  0  0  0  0  0  0
  147.1302  138.8804  152.4045 H   0  0  0  0  0  0  0  0  0  0  0  0
  145.7305  140.9239  152.7421 H   0  0  0  0  0  0  0  0  0  0  0  0
  146.4712  142.7341  154.2464 H   0  0  0  0  0  0  0  0  0  0  0  0
  148.6281  142.5853  155.4732 H   0  0  0  0  0  0  0  0  0  0  0  0
  152.0998  140.7420  156.1427 H   0  0  0  0  0  0  0  0  0  0  0  0
  151.1372  142.0752  155.5783 H   0  0  0  0  0  0  0  0  0  0  0  0
  149.6088  140.4486  157.4979 H   0  0  0  0  0  0  0  0  0  0  0  0
  149.9254  142.9396  156.6950 H   0  0  0  0  0  0  0  0  0  0  0  0
  151.7947  138.9538  158.0764 H   0  0  0  0  0  0  0  0  0  0  0  0
  153.4280  138.6393  159.9143 H   0  0  0  0  0  0  0  0  0  0  0  0
  152.8106  142.7181  161.1685 H   0  0  0  0  0  0  0  0  0  0  0  0
  151.1792  143.0403  159.3321 H   0  0  0  0  0  0  0  0  0  0  0  0
  149.6427  137.7563  153.2550 H   0  0  0  0  0  0  0  0  0  0  0  0
  1  2  1  0  0  0  0
  1 22  1  0  0  0  0
  2  3  1  0  0  0  0
  2 23  1  0  0  0  0
  2 24  1  0  0  0  0
  3 11  1  0  0  0  0
  3  4  2  0  0  0  0
  4  5  1  0  0  0  0
  4 37  1  0  0  0  0
  5 10  2  0  0  0  0
  5  6  1  0  0  0  0
  6  7  2  0  0  0  0
  6 25  1  0  0  0  0
  7  8  1  0  0  0  0
  7 26  1  0  0  0  0
  8  9  2  0  0  0  0
  8 27  1  0  0  0  0
  9 10  1  0  0  0  0
  9 28  1  0  0  0  0
 10 11  1  0  0  0  0
 11 12  1  0  0  0  0
 12 13  1  0  0  0  0
 12 29  1  0  0  0  0
 12 30  1  0  0  0  0
 13 14  1  0  0  0  0
 13 15  1  0  0  0  0
 13 31  1  0  0  0  0
 14 32  1  0  0  0  0
 15 21  1  0  0  0  0
 15 16  2  0  0  0  0
 16 17  1  0  0  0  0
 16 33  1  0  0  0  0
 17 18  2  0  0  0  0
 17 34  1  0  0  0  0
 18 19  1  0  0  0  0
 18 20  1  0  0  0  0
 20 21  2  0  0  0  0
 20 35  1  0  0  0  0
 21 36  1  0  0  0  0
M  CHG  1   4   1
M  END
> <s_m_source_file>
AV-unprocessed.smi

> <i_m_source_file_index>
2172

> <i_lp_mmshare_version>
43012

> <i_f3d_flags>
0

> <s_epik_input>
W2NIXTFbY0hdW2NIXVtjSF1jKGMxMiluKGMobjIpW0NIMl1bT0hdKVtDSDJdW0NASF0oW09IXSljM1tjSF1bY0hdYyhDbClbY0hdW2NIXTM=

> <s_epik_cmdline>
J2VwaWtfcHl0aG9uJywgJy1waCcsICc3LjAnLCAnLXRuJywgJzgnLCAnLW1hJywgJzIwMCcsICctbWV0YWxfYmluZGluZycsICctaW1hZScsICc8aW5maWxlLm1hZT4nLCAnLW9tYWUnLCAnPG91dGZpbGUubWFlPic=

> <r_epik_Ionization_Penalty>
1.35643

> <r_epik_Ionization_Penalty_Charging>
1.35557

> <r_epik_Ionization_Penalty_Neutral>
0.000858184

> <r_epik_State_Penalty>
1.43401

> <r_epik_Charging_Adjusted_Penalty>
2.78958

> <i_epik_Tot_Q>
1

> <i_epik_Tot_abs_Q>
1

> <r_epik_Metal_State_Penalty>
5.47166

> <b_epik_Metal_Only>
0

> <s_lp_Force_Field>
OPLS_2005

> <r_lp_Energy>
15.2583

> <b_lp_Chiralities_Consistent>
1

> <s_lp_Variant>
AV-unprocessed.smi:2172-3

> <Gold.Version>
5.8.1

> <Gold.Id.Protein>
6NUR|6NUR_protein|mol2

> <Gold.PLP.Fitness>
55.3713

> <Gold.PLP.PLP>
-46.3267

> <Gold.PLP.part.hbond>
-5.0000

> <Gold.PLP.part.metal>
0.0000

> <Gold.PLP.part.buried>
4.1112

> <Gold.PLP.part.nonpolar>
-44.7127

> <Gold.PLP.part.repulsive>
0.0697

> <Gold.PLP.ligand.clash>
0.0000

> <Gold.PLP.ligand.torsion>
0.7902

> <Gold.PLP.Chemscore.Hbond>
3.5360

> <Gold.PLP.Chemscore.CHOScore>
0.0000

> <Gold.PLP.Chemscore.Metal>
0.0000

> <Gold.Chemscore.Hbonds>
donor molecule, donor type, donor heavy atom, donor atom, acceptor molecule, acceptor atom, score
      L1  H     4    37       P1  7948  1.46
      L1  H    14    32       P1  8028  0.20
      P1  H 10752 10763       L1     1  0.93

> <Gold.PLP.Chemscore.Internal.Correction>
0.0170

> <Gold.Rescore>
     Score         DG    S(hbond)    S(metal)    S(lipo)     H(rot)  DE(clash)    DE(int)     intcor
     16.84     -19.03       2.21        0.00     111.71       2.70       1.36       0.83       ----

> <Gold.Chemscore.Fitness>
16.8441

> <Gold.Chemscore.DG>
-19.0336

> <Gold.Chemscore.ZeroCoef>
-5.4800

> <Gold.Chemscore.Hbond>
2.2112

> <Gold.Chemscore.Metal>
0.0000

> <Gold.Chemscore.Lipo>
111.7148

> <Gold.Chemscore.Internal_Hbond>
0.0000

> <Gold.Chemscore.DEClash>
1.3556

> <Gold.Chemscore.DEInternal>
0.8340

> <Gold.Chemscore.Rot>
2.6963

> <Gold.Chemscore.Internal.Correction>
   9.000000E+99

> <Gold.Chemscore.Hbonds>
donor molecule, donor type, donor heavy atom, donor atom, acceptor molecule, acceptor atom, score
      L1  H     4    37       P1  7948  0.59
      L1  H    14    32       P1  8028  0.20
      P1  H 10752 10763       L1     1  0.40

> <Gold.Chemscore.Hbond.Weighted>
-7.3854

> <Gold.Chemscore.Metal.Weighted>
-0.0000

> <Gold.Chemscore.Lipo.Weighted>
-13.0706

> <Gold.Chemscore.Internal_Hbond.Weighted>
0.0000

> <Gold.Chemscore.DEClash.Weighted>
1.3556

> <Gold.Chemscore.DEInternal.Weighted>
0.8340

> <Gold.Chemscore.Rot.Weighted>
6.9024

> <Gold.Chemscore.Internal.Correction.Weighted>
   9.000000E+99

> <Gold.Protein.RotatedTorsions>
[ 6907 6896 6895 6894 ] final  139.06 input  -60.11 | X-H torsion
[ 7974 7965 7964 7962 ] final  -23.39 input  175.53 | X-H torsion
[ 8008 7997 7996 7995 ] final  -26.09 input   59.86 | X-H torsion
[ 10167 10162 10161 10158 ] final   75.65 input  -65.29 | X-H torsion
[ 10718 10713 10712 10709 ] final  -87.38 input   66.30 | X-H torsion
[ 10763 10752 10751 10750 ] final   20.48 input  -60.55 | X-H torsion
[ 11005 11000 10999 10996 ] final   20.53 input  -57.11 | X-H torsion

> <Gold.Protein.ActiveResidues>
 VAL166  LYS551  ARG553  GLY616  TRP617  ASP618  TYR619  PRO620  LYS621  CYS622 
 ASP623  PHE694  ASN695  SER759  ASP760  ASP761  ALA762  ILE779  LEU786  VAL792 
 PHE793  MET794  SER795  GLU796  ALA797  LYS798  CYS799  TRP800  GLU811  SER814 

> <Gold.Protein.RotatedAtoms>
  152.2593  133.5283  159.5372 H   0  0  0  0  0  0  0  0  0  0  0  0  # atno 6907 bound_to 6896
  150.7120  134.0851  159.3921 H   0  0  0  0  0  0  0  0  0  0  0  0  # atno 6908 bound_to 6896
  151.8769  135.0468  160.0535 H   0  0  0  0  0  0  0  0  0  0  0  0  # atno 6909 bound_to 6896
  146.1619  140.4609  142.8568 H   0  0  0  0  0  0  0  0  0  0  0  0  # atno 7974 bound_to 7965
  154.4443  140.1909  156.0721 H   0  0  0  0  0  0  0  0  0  0  0  0  # atno 8008 bound_to 7997
  156.0503  140.3309  155.7317 H   0  0  0  0  0  0  0  0  0  0  0  0  # atno 8009 bound_to 7997
  155.5567  140.0600  157.2829 H   0  0  0  0  0  0  0  0  0  0  0  0  # atno 8010 bound_to 7997
  140.0007  144.5688  150.7739 H   0  0  0  0  0  0  0  0  0  0  0  0  # atno 10167 bound_to 10162
  155.9985  130.4798  150.4858 H   0  0  0  0  0  0  0  0  0  0  0  0  # atno 10718 bound_to 10713
  153.1073  135.6688  153.9563 H   0  0  0  0  0  0  0  0  0  0  0  0  # atno 10763 bound_to 10752
  153.9116  135.3024  155.3450 H   0  0  0  0  0  0  0  0  0  0  0  0  # atno 10764 bound_to 10752
  154.7494  135.5042  153.9339 H   0  0  0  0  0  0  0  0  0  0  0  0  # atno 10765 bound_to 10752
  140.4016  134.1713  155.7664 H   0  0  0  0  0  0  0  0  0  0  0  0  # atno 11005 bound_to 11000
  144.8039  140.6263  143.6460 LP  0  0  0  0  0  0  0  0  0  0  0  0  # atno 17320 bound_to 7965
  145.4566  139.1517  143.3889 LP  0  0  0  0  0  0  0  0  0  0  0  0  # atno 17321 bound_to 7965
  140.7420  143.2825  151.3556 LP  0  0  0  0  0  0  0  0  0  0  0  0  # atno 17342 bound_to 10162
  139.6274  144.0788  152.2446 LP  0  0  0  0  0  0  0  0  0  0  0  0  # atno 17343 bound_to 10162
  157.2858  131.0616  151.2167 LP  0  0  0  0  0  0  0  0  0  0  0  0  # atno 17370 bound_to 10713
  157.3197  130.6931  149.6262 LP  0  0  0  0  0  0  0  0  0  0  0  0  # atno 17371 bound_to 10713
  141.1855  133.8322  157.1103 LP  0  0  0  0  0  0  0  0  0  0  0  0  # atno 17394 bound_to 11000
  140.0332  134.9891  157.0821 LP  0  0  0  0  0  0  0  0  0  0  0  0  # atno 17395 bound_to 11000

$$$$
