AV-unprocessed.smi:1365|AV-procd|sdf|5569|dock7
  -GOLD-   22720 5163D 1   1.00000     0.00000
 Structure written by MMmdl.
 41 42  0  0  0  0  0  0  0  0  3 V2000
  152.3094  139.8967  159.1664 C   0  0  0  0  0  0  0  0  0  0  0  0
  152.0009  139.8742  157.7084 C   0  0  0  0  0  0  0  0  0  0  0  0
  150.9400  140.3290  156.9778 C   0  0  0  0  0  0  0  0  0  0  0  0
  151.2872  139.9737  155.6456 C   0  0  0  0  0  0  0  0  0  0  0  0
  150.5581  140.2205  154.5462 N   0  5  0  0  0  0  0  0  0  0  0  0
  149.2073  140.1729  154.5999 C   0  0  0  0  0  0  0  0  0  0  0  0
  148.5044  140.3904  155.5895 O   0  0  0  0  0  0  0  0  0  0  0  0
  148.6338  139.8509  153.4328 N   0  0  0  0  0  0  0  0  0  0  0  0
  147.2008  139.7146  153.2106 C   0  0  0  0  0  0  0  0  0  0  0  0
  146.7342  138.2985  153.5717 C   0  0  0  0  0  0  0  0  0  0  0  0
  145.8157  137.6976  152.4947 C   0  0  0  0  0  0  0  0  0  0  0  0
  146.1076  136.2650  152.2355 N   0  3  0  0  0  0  0  0  0  0  0  0
  145.2699  135.7109  151.1395 C   0  0  0  0  0  0  0  0  0  0  0  0
  145.6809  134.2688  150.7965 C   0  0  0  0  0  0  0  0  0  0  0  0
  145.6186  133.3683  152.0366 C   0  0  0  0  0  0  0  0  0  0  0  0
  146.4630  133.9741  153.1649 C   0  0  0  0  0  0  0  0  0  0  0  0
  146.0333  135.4215  153.4593 C   0  0  0  0  0  0  0  0  0  0  0  0
  152.4633  139.3733  155.5725 N   0  0  0  0  0  0  0  0  0  0  0  0
  152.9246  139.2992  156.8922 O   0  0  0  0  0  0  0  0  0  0  0  0
  152.2209  140.9079  159.5636 H   0  0  0  0  0  0  0  0  0  0  0  0
  153.3232  139.5455  159.3598 H   0  0  0  0  0  0  0  0  0  0  0  0
  151.6195  139.2556  159.7153 H   0  0  0  0  0  0  0  0  0  0  0  0
  150.0543  140.8304  157.3378 H   0  0  0  0  0  0  0  0  0  0  0  0
  149.2430  139.6827  152.6457 H   0  0  0  0  0  0  0  0  0  0  0  0
  146.6649  140.4471  153.8165 H   0  0  0  0  0  0  0  0  0  0  0  0
  146.9791  139.9337  152.1650 H   0  0  0  0  0  0  0  0  0  0  0  0
  147.6039  137.6540  153.7077 H   0  0  0  0  0  0  0  0  0  0  0  0
  146.2222  138.3345  154.5329 H   0  0  0  0  0  0  0  0  0  0  0  0
  144.7658  137.8207  152.7653 H   0  0  0  0  0  0  0  0  0  0  0  0
  145.9649  138.2663  151.5757 H   0  0  0  0  0  0  0  0  0  0  0  0
  144.2188  135.7449  151.4310 H   0  0  0  0  0  0  0  0  0  0  0  0
  145.3718  136.3302  150.2474 H   0  0  0  0  0  0  0  0  0  0  0  0
  145.0317  133.8718  150.0155 H   0  0  0  0  0  0  0  0  0  0  0  0
  146.6932  134.2629  150.3898 H   0  0  0  0  0  0  0  0  0  0  0  0
  144.5838  133.2627  152.3656 H   0  0  0  0  0  0  0  0  0  0  0  0
  145.9741  132.3661  151.7947 H   0  0  0  0  0  0  0  0  0  0  0  0
  146.3701  133.3666  154.0657 H   0  0  0  0  0  0  0  0  0  0  0  0
  147.5173  133.9543  152.8861 H   0  0  0  0  0  0  0  0  0  0  0  0
  146.6754  135.8256  154.2410 H   0  0  0  0  0  0  0  0  0  0  0  0
  145.0147  135.4362  153.8506 H   0  0  0  0  0  0  0  0  0  0  0  0
  147.0614  136.2242  151.9057 H   0  0  0  0  0  0  0  0  0  0  0  0
  1  2  1  0  0  0  0
  1 20  1  0  0  0  0
  1 21  1  0  0  0  0
  1 22  1  0  0  0  0
  2 19  1  0  0  0  0
  2  3  2  0  0  0  0
  3  4  1  0  0  0  0
  3 23  1  0  0  0  0
  4  5  1  0  0  0  0
  4 18  2  0  0  0  0
  5  6  1  0  0  0  0
  6  7  2  0  0  0  0
  6  8  1  0  0  0  0
  8  9  1  0  0  0  0
  8 24  1  0  0  0  0
  9 10  1  0  0  0  0
  9 25  1  0  0  0  0
  9 26  1  0  0  0  0
 10 11  1  0  0  0  0
 10 27  1  0  0  0  0
 10 28  1  0  0  0  0
 11 12  1  0  0  0  0
 11 29  1  0  0  0  0
 11 30  1  0  0  0  0
 12 17  1  0  0  0  0
 12 13  1  0  0  0  0
 12 41  1  0  0  0  0
 13 14  1  0  0  0  0
 13 31  1  0  0  0  0
 13 32  1  0  0  0  0
 14 15  1  0  0  0  0
 14 33  1  0  0  0  0
 14 34  1  0  0  0  0
 15 16  1  0  0  0  0
 15 35  1  0  0  0  0
 15 36  1  0  0  0  0
 16 17  1  0  0  0  0
 16 37  1  0  0  0  0
 16 38  1  0  0  0  0
 17 39  1  0  0  0  0
 17 40  1  0  0  0  0
 18 19  1  0  0  0  0
M  CHG  1   5  -1
M  CHG  1  12   1
M  END
> <s_m_source_file>
AV-unprocessed.smi

> <i_m_source_file_index>
1365

> <i_lp_mmshare_version>
43012

> <i_f3d_flags>
0

> <s_epik_input>
W0NIM11jMVtjSF1jKG5vMSlbTkhdQyg9TylbTkhdW0NIMl1bQ0gyXVtDSDJdTjJbQ0gyXVtDSDJdW0NIMl1bQ0gyXVtDSDJdMg==

> <s_epik_cmdline>
J2VwaWtfcHl0aG9uJywgJy1waCcsICc3LjAnLCAnLXRuJywgJzgnLCAnLW1hJywgJzIwMCcsICctbWV0YWxfYmluZGluZycsICctaW1hZScsICc8aW5maWxlLm1hZT4nLCAnLW9tYWUnLCAnPG91dGZpbGUubWFlPic=

> <r_epik_Ionization_Penalty>
6.42355

> <r_epik_Ionization_Penalty_Charging>
6.42345

> <r_epik_Ionization_Penalty_Neutral>
0.000108417

> <r_epik_State_Penalty>
6.4233

> <r_epik_Charging_Adjusted_Penalty>
12.8467

> <i_epik_Tot_Q>
0

> <i_epik_Tot_abs_Q>
2

> <r_epik_Metal_State_Penalty>
2.35308

> <b_epik_Metal_Only>
1

> <s_lp_Force_Field>
OPLS_2005

> <r_lp_Energy>
6.88196

> <b_lp_Chiralities_Consistent>
1

> <s_lp_Variant>
AV-unprocessed.smi:1365-2

> <Gold.Version>
5.8.1

> <Gold.Id.Protein>
6NUR|6NUR_protein|mol2

> <Gold.PLP.Fitness>
44.5189

> <Gold.PLP.PLP>
-31.8856

> <Gold.PLP.part.hbond>
-4.7495

> <Gold.PLP.part.metal>
0.0000

> <Gold.PLP.part.buried>
-3.8542

> <Gold.PLP.part.nonpolar>
-22.9786

> <Gold.PLP.part.repulsive>
0.3221

> <Gold.PLP.ligand.clash>
0.0000

> <Gold.PLP.ligand.torsion>
1.2100

> <Gold.PLP.Chemscore.Hbond>
5.0000

> <Gold.PLP.Chemscore.CHOScore>
0.0000

> <Gold.PLP.Chemscore.Metal>
0.0000

> <Gold.Chemscore.Hbonds>
donor molecule, donor type, donor heavy atom, donor atom, acceptor molecule, acceptor atom, score
      L1  H     8    24       P1  7957  0.94
      L1  H    12    41       P1  7948  2.00
      P1  H  7989  7998       L1     5  1.00
      P1  H  7997  8009       L1    19  1.00

> <Gold.PLP.Chemscore.Internal.Correction>
0.0532

> <Gold.Rescore>
     Score         DG    S(hbond)    S(metal)    S(lipo)     H(rot)  DE(clash)    DE(int)     intcor
     15.13     -17.71       3.11        0.00      54.66       1.78       0.02       2.56       ----

> <Gold.Chemscore.Fitness>
15.1305

> <Gold.Chemscore.DG>
-17.7073

> <Gold.Chemscore.ZeroCoef>
-5.4800

> <Gold.Chemscore.Hbond>
3.1086

> <Gold.Chemscore.Metal>
0.0000

> <Gold.Chemscore.Lipo>
54.6596

> <Gold.Chemscore.Internal_Hbond>
0.0000

> <Gold.Chemscore.DEClash>
0.0161

> <Gold.Chemscore.DEInternal>
2.5608

> <Gold.Chemscore.Rot>
1.7776

> <Gold.Chemscore.Internal.Correction>
   9.000000E+99

> <Gold.Chemscore.Hbonds>
donor molecule, donor type, donor heavy atom, donor atom, acceptor molecule, acceptor atom, score
      L1  H     8    24       P1  7957  0.88
      L1  H    12    41       P1  7948  1.00
      P1  H  7989  7998       L1     5  0.44
      P1  H  7997  8009       L1    19  0.33

> <Gold.Chemscore.Hbond.Weighted>
-10.3828

> <Gold.Chemscore.Metal.Weighted>
-0.0000

> <Gold.Chemscore.Lipo.Weighted>
-6.3952

> <Gold.Chemscore.Internal_Hbond.Weighted>
0.0000

> <Gold.Chemscore.DEClash.Weighted>
0.0161

> <Gold.Chemscore.DEInternal.Weighted>
2.5608

> <Gold.Chemscore.Rot.Weighted>
4.5506

> <Gold.Chemscore.Internal.Correction.Weighted>
   9.000000E+99

> <Gold.Protein.RotatedTorsions>
[ 6907 6896 6895 6894 ] final   65.23 input  -60.11 | X-H torsion
[ 7974 7965 7964 7962 ] final -156.28 input  175.53 | X-H torsion
[ 8008 7997 7996 7995 ] final  170.06 input   59.86 | X-H torsion
[ 10167 10162 10161 10158 ] final   52.48 input  -65.29 | X-H torsion
[ 10718 10713 10712 10709 ] final  -11.10 input   66.30 | X-H torsion
[ 10763 10752 10751 10750 ] final  -40.58 input  -60.55 | X-H torsion
[ 11005 11000 10999 10996 ] final    0.33 input  -57.11 | X-H torsion

> <Gold.Protein.ActiveResidues>
 VAL166  LYS551  ARG553  GLY616  TRP617  ASP618  TYR619  PRO620  LYS621  CYS622 
 ASP623  PHE694  ASN695  SER759  ASP760  ASP761  ALA762  ILE779  LEU786  VAL792 
 PHE793  MET794  SER795  GLU796  ALA797  LYS798  CYS799  TRP800  GLU811  SER814 

> <Gold.Protein.RotatedAtoms>
  152.4392  134.5625  159.9897 H   0  0  0  0  0  0  0  0  0  0  0  0  # atno 6907 bound_to 6896
  151.5727  133.3382  159.3000 H   0  0  0  0  0  0  0  0  0  0  0  0  # atno 6908 bound_to 6896
  150.8295  134.7576  159.6906 H   0  0  0  0  0  0  0  0  0  0  0  0  # atno 6909 bound_to 6896
  144.7600  140.4132  143.5983 H   0  0  0  0  0  0  0  0  0  0  0  0  # atno 7974 bound_to 7965
  156.1401  140.1548  156.8934 H   0  0  0  0  0  0  0  0  0  0  0  0  # atno 8008 bound_to 7997
  154.4980  140.0833  156.7776 H   0  0  0  0  0  0  0  0  0  0  0  0  # atno 8009 bound_to 7997
  155.4095  140.3418  155.4265 H   0  0  0  0  0  0  0  0  0  0  0  0  # atno 8010 bound_to 7997
  140.2509  144.3480  150.6348 H   0  0  0  0  0  0  0  0  0  0  0  0  # atno 10167 bound_to 10162
  156.6639  130.4990  149.6021 H   0  0  0  0  0  0  0  0  0  0  0  0  # atno 10718 bound_to 10713
  153.9482  135.6753  153.4744 H   0  0  0  0  0  0  0  0  0  0  0  0  # atno 10763 bound_to 10752
  153.0897  135.4881  154.8663 H   0  0  0  0  0  0  0  0  0  0  0  0  # atno 10764 bound_to 10752
  154.7340  135.3145  154.8802 H   0  0  0  0  0  0  0  0  0  0  0  0  # atno 10765 bound_to 10752
  140.6277  133.9603  155.8258 H   0  0  0  0  0  0  0  0  0  0  0  0  # atno 11005 bound_to 11000
  145.6650  139.1588  143.2787 LP  0  0  0  0  0  0  0  0  0  0  0  0  # atno 17320 bound_to 7965
  146.1653  140.6727  142.9258 LP  0  0  0  0  0  0  0  0  0  0  0  0  # atno 17321 bound_to 7965
  140.6041  143.2167  151.7014 LP  0  0  0  0  0  0  0  0  0  0  0  0  # atno 17342 bound_to 10162
  139.5047  144.3746  152.0437 LP  0  0  0  0  0  0  0  0  0  0  0  0  # atno 17343 bound_to 10162
  156.1990  130.6607  151.1146 LP  0  0  0  0  0  0  0  0  0  0  0  0  # atno 17370 bound_to 10713
  157.7100  131.0738  150.6534 LP  0  0  0  0  0  0  0  0  0  0  0  0  # atno 17371 bound_to 10713
  141.0697  134.0223  157.3543 LP  0  0  0  0  0  0  0  0  0  0  0  0  # atno 17394 bound_to 11000
  139.9128  135.0193  156.7761 LP  0  0  0  0  0  0  0  0  0  0  0  0  # atno 17395 bound_to 11000

$$$$
