#       Name:                AV-unprocessed.smi:263
#       Creating user name   scv26
#       Creation time:       Thu Mar 26 21:20:19 2020


#       File generated by GOLD software.
#

@<TRIPOS>MOLECULE
AV-unprocessed.smi:263
    67    71     1
SMALL
NO_CHARGES


@<TRIPOS>ATOM
      1 ****        -4.5213   0.7025   0.7608 O.3            1 S1                 0.0000
      2 ****        -4.7925   0.2780  -0.5638 C.3            1 S1                 0.0000
      3 ****        -4.0967  -1.0893  -0.7791 C.3            1 S1                 0.0000
      4 ****        -2.6496  -1.0490  -0.6322 N.pl3          1 S1                 0.0000
      5 ****        -1.7247  -0.8178  -1.6254 C.2            1 S1                 0.0000
      6 ****        -0.4780  -0.8363  -1.2400 N.2            1 S1                 0.0000
      7 ****        -0.5464  -1.1037   0.1226 C.ar           1 S1                 0.0000
      8 ****         0.4243  -1.2668   1.1515 C.ar           1 S1                 0.0000
      9 ****         1.7588  -1.1473   0.9300 N.3            1 S1                 0.0000
     10 ****         2.6635  -1.8060   1.8748 C.3            1 S1                 0.0000
     11 ****         4.0975  -1.8839   1.3166 C.3            1 S1                 0.0000
     12 ****         4.6157  -0.5035   0.8615 C.3            1 S1                 0.0000
     13 ****         4.7387   0.3094   2.0177 O.3            1 S1                 0.0000
     14 ****         6.0129  -0.6043   0.2096 C.3            1 S1                 0.0000
     15 ****         6.4955   0.7461  -0.3542 C.3            1 S1                 0.0000
     16 ****         5.4684   1.3565  -1.3213 C.3            1 S1                 0.0000
     17 ****         4.0826   1.4798  -0.6665 C.3            1 S1                 0.0000
     18 ****         3.6003   0.1168  -0.1332 C.3            1 S1                 0.0000
     19 ****         2.1842   0.1758   0.4719 C.3            1 S1                 0.0000
     20 ****        -0.0329  -1.5539   2.4003 N.ar           1 S1                 0.0000
     21 ****        -1.3440  -1.6663   2.6315 C.ar           1 S1                 0.0000
     22 ****        -2.3570  -1.5353   1.7732 N.ar           1 S1                 0.0000
     23 ****        -1.9064  -1.2515   0.5177 C.ar           1 S1                 0.0000
     24 ****        -6.3193   0.1349  -0.7263 C.3            1 S1                 0.0000
     25 ****        -7.0372   1.4958  -0.6914 C.3            1 S1                 0.0000
     26 ****        -6.4927   2.3572  -1.6834 O.3            1 S1                 0.0000
     27 ****        -5.1195   2.6521  -1.4586 C.3            1 S1                 0.0000
     28 ****        -4.2807   1.3637  -1.5359 C.3            1 S1                 0.0000
     29 ****        -4.8117   0.0302   1.3584 H              1 S1                 0.0000
     30 ****        -4.4903  -1.8284  -0.0799 H              1 S1                 0.0000
     31 ****        -4.3216  -1.4689  -1.7767 H              1 S1                 0.0000
     32 ****        -2.0059  -0.6296  -2.6515 H              1 S1                 0.0000
     33 ****         2.6588  -1.2597   2.8190 H              1 S1                 0.0000
     34 ****         2.3081  -2.8150   2.0885 H              1 S1                 0.0000
     35 ****         4.7638  -2.3161   2.0643 H              1 S1                 0.0000
     36 ****         4.1068  -2.5709   0.4693 H              1 S1                 0.0000
     37 ****         3.8875   0.3858   2.4208 H              1 S1                 0.0000
     38 ****         6.7401  -0.9862   0.9276 H              1 S1                 0.0000
     39 ****         5.9806  -1.3307  -0.6035 H              1 S1                 0.0000
     40 ****         6.6832   1.4419   0.4643 H              1 S1                 0.0000
     41 ****         7.4497   0.6123  -0.8643 H              1 S1                 0.0000
     42 ****         5.8097   2.3365  -1.6560 H              1 S1                 0.0000
     43 ****         5.3956   0.7342  -2.2141 H              1 S1                 0.0000
     44 ****         4.1209   2.2087   0.1441 H              1 S1                 0.0000
     45 ****         3.3697   1.8675  -1.3949 H              1 S1                 0.0000
     46 ****         3.5399  -0.5502  -0.9953 H              1 S1                 0.0000
     47 ****         1.4955   0.5753  -0.2715 H              1 S1                 0.0000
     48 ****         2.1599   0.8656   1.3164 H              1 S1                 0.0000
     49 ****        -1.6208  -1.8929   3.6506 H              1 S1                 0.0000
     50 ****        -6.5366  -0.3431  -1.6826 H              1 S1                 0.0000
     51 ****        -6.7275  -0.5230   0.0422 H              1 S1                 0.0000
     52 ****        -8.1001   1.3603  -0.8915 H              1 S1                 0.0000
     53 ****        -6.9589   1.9588   0.2934 H              1 S1                 0.0000
     54 ****        -4.7848   3.3598  -2.2172 H              1 S1                 0.0000
     55 ****        -4.9943   3.1447  -0.4931 H              1 S1                 0.0000
     56 ****        -3.2341   1.5993  -1.3409 H              1 S1                 0.0000
     57 ****        -4.3244   0.9814  -2.5566 H              1 S1                 0.0000
     58 ****        -5.0106   1.5542   0.9485 LP             1 S1                 0.0000
     59 ****        -3.5387   0.8509   0.8725 LP             1 S1                 0.0000
     60 ****         0.3395  -0.6913  -1.7973 LP             1 S1                 0.0000
     61 ****         1.8784  -1.7379   0.1320 LP             1 S1                 0.0000
     62 ****         5.0724   1.2159   1.7592 LP             1 S1                 0.0000
     63 ****         5.3797  -0.1113   2.6596 LP             1 S1                 0.0000
     64 ****         0.6165  -1.6816   3.1500 LP             1 S1                 0.0000
     65 ****        -3.3216  -1.6326   2.0187 LP             1 S1                 0.0000
     66 ****        -7.0086   3.2138  -1.6817 LP             1 S1                 0.0000
     67 ****        -6.5834   1.9153  -2.5758 LP             1 S1                 0.0000
@<TRIPOS>BOND
    1    1    2 1     
    2    1   29 1     
    3    2   28 1     
    4    2    3 1     
    5    2   24 1     
    6    3    4 1     
    7    3   30 1     
    8    3   31 1     
    9    4   23 1     
   10    4    5 1     
   11    5    6 2     
   12    5   32 1     
   13    6    7 1     
   14    7   23 ar    
   15    7    8 ar    
   16    8    9 1     
   17    8   20 ar    
   18    9   19 1     
   19    9   10 1     
   20   10   11 1     
   21   10   33 1     
   22   10   34 1     
   23   11   12 1     
   24   11   35 1     
   25   11   36 1     
   26   12   18 1     
   27   12   13 1     
   28   12   14 1     
   29   13   37 1     
   30   14   15 1     
   31   14   38 1     
   32   14   39 1     
   33   15   16 1     
   34   15   40 1     
   35   15   41 1     
   36   16   17 1     
   37   16   42 1     
   38   16   43 1     
   39   17   18 1     
   40   17   44 1     
   41   17   45 1     
   42   18   19 1     
   43   18   46 1     
   44   19   47 1     
   45   19   48 1     
   46   20   21 ar    
   47   21   22 ar    
   48   21   49 1     
   49   22   23 ar    
   50   24   25 1     
   51   24   50 1     
   52   24   51 1     
   53   25   26 1     
   54   25   52 1     
   55   25   53 1     
   56   26   27 1     
   57   27   28 1     
   58   27   54 1     
   59   27   55 1     
   60   28   56 1     
   61   28   57 1     
   62    1   58 1     
   63    1   59 1     
   64    6   60 1     
   65    9   61 1     
   66   13   62 1     
   67   13   63 1     
   68   20   64 1     
   69   22   65 1     
   70   26   66 1     
   71   26   67 1     
@<TRIPOS>SUBSTRUCTURE
      1 S1             1
@<TRIPOS>SET
LONE_PAIRS      STATIC     ATOMS    <user>   **** ""
10 58 59 60 61 62 63 64 65 66 67
DONOR_HYDROGENS      STATIC     ATOMS    <user>   **** ""
2 29 37
ATOM$BLUE        STATIC     ATOMS    COLORGROUP SYSTEM
10 58 59 60 61 62 63 64 65 66 67
ATOM$RED        STATIC     ATOMS    COLORGROUP SYSTEM
2 29 37
