AV-unprocessed.smi:485|AV-procd|sdf|2694|dock3
  -GOLD-   2262023123D 1   1.00000     0.00000
 Structure written by MMmdl.
 37 39  0  0  0  0  0  0  0  0  2 V2000
  152.2371  137.0540  153.7085 O   0  0  0  0  0  0  0  0  0  0  0  0
  151.7388  137.6820  154.8689 C   0  0  0  0  0  0  0  0  0  0  0  0
  150.6195  138.6227  154.5673 C   0  0  0  0  0  0  0  0  0  0  0  0
  149.5515  138.3607  153.7624 N   0  3  0  0  0  0  0  0  0  0  0  0
  148.7015  139.4669  153.7301 C   0  0  0  0  0  0  0  0  0  0  0  0
  147.4995  139.6722  153.0598 C   0  0  0  0  0  0  0  0  0  0  0  0
  146.8790  140.9256  153.2421 C   0  0  0  0  0  0  0  0  0  0  0  0
  147.4555  141.9175  154.0619 C   0  0  0  0  0  0  0  0  0  0  0  0
  148.6750  141.6978  154.7359 C   0  0  0  0  0  0  0  0  0  0  0  0
  149.2805  140.4543  154.5539 C   0  0  0  0  0  0  0  0  0  0  0  0
  150.4614  139.8886  155.0503 N   0  0  0  0  0  0  0  0  0  0  0  0
  151.3141  140.6634  155.9664 C   0  0  0  0  0  0  0  0  0  0  0  0
  150.6338  140.9624  157.3175 C   0  0  1  0  0  0  0  0  0  0  0  0
  150.5349  139.7805  158.0886 O   0  0  0  0  0  0  0  0  0  0  0  0
  151.3551  142.0765  158.0597 C   0  0  0  0  0  0  0  0  0  0  0  0
  151.4891  143.3586  157.4817 C   0  0  0  0  0  0  0  0  0  0  0  0
  152.1507  144.3870  158.1806 C   0  0  0  0  0  0  0  0  0  0  0  0
  152.6793  144.1413  159.4624 C   0  0  0  0  0  0  0  0  0  0  0  0
  152.5447  142.8667  160.0454 C   0  0  0  0  0  0  0  0  0  0  0  0
  151.8839  141.8376  159.3466 C   0  0  0  0  0  0  0  0  0  0  0  0
  151.5123  136.8663  153.1317 H   0  0  0  0  0  0  0  0  0  0  0  0
  151.3975  136.9199  155.5694 H   0  0  0  0  0  0  0  0  0  0  0  0
  152.5496  138.2251  155.3553 H   0  0  0  0  0  0  0  0  0  0  0  0
  147.0565  138.9143  152.4304 H   0  0  0  0  0  0  0  0  0  0  0  0
  145.9434  141.1307  152.7425 H   0  0  0  0  0  0  0  0  0  0  0  0
  146.9529  142.8671  154.1759 H   0  0  0  0  0  0  0  0  0  0  0  0
  149.1098  142.4672  155.3564 H   0  0  0  0  0  0  0  0  0  0  0  0
  152.2613  140.1419  156.1052 H   0  0  0  0  0  0  0  0  0  0  0  0
  151.5587  141.5989  155.4618 H   0  0  0  0  0  0  0  0  0  0  0  0
  149.6107  141.2894  157.1281 H   0  0  0  0  0  0  0  0  0  0  0  0
  151.1956  139.1738  157.7903 H   0  0  0  0  0  0  0  0  0  0  0  0
  151.0829  143.5588  156.5009 H   0  0  0  0  0  0  0  0  0  0  0  0
  152.2512  145.3654  157.7341 H   0  0  0  0  0  0  0  0  0  0  0  0
  153.1857  144.9304  159.9986 H   0  0  0  0  0  0  0  0  0  0  0  0
  152.9475  142.6785  161.0297 H   0  0  0  0  0  0  0  0  0  0  0  0
  151.7831  140.8646  159.8045 H   0  0  0  0  0  0  0  0  0  0  0  0
  149.4144  137.4839  153.2764 H   0  0  0  0  0  0  0  0  0  0  0  0
  1  2  1  0  0  0  0
  1 21  1  0  0  0  0
  2  3  1  0  0  0  0
  2 22  1  0  0  0  0
  2 23  1  0  0  0  0
  3 11  1  0  0  0  0
  3  4  2  0  0  0  0
  4  5  1  0  0  0  0
  4 37  1  0  0  0  0
  5 10  2  0  0  0  0
  5  6  1  0  0  0  0
  6  7  2  0  0  0  0
  6 24  1  0  0  0  0
  7  8  1  0  0  0  0
  7 25  1  0  0  0  0
  8  9  2  0  0  0  0
  8 26  1  0  0  0  0
  9 10  1  0  0  0  0
  9 27  1  0  0  0  0
 10 11  1  0  0  0  0
 11 12  1  0  0  0  0
 12 13  1  0  0  0  0
 12 28  1  0  0  0  0
 12 29  1  0  0  0  0
 13 14  1  0  0  0  0
 13 15  1  0  0  0  0
 13 30  1  0  0  0  0
 14 31  1  0  0  0  0
 15 20  1  0  0  0  0
 15 16  2  0  0  0  0
 16 17  1  0  0  0  0
 16 32  1  0  0  0  0
 17 18  2  0  0  0  0
 17 33  1  0  0  0  0
 18 19  1  0  0  0  0
 18 34  1  0  0  0  0
 19 20  2  0  0  0  0
 19 35  1  0  0  0  0
 20 36  1  0  0  0  0
M  CHG  1   4   1
M  END
> <s_m_source_file>
AV-unprocessed.smi

> <i_m_source_file_index>
485

> <i_lp_mmshare_version>
43012

> <i_f3d_flags>
0

> <s_epik_input>
W2NIXTFbY0hdW2NIXVtjSF1jKGMxMiluKGMobjIpW0NIMl1bT0hdKVtDSDJdW0NASF0oW09IXSljM1tjSF1bY0hdW2NIXVtjSF1bY0hdMw==

> <s_epik_cmdline>
J2VwaWtfcHl0aG9uJywgJy1waCcsICc3LjAnLCAnLXRuJywgJzgnLCAnLW1hJywgJzIwMCcsICctbWV0YWxfYmluZGluZycsICctaW1hZScsICc8aW5maWxlLm1hZT4nLCAnLW9tYWUnLCAnPG91dGZpbGUubWFlPic=

> <r_epik_Ionization_Penalty>
1.35643

> <r_epik_Ionization_Penalty_Charging>
1.35557

> <r_epik_Ionization_Penalty_Neutral>
0.000857128

> <r_epik_State_Penalty>
1.43401

> <r_epik_Charging_Adjusted_Penalty>
2.78958

> <i_epik_Tot_Q>
1

> <i_epik_Tot_abs_Q>
1

> <r_epik_Metal_State_Penalty>
5.47166

> <b_epik_Metal_Only>
0

> <s_lp_Force_Field>
OPLS_2005

> <r_lp_Energy>
14.7644

> <b_lp_Chiralities_Consistent>
1

> <s_lp_Variant>
AV-unprocessed.smi:485-4

> <Gold.Version>
5.8.1

> <Gold.Id.Protein>
6NUR|6NUR_protein|mol2

> <Gold.PLP.Fitness>
60.0512

> <Gold.PLP.PLP>
-49.1889

> <Gold.PLP.part.hbond>
-3.9064

> <Gold.PLP.part.metal>
0.0000

> <Gold.PLP.part.buried>
2.7474

> <Gold.PLP.part.nonpolar>
-47.3508

> <Gold.PLP.part.repulsive>
0.0576

> <Gold.PLP.ligand.clash>
0.0000

> <Gold.PLP.ligand.torsion>
0.3035

> <Gold.PLP.Chemscore.Hbond>
3.8080

> <Gold.PLP.Chemscore.CHOScore>
0.0000

> <Gold.PLP.Chemscore.Metal>
0.0000

> <Gold.Chemscore.Hbonds>
donor molecule, donor type, donor heavy atom, donor atom, acceptor molecule, acceptor atom, score
      L1  H     1    21       P1  7949  0.78
      L1  H     4    37       P1  7948  2.00
      P1  H 10752 10765       L1     1  1.00

> <Gold.PLP.Chemscore.Internal.Correction>
0.0454

> <Gold.Rescore>
     Score         DG    S(hbond)    S(metal)    S(lipo)     H(rot)  DE(clash)    DE(int)     intcor
     20.28     -21.00       2.16        0.00     129.86       2.70       0.48       0.23       ----

> <Gold.Chemscore.Fitness>
20.2797

> <Gold.Chemscore.DG>
-20.9980

> <Gold.Chemscore.ZeroCoef>
-5.4800

> <Gold.Chemscore.Hbond>
2.1638

> <Gold.Chemscore.Metal>
0.0000

> <Gold.Chemscore.Lipo>
129.8567

> <Gold.Chemscore.Internal_Hbond>
0.0000

> <Gold.Chemscore.DEClash>
0.4838

> <Gold.Chemscore.DEInternal>
0.2345

> <Gold.Chemscore.Rot>
2.6963

> <Gold.Chemscore.Internal.Correction>
   9.000000E+99

> <Gold.Chemscore.Hbonds>
donor molecule, donor type, donor heavy atom, donor atom, acceptor molecule, acceptor atom, score
      L1  H     1    21       P1  7949  0.70
      L1  H     4    37       P1  7948  0.94
      P1  H 10752 10765       L1     1  0.62

> <Gold.Chemscore.Hbond.Weighted>
-7.2272

> <Gold.Chemscore.Metal.Weighted>
-0.0000

> <Gold.Chemscore.Lipo.Weighted>
-15.1932

> <Gold.Chemscore.Internal_Hbond.Weighted>
0.0000

> <Gold.Chemscore.DEClash.Weighted>
0.4838

> <Gold.Chemscore.DEInternal.Weighted>
0.2345

> <Gold.Chemscore.Rot.Weighted>
6.9024

> <Gold.Chemscore.Internal.Correction.Weighted>
   9.000000E+99

> <Gold.Protein.RotatedTorsions>
[ 6907 6896 6895 6894 ] final   77.69 input  -60.11 | X-H torsion
[ 7974 7965 7964 7962 ] final   29.02 input  175.53 | X-H torsion
[ 8008 7997 7996 7995 ] final  -13.07 input   59.86 | X-H torsion
[ 10167 10162 10161 10158 ] final   76.70 input  -65.29 | X-H torsion
[ 10718 10713 10712 10709 ] final   78.54 input   66.30 | X-H torsion
[ 10763 10752 10751 10750 ] final  137.53 input  -60.55 | X-H torsion
[ 11005 11000 10999 10996 ] final -156.52 input  -57.11 | X-H torsion

> <Gold.Protein.ActiveResidues>
 VAL166  LYS551  ARG553  GLY616  TRP617  ASP618  TYR619  PRO620  LYS621  CYS622 
 ASP623  PHE694  ASN695  SER759  ASP760  ASP761  ALA762  ILE779  LEU786  VAL792 
 PHE793  MET794  SER795  GLU796  ALA797  LYS798  CYS799  TRP800  GLU811  SER814 

> <Gold.Protein.RotatedAtoms>
  152.5128  134.3778  159.9340 H   0  0  0  0  0  0  0  0  0  0  0  0  # atno 6907 bound_to 6896
  151.3734  133.3840  159.2710 H   0  0  0  0  0  0  0  0  0  0  0  0  # atno 6908 bound_to 6896
  150.9560  134.8974  159.7760 H   0  0  0  0  0  0  0  0  0  0  0  0  # atno 6909 bound_to 6896
  146.1695  139.6978  142.8977 H   0  0  0  0  0  0  0  0  0  0  0  0  # atno 7974 bound_to 7965
  154.5324  140.2259  155.8782 H   0  0  0  0  0  0  0  0  0  0  0  0  # atno 8008 bound_to 7997
  156.1777  140.3107  155.9053 H   0  0  0  0  0  0  0  0  0  0  0  0  # atno 8009 bound_to 7997
  155.3425  140.0451  157.3035 H   0  0  0  0  0  0  0  0  0  0  0  0  # atno 8010 bound_to 7997
  139.9894  144.5768  150.7831 H   0  0  0  0  0  0  0  0  0  0  0  0  # atno 10167 bound_to 10162
  157.6748  130.9873  150.1801 H   0  0  0  0  0  0  0  0  0  0  0  0  # atno 10718 bound_to 10713
  153.8746  135.3051  155.3443 H   0  0  0  0  0  0  0  0  0  0  0  0  # atno 10763 bound_to 10752
  154.7790  135.4846  153.9807 H   0  0  0  0  0  0  0  0  0  0  0  0  # atno 10764 bound_to 10752
  153.1386  135.6819  153.9159 H   0  0  0  0  0  0  0  0  0  0  0  0  # atno 10765 bound_to 10752
  140.6747  134.4209  157.5230 H   0  0  0  0  0  0  0  0  0  0  0  0  # atno 11005 bound_to 11000
  145.4377  141.0420  143.2875 LP  0  0  0  0  0  0  0  0  0  0  0  0  # atno 17320 bound_to 7965
  144.8142  139.5906  143.7015 LP  0  0  0  0  0  0  0  0  0  0  0  0  # atno 17321 bound_to 7965
  140.7460  143.2884  151.3398 LP  0  0  0  0  0  0  0  0  0  0  0  0  # atno 17342 bound_to 10162
  139.6351  144.0646  152.2509 LP  0  0  0  0  0  0  0  0  0  0  0  0  # atno 17343 bound_to 10162
  156.2535  130.3703  149.8206 LP  0  0  0  0  0  0  0  0  0  0  0  0  # atno 17370 bound_to 10713
  156.5972  130.8531  151.3423 LP  0  0  0  0  0  0  0  0  0  0  0  0  # atno 17371 bound_to 10713
  139.8970  134.8646  156.2062 LP  0  0  0  0  0  0  0  0  0  0  0  0  # atno 17394 bound_to 11000
  141.0364  133.6961  156.1521 LP  0  0  0  0  0  0  0  0  0  0  0  0  # atno 17395 bound_to 11000

$$$$
