AV-unprocessed.smi:1403|AV-procd|sdf|5702|dock5
  -GOLD-   22720 5333D 1   1.00000     0.00000
 Structure written by MMmdl.
 35 36  0  0  0  0  0  0  0  0  2 V2000
  153.9865  141.3726  161.6933 C   0  0  0  0  0  0  0  0  0  0  0  0
  153.5375  141.7367  160.2683 C   0  0  1  0  0  0  0  0  0  0  0  0
  152.3492  140.9667  159.9095 N   0  0  0  0  0  0  0  0  0  0  0  0
  152.2623  140.0956  158.8928 C   0  0  0  0  0  0  0  0  0  0  0  0
  153.1932  139.8608  158.1213 O   0  0  0  0  0  0  0  0  0  0  0  0
  150.9035  139.4078  158.7078 C   0  0  0  0  0  0  0  0  0  0  0  0
  150.2227  139.8196  157.4700 N   0  0  0  0  0  0  0  0  0  0  0  0
  148.9792  140.4652  157.5889 C   0  0  0  0  0  0  0  0  0  0  0  0
  148.2873  140.8783  156.5098 C   0  0  0  0  0  0  0  0  0  0  0  0
  148.8591  140.6402  155.1904 C   0  0  0  0  0  0  0  0  0  0  0  0
  148.2381  141.0045  154.1937 O   0  0  0  0  0  0  0  0  0  0  0  0
  150.0715  140.0157  155.1275 N   0  5  0  0  0  0  0  0  0  0  0  0
  150.7652  139.6030  156.2336 C   0  0  0  0  0  0  0  0  0  0  0  0
  151.8588  139.0420  156.1544 O   0  0  0  0  0  0  0  0  0  0  0  0
  153.2436  143.2425  160.1289 C   0  0  2  0  0  0  0  0  0  0  0  0
  152.1887  143.7835  161.0983 C   0  0  0  0  0  0  0  0  0  0  0  0
  151.5851  144.9694  160.3598 C   0  0  0  0  0  0  0  0  0  0  0  0
  152.1346  144.8450  158.9368 C   0  0  0  0  0  0  0  0  0  0  0  0
  152.6638  143.5297  158.8659 O   0  0  0  0  0  0  0  0  0  0  0  0
  154.8837  141.9235  161.9763 H   0  0  0  0  0  0  0  0  0  0  0  0
  154.2174  140.3101  161.7764 H   0  0  0  0  0  0  0  0  0  0  0  0
  153.2108  141.6019  162.4246 H   0  0  0  0  0  0  0  0  0  0  0  0
  154.3435  141.4857  159.5760 H   0  0  0  0  0  0  0  0  0  0  0  0
  151.5326  141.0954  160.4890 H   0  0  0  0  0  0  0  0  0  0  0  0
  151.0274  138.3233  158.7236 H   0  0  0  0  0  0  0  0  0  0  0  0
  150.2869  139.6378  159.5776 H   0  0  0  0  0  0  0  0  0  0  0  0
  148.6300  140.6083  158.6008 H   0  0  0  0  0  0  0  0  0  0  0  0
  147.3346  141.3756  156.6181 H   0  0  0  0  0  0  0  0  0  0  0  0
  154.1649  143.8197  160.2308 H   0  0  0  0  0  0  0  0  0  0  0  0
  151.4158  143.0339  161.2740 H   0  0  0  0  0  0  0  0  0  0  0  0
  152.6125  144.0588  162.0645 H   0  0  0  0  0  0  0  0  0  0  0  0
  150.4961  144.9126  160.3717 H   0  0  0  0  0  0  0  0  0  0  0  0
  151.8769  145.9198  160.8080 H   0  0  0  0  0  0  0  0  0  0  0  0
  151.3712  145.0072  158.1756 H   0  0  0  0  0  0  0  0  0  0  0  0
  152.9389  145.5636  158.7716 H   0  0  0  0  0  0  0  0  0  0  0  0
  1  2  1  0  0  0  0
  1 20  1  0  0  0  0
  1 21  1  0  0  0  0
  1 22  1  0  0  0  0
  2  3  1  0  0  0  0
  2 15  1  0  0  0  0
  2 23  1  0  0  0  0
  3  4  1  0  0  0  0
  3 24  1  0  0  0  0
  4  5  2  0  0  0  0
  4  6  1  0  0  0  0
  6  7  1  0  0  0  0
  6 25  1  0  0  0  0
  6 26  1  0  0  0  0
  7 13  1  0  0  0  0
  7  8  1  0  0  0  0
  8  9  2  0  0  0  0
  8 27  1  0  0  0  0
  9 10  1  0  0  0  0
  9 28  1  0  0  0  0
 10 11  2  0  0  0  0
 10 12  1  0  0  0  0
 12 13  1  0  0  0  0
 13 14  2  0  0  0  0
 15 19  1  0  0  0  0
 15 16  1  0  0  0  0
 15 29  1  0  0  0  0
 16 17  1  0  0  0  0
 16 30  1  0  0  0  0
 16 31  1  0  0  0  0
 17 18  1  0  0  0  0
 17 32  1  0  0  0  0
 17 33  1  0  0  0  0
 18 19  1  0  0  0  0
 18 34  1  0  0  0  0
 18 35  1  0  0  0  0
M  CHG  1  12  -1
M  END
> <s_m_source_file>
AV-unprocessed.smi

> <i_m_source_file_index>
1403

> <i_lp_mmshare_version>
43012

> <i_f3d_flags>
0

> <s_epik_input>
TzFbQ0gyXVtDSDJdW0NIMl1bQ0BIXTFbQ0BIXShbQ0gzXSlbTkhdQyg9TylbQ0gyXW4yW2NIXVtjSF1jKD1PKVtuSF1jMj1P

> <s_epik_cmdline>
J2VwaWtfcHl0aG9uJywgJy1waCcsICc3LjAnLCAnLXRuJywgJzgnLCAnLW1hJywgJzIwMCcsICctbWV0YWxfYmluZGluZycsICctaW1hZScsICc8aW5maWxlLm1hZT4nLCAnLW9tYWUnLCAnPG91dGZpbGUubWFlPic=

> <r_lp_tautomer_probability>
0.999537

> <r_epik_Ionization_Penalty>
3.07438

> <r_epik_Ionization_Penalty_Charging>
2.82466e-08

> <r_epik_Ionization_Penalty_Neutral>
3.07438

> <r_epik_State_Penalty>
3.07341

> <r_epik_Charging_Adjusted_Penalty>
3.07341

> <i_epik_Tot_Q>
-1

> <i_epik_Tot_abs_Q>
1

> <r_epik_Metal_State_Penalty>
0.45947

> <b_epik_Metal_Only>
1

> <s_lp_Force_Field>
OPLS_2005

> <r_lp_Energy>
26.8934

> <b_lp_Chiralities_Consistent>
1

> <s_lp_Variant>
AV-unprocessed.smi:1403-6

> <Gold.Version>
5.8.1

> <Gold.Id.Protein>
6NUR|6NUR_protein|mol2

> <Gold.PLP.Fitness>
47.7133

> <Gold.PLP.PLP>
-39.8422

> <Gold.PLP.part.hbond>
-3.0000

> <Gold.PLP.part.metal>
0.0000

> <Gold.PLP.part.buried>
-5.1636

> <Gold.PLP.part.nonpolar>
-32.4068

> <Gold.PLP.part.repulsive>
1.3882

> <Gold.PLP.ligand.clash>
0.0000

> <Gold.PLP.ligand.torsion>
0.1023

> <Gold.PLP.Chemscore.Hbond>
2.6800

> <Gold.PLP.Chemscore.CHOScore>
0.0000

> <Gold.PLP.Chemscore.Metal>
0.0000

> <Gold.Chemscore.Hbonds>
donor molecule, donor type, donor heavy atom, donor atom, acceptor molecule, acceptor atom, score
      P1  H  7989  7998       L1    12  0.05
      P1  H  7997  8009       L1     5  0.96

> <Gold.PLP.Chemscore.Internal.Correction>
0.0356

> <Gold.Rescore>
     Score         DG    S(hbond)    S(metal)    S(lipo)     H(rot)  DE(clash)    DE(int)     intcor
     14.56     -16.73       2.07        0.00      80.75       1.99       0.52       1.66       ----

> <Gold.Chemscore.Fitness>
14.5578

> <Gold.Chemscore.DG>
-16.7335

> <Gold.Chemscore.ZeroCoef>
-5.4800

> <Gold.Chemscore.Hbond>
2.0690

> <Gold.Chemscore.Metal>
0.0000

> <Gold.Chemscore.Lipo>
80.7504

> <Gold.Chemscore.Internal_Hbond>
0.0000

> <Gold.Chemscore.DEClash>
0.5187

> <Gold.Chemscore.DEInternal>
1.6570

> <Gold.Chemscore.Rot>
1.9940

> <Gold.Chemscore.Internal.Correction>
   9.000000E+99

> <Gold.Chemscore.Hbonds>
donor molecule, donor type, donor heavy atom, donor atom, acceptor molecule, acceptor atom, score
      P1  H  7989  7998       L1    12  0.06
      P1  H  7997  8009       L1     5  0.92

> <Gold.Chemscore.Hbond.Weighted>
-6.9104

> <Gold.Chemscore.Metal.Weighted>
-0.0000

> <Gold.Chemscore.Lipo.Weighted>
-9.4478

> <Gold.Chemscore.Internal_Hbond.Weighted>
0.0000

> <Gold.Chemscore.DEClash.Weighted>
0.5187

> <Gold.Chemscore.DEInternal.Weighted>
1.6570

> <Gold.Chemscore.Rot.Weighted>
5.1047

> <Gold.Chemscore.Internal.Correction.Weighted>
   9.000000E+99

> <Gold.Protein.RotatedTorsions>
[ 6907 6896 6895 6894 ] final   61.53 input  -60.11 | X-H torsion
[ 7974 7965 7964 7962 ] final    2.83 input  175.53 | X-H torsion
[ 8008 7997 7996 7995 ] final  173.38 input   59.86 | X-H torsion
[ 10167 10162 10161 10158 ] final   88.56 input  -65.29 | X-H torsion
[ 10718 10713 10712 10709 ] final -159.29 input   66.30 | X-H torsion
[ 10763 10752 10751 10750 ] final   -6.91 input  -60.55 | X-H torsion
[ 11005 11000 10999 10996 ] final   34.30 input  -57.11 | X-H torsion

> <Gold.Protein.ActiveResidues>
 VAL166  LYS551  ARG553  GLY616  TRP617  ASP618  TYR619  PRO620  LYS621  CYS622 
 ASP623  PHE694  ASN695  SER759  ASP760  ASP761  ALA762  ILE779  LEU786  VAL792 
 PHE793  MET794  SER795  GLU796  ALA797  LYS798  CYS799  TRP800  GLU811  SER814 

> <Gold.Protein.RotatedAtoms>
  152.4097  134.6146  160.0034 H   0  0  0  0  0  0  0  0  0  0  0  0  # atno 6907 bound_to 6896
  151.6327  133.3325  159.3120 H   0  0  0  0  0  0  0  0  0  0  0  0  # atno 6908 bound_to 6896
  150.7988  134.7108  159.6648 H   0  0  0  0  0  0  0  0  0  0  0  0  # atno 6909 bound_to 6896
  146.2444  140.0777  142.8359 H   0  0  0  0  0  0  0  0  0  0  0  0  # atno 7974 bound_to 7965
  156.1081  140.1461  156.9376 H   0  0  0  0  0  0  0  0  0  0  0  0  # atno 8008 bound_to 7997
  154.4748  140.0898  156.7278 H   0  0  0  0  0  0  0  0  0  0  0  0  # atno 8009 bound_to 7997
  155.4644  140.3439  155.4319 H   0  0  0  0  0  0  0  0  0  0  0  0  # atno 8010 bound_to 7997
  139.8660  144.6518  150.9003 H   0  0  0  0  0  0  0  0  0  0  0  0  # atno 10167 bound_to 10162
  156.5660  130.8668  151.2824 H   0  0  0  0  0  0  0  0  0  0  0  0  # atno 10718 bound_to 10713
  153.4190  135.7009  153.6307 H   0  0  0  0  0  0  0  0  0  0  0  0  # atno 10763 bound_to 10752
  153.4769  135.3702  155.2422 H   0  0  0  0  0  0  0  0  0  0  0  0  # atno 10764 bound_to 10752
  154.8721  135.4056  154.3555 H   0  0  0  0  0  0  0  0  0  0  0  0  # atno 10765 bound_to 10752
  140.2543  134.3266  155.7879 H   0  0  0  0  0  0  0  0  0  0  0  0  # atno 11005 bound_to 11000
  145.0760  140.9188  143.4853 LP  0  0  0  0  0  0  0  0  0  0  0  0  # atno 17320 bound_to 7965
  145.0920  139.2883  143.5730 LP  0  0  0  0  0  0  0  0  0  0  0  0  # atno 17321 bound_to 7965
  140.7768  143.3704  151.1661 LP  0  0  0  0  0  0  0  0  0  0  0  0  # atno 17342 bound_to 10162
  139.7328  143.9045  152.3025 LP  0  0  0  0  0  0  0  0  0  0  0  0  # atno 17343 bound_to 10162
  157.7358  130.9769  150.2104 LP  0  0  0  0  0  0  0  0  0  0  0  0  # atno 17370 bound_to 10713
  156.2757  130.3727  149.7986 LP  0  0  0  0  0  0  0  0  0  0  0  0  # atno 17371 bound_to 10713
  141.2198  133.7372  156.9086 LP  0  0  0  0  0  0  0  0  0  0  0  0  # atno 17394 bound_to 11000
  140.1527  134.9219  157.2613 LP  0  0  0  0  0  0  0  0  0  0  0  0  # atno 17395 bound_to 11000

$$$$
