#       Name:                AV-unprocessed.smi:1383
#       Creating user name   scv26
#       Creation time:       Fri Mar 27 05:23:54 2020


#       File generated by GOLD software.
#

@<TRIPOS>MOLECULE
AV-unprocessed.smi:1383
    36    36     1
SMALL
NO_CHARGES


@<TRIPOS>ATOM
      1 ****        -2.6814  -1.4633   1.7468 C.3            1 S1                 0.0000
      2 ****        -3.4600  -1.2613   0.4373 C.3            1 S1                 0.0000
      3 ****        -2.9691  -0.0699  -0.4158 C.3            1 S1                 0.0000
      4 ****        -3.9011   0.1767  -1.6146 C.3            1 S1                 0.0000
      5 ****        -1.5225  -0.2710  -0.9070 C.2            1 S1                 0.0000
      6 ****        -1.2538  -1.2504  -1.6055 O.2            1 S1                 0.0000
      7 ****        -0.6950   0.7124  -0.4773 N.pl3          1 S1                -1.0000
      8 ****         0.6063   0.6716  -0.8018 C.2            1 S1                 0.0000
      9 ****         1.5488   0.2115   0.0280 N.2            1 S1                 0.0000
     10 ****         2.8409   0.2700  -0.5030 C.2            1 S1                 0.0000
     11 ****         4.0079  -0.2136   0.3089 C.3            1 S1                 0.0000
     12 ****         4.6942   0.9553   1.0201 C.2            1 S1                 0.0000
     13 ****         3.9989   1.5887   1.9691 N.am           1 S1                 0.0000
     14 ****         5.8440   1.2756   0.7252 O.2            1 S1                 0.0000
     15 ****         2.8756   0.7885  -1.7721 C.2            1 S1                 0.0000
     16 ****         1.2874   1.2282  -2.3318 S.3            1 S1                 0.0000
     17 ****        -3.1109  -2.2784   2.3293 H              1 S1                 0.0000
     18 ****        -2.7092  -0.5638   2.3623 H              1 S1                 0.0000
     19 ****        -1.6357  -1.7093   1.5605 H              1 S1                 0.0000
     20 ****        -3.4249  -2.1810  -0.1485 H              1 S1                 0.0000
     21 ****        -4.5106  -1.1080   0.6856 H              1 S1                 0.0000
     22 ****        -3.0217   0.8222   0.2125 H              1 S1                 0.0000
     23 ****        -3.5514   1.0119  -2.2228 H              1 S1                 0.0000
     24 ****        -4.9105   0.4179  -1.2805 H              1 S1                 0.0000
     25 ****        -3.9669  -0.7009  -2.2588 H              1 S1                 0.0000
     26 ****         3.6895  -0.9447   1.0531 H              1 S1                 0.0000
     27 ****         4.7310  -0.7216  -0.3303 H              1 S1                 0.0000
     28 ****         4.4240   2.3525   2.4757 H              1 S1                 0.0000
     29 ****         3.0605   1.2898   2.1902 H              1 S1                 0.0000
     30 ****         3.7352   0.9429  -2.4067 H              1 S1                 0.0000
     31 ****        -1.9711  -1.9039  -1.8475 LP             1 S1                 0.0000
     32 ****        -0.3186  -1.3915  -1.9302 LP             1 S1                 0.0000
     33 ****        -1.0519   1.4635   0.0780 LP             1 S1                 0.0000
     34 ****         1.3483  -0.1411   0.9421 LP             1 S1                 0.0000
     35 ****         6.3373   0.7713   0.0164 LP             1 S1                 0.0000
     36 ****         6.2859   2.0403   1.1941 LP             1 S1                 0.0000
@<TRIPOS>BOND
    1    1    2 1     
    2    1   17 1     
    3    1   18 1     
    4    1   19 1     
    5    2    3 1     
    6    2   20 1     
    7    2   21 1     
    8    3    4 1     
    9    3    5 1     
   10    3   22 1     
   11    4   23 1     
   12    4   24 1     
   13    4   25 1     
   14    5    6 2     
   15    5    7 1     
   16    7    8 1     
   17    8   16 1     
   18    8    9 2     
   19    9   10 1     
   20   10   11 1     
   21   10   15 2     
   22   11   12 1     
   23   11   26 1     
   24   11   27 1     
   25   12   13 am    
   26   12   14 2     
   27   13   28 1     
   28   13   29 1     
   29   15   16 1     
   30   15   30 1     
   31    6   31 1     
   32    6   32 1     
   33    7   33 1     
   34    9   34 1     
   35   14   35 1     
   36   14   36 1     
@<TRIPOS>SUBSTRUCTURE
      1 S1             1
@<TRIPOS>SET
LONE_PAIRS      STATIC     ATOMS    <user>   **** ""
6 31 32 33 34 35 36
DONOR_HYDROGENS      STATIC     ATOMS    <user>   **** ""
2 28 29
ATOM$BLUE        STATIC     ATOMS    COLORGROUP SYSTEM
6 31 32 33 34 35 36
ATOM$RED        STATIC     ATOMS    COLORGROUP SYSTEM
2 28 29
