AV-unprocessed.smi:663|AV-procd|sdf|3250|dock6
  -GOLD-   22720 0203D 1   1.00000     0.00000
 Structure written by MMmdl.
 29 30  0  0  0  0  0  0  0  0  2 V2000
  149.3134  138.6436  153.2163 N   0  0  0  0  0  0  0  0  0  0  0  0
  149.7511  138.7707  154.4714 C   0  0  0  0  0  0  0  0  0  0  0  0
  149.6849  137.8523  155.2857 O   0  0  0  0  0  0  0  0  0  0  0  0
  150.3390  140.1283  154.8744 C   0  0  0  0  0  0  0  0  0  0  0  0
  149.2781  141.1607  155.3221 C   0  0  1  0  0  0  0  0  0  0  0  0
  149.9091  142.2392  156.0864 N   0  0  0  0  0  0  0  0  0  0  0  0
  150.7236  142.1130  157.1451 C   0  0  0  0  0  0  0  0  0  0  0  0
  151.0070  140.9949  157.5809 O   0  0  0  0  0  0  0  0  0  0  0  0
  151.1702  143.2952  157.6272 N   0  5  0  0  0  0  0  0  0  0  0  0
  151.3473  143.4551  158.9489 C   0  0  0  0  0  0  0  0  0  0  0  0
  151.2162  142.4427  159.8214 N   0  0  0  0  0  0  0  0  0  0  0  0
  151.4414  142.8240  161.1373 N   0  0  0  0  0  0  0  0  0  0  0  0
  151.7309  144.1220  161.2243 C   0  0  0  0  0  0  0  0  0  0  0  0
  151.7470  144.9984  159.7085 S   0  0  0  0  0  0  0  0  0  0  0  0
  148.5130  141.6910  154.1235 C   0  0  0  0  0  0  0  0  0  0  0  0
  147.1186  142.2500  154.2737 C   0  0  0  0  0  0  0  0  0  0  0  0
  147.3346  140.9366  153.5554 C   0  0  0  0  0  0  0  0  0  0  0  0
  148.9444  137.7578  152.9030 H   0  0  0  0  0  0  0  0  0  0  0  0
  149.3780  139.4235  152.5785 H   0  0  0  0  0  0  0  0  0  0  0  0
  151.0838  139.9944  155.6606 H   0  0  0  0  0  0  0  0  0  0  0  0
  150.8795  140.5131  154.0090 H   0  0  0  0  0  0  0  0  0  0  0  0
  148.5492  140.6452  155.9506 H   0  0  0  0  0  0  0  0  0  0  0  0
  149.7125  143.1799  155.7779 H   0  0  0  0  0  0  0  0  0  0  0  0
  151.9320  144.5673  162.1871 H   0  0  0  0  0  0  0  0  0  0  0  0
  149.1455  142.1902  153.3914 H   0  0  0  0  0  0  0  0  0  0  0  0
  146.6632  142.2146  155.2616 H   0  0  0  0  0  0  0  0  0  0  0  0
  146.8587  143.1180  153.6713 H   0  0  0  0  0  0  0  0  0  0  0  0
  147.2190  140.9284  152.4736 H   0  0  0  0  0  0  0  0  0  0  0  0
  147.0199  140.0283  154.0656 H   0  0  0  0  0  0  0  0  0  0  0  0
  1  2  1  0  0  0  0
  1 18  1  0  0  0  0
  1 19  1  0  0  0  0
  2  3  2  0  0  0  0
  2  4  1  0  0  0  0
  4  5  1  0  0  0  0
  4 20  1  0  0  0  0
  4 21  1  0  0  0  0
  5  6  1  0  0  0  0
  5 15  1  0  0  0  0
  5 22  1  0  0  0  0
  6  7  1  0  0  0  0
  6 23  1  0  0  0  0
  7  8  2  0  0  0  0
  7  9  1  0  0  0  0
  9 10  1  0  0  0  0
 10 14  1  0  0  0  0
 10 11  2  0  0  0  0
 11 12  1  0  0  0  0
 12 13  2  0  0  0  0
 13 14  1  0  0  0  0
 13 24  1  0  0  0  0
 15 17  1  0  0  0  0
 15 16  1  0  0  0  0
 15 25  1  0  0  0  0
 16 17  1  0  0  0  0
 16 26  1  0  0  0  0
 16 27  1  0  0  0  0
 17 28  1  0  0  0  0
 17 29  1  0  0  0  0
M  CHG  1   9  -1
M  END
> <s_m_source_file>
AV-unprocessed.smi

> <i_m_source_file_index>
663

> <i_lp_mmshare_version>
43012

> <i_f3d_flags>
0

> <s_epik_input>
W05IMl1DKD1PKVtDSDJdW0NAQEhdKFtDSF0xW0NIMl1bQ0gyXTEpW05IXUMoPU8pW05IXWMybm5bY0hdczI=

> <s_epik_cmdline>
J2VwaWtfcHl0aG9uJywgJy1waCcsICc3LjAnLCAnLXRuJywgJzgnLCAnLW1hJywgJzIwMCcsICctbWV0YWxfYmluZGluZycsICctaW1hZScsICc8aW5maWxlLm1hZT4nLCAnLW9tYWUnLCAnPG91dGZpbGUubWFlPic=

> <r_lp_tautomer_probability>
1

> <r_epik_Ionization_Penalty>
4.41895

> <r_epik_Ionization_Penalty_Charging>
4.37725

> <r_epik_Ionization_Penalty_Neutral>
0.0416999

> <r_epik_State_Penalty>
4.37688

> <r_epik_Charging_Adjusted_Penalty>
8.75413

> <i_epik_Tot_Q>
-1

> <i_epik_Tot_abs_Q>
1

> <r_epik_Metal_State_Penalty>
0.761195

> <b_epik_Metal_Only>
1

> <s_lp_Force_Field>
OPLS_2005

> <r_lp_Energy>
7.27665

> <b_lp_Chiralities_Consistent>
1

> <s_lp_Variant>
AV-unprocessed.smi:663-4

> <Gold.Version>
5.8.1

> <Gold.Id.Protein>
6NUR|6NUR_protein|mol2

> <Gold.PLP.Fitness>
44.9778

> <Gold.PLP.PLP>
-36.8345

> <Gold.PLP.part.hbond>
-4.6734

> <Gold.PLP.part.metal>
0.0000

> <Gold.PLP.part.buried>
-3.4613

> <Gold.PLP.part.nonpolar>
-29.1093

> <Gold.PLP.part.repulsive>
0.5516

> <Gold.PLP.ligand.clash>
0.0000

> <Gold.PLP.ligand.torsion>
1.3162

> <Gold.PLP.Chemscore.Hbond>
3.2153

> <Gold.PLP.Chemscore.CHOScore>
0.0000

> <Gold.PLP.Chemscore.Metal>
0.0000

> <Gold.Chemscore.Hbonds>
donor molecule, donor type, donor heavy atom, donor atom, acceptor molecule, acceptor atom, score
      L1  H     1    18       P1  7948  1.00
      L1  H     1    19       P1  7957  1.00
      L1  H     6    23       P1  8028  1.00
      P1  H  6933  6945       L1    12  0.33

> <Gold.PLP.Chemscore.Internal.Correction>
1.1299

> <Gold.Rescore>
     Score         DG    S(hbond)    S(metal)    S(lipo)     H(rot)  DE(clash)    DE(int)     intcor
     10.33     -15.72       2.89        0.00      59.50       2.49       1.27       4.13       ----

> <Gold.Chemscore.Fitness>
10.3254

> <Gold.Chemscore.DG>
-15.7249

> <Gold.Chemscore.ZeroCoef>
-5.4800

> <Gold.Chemscore.Hbond>
2.8887

> <Gold.Chemscore.Metal>
0.0000

> <Gold.Chemscore.Lipo>
59.5003

> <Gold.Chemscore.Internal_Hbond>
0.0000

> <Gold.Chemscore.DEClash>
1.2655

> <Gold.Chemscore.DEInternal>
4.1339

> <Gold.Chemscore.Rot>
2.4863

> <Gold.Chemscore.Internal.Correction>
   9.000000E+99

> <Gold.Chemscore.Hbonds>
donor molecule, donor type, donor heavy atom, donor atom, acceptor molecule, acceptor atom, score
      L1  H     1    18       P1  7948  0.96
      L1  H     1    19       P1  7957  0.92
      L1  H     6    23       P1  8028  0.99
      P1  H  6933  6945       L1    12  0.13

> <Gold.Chemscore.Hbond.Weighted>
-9.6482

> <Gold.Chemscore.Metal.Weighted>
-0.0000

> <Gold.Chemscore.Lipo.Weighted>
-6.9615

> <Gold.Chemscore.Internal_Hbond.Weighted>
0.0000

> <Gold.Chemscore.DEClash.Weighted>
1.2655

> <Gold.Chemscore.DEInternal.Weighted>
4.1339

> <Gold.Chemscore.Rot.Weighted>
6.3648

> <Gold.Chemscore.Internal.Correction.Weighted>
   9.000000E+99

> <Gold.Protein.RotatedTorsions>
[ 6907 6896 6895 6894 ] final  -78.75 input  -60.11 | X-H torsion
[ 7974 7965 7964 7962 ] final   64.31 input  175.53 | X-H torsion
[ 8008 7997 7996 7995 ] final  -82.27 input   59.86 | X-H torsion
[ 10167 10162 10161 10158 ] final   55.34 input  -65.29 | X-H torsion
[ 10718 10713 10712 10709 ] final -137.34 input   66.30 | X-H torsion
[ 10763 10752 10751 10750 ] final  -30.46 input  -60.55 | X-H torsion
[ 11005 11000 10999 10996 ] final -150.57 input  -57.11 | X-H torsion

> <Gold.Protein.ActiveResidues>
 VAL166  LYS551  ARG553  GLY616  TRP617  ASP618  TYR619  PRO620  LYS621  CYS622 
 ASP623  PHE694  ASN695  SER759  ASP760  ASP761  ALA762  ILE779  LEU786  VAL792 
 PHE793  MET794  SER795  GLU796  ALA797  LYS798  CYS799  TRP800  GLU811  SER814 

> <Gold.Protein.RotatedAtoms>
  150.6965  134.4225  159.5210 H   0  0  0  0  0  0  0  0  0  0  0  0  # atno 6907 bound_to 6896
  152.1965  134.8623  160.0521 H   0  0  0  0  0  0  0  0  0  0  0  0  # atno 6908 bound_to 6896
  151.9559  133.3645  159.4054 H   0  0  0  0  0  0  0  0  0  0  0  0  # atno 6909 bound_to 6896
  145.8517  139.3258  143.0871 H   0  0  0  0  0  0  0  0  0  0  0  0  # atno 7974 bound_to 7965
  154.6069  140.0635  156.9443 H   0  0  0  0  0  0  0  0  0  0  0  0  # atno 8008 bound_to 7997
  155.2038  140.3317  155.4321 H   0  0  0  0  0  0  0  0  0  0  0  0  # atno 8009 bound_to 7997
  156.2353  140.1860  156.7119 H   0  0  0  0  0  0  0  0  0  0  0  0  # atno 8010 bound_to 7997
  140.2205  144.3794  150.6452 H   0  0  0  0  0  0  0  0  0  0  0  0  # atno 10167 bound_to 10162
  156.2870  130.7353  151.1368 H   0  0  0  0  0  0  0  0  0  0  0  0  # atno 10718 bound_to 10713
  153.7814  135.6905  153.4888 H   0  0  0  0  0  0  0  0  0  0  0  0  # atno 10763 bound_to 10752
  153.1809  135.4507  155.0025 H   0  0  0  0  0  0  0  0  0  0  0  0  # atno 10764 bound_to 10752
  154.8080  135.3365  154.7316 H   0  0  0  0  0  0  0  0  0  0  0  0  # atno 10765 bound_to 10752
  140.7388  134.3538  157.5152 H   0  0  0  0  0  0  0  0  0  0  0  0  # atno 11005 bound_to 11000
  145.9350  140.9021  143.0337 LP  0  0  0  0  0  0  0  0  0  0  0  0  # atno 17320 bound_to 7965
  144.6729  140.1470  143.7433 LP  0  0  0  0  0  0  0  0  0  0  0  0  # atno 17321 bound_to 7965
  140.6258  143.2181  151.6599 LP  0  0  0  0  0  0  0  0  0  0  0  0  # atno 17342 bound_to 10162
  139.5146  144.3405  152.0744 LP  0  0  0  0  0  0  0  0  0  0  0  0  # atno 17343 bound_to 10162
  157.7331  131.0593  150.5592 LP  0  0  0  0  0  0  0  0  0  0  0  0  # atno 17370 bound_to 10713
  156.5704  130.4278  149.6022 LP  0  0  0  0  0  0  0  0  0  0  0  0  # atno 17371 bound_to 10713
  139.8810  134.9067  156.2928 LP  0  0  0  0  0  0  0  0  0  0  0  0  # atno 17394 bound_to 11000
  140.9855  133.7240  156.0736 LP  0  0  0  0  0  0  0  0  0  0  0  0  # atno 17395 bound_to 11000

$$$$
