AV-unprocessed.smi:199|AV-procd|sdf|1568|dock6
  -GOLD-   2262019443D 1   1.00000     0.00000
 Structure written by MMmdl.
 51 55  0  0  0  0  0  0  0  0  1 V2000
  153.0448  137.4985  157.1253 C   0  0  0  0  0  0  0  0  0  0  0  0
  152.7392  137.9394  155.6853 C   0  0  2  0  0  0  0  0  0  0  0  0
  152.5989  139.3576  155.6834 O   0  0  0  0  0  0  0  0  0  0  0  0
  151.7037  139.7245  154.6488 C   0  0  0  0  0  0  0  0  0  0  0  0
  150.6312  138.6511  154.7529 C   0  0  0  0  0  0  0  0  0  0  0  0
  151.4357  137.3858  155.0416 C   0  0  1  0  0  0  0  0  0  0  0  0
  151.7879  136.8027  153.7976 O   0  0  0  0  0  0  0  0  0  0  0  0
  150.6534  136.3272  155.8636 C   0  0  0  0  0  0  0  0  0  0  0  0
  149.4416  135.8626  155.2042 N   0  0  0  0  0  0  0  0  0  0  0  0
  148.3017  136.5951  154.9651 C   0  0  0  0  0  0  0  0  0  0  0  0
  147.3420  135.9483  154.3636 N   0  0  0  0  0  0  0  0  0  0  0  0
  147.8594  134.6746  154.1570 C   0  0  0  0  0  0  0  0  0  0  0  0
  147.3601  133.4759  153.5680 C   0  0  0  0  0  0  0  0  0  0  0  0
  146.1147  133.3522  153.0311 N   0  0  0  0  0  0  0  0  0  0  0  0
  145.2962  134.5277  152.7710 C   0  0  1  0  0  0  0  0  0  0  0  0
  145.9426  135.1612  151.5239 C   0  0  0  0  0  0  0  0  0  0  0  0
  146.4017  133.9111  150.7584 C   0  0  0  0  0  0  0  0  0  0  0  0
  145.9265  132.7825  151.7034 C   0  0  2  0  0  0  0  0  0  0  0  0
  144.3918  132.6179  151.6635 C   0  0  2  0  0  0  0  0  0  0  0  0
  143.7649  132.3657  150.2797 C   0  0  0  0  0  0  0  0  0  0  0  0
  143.6287  133.5866  149.5841 O   0  0  0  0  0  0  0  0  0  0  0  0
  143.9434  133.9117  152.3691 C   0  0  0  0  0  0  0  0  0  0  0  0
  148.1789  132.3902  153.5818 N   0  0  0  0  0  0  0  0  0  0  0  0
  149.4055  132.4700  154.1036 C   0  0  0  0  0  0  0  0  0  0  0  0
  150.0037  133.5189  154.6687 N   0  0  0  0  0  0  0  0  0  0  0  0
  149.1828  134.6074  154.6817 C   0  0  0  0  0  0  0  0  0  0  0  0
  153.1703  136.4178  157.1933 H   0  0  0  0  0  0  0  0  0  0  0  0
  152.2525  137.7962  157.8125 H   0  0  0  0  0  0  0  0  0  0  0  0
  153.9697  137.9560  157.4774 H   0  0  0  0  0  0  0  0  0  0  0  0
  153.6029  137.6963  155.0631 H   0  0  0  0  0  0  0  0  0  0  0  0
  151.3108  140.7310  154.7931 H   0  0  0  0  0  0  0  0  0  0  0  0
  152.2123  139.6831  153.6844 H   0  0  0  0  0  0  0  0  0  0  0  0
  149.9879  138.8886  155.6008 H   0  0  0  0  0  0  0  0  0  0  0  0
  149.9997  138.5832  153.8658 H   0  0  0  0  0  0  0  0  0  0  0  0
  151.0547  136.8888  153.2078 H   0  0  0  0  0  0  0  0  0  0  0  0
  151.2828  135.4593  156.0647 H   0  0  0  0  0  0  0  0  0  0  0  0
  150.3674  136.7322  156.8346 H   0  0  0  0  0  0  0  0  0  0  0  0
  148.2003  137.6289  155.2614 H   0  0  0  0  0  0  0  0  0  0  0  0
  145.1905  135.2263  153.5988 H   0  0  0  0  0  0  0  0  0  0  0  0
  145.2458  135.7766  150.9537 H   0  0  0  0  0  0  0  0  0  0  0  0
  146.7974  135.7811  151.7973 H   0  0  0  0  0  0  0  0  0  0  0  0
  145.9901  133.8472  149.7524 H   0  0  0  0  0  0  0  0  0  0  0  0
  147.4883  133.9056  150.6631 H   0  0  0  0  0  0  0  0  0  0  0  0
  146.4442  131.8367  151.5389 H   0  0  0  0  0  0  0  0  0  0  0  0
  144.1437  131.7704  152.3059 H   0  0  0  0  0  0  0  0  0  0  0  0
  144.3709  131.6886  149.6780 H   0  0  0  0  0  0  0  0  0  0  0  0
  142.7775  131.9163  150.3882 H   0  0  0  0  0  0  0  0  0  0  0  0
  142.7099  133.8007  149.5288 H   0  0  0  0  0  0  0  0  0  0  0  0
  143.3419  133.6769  153.2480 H   0  0  0  0  0  0  0  0  0  0  0  0
  143.3584  134.5749  151.7306 H   0  0  0  0  0  0  0  0  0  0  0  0
  149.9901  131.5628  154.0644 H   0  0  0  0  0  0  0  0  0  0  0  0
  1  2  1  0  0  0  0
  1 27  1  0  0  0  0
  1 28  1  0  0  0  0
  1 29  1  0  0  0  0
  2  6  1  0  0  0  0
  2  3  1  0  0  0  0
  2 30  1  0  0  0  0
  3  4  1  0  0  0  0
  4  5  1  0  0  0  0
  4 31  1  0  0  0  0
  4 32  1  0  0  0  0
  5  6  1  0  0  0  0
  5 33  1  0  0  0  0
  5 34  1  0  0  0  0
  6  7  1  0  0  0  0
  6  8  1  0  0  0  0
  7 35  1  0  0  0  0
  8  9  1  0  0  0  0
  8 36  1  0  0  0  0
  8 37  1  0  0  0  0
  9 26  1  0  0  0  0
  9 10  1  0  0  0  0
 10 11  2  0  0  0  0
 10 38  1  0  0  0  0
 11 12  1  0  0  0  0
 12 26  2  0  0  0  0
 12 13  1  0  0  0  0
 13 14  1  0  0  0  0
 13 23  2  0  0  0  0
 14 18  1  0  0  0  0
 14 15  1  0  0  0  0
 15 22  1  0  0  0  0
 15 16  1  0  0  0  0
 15 39  1  0  0  0  0
 16 17  1  0  0  0  0
 16 40  1  0  0  0  0
 16 41  1  0  0  0  0
 17 18  1  0  0  0  0
 17 42  1  0  0  0  0
 17 43  1  0  0  0  0
 18 19  1  0  0  0  0
 18 44  1  0  0  0  0
 19 20  1  0  0  0  0
 19 22  1  0  0  0  0
 19 45  1  0  0  0  0
 20 21  1  0  0  0  0
 20 46  1  0  0  0  0
 20 47  1  0  0  0  0
 21 48  1  0  0  0  0
 22 49  1  0  0  0  0
 22 50  1  0  0  0  0
 23 24  1  0  0  0  0
 24 25  2  0  0  0  0
 24 51  1  0  0  0  0
 25 26  1  0  0  0  0
M  END
> <s_m_source_file>
AV-unprocessed.smi

> <i_m_source_file_index>
199

> <i_lp_mmshare_version>
43012

> <i_f3d_flags>
0

> <s_epik_input>
W0NIMl0xW0NIMl1PW0NAQEhdKFtDSDNdKVtDQEBdMShbT0hdKVtDSDJdbihbY0hdbjIpYyhjMjMpbltjSF1uYzNOKFtDQEBIXTQ1KVtDQEhdKFtDSDJdW0NIMl00KVtDQEhdKFtDSDJdNSlbQ0gyXVtPSF0=

> <s_epik_cmdline>
J2VwaWtfcHl0aG9uJywgJy1waCcsICc3LjAnLCAnLXRuJywgJzgnLCAnLW1hJywgJzIwMCcsICctbWV0YWxfYmluZGluZycsICctaW1hZScsICc8aW5maWxlLm1hZT4nLCAnLW9tYWUnLCAnPG91dGZpbGUubWFlPic=

> <r_lp_tautomer_probability>
1

> <r_epik_Ionization_Penalty>
0.00583903

> <r_epik_Ionization_Penalty_Charging>
0

> <r_epik_Ionization_Penalty_Neutral>
0.00583903

> <r_epik_State_Penalty>
-0

> <r_epik_Charging_Adjusted_Penalty>
0

> <i_epik_Tot_Q>
0

> <i_epik_Tot_abs_Q>
0

> <r_epik_Metal_State_Penalty>
-0

> <b_epik_Metal_Only>
0

> <s_lp_Force_Field>
OPLS_2005

> <r_lp_Energy>
83.953

> <b_lp_Chiralities_Consistent>
1

> <s_lp_Variant>
AV-unprocessed.smi:199-9

> <Gold.Version>
5.8.1

> <Gold.Id.Protein>
6NUR|6NUR_protein|mol2

> <Gold.PLP.Fitness>
45.4305

> <Gold.PLP.PLP>
-36.4088

> <Gold.PLP.part.hbond>
-3.9599

> <Gold.PLP.part.metal>
0.0000

> <Gold.PLP.part.buried>
-2.0140

> <Gold.PLP.part.nonpolar>
-29.8436

> <Gold.PLP.part.repulsive>
0.8863

> <Gold.PLP.ligand.clash>
0.0000

> <Gold.PLP.ligand.torsion>
0.5022

> <Gold.PLP.Chemscore.Hbond>
3.3381

> <Gold.PLP.Chemscore.CHOScore>
0.0000

> <Gold.PLP.Chemscore.Metal>
0.0000

> <Gold.Chemscore.Hbonds>
donor molecule, donor type, donor heavy atom, donor atom, acceptor molecule, acceptor atom, score
      L1  H     7    35       P1  7949  0.35
      L1  H    21    48       P1 10186  1.00
      P1  H  7997  8008       L1     3  1.00
      P1  H 10752 10763       L1     7  0.95

> <Gold.PLP.Chemscore.Internal.Correction>
0.0118

> <Gold.Rescore>
     Score         DG    S(hbond)    S(metal)    S(lipo)     H(rot)  DE(clash)    DE(int)     intcor
     13.12     -17.11       2.95        0.00      82.47       3.07       2.08       1.90       ----

> <Gold.Chemscore.Fitness>
13.1224

> <Gold.Chemscore.DG>
-17.1058

> <Gold.Chemscore.ZeroCoef>
-5.4800

> <Gold.Chemscore.Hbond>
2.9471

> <Gold.Chemscore.Metal>
0.0000

> <Gold.Chemscore.Lipo>
82.4726

> <Gold.Chemscore.Internal_Hbond>
0.0000

> <Gold.Chemscore.DEClash>
2.0837

> <Gold.Chemscore.DEInternal>
1.8998

> <Gold.Chemscore.Rot>
3.0729

> <Gold.Chemscore.Internal.Correction>
   9.000000E+99

> <Gold.Chemscore.Hbonds>
donor molecule, donor type, donor heavy atom, donor atom, acceptor molecule, acceptor atom, score
      L1  H     7    35       P1  7949  0.12
      L1  H    21    48       P1 10186  1.00
      P1  H  7997  8008       L1     3  0.58
      P1  H 10752 10763       L1     7  0.20

> <Gold.Chemscore.Hbond.Weighted>
-9.8432

> <Gold.Chemscore.Metal.Weighted>
-0.0000

> <Gold.Chemscore.Lipo.Weighted>
-9.6493

> <Gold.Chemscore.Internal_Hbond.Weighted>
0.0000

> <Gold.Chemscore.DEClash.Weighted>
2.0837

> <Gold.Chemscore.DEInternal.Weighted>
1.8998

> <Gold.Chemscore.Rot.Weighted>
7.8667

> <Gold.Chemscore.Internal.Correction.Weighted>
   9.000000E+99

> <Gold.Protein.RotatedTorsions>
[ 6907 6896 6895 6894 ] final -129.02 input  -60.11 | X-H torsion
[ 7974 7965 7964 7962 ] final  -37.72 input  175.53 | X-H torsion
[ 8008 7997 7996 7995 ] final  -38.20 input   59.86 | X-H torsion
[ 10167 10162 10161 10158 ] final   29.19 input  -65.29 | X-H torsion
[ 10718 10713 10712 10709 ] final  144.41 input   66.30 | X-H torsion
[ 10763 10752 10751 10750 ] final   48.55 input  -60.55 | X-H torsion
[ 11005 11000 10999 10996 ] final  -47.69 input  -57.11 | X-H torsion

> <Gold.Protein.ActiveResidues>
 VAL166  LYS551  ARG553  GLY616  TRP617  ASP618  TYR619  PRO620  LYS621  CYS622 
 ASP623  PHE694  ASN695  SER759  ASP760  ASP761  ALA762  ILE779  LEU786  VAL792 
 PHE793  MET794  SER795  GLU796  ALA797  LYS798  CYS799  TRP800  GLU811  SER814 

> <Gold.Protein.RotatedAtoms>
  150.9241  133.6844  159.2825 H   0  0  0  0  0  0  0  0  0  0  0  0  # atno 6907 bound_to 6896
  151.4289  135.1006  159.9646 H   0  0  0  0  0  0  0  0  0  0  0  0  # atno 6908 bound_to 6896
  152.4994  133.8676  159.7337 H   0  0  0  0  0  0  0  0  0  0  0  0  # atno 6909 bound_to 6896
  146.0549  140.6429  142.9024 H   0  0  0  0  0  0  0  0  0  0  0  0  # atno 7974 bound_to 7965
  154.4041  140.1584  156.2660 H   0  0  0  0  0  0  0  0  0  0  0  0  # atno 8008 bound_to 7997
  155.8994  140.3434  155.5993 H   0  0  0  0  0  0  0  0  0  0  0  0  # atno 8009 bound_to 7997
  155.7465  140.0799  157.2212 H   0  0  0  0  0  0  0  0  0  0  0  0  # atno 8010 bound_to 7997
  140.4787  144.0649  150.6259 H   0  0  0  0  0  0  0  0  0  0  0  0  # atno 10167 bound_to 10162
  157.3576  131.0960  151.0945 H   0  0  0  0  0  0  0  0  0  0  0  0  # atno 10718 bound_to 10713
  152.9791  135.5940  154.3945 H   0  0  0  0  0  0  0  0  0  0  0  0  # atno 10763 bound_to 10752
  154.3597  135.2767  155.2329 H   0  0  0  0  0  0  0  0  0  0  0  0  # atno 10764 bound_to 10752
  154.4332  135.6031  153.6136 H   0  0  0  0  0  0  0  0  0  0  0  0  # atno 10765 bound_to 10752
  141.0656  133.6695  156.3333 H   0  0  0  0  0  0  0  0  0  0  0  0  # atno 11005 bound_to 11000
  144.7143  140.4152  143.7057 LP  0  0  0  0  0  0  0  0  0  0  0  0  # atno 17320 bound_to 7965
  145.6660  139.1590  143.2781 LP  0  0  0  0  0  0  0  0  0  0  0  0  # atno 17321 bound_to 7965
  140.3885  143.2765  152.0088 LP  0  0  0  0  0  0  0  0  0  0  0  0  # atno 17342 bound_to 10162
  139.4830  144.6097  151.7457 LP  0  0  0  0  0  0  0  0  0  0  0  0  # atno 17343 bound_to 10162
  157.2097  130.6432  149.5769 LP  0  0  0  0  0  0  0  0  0  0  0  0  # atno 17370 bound_to 10713
  155.9732  130.4664  150.6288 LP  0  0  0  0  0  0  0  0  0  0  0  0  # atno 17371 bound_to 10713
  140.5781  134.5773  157.5473 LP  0  0  0  0  0  0  0  0  0  0  0  0  # atno 17394 bound_to 11000
  139.9473  134.7679  156.0532 LP  0  0  0  0  0  0  0  0  0  0  0  0  # atno 17395 bound_to 11000

$$$$
