AV-unprocessed.smi:166|AV-procd|sdf|1390|dock1
  -GOLD-   2262019123D 1   1.00000     0.00000
 Structure written by MMmdl.
 54 58  0  0  0  0  0  0  0  0  1 V2000
  150.9908  144.3001  157.4358 O   0  0  0  0  0  0  0  0  0  0  0  0
  151.5157  143.9415  158.7008 C   0  0  1  0  0  0  0  0  0  0  0  0
  152.4586  142.7251  158.5277 C   0  0  0  0  0  0  0  0  0  0  0  0
  151.7663  141.4778  158.2378 N   0  0  0  0  0  0  0  0  0  0  0  0
  150.4711  141.3385  157.7907 C   0  0  0  0  0  0  0  0  0  0  0  0
  150.0739  140.1091  157.6065 N   0  0  0  0  0  0  0  0  0  0  0  0
  151.1718  139.3401  157.9724 C   0  0  0  0  0  0  0  0  0  0  0  0
  151.4357  137.9422  158.0261 C   0  0  0  0  0  0  0  0  0  0  0  0
  150.5539  136.9784  157.6884 N   0  0  0  0  0  0  0  0  0  0  0  0
  149.6354  137.3903  156.6315 C   0  0  0  0  0  0  0  0  0  0  0  0
  148.8274  136.1874  156.1173 C   0  0  0  0  0  0  0  0  0  0  0  0
  148.1239  135.4630  157.2760 C   0  0  0  0  0  0  0  0  0  0  0  0
  149.1385  135.0658  158.3626 C   0  0  2  0  0  0  0  0  0  0  0  0
  148.4091  134.4918  159.4394 O   0  0  0  0  0  0  0  0  0  0  0  0
  148.9841  133.3100  159.9756 C   0  0  0  0  0  0  0  0  0  0  0  0
  148.9428  133.3910  161.4863 C   0  0  0  0  0  0  0  0  0  0  0  0
  147.7136  133.9237  162.1875 C   0  0  0  0  0  0  0  0  0  0  0  0
  148.9888  134.7276  162.1916 C   0  0  0  0  0  0  0  0  0  0  0  0
  149.9289  136.3072  158.8257 C   0  0  0  0  0  0  0  0  0  0  0  0
  152.6637  137.5407  158.4360 N   0  0  0  0  0  0  0  0  0  0  0  0
  153.5798  138.4486  158.7866 C   0  0  0  0  0  0  0  0  0  0  0  0
  153.4764  139.7795  158.7949 N   0  0  0  0  0  0  0  0  0  0  0  0
  152.2446  140.1856  158.3723 C   0  0  0  0  0  0  0  0  0  0  0  0
  152.2364  145.1513  159.2980 C   0  0  0  0  0  0  0  0  0  0  0  0
  151.7241  145.1977  160.7316 C   0  0  0  0  0  0  0  0  0  0  0  0
  150.3741  144.7964  160.5862 O   0  0  0  0  0  0  0  0  0  0  0  0
  150.3573  143.6941  159.6900 C   0  0  0  0  0  0  0  0  0  0  0  0
  150.1059  144.6100  157.5540 H   0  0  0  0  0  0  0  0  0  0  0  0
  153.1752  142.9127  157.7268 H   0  0  0  0  0  0  0  0  0  0  0  0
  153.0480  142.5806  159.4341 H   0  0  0  0  0  0  0  0  0  0  0  0
  149.8244  142.1828  157.6016 H   0  0  0  0  0  0  0  0  0  0  0  0
  148.9600  138.1560  157.0160 H   0  0  0  0  0  0  0  0  0  0  0  0
  150.1933  137.8391  155.8083 H   0  0  0  0  0  0  0  0  0  0  0  0
  148.0949  136.5173  155.3802 H   0  0  0  0  0  0  0  0  0  0  0  0
  149.4935  135.4925  155.6044 H   0  0  0  0  0  0  0  0  0  0  0  0
  147.3627  136.1163  157.7046 H   0  0  0  0  0  0  0  0  0  0  0  0
  147.6043  134.5789  156.9054 H   0  0  0  0  0  0  0  0  0  0  0  0
  149.8225  134.3258  157.9425 H   0  0  0  0  0  0  0  0  0  0  0  0
  148.4387  132.4274  159.6375 H   0  0  0  0  0  0  0  0  0  0  0  0
  150.0225  133.2030  159.6633 H   0  0  0  0  0  0  0  0  0  0  0  0
  149.4453  132.5635  161.9839 H   0  0  0  0  0  0  0  0  0  0  0  0
  146.8938  134.2859  161.5702 H   0  0  0  0  0  0  0  0  0  0  0  0
  147.4189  133.4430  163.1181 H   0  0  0  0  0  0  0  0  0  0  0  0
  149.5464  134.7833  163.1243 H   0  0  0  0  0  0  0  0  0  0  0  0
  149.0199  135.6248  161.5767 H   0  0  0  0  0  0  0  0  0  0  0  0
  150.7009  136.0263  159.5425 H   0  0  0  0  0  0  0  0  0  0  0  0
  149.2531  136.9953  159.3339 H   0  0  0  0  0  0  0  0  0  0  0  0
  154.5319  138.0518  159.1070 H   0  0  0  0  0  0  0  0  0  0  0  0
  153.3234  145.0829  159.2446 H   0  0  0  0  0  0  0  0  0  0  0  0
  151.9415  146.0713  158.7902 H   0  0  0  0  0  0  0  0  0  0  0  0
  152.2571  144.4857  161.3640 H   0  0  0  0  0  0  0  0  0  0  0  0
  151.8064  146.1887  161.1782 H   0  0  0  0  0  0  0  0  0  0  0  0
  149.3844  143.5930  159.2074 H   0  0  0  0  0  0  0  0  0  0  0  0
  150.5259  142.7936  160.2806 H   0  0  0  0  0  0  0  0  0  0  0  0
  1  2  1  0  0  0  0
  1 28  1  0  0  0  0
  2 27  1  0  0  0  0
  2  3  1  0  0  0  0
  2 24  1  0  0  0  0
  3  4  1  0  0  0  0
  3 29  1  0  0  0  0
  3 30  1  0  0  0  0
  4 23  1  0  0  0  0
  4  5  1  0  0  0  0
  5  6  2  0  0  0  0
  5 31  1  0  0  0  0
  6  7  1  0  0  0  0
  7 23  2  0  0  0  0
  7  8  1  0  0  0  0
  8  9  1  0  0  0  0
  8 20  2  0  0  0  0
  9 19  1  0  0  0  0
  9 10  1  0  0  0  0
 10 11  1  0  0  0  0
 10 32  1  0  0  0  0
 10 33  1  0  0  0  0
 11 12  1  0  0  0  0
 11 34  1  0  0  0  0
 11 35  1  0  0  0  0
 12 13  1  0  0  0  0
 12 36  1  0  0  0  0
 12 37  1  0  0  0  0
 13 14  1  0  0  0  0
 13 19  1  0  0  0  0
 13 38  1  0  0  0  0
 14 15  1  0  0  0  0
 15 16  1  0  0  0  0
 15 39  1  0  0  0  0
 15 40  1  0  0  0  0
 16 18  1  0  0  0  0
 16 17  1  0  0  0  0
 16 41  1  0  0  0  0
 17 18  1  0  0  0  0
 17 42  1  0  0  0  0
 17 43  1  0  0  0  0
 18 44  1  0  0  0  0
 18 45  1  0  0  0  0
 19 46  1  0  0  0  0
 19 47  1  0  0  0  0
 20 21  1  0  0  0  0
 21 22  2  0  0  0  0
 21 48  1  0  0  0  0
 22 23  1  0  0  0  0
 24 25  1  0  0  0  0
 24 49  1  0  0  0  0
 24 50  1  0  0  0  0
 25 26  1  0  0  0  0
 25 51  1  0  0  0  0
 25 52  1  0  0  0  0
 26 27  1  0  0  0  0
 27 53  1  0  0  0  0
 27 54  1  0  0  0  0
M  END
> <s_m_source_file>
AV-unprocessed.smi

> <i_m_source_file_index>
166

> <i_lp_mmshare_version>
43012

> <i_f3d_flags>
0

> <s_epik_input>
W0NIMl0xT1tDSDJdW0NIMl1bQ0BAXTEoW09IXSlbQ0gyXW4oW2NIXW4yKWMoYzIzKW5bY0hdbmMzTjRbQ0gyXVtDSDJdW0NIMl1bQ0BIXShbQ0gyXTQpT1tDSDJdW0NIXTVbQ0gyXVtDSDJdNQ==

> <s_epik_cmdline>
J2VwaWtfcHl0aG9uJywgJy1waCcsICc3LjAnLCAnLXRuJywgJzgnLCAnLW1hJywgJzIwMCcsICctbWV0YWxfYmluZGluZycsICctaW1hZScsICc8aW5maWxlLm1hZT4nLCAnLW9tYWUnLCAnPG91dGZpbGUubWFlPic=

> <r_lp_tautomer_probability>
1

> <r_epik_Ionization_Penalty>
0.00342552

> <r_epik_Ionization_Penalty_Charging>
0

> <r_epik_Ionization_Penalty_Neutral>
0.00342552

> <r_epik_State_Penalty>
0.0022204

> <r_epik_Charging_Adjusted_Penalty>
0.0022204

> <i_epik_Tot_Q>
0

> <i_epik_Tot_abs_Q>
0

> <r_epik_Metal_State_Penalty>
-0

> <b_epik_Metal_Only>
0

> <s_lp_Force_Field>
OPLS_2005

> <r_lp_Energy>
47.3104

> <b_lp_Chiralities_Consistent>
1

> <s_lp_Variant>
AV-unprocessed.smi:166-3

> <Gold.Version>
5.8.1

> <Gold.Id.Protein>
6NUR|6NUR_protein|mol2

> <Gold.PLP.Fitness>
48.5307

> <Gold.PLP.PLP>
-48.9754

> <Gold.PLP.part.hbond>
-1.4676

> <Gold.PLP.part.metal>
0.0000

> <Gold.PLP.part.buried>
-9.5319

> <Gold.PLP.part.nonpolar>
-39.1075

> <Gold.PLP.part.repulsive>
0.2093

> <Gold.PLP.ligand.clash>
0.0000

> <Gold.PLP.ligand.torsion>
2.1614

> <Gold.PLP.Chemscore.Hbond>
1.0000

> <Gold.PLP.Chemscore.CHOScore>
0.0000

> <Gold.PLP.Chemscore.Metal>
0.0000

> <Gold.Chemscore.Hbonds>
donor molecule, donor type, donor heavy atom, donor atom, acceptor molecule, acceptor atom, score
      L1  H     1    28       P1  8028  0.15
      P1  H  7997  8008       L1    22  0.61

> <Gold.PLP.Chemscore.Internal.Correction>
0.8780

> <Gold.Rescore>
     Score         DG    S(hbond)    S(metal)    S(lipo)     H(rot)  DE(clash)    DE(int)     intcor
      8.81     -12.60       0.27        0.00     111.91       2.68       0.09       3.70       ----

> <Gold.Chemscore.Fitness>
8.8139

> <Gold.Chemscore.DG>
-12.5999

> <Gold.Chemscore.ZeroCoef>
-5.4800

> <Gold.Chemscore.Hbond>
0.2669

> <Gold.Chemscore.Metal>
0.0000

> <Gold.Chemscore.Lipo>
111.9111

> <Gold.Chemscore.Internal_Hbond>
0.0000

> <Gold.Chemscore.DEClash>
0.0893

> <Gold.Chemscore.DEInternal>
3.6966

> <Gold.Chemscore.Rot>
2.6817

> <Gold.Chemscore.Internal.Correction>
   9.000000E+99

> <Gold.Chemscore.Hbonds>
donor molecule, donor type, donor heavy atom, donor atom, acceptor molecule, acceptor atom, score
      L1  H     1    28       P1  8028  0.03
      P1  H  7997  8008       L1    22  0.03

> <Gold.Chemscore.Hbond.Weighted>
-0.8913

> <Gold.Chemscore.Metal.Weighted>
-0.0000

> <Gold.Chemscore.Lipo.Weighted>
-13.0936

> <Gold.Chemscore.Internal_Hbond.Weighted>
0.0000

> <Gold.Chemscore.DEClash.Weighted>
0.0893

> <Gold.Chemscore.DEInternal.Weighted>
3.6966

> <Gold.Chemscore.Rot.Weighted>
6.8651

> <Gold.Chemscore.Internal.Correction.Weighted>
   9.000000E+99

> <Gold.Protein.RotatedTorsions>
[ 6907 6896 6895 6894 ] final  -91.65 input  -60.11 | X-H torsion
[ 7974 7965 7964 7962 ] final  121.98 input  175.53 | X-H torsion
[ 8008 7997 7996 7995 ] final  -92.24 input   59.86 | X-H torsion
[ 10167 10162 10161 10158 ] final  -41.18 input  -65.29 | X-H torsion
[ 10718 10713 10712 10709 ] final   -0.58 input   66.30 | X-H torsion
[ 10763 10752 10751 10750 ] final  168.39 input  -60.55 | X-H torsion
[ 11005 11000 10999 10996 ] final   41.59 input  -57.11 | X-H torsion

> <Gold.Protein.ActiveResidues>
 VAL166  LYS551  ARG553  GLY616  TRP617  ASP618  TYR619  PRO620  LYS621  CYS622 
 ASP623  PHE694  ASN695  SER759  ASP760  ASP761  ALA762  ILE779  LEU786  VAL792 
 PHE793  MET794  SER795  GLU796  ALA797  LYS798  CYS799  TRP800  GLU811  SER814 

> <Gold.Protein.RotatedAtoms>
  150.6895  134.2244  159.4409 H   0  0  0  0  0  0  0  0  0  0  0  0  # atno 6907 bound_to 6896
  152.0198  134.9826  160.0579 H   0  0  0  0  0  0  0  0  0  0  0  0  # atno 6908 bound_to 6896
  152.1408  133.4428  159.4803 H   0  0  0  0  0  0  0  0  0  0  0  0  # atno 6909 bound_to 6896
  145.1129  139.3440  143.4753 H   0  0  0  0  0  0  0  0  0  0  0  0  # atno 7974 bound_to 7965
  154.7206  140.0511  157.0636 H   0  0  0  0  0  0  0  0  0  0  0  0  # atno 8008 bound_to 7997
  155.0432  140.3171  155.4698 H   0  0  0  0  0  0  0  0  0  0  0  0  # atno 8009 bound_to 7997
  156.2815  140.2129  156.5556 H   0  0  0  0  0  0  0  0  0  0  0  0  # atno 8010 bound_to 7997
  140.7011  143.3109  151.3030 H   0  0  0  0  0  0  0  0  0  0  0  0  # atno 10167 bound_to 10162
  156.8183  130.5448  149.5700 H   0  0  0  0  0  0  0  0  0  0  0  0  # atno 10718 bound_to 10713
  154.3678  135.2753  155.2283 H   0  0  0  0  0  0  0  0  0  0  0  0  # atno 10763 bound_to 10752
  154.4444  135.5946  153.6153 H   0  0  0  0  0  0  0  0  0  0  0  0  # atno 10764 bound_to 10752
  152.9840  135.6026  154.3906 H   0  0  0  0  0  0  0  0  0  0  0  0  # atno 10765 bound_to 10752
  140.1820  134.4092  155.8195 H   0  0  0  0  0  0  0  0  0  0  0  0  # atno 11005 bound_to 11000
  146.3525  140.1056  142.8606 LP  0  0  0  0  0  0  0  0  0  0  0  0  # atno 17320 bound_to 7965
  145.0826  140.9231  143.4816 LP  0  0  0  0  0  0  0  0  0  0  0  0  # atno 17321 bound_to 7965
  139.6532  144.0324  152.2641 LP  0  0  0  0  0  0  0  0  0  0  0  0  # atno 17342 bound_to 10162
  139.9867  144.6390  150.7851 LP  0  0  0  0  0  0  0  0  0  0  0  0  # atno 17343 bound_to 10162
  156.1003  130.5964  150.9883 LP  0  0  0  0  0  0  0  0  0  0  0  0  # atno 17370 bound_to 10713
  157.6470  131.0902  150.8132 LP  0  0  0  0  0  0  0  0  0  0  0  0  # atno 17371 bound_to 10713
  141.2223  133.7005  156.7947 LP  0  0  0  0  0  0  0  0  0  0  0  0  # atno 17394 bound_to 11000
  140.2256  134.8724  157.3423 LP  0  0  0  0  0  0  0  0  0  0  0  0  # atno 17395 bound_to 11000

$$$$
