AV-unprocessed.smi:160|AV-procd|sdf|1367|dock6
  -GOLD-   2262019 83D 1   1.00000     0.00000
 Structure written by MMmdl.
 28 29  0  0  0  0  0  0  0  0  2 V2000
  148.5874  137.6442  159.1131 N   0  5  0  0  0  0  0  0  0  0  0  0
  149.0430  136.6304  158.3447 C   0  0  0  0  0  0  0  0  0  0  0  0
  149.2202  135.4669  158.7045 O   0  0  0  0  0  0  0  0  0  0  0  0
  149.3490  137.0161  156.9171 C   0  0  0  0  0  0  0  0  0  0  0  0
  149.6366  136.0612  155.9810 N   0  0  0  0  0  0  0  0  0  0  0  0
  149.8308  136.8468  154.9302 C   0  0  0  0  0  0  0  0  0  0  0  0
  149.6709  138.1498  155.1805 N   0  0  0  0  0  0  0  0  0  0  0  0
  149.8290  139.3277  154.2632 C   0  0  2  0  0  0  0  0  0  0  0  0
  150.7426  140.1995  154.8537 O   0  0  0  0  0  0  0  0  0  0  0  0
  150.0926  141.3562  155.3852 C   0  0  2  0  0  0  0  0  0  0  0  0
  150.5135  141.5690  156.8491 C   0  0  0  0  0  0  0  0  0  0  0  0
  149.9014  142.7302  157.3691 O   0  0  0  0  0  0  0  0  0  0  0  0
  148.5834  141.1146  155.2125 C   0  0  1  0  0  0  0  0  0  0  0  0
  147.9241  142.3123  154.8524 O   0  0  0  0  0  0  0  0  0  0  0  0
  148.5223  140.1136  154.0690 C   0  0  2  0  0  0  0  0  0  0  0  0
  147.3529  139.3171  154.1330 O   0  0  0  0  0  0  0  0  0  0  0  0
  149.3608  138.2832  156.4936 N   0  0  0  0  0  0  0  0  0  0  0  0
  150.2229  138.8993  153.3410 H   0  0  0  0  0  0  0  0  0  0  0  0
  150.3941  142.2079  154.7721 H   0  0  0  0  0  0  0  0  0  0  0  0
  148.1460  140.7015  156.1227 H   0  0  0  0  0  0  0  0  0  0  0  0
  148.5820  140.6219  153.1052 H   0  0  0  0  0  0  0  0  0  0  0  0
  148.4661  138.5679  158.6810 H   0  0  0  0  0  0  0  0  0  0  0  0
  150.0953  136.4632  153.9559 H   0  0  0  0  0  0  0  0  0  0  0  0
  150.1844  140.7276  157.4596 H   0  0  0  0  0  0  0  0  0  0  0  0
  151.5968  141.6358  156.9493 H   0  0  0  0  0  0  0  0  0  0  0  0
  149.6869  143.3023  156.6483 H   0  0  0  0  0  0  0  0  0  0  0  0
  148.3415  143.0273  155.3082 H   0  0  0  0  0  0  0  0  0  0  0  0
  146.6018  139.8873  154.1880 H   0  0  0  0  0  0  0  0  0  0  0  0
  1  2  1  0  0  0  0
  1 22  1  0  0  0  0
  2  3  2  0  0  0  0
  2  4  1  0  0  0  0
  4 17  2  0  0  0  0
  4  5  1  0  0  0  0
  5  6  2  0  0  0  0
  6  7  1  0  0  0  0
  6 23  1  0  0  0  0
  7  8  1  0  0  0  0
  7 17  1  0  0  0  0
  8 18  1  0  0  0  0
  8 15  1  0  0  0  0
  8  9  1  0  0  0  0
  9 10  1  0  0  0  0
 10 19  1  0  0  0  0
 10 11  1  0  0  0  0
 10 13  1  0  0  0  0
 11 12  1  0  0  0  0
 11 24  1  0  0  0  0
 11 25  1  0  0  0  0
 12 26  1  0  0  0  0
 13 20  1  0  0  0  0
 13 14  1  0  0  0  0
 13 15  1  0  0  0  0
 14 27  1  0  0  0  0
 15 21  1  0  0  0  0
 15 16  1  0  0  0  0
 16 28  1  0  0  0  0
M  CHG  1   1  -1
M  END
> <s_m_source_file>
AV-unprocessed.smi

> <i_m_source_file_index>
160

> <i_lp_mmshare_version>
43012

> <i_f3d_flags>
0

> <s_epik_input>
W05IMl1DKD1PKWMxbltjSF1uKG4xKVtDQEBIXTJPW0NASF0oW0NIMl1bT0hdKVtDQEBIXShbT0hdKVtDQEhdMltPSF0=

> <s_epik_cmdline>
J2VwaWtfcHl0aG9uJywgJy1waCcsICc3LjAnLCAnLXRuJywgJzgnLCAnLW1hJywgJzIwMCcsICctbWV0YWxfYmluZGluZycsICctaW1hZScsICc8aW5maWxlLm1hZT4nLCAnLW9tYWUnLCAnPG91dGZpbGUubWFlPic=

> <r_lp_tautomer_probability>
1

> <r_epik_Ionization_Penalty>
6.6993

> <r_epik_Ionization_Penalty_Charging>
6.6993

> <r_epik_Ionization_Penalty_Neutral>
6.01698e-06

> <r_epik_State_Penalty>
6.69929

> <r_epik_Charging_Adjusted_Penalty>
13.3986

> <i_epik_Tot_Q>
-1

> <i_epik_Tot_abs_Q>
1

> <r_epik_Metal_State_Penalty>
2.62798

> <b_epik_Metal_Only>
1

> <s_epik_Chemistry_Notes>
This compound contains an acetal/aminal-like group ( X-CH(R)-Y where X, Y are N, S, or O) that may be acid/base labile, releasing an aldehyde.

> <s_lp_Force_Field>
OPLS_2005

> <r_lp_Energy>
43.4077

> <b_lp_Chiralities_Consistent>
1

> <s_lp_Variant>
AV-unprocessed.smi:160-25

> <Gold.Version>
5.8.1

> <Gold.Id.Protein>
6NUR|6NUR_protein|mol2

> <Gold.PLP.Fitness>
37.1906

> <Gold.PLP.PLP>
-22.3184

> <Gold.PLP.part.hbond>
-5.5346

> <Gold.PLP.part.metal>
0.0000

> <Gold.PLP.part.buried>
-3.2934

> <Gold.PLP.part.nonpolar>
-13.5760

> <Gold.PLP.part.repulsive>
0.0966

> <Gold.PLP.ligand.clash>
0.0000

> <Gold.PLP.ligand.torsion>
0.0911

> <Gold.PLP.Chemscore.Hbond>
4.0000

> <Gold.PLP.Chemscore.CHOScore>
1.0140

> <Gold.PLP.Chemscore.Metal>
0.0000

> <Gold.Chemscore.Hbonds>
donor molecule, donor type, donor heavy atom, donor atom, acceptor molecule, acceptor atom, score
      L1  H    12    26       P1  8028  1.00
      L1  H    14    27       P1  8028  1.00
      P1  H  6896  6909       L1     3  1.00
      P1  H  7989  7998       L1     9  1.00
      L1  C     6    23       P1  7948  0.92
      L1  C     6    23       P1  7949  0.04

> <Gold.PLP.Chemscore.Internal.Correction>
0.0124

> <Gold.Rescore>
     Score         DG    S(hbond)    S(metal)    S(lipo)     H(rot)  DE(clash)    DE(int)     intcor
     10.24     -10.37       3.64        0.00      26.18       4.04       0.12       0.01       ----

> <Gold.Chemscore.Fitness>
10.2411

> <Gold.Chemscore.DG>
-10.3718

> <Gold.Chemscore.ZeroCoef>
-5.4800

> <Gold.Chemscore.Hbond>
3.6442

> <Gold.Chemscore.Metal>
0.0000

> <Gold.Chemscore.Lipo>
26.1808

> <Gold.Chemscore.Internal_Hbond>
0.0000

> <Gold.Chemscore.DEClash>
0.1214

> <Gold.Chemscore.DEInternal>
0.0092

> <Gold.Chemscore.Rot>
4.0403

> <Gold.Chemscore.Internal.Correction>
   9.000000E+99

> <Gold.Chemscore.Hbonds>
donor molecule, donor type, donor heavy atom, donor atom, acceptor molecule, acceptor atom, score
      L1  H    12    26       P1  8028  0.99
      L1  H    14    27       P1  8028  0.98
      P1  H  6896  6909       L1     3  0.97
      P1  H  7989  7998       L1     9  0.16

> <Gold.Chemscore.Hbond.Weighted>
-12.1718

> <Gold.Chemscore.Metal.Weighted>
-0.0000

> <Gold.Chemscore.Lipo.Weighted>
-3.0632

> <Gold.Chemscore.Internal_Hbond.Weighted>
0.0000

> <Gold.Chemscore.DEClash.Weighted>
0.1214

> <Gold.Chemscore.DEInternal.Weighted>
0.0092

> <Gold.Chemscore.Rot.Weighted>
10.3431

> <Gold.Chemscore.Internal.Correction.Weighted>
   9.000000E+99

> <Gold.Protein.RotatedTorsions>
[ 6907 6896 6895 6894 ] final   33.31 input  -60.11 | X-H torsion
[ 7974 7965 7964 7962 ] final   68.92 input  175.53 | X-H torsion
[ 8008 7997 7996 7995 ] final   10.73 input   59.86 | X-H torsion
[ 10167 10162 10161 10158 ] final  110.50 input  -65.29 | X-H torsion
[ 10718 10713 10712 10709 ] final   95.80 input   66.30 | X-H torsion
[ 10763 10752 10751 10750 ] final  -56.23 input  -60.55 | X-H torsion
[ 11005 11000 10999 10996 ] final  -99.18 input  -57.11 | X-H torsion

> <Gold.Protein.ActiveResidues>
 VAL166  LYS551  ARG553  GLY616  TRP617  ASP618  TYR619  PRO620  LYS621  CYS622 
 ASP623  PHE694  ASN695  SER759  ASP760  ASP761  ALA762  ILE779  LEU786  VAL792 
 PHE793  MET794  SER795  GLU796  ALA797  LYS798  CYS799  TRP800  GLU811  SER814 

> <Gold.Protein.RotatedAtoms>
  152.0868  134.9434  160.0572 H   0  0  0  0  0  0  0  0  0  0  0  0  # atno 6907 bound_to 6896
  152.0702  133.4098  159.4464 H   0  0  0  0  0  0  0  0  0  0  0  0  # atno 6908 bound_to 6896
  150.6836  134.3021  159.4754 H   0  0  0  0  0  0  0  0  0  0  0  0  # atno 6909 bound_to 6896
  145.7967  139.2961  143.1179 H   0  0  0  0  0  0  0  0  0  0  0  0  # atno 7974 bound_to 7965
  154.7974  140.2846  155.5947 H   0  0  0  0  0  0  0  0  0  0  0  0  # atno 8008 bound_to 7997
  156.2972  140.2593  156.2763 H   0  0  0  0  0  0  0  0  0  0  0  0  # atno 8009 bound_to 7997
  154.9599  140.0378  157.2174 H   0  0  0  0  0  0  0  0  0  0  0  0  # atno 8010 bound_to 7997
  139.6683  144.7126  151.1734 H   0  0  0  0  0  0  0  0  0  0  0  0  # atno 10167 bound_to 10162
  157.6934  131.0557  150.4394 H   0  0  0  0  0  0  0  0  0  0  0  0  # atno 10718 bound_to 10713
  154.2034  135.6407  153.5093 H   0  0  0  0  0  0  0  0  0  0  0  0  # atno 10763 bound_to 10752
  153.0006  135.5456  154.6292 H   0  0  0  0  0  0  0  0  0  0  0  0  # atno 10764 bound_to 10752
  154.5710  135.2917  155.0800 H   0  0  0  0  0  0  0  0  0  0  0  0  # atno 10765 bound_to 10752
  141.1318  133.8302  157.0938 H   0  0  0  0  0  0  0  0  0  0  0  0  # atno 11005 bound_to 11000
  145.9921  140.8594  143.0061 LP  0  0  0  0  0  0  0  0  0  0  0  0  # atno 17320 bound_to 7965
  144.6774  140.2230  143.7364 LP  0  0  0  0  0  0  0  0  0  0  0  0  # atno 17321 bound_to 7965
  140.7608  143.5884  150.8822 LP  0  0  0  0  0  0  0  0  0  0  0  0  # atno 17342 bound_to 10162
  139.9547  143.6232  152.3019 LP  0  0  0  0  0  0  0  0  0  0  0  0  # atno 17343 bound_to 10162
  156.4754  130.4062  149.6493 LP  0  0  0  0  0  0  0  0  0  0  0  0  # atno 17370 bound_to 10713
  156.3558  130.7456  151.2421 LP  0  0  0  0  0  0  0  0  0  0  0  0  # atno 17371 bound_to 10713
  140.0376  134.9870  157.0900 LP  0  0  0  0  0  0  0  0  0  0  0  0  # atno 17394 bound_to 11000
  140.4186  134.1904  155.7164 LP  0  0  0  0  0  0  0  0  0  0  0  0  # atno 17395 bound_to 11000

$$$$
