AV-unprocessed.smi:2265|AV-procd|sdf|9143|dock7
  -GOLD-   2272012353D 1   1.00000     0.00000
 Structure written by MMmdl.
 36 37  0  0  0  0  0  0  0  0  1 V2000
  152.6272  143.5837  162.7177 C   0  0  0  0  0  0  0  0  0  0  0  0
  152.1534  143.3724  161.2756 C   0  0  0  0  0  0  0  0  0  0  0  0
  153.3087  143.0494  160.3184 C   0  0  0  0  0  0  0  0  0  0  0  0
  152.9330  143.2596  158.8653 C   0  0  2  0  0  0  0  0  0  0  0  0
  152.9261  144.6438  158.2730 C   0  0  0  0  0  0  0  0  0  0  0  0
  151.6190  143.9093  158.4894 C   0  0  1  0  0  0  0  0  0  0  0  0
  150.9404  143.4517  157.3148 N   0  0  0  0  0  0  0  0  0  0  0  0
  150.7252  142.1794  156.9350 C   0  0  0  0  0  0  0  0  0  0  0  0
  151.0932  141.2410  157.6414 O   0  0  0  0  0  0  0  0  0  0  0  0
  150.0507  142.0629  155.7695 N   0  0  0  0  0  0  0  0  0  0  0  0
  149.6449  140.8947  155.1130 C   0  0  0  0  0  0  0  0  0  0  0  0
  150.2368  139.7436  155.2698 N   0  0  0  0  0  0  0  0  0  0  0  0
  149.8086  138.6006  154.5944 C   0  0  0  0  0  0  0  0  0  0  0  0
  148.7635  138.6496  153.7488 C   0  0  0  0  0  0  0  0  0  0  0  0
  148.0790  139.8528  153.5258 N   0  0  0  0  0  0  0  0  0  0  0  0
  146.9484  139.8511  152.5972 C   0  0  0  0  0  0  0  0  0  0  0  0
  148.4511  140.9982  154.1595 C   0  0  0  0  0  0  0  0  0  0  0  0
  147.8788  142.0781  153.9987 O   0  0  0  0  0  0  0  0  0  0  0  0
  151.7869  143.8129  163.3732 H   0  0  0  0  0  0  0  0  0  0  0  0
  153.3354  144.4103  162.7827 H   0  0  0  0  0  0  0  0  0  0  0  0
  153.1175  142.6902  163.1054 H   0  0  0  0  0  0  0  0  0  0  0  0
  151.4222  142.5635  161.2530 H   0  0  0  0  0  0  0  0  0  0  0  0
  151.6340  144.2680  160.9329 H   0  0  0  0  0  0  0  0  0  0  0  0
  154.1684  143.6803  160.5461 H   0  0  0  0  0  0  0  0  0  0  0  0
  153.6318  142.0172  160.4599 H   0  0  0  0  0  0  0  0  0  0  0  0
  153.2746  142.4617  158.2079 H   0  0  0  0  0  0  0  0  0  0  0  0
  153.1463  145.4795  158.9346 H   0  0  0  0  0  0  0  0  0  0  0  0
  153.2906  144.7516  157.2531 H   0  0  0  0  0  0  0  0  0  0  0  0
  151.0072  144.2992  159.3019 H   0  0  0  0  0  0  0  0  0  0  0  0
  150.5049  144.1682  156.7520 H   0  0  0  0  0  0  0  0  0  0  0  0
  149.7904  142.9351  155.3326 H   0  0  0  0  0  0  0  0  0  0  0  0
  150.3556  137.6894  154.7864 H   0  0  0  0  0  0  0  0  0  0  0  0
  148.3957  137.7921  153.2046 H   0  0  0  0  0  0  0  0  0  0  0  0
  147.1031  140.5810  151.8012 H   0  0  0  0  0  0  0  0  0  0  0  0
  146.0262  140.1080  153.1201 H   0  0  0  0  0  0  0  0  0  0  0  0
  146.7984  138.8804  152.1239 H   0  0  0  0  0  0  0  0  0  0  0  0
  1  2  1  0  0  0  0
  1 19  1  0  0  0  0
  1 20  1  0  0  0  0
  1 21  1  0  0  0  0
  2  3  1  0  0  0  0
  2 22  1  0  0  0  0
  2 23  1  0  0  0  0
  3  4  1  0  0  0  0
  3 24  1  0  0  0  0
  3 25  1  0  0  0  0
  4  6  1  0  0  0  0
  4  5  1  0  0  0  0
  4 26  1  0  0  0  0
  5  6  1  0  0  0  0
  5 27  1  0  0  0  0
  5 28  1  0  0  0  0
  6  7  1  0  0  0  0
  6 29  1  0  0  0  0
  7  8  1  0  0  0  0
  7 30  1  0  0  0  0
  8  9  2  0  0  0  0
  8 10  1  0  0  0  0
 10 11  1  0  0  0  0
 10 31  1  0  0  0  0
 11 17  1  0  0  0  0
 11 12  2  0  0  0  0
 12 13  1  0  0  0  0
 13 14  2  0  0  0  0
 13 32  1  0  0  0  0
 14 15  1  0  0  0  0
 14 33  1  0  0  0  0
 15 16  1  0  0  0  0
 15 17  1  0  0  0  0
 16 34  1  0  0  0  0
 16 35  1  0  0  0  0
 16 36  1  0  0  0  0
 17 18  2  0  0  0  0
M  END
> <s_m_source_file>
AV-unprocessed.smi

> <i_m_source_file_index>
2265

> <i_lp_mmshare_version>
43012

> <i_f3d_flags>
0

> <s_epik_input>
W0NIM11bQ0gyXVtDSDJdW0NAQEhdMVtDSDJdW0NASF0xW05IXUMoPU8pW05IXWMybltjSF1bY0hdbihbQ0gzXSljMj1P

> <s_epik_cmdline>
J2VwaWtfcHl0aG9uJywgJy1waCcsICc3LjAnLCAnLXRuJywgJzgnLCAnLW1hJywgJzIwMCcsICctbWV0YWxfYmluZGluZycsICctaW1hZScsICc8aW5maWxlLm1hZT4nLCAnLW9tYWUnLCAnPG91dGZpbGUubWFlPic=

> <r_lp_tautomer_probability>
1

> <r_epik_Ionization_Penalty>
0.000728552

> <r_epik_Ionization_Penalty_Charging>
1.67739e-07

> <r_epik_Ionization_Penalty_Neutral>
0.000728385

> <r_epik_State_Penalty>
-0

> <r_epik_Charging_Adjusted_Penalty>
1.67739e-07

> <i_epik_Tot_Q>
0

> <i_epik_Tot_abs_Q>
0

> <r_epik_Metal_State_Penalty>
-0

> <b_epik_Metal_Only>
0

> <s_lp_Force_Field>
OPLS_2005

> <r_lp_Energy>
43.0048

> <b_lp_Chiralities_Consistent>
1

> <s_lp_Variant>
AV-unprocessed.smi:2265-1

> <Gold.Version>
5.8.1

> <Gold.Id.Protein>
6NUR|6NUR_protein|mol2

> <Gold.PLP.Fitness>
47.2511

> <Gold.PLP.PLP>
-39.1961

> <Gold.PLP.part.hbond>
-2.0000

> <Gold.PLP.part.metal>
0.0000

> <Gold.PLP.part.buried>
-0.3038

> <Gold.PLP.part.nonpolar>
-37.0106

> <Gold.PLP.part.repulsive>
0.3507

> <Gold.PLP.ligand.clash>
0.0000

> <Gold.PLP.ligand.torsion>
0.7617

> <Gold.PLP.Chemscore.Hbond>
2.0000

> <Gold.PLP.Chemscore.CHOScore>
1.0000

> <Gold.PLP.Chemscore.Metal>
0.0000

> <Gold.Chemscore.Hbonds>
donor molecule, donor type, donor heavy atom, donor atom, acceptor molecule, acceptor atom, score
      L1  H     7    30       P1  8028  0.96
      L1  H    10    31       P1  8028  0.90
      L1  C    14    33       P1  7948  1.00

> <Gold.PLP.Chemscore.Internal.Correction>
0.5785

> <Gold.Rescore>
     Score         DG    S(hbond)    S(metal)    S(lipo)     H(rot)  DE(clash)    DE(int)     intcor
     15.54     -19.53       1.91        0.00      97.41       1.46       0.82       3.17       ----

> <Gold.Chemscore.Fitness>
15.5352

> <Gold.Chemscore.DG>
-19.5270

> <Gold.Chemscore.ZeroCoef>
-5.4800

> <Gold.Chemscore.Hbond>
1.9126

> <Gold.Chemscore.Metal>
0.0000

> <Gold.Chemscore.Lipo>
97.4145

> <Gold.Chemscore.Internal_Hbond>
0.0000

> <Gold.Chemscore.DEClash>
0.8199

> <Gold.Chemscore.DEInternal>
3.1719

> <Gold.Chemscore.Rot>
1.4604

> <Gold.Chemscore.Internal.Correction>
   9.000000E+99

> <Gold.Chemscore.Hbonds>
donor molecule, donor type, donor heavy atom, donor atom, acceptor molecule, acceptor atom, score
      L1  H     7    30       P1  8028  0.88
      L1  H    10    31       P1  8028  0.82

> <Gold.Chemscore.Hbond.Weighted>
-6.3882

> <Gold.Chemscore.Metal.Weighted>
-0.0000

> <Gold.Chemscore.Lipo.Weighted>
-11.3975

> <Gold.Chemscore.Internal_Hbond.Weighted>
0.0000

> <Gold.Chemscore.DEClash.Weighted>
0.8199

> <Gold.Chemscore.DEInternal.Weighted>
3.1719

> <Gold.Chemscore.Rot.Weighted>
3.7387

> <Gold.Chemscore.Internal.Correction.Weighted>
   9.000000E+99

> <Gold.Protein.RotatedTorsions>
[ 6907 6896 6895 6894 ] final   13.41 input  -60.11 | X-H torsion
[ 7974 7965 7964 7962 ] final  -31.76 input  175.53 | X-H torsion
[ 8008 7997 7996 7995 ] final   15.91 input   59.86 | X-H torsion
[ 10167 10162 10161 10158 ] final  -40.38 input  -65.29 | X-H torsion
[ 10718 10713 10712 10709 ] final  -48.85 input   66.30 | X-H torsion
[ 10763 10752 10751 10750 ] final -148.10 input  -60.55 | X-H torsion
[ 11005 11000 10999 10996 ] final  140.29 input  -57.11 | X-H torsion

> <Gold.Protein.ActiveResidues>
 VAL166  LYS551  ARG553  GLY616  TRP617  ASP618  TYR619  PRO620  LYS621  CYS622 
 ASP623  PHE694  ASN695  SER759  ASP760  ASP761  ALA762  ILE779  LEU786  VAL792 
 PHE793  MET794  SER795  GLU796  ALA797  LYS798  CYS799  TRP800  GLU811  SER814 

> <Gold.Protein.RotatedAtoms>
  151.7858  135.0749  160.0380 H   0  0  0  0  0  0  0  0  0  0  0  0  # atno 6907 bound_to 6896
  152.3191  133.5830  159.5740 H   0  0  0  0  0  0  0  0  0  0  0  0  # atno 6908 bound_to 6896
  150.7360  133.9954  159.3663 H   0  0  0  0  0  0  0  0  0  0  0  0  # atno 6909 bound_to 6896
  146.1042  140.5708  142.8807 H   0  0  0  0  0  0  0  0  0  0  0  0  # atno 7974 bound_to 7965
  154.8693  140.2956  155.5491 H   0  0  0  0  0  0  0  0  0  0  0  0  # atno 8008 bound_to 7997
  156.3021  140.2463  156.3613 H   0  0  0  0  0  0  0  0  0  0  0  0  # atno 8009 bound_to 7997
  154.8834  140.0397  157.1785 H   0  0  0  0  0  0  0  0  0  0  0  0  # atno 8010 bound_to 7997
  140.7036  143.3157  151.2916 H   0  0  0  0  0  0  0  0  0  0  0  0  # atno 10167 bound_to 10162
  156.1949  130.4154  149.9320 H   0  0  0  0  0  0  0  0  0  0  0  0  # atno 10718 bound_to 10713
  154.8251  135.3343  154.6921 H   0  0  0  0  0  0  0  0  0  0  0  0  # atno 10763 bound_to 10752
  153.7548  135.6937  153.4942 H   0  0  0  0  0  0  0  0  0  0  0  0  # atno 10764 bound_to 10752
  153.2151  135.4468  155.0375 H   0  0  0  0  0  0  0  0  0  0  0  0  # atno 10765 bound_to 10752
  140.0317  134.9349  157.0674 H   0  0  0  0  0  0  0  0  0  0  0  0  # atno 11005 bound_to 11000
  144.7457  140.5062  143.6837 LP  0  0  0  0  0  0  0  0  0  0  0  0  # atno 17320 bound_to 7965
  145.5794  139.1488  143.3244 LP  0  0  0  0  0  0  0  0  0  0  0  0  # atno 17321 bound_to 7965
  139.6594  144.0216  152.2682 LP  0  0  0  0  0  0  0  0  0  0  0  0  # atno 17342 bound_to 10162
  139.9779  144.6449  150.7928 LP  0  0  0  0  0  0  0  0  0  0  0  0  # atno 17343 bound_to 10162
  156.7048  130.8947  151.3603 LP  0  0  0  0  0  0  0  0  0  0  0  0  # atno 17370 bound_to 10713
  157.6951  130.9274  150.0623 LP  0  0  0  0  0  0  0  0  0  0  0  0  # atno 17371 bound_to 10713
  140.4215  134.1875  155.7164 LP  0  0  0  0  0  0  0  0  0  0  0  0  # atno 17394 bound_to 11000
  141.1834  133.8364  157.1175 LP  0  0  0  0  0  0  0  0  0  0  0  0  # atno 17395 bound_to 11000

$$$$
