AV-unprocessed.smi:398|AV-procd|sdf|2489|dock5
  -GOLD-   2262022433D 1   1.00000     0.00000
 Structure written by MMmdl.
 34 36  0  0  0  0  0  0  0  0  1 V2000
  156.3420  141.0853  160.4883 N   0  0  0  0  0  0  0  0  0  0  0  0
  155.2552  141.2532  160.1276 C   0  0  0  0  0  0  0  0  0  0  0  0
  153.9255  141.4558  159.6556 C   0  0  0  0  0  0  0  0  0  0  0  0
  153.2576  142.6058  159.8820 C   0  0  0  0  0  0  0  0  0  0  0  0
  151.9757  142.8208  159.4246 N   0  0  0  0  0  0  0  0  0  0  0  0
  151.2261  143.9829  159.8105 C   0  0  0  0  0  0  0  0  0  0  0  0
  151.5249  145.3263  159.1737 C   0  0  0  0  0  0  0  0  0  0  0  0
  151.9111  145.0703  160.6097 C   0  0  0  0  0  0  0  0  0  0  0  0
  151.2778  141.7902  158.7577 C   0  0  0  0  0  0  0  0  0  0  0  0
  150.0971  141.9290  158.4283 O   0  0  0  0  0  0  0  0  0  0  0  0
  151.9722  140.5855  158.4897 N   0  0  0  0  0  0  0  0  0  0  0  0
  151.2634  139.4996  157.7773 C   0  0  0  0  0  0  0  0  0  0  0  0
  151.0059  139.8038  156.2929 C   0  0  0  0  0  0  0  0  0  0  0  0
  151.9395  139.9128  155.4962 O   0  0  0  0  0  0  0  0  0  0  0  0
  149.7185  139.9325  155.9406 N   0  0  0  0  0  0  0  0  0  0  0  0
  149.2434  140.2157  154.6250 C   0  0  0  0  0  0  0  0  0  0  0  0
  148.1041  141.2024  154.4877 C   0  0  0  0  0  0  0  0  0  0  0  0
  147.8546  139.7371  154.2602 C   0  0  0  0  0  0  0  0  0  0  0  0
  153.3057  140.3586  158.9162 C   0  0  0  0  0  0  0  0  0  0  0  0
  153.8756  139.2924  158.6774 O   0  0  0  0  0  0  0  0  0  0  0  0
  153.7464  143.3926  160.4387 H   0  0  0  0  0  0  0  0  0  0  0  0
  150.1825  143.7995  160.0603 H   0  0  0  0  0  0  0  0  0  0  0  0
  152.3321  145.3835  158.4459 H   0  0  0  0  0  0  0  0  0  0  0  0
  150.6837  145.9912  158.9887 H   0  0  0  0  0  0  0  0  0  0  0  0
  151.3280  145.5673  161.3823 H   0  0  0  0  0  0  0  0  0  0  0  0
  152.9716  144.9577  160.8270 H   0  0  0  0  0  0  0  0  0  0  0  0
  151.8144  138.5602  157.8432 H   0  0  0  0  0  0  0  0  0  0  0  0
  150.3097  139.2800  158.2607 H   0  0  0  0  0  0  0  0  0  0  0  0
  149.0197  139.8241  156.6613 H   0  0  0  0  0  0  0  0  0  0  0  0
  149.9751  140.2160  153.8181 H   0  0  0  0  0  0  0  0  0  0  0  0
  147.6996  141.6445  155.3964 H   0  0  0  0  0  0  0  0  0  0  0  0
  148.1063  141.8530  153.6154 H   0  0  0  0  0  0  0  0  0  0  0  0
  147.6905  139.4093  153.2357 H   0  0  0  0  0  0  0  0  0  0  0  0
  147.2840  139.2020  155.0171 H   0  0  0  0  0  0  0  0  0  0  0  0
  1  2  3  0  0  0  0
  2  3  1  0  0  0  0
  3 19  1  0  0  0  0
  3  4  2  0  0  0  0
  4  5  1  0  0  0  0
  4 21  1  0  0  0  0
  5  6  1  0  0  0  0
  5  9  1  0  0  0  0
  6  8  1  0  0  0  0
  6  7  1  0  0  0  0
  6 22  1  0  0  0  0
  7  8  1  0  0  0  0
  7 23  1  0  0  0  0
  7 24  1  0  0  0  0
  8 25  1  0  0  0  0
  8 26  1  0  0  0  0
  9 10  2  0  0  0  0
  9 11  1  0  0  0  0
 11 12  1  0  0  0  0
 11 19  1  0  0  0  0
 12 13  1  0  0  0  0
 12 27  1  0  0  0  0
 12 28  1  0  0  0  0
 13 14  2  0  0  0  0
 13 15  1  0  0  0  0
 15 16  1  0  0  0  0
 15 29  1  0  0  0  0
 16 18  1  0  0  0  0
 16 17  1  0  0  0  0
 16 30  1  0  0  0  0
 17 18  1  0  0  0  0
 17 31  1  0  0  0  0
 17 32  1  0  0  0  0
 18 33  1  0  0  0  0
 18 34  1  0  0  0  0
 19 20  2  0  0  0  0
M  END
> <s_m_source_file>
AV-unprocessed.smi

> <i_m_source_file_index>
398

> <i_lp_mmshare_version>
43012

> <i_f3d_flags>
0

> <s_epik_input>
TiNDYzFbY0hdbihbQ0hdMltDSDJdW0NIMl0yKWMoPU8pbihjMT1PKVtDSDJdQyg9TylbTkhdW0NIXTNbQ0gyXVtDSDJdMw==

> <s_epik_cmdline>
J2VwaWtfcHl0aG9uJywgJy1waCcsICc3LjAnLCAnLXRuJywgJzgnLCAnLW1hJywgJzIwMCcsICctbWV0YWxfYmluZGluZycsICctaW1hZScsICc8aW5maWxlLm1hZT4nLCAnLW9tYWUnLCAnPG91dGZpbGUubWFlPic=

> <r_lp_tautomer_probability>
1

> <r_epik_Ionization_Penalty>
2.07526e-08

> <r_epik_Ionization_Penalty_Charging>
8.22213e-11

> <r_epik_Ionization_Penalty_Neutral>
2.06703e-08

> <r_epik_State_Penalty>
-0

> <r_epik_Charging_Adjusted_Penalty>
8.22213e-11

> <i_epik_Tot_Q>
0

> <i_epik_Tot_abs_Q>
0

> <r_epik_Metal_State_Penalty>
-0

> <b_epik_Metal_Only>
0

> <s_lp_Force_Field>
OPLS_2005

> <r_lp_Energy>
41.1586

> <b_lp_Chiralities_Consistent>
1

> <s_lp_Variant>
AV-unprocessed.smi:398-1

> <Gold.Version>
5.8.1

> <Gold.Id.Protein>
6NUR|6NUR_protein|mol2

> <Gold.PLP.Fitness>
47.1298

> <Gold.PLP.PLP>
-43.2631

> <Gold.PLP.part.hbond>
-3.0000

> <Gold.PLP.part.metal>
0.0000

> <Gold.PLP.part.buried>
-3.9557

> <Gold.PLP.part.nonpolar>
-36.6825

> <Gold.PLP.part.repulsive>
0.1761

> <Gold.PLP.ligand.clash>
0.0000

> <Gold.PLP.ligand.torsion>
0.5944

> <Gold.PLP.Chemscore.Hbond>
1.5980

> <Gold.PLP.Chemscore.CHOScore>
0.0000

> <Gold.PLP.Chemscore.Metal>
0.0000

> <Gold.Chemscore.Hbonds>
donor molecule, donor type, donor heavy atom, donor atom, acceptor molecule, acceptor atom, score
      P1  H  7989  7998       L1    14  0.45
      P1  H  7997  8008       L1    20  0.70

> <Gold.PLP.Chemscore.Internal.Correction>
0.2616

> <Gold.Rescore>
     Score         DG    S(hbond)    S(metal)    S(lipo)     H(rot)  DE(clash)    DE(int)     intcor
     12.95     -13.64       0.97        0.00      82.69       1.87       0.10       0.59       ----

> <Gold.Chemscore.Fitness>
12.9524

> <Gold.Chemscore.DG>
-13.6351

> <Gold.Chemscore.ZeroCoef>
-5.4800

> <Gold.Chemscore.Hbond>
0.9749

> <Gold.Chemscore.Metal>
0.0000

> <Gold.Chemscore.Lipo>
82.6876

> <Gold.Chemscore.Internal_Hbond>
0.0000

> <Gold.Chemscore.DEClash>
0.0958

> <Gold.Chemscore.DEInternal>
0.5869

> <Gold.Chemscore.Rot>
1.8654

> <Gold.Chemscore.Internal.Correction>
   9.000000E+99

> <Gold.Chemscore.Hbonds>
donor molecule, donor type, donor heavy atom, donor atom, acceptor molecule, acceptor atom, score
      P1  H  7989  7998       L1    14  0.44
      P1  H  7997  8008       L1    20  0.07

> <Gold.Chemscore.Hbond.Weighted>
-3.2561

> <Gold.Chemscore.Metal.Weighted>
-0.0000

> <Gold.Chemscore.Lipo.Weighted>
-9.6745

> <Gold.Chemscore.Internal_Hbond.Weighted>
0.0000

> <Gold.Chemscore.DEClash.Weighted>
0.0958

> <Gold.Chemscore.DEInternal.Weighted>
0.5869

> <Gold.Chemscore.Rot.Weighted>
4.7755

> <Gold.Chemscore.Internal.Correction.Weighted>
   9.000000E+99

> <Gold.Protein.RotatedTorsions>
[ 6907 6896 6895 6894 ] final -128.39 input  -60.11 | X-H torsion
[ 7974 7965 7964 7962 ] final   57.54 input  175.53 | X-H torsion
[ 8008 7997 7996 7995 ] final -106.42 input   59.86 | X-H torsion
[ 10167 10162 10161 10158 ] final  -84.76 input  -65.29 | X-H torsion
[ 10718 10713 10712 10709 ] final   59.95 input   66.30 | X-H torsion
[ 10763 10752 10751 10750 ] final  -49.01 input  -60.55 | X-H torsion
[ 11005 11000 10999 10996 ] final -161.34 input  -57.11 | X-H torsion

> <Gold.Protein.ActiveResidues>
 VAL166  LYS551  ARG553  GLY616  TRP617  ASP618  TYR619  PRO620  LYS621  CYS622 
 ASP623  PHE694  ASN695  SER759  ASP760  ASP761  ALA762  ILE779  LEU786  VAL792 
 PHE793  MET794  SER795  GLU796  ALA797  LYS798  CYS799  TRP800  GLU811  SER814 

> <Gold.Protein.RotatedAtoms>
  150.9174  133.6922  159.2839 H   0  0  0  0  0  0  0  0  0  0  0  0  # atno 6907 bound_to 6896
  151.4389  135.1017  159.9674 H   0  0  0  0  0  0  0  0  0  0  0  0  # atno 6908 bound_to 6896
  152.4962  133.8587  159.7294 H   0  0  0  0  0  0  0  0  0  0  0  0  # atno 6909 bound_to 6896
  145.9279  139.3783  143.0439 H   0  0  0  0  0  0  0  0  0  0  0  0  # atno 7974 bound_to 7965
  154.9143  140.0409  157.1963 H   0  0  0  0  0  0  0  0  0  0  0  0  # atno 8008 bound_to 7997
  154.8316  140.2900  155.5697 H   0  0  0  0  0  0  0  0  0  0  0  0  # atno 8009 bound_to 7997
  156.2987  140.2499  156.3243 H   0  0  0  0  0  0  0  0  0  0  0  0  # atno 8010 bound_to 7997
  140.4102  143.2626  151.9027 H   0  0  0  0  0  0  0  0  0  0  0  0  # atno 10167 bound_to 10162
  157.5715  130.8911  149.9275 H   0  0  0  0  0  0  0  0  0  0  0  0  # atno 10718 bound_to 10713
  154.0872  135.6582  153.4847 H   0  0  0  0  0  0  0  0  0  0  0  0  # atno 10763 bound_to 10752
  153.0334  135.5194  154.7416 H   0  0  0  0  0  0  0  0  0  0  0  0  # atno 10764 bound_to 10752
  154.6529  135.3004  154.9933 H   0  0  0  0  0  0  0  0  0  0  0  0  # atno 10765 bound_to 10752
  140.6214  134.4746  157.5224 H   0  0  0  0  0  0  0  0  0  0  0  0  # atno 11005 bound_to 11000
  145.8465  140.9552  143.0772 LP  0  0  0  0  0  0  0  0  0  0  0  0  # atno 17320 bound_to 7965
  144.6761  140.0351  143.7482 LP  0  0  0  0  0  0  0  0  0  0  0  0  # atno 17321 bound_to 7965
  139.4783  144.5544  151.8336 LP  0  0  0  0  0  0  0  0  0  0  0  0  # atno 17342 bound_to 10162
  140.4646  144.1674  150.5910 LP  0  0  0  0  0  0  0  0  0  0  0  0  # atno 17343 bound_to 10162
  156.0760  130.3679  150.0676 LP  0  0  0  0  0  0  0  0  0  0  0  0  # atno 17370 bound_to 10713
  156.8828  130.9562  151.3597 LP  0  0  0  0  0  0  0  0  0  0  0  0  # atno 17371 bound_to 10713
  139.9152  134.8262  156.1392 LP  0  0  0  0  0  0  0  0  0  0  0  0  # atno 17394 bound_to 11000
  141.0739  133.6784  156.2197 LP  0  0  0  0  0  0  0  0  0  0  0  0  # atno 17395 bound_to 11000

$$$$
