AV-unprocessed.smi:1545|AV-procd|sdf|6214|dock10
  -GOLD-   22720 6383D 1   1.00000     0.00000
 Structure written by MMmdl.
 42 44  0  0  0  0  0  0  0  0  2 V2000
  149.9731  139.6327  153.5950 O   0  0  0  0  0  0  0  0  0  0  0  0
  148.8569  140.2669  154.1811 C   0  0  0  0  0  0  0  0  0  0  0  0
  149.3238  141.4002  155.1035 C   0  0  0  0  0  0  0  0  0  0  0  0
  149.8794  140.8865  156.3451 N   0  0  0  0  0  0  0  0  0  0  0  0
  150.4151  141.7848  157.2738 C   0  0  0  0  0  0  0  0  0  0  0  0
  150.3044  143.1396  157.2320 N   0  3  0  0  0  0  0  0  0  0  0  0
  150.9831  143.6702  158.3329 C   0  0  0  0  0  0  0  0  0  0  0  0
  151.1647  144.9888  158.7386 C   0  0  0  0  0  0  0  0  0  0  0  0
  151.9166  145.1923  159.9146 C   0  0  0  0  0  0  0  0  0  0  0  0
  152.4566  144.1098  160.6391 C   0  0  0  0  0  0  0  0  0  0  0  0
  152.2669  142.7758  160.2218 C   0  0  0  0  0  0  0  0  0  0  0  0
  151.5204  142.5806  159.0602 C   0  0  0  0  0  0  0  0  0  0  0  0
  151.1363  141.4261  158.3674 N   0  0  0  0  0  0  0  0  0  0  0  0
  151.5373  140.1040  158.8710 C   0  0  0  0  0  0  0  0  0  0  0  0
  153.0644  139.8950  158.8557 C   0  0  2  0  0  0  0  0  0  0  0  0
  153.4411  139.1999  157.6825 O   0  0  0  0  0  0  0  0  0  0  0  0
  153.5351  139.1892  160.1169 C   0  0  0  0  0  0  0  0  0  0  0  0
  153.1755  137.8458  160.3656 C   0  0  0  0  0  0  0  0  0  0  0  0
  153.6063  137.2019  161.5418 C   0  0  0  0  0  0  0  0  0  0  0  0
  154.3980  137.8968  162.4762 C   0  0  0  0  0  0  0  0  0  0  0  0
  154.7572  139.2369  162.2345 C   0  0  0  0  0  0  0  0  0  0  0  0
  155.5168  139.9070  163.1331 F   0  0  0  0  0  0  0  0  0  0  0  0
  154.3259  139.8817  161.0589 C   0  0  0  0  0  0  0  0  0  0  0  0
  149.7852  139.4800  152.6816 H   0  0  0  0  0  0  0  0  0  0  0  0
  148.1704  140.6251  153.4129 H   0  0  0  0  0  0  0  0  0  0  0  0
  148.3221  139.5169  154.7640 H   0  0  0  0  0  0  0  0  0  0  0  0
  150.1094  141.9643  154.5990 H   0  0  0  0  0  0  0  0  0  0  0  0
  148.5098  142.0980  155.3047 H   0  0  0  0  0  0  0  0  0  0  0  0
  150.0763  139.8992  156.4278 H   0  0  0  0  0  0  0  0  0  0  0  0
  150.7541  145.8211  158.1859 H   0  0  0  0  0  0  0  0  0  0  0  0
  152.0829  146.1998  160.2676 H   0  0  0  0  0  0  0  0  0  0  0  0
  153.0285  144.3066  161.5345 H   0  0  0  0  0  0  0  0  0  0  0  0
  152.6857  141.9542  160.7842 H   0  0  0  0  0  0  0  0  0  0  0  0
  151.1385  139.9830  159.8787 H   0  0  0  0  0  0  0  0  0  0  0  0
  151.0426  139.3514  158.2555 H   0  0  0  0  0  0  0  0  0  0  0  0
  153.5520  140.8695  158.8077 H   0  0  0  0  0  0  0  0  0  0  0  0
  153.3183  138.2744  157.8303 H   0  0  0  0  0  0  0  0  0  0  0  0
  152.5653  137.3054  159.6563 H   0  0  0  0  0  0  0  0  0  0  0  0
  153.3279  136.1748  161.7279 H   0  0  0  0  0  0  0  0  0  0  0  0
  154.7280  137.4029  163.3783 H   0  0  0  0  0  0  0  0  0  0  0  0
  154.6043  140.9108  160.8851 H   0  0  0  0  0  0  0  0  0  0  0  0
  149.8105  143.6536  156.5141 H   0  0  0  0  0  0  0  0  0  0  0  0
  1  2  1  0  0  0  0
  1 24  1  0  0  0  0
  2  3  1  0  0  0  0
  2 25  1  0  0  0  0
  2 26  1  0  0  0  0
  3  4  1  0  0  0  0
  3 27  1  0  0  0  0
  3 28  1  0  0  0  0
  4  5  1  0  0  0  0
  4 29  1  0  0  0  0
  5 13  1  0  0  0  0
  5  6  2  0  0  0  0
  6  7  1  0  0  0  0
  6 42  1  0  0  0  0
  7 12  2  0  0  0  0
  7  8  1  0  0  0  0
  8  9  2  0  0  0  0
  8 30  1  0  0  0  0
  9 10  1  0  0  0  0
  9 31  1  0  0  0  0
 10 11  2  0  0  0  0
 10 32  1  0  0  0  0
 11 12  1  0  0  0  0
 11 33  1  0  0  0  0
 12 13  1  0  0  0  0
 13 14  1  0  0  0  0
 14 15  1  0  0  0  0
 14 34  1  0  0  0  0
 14 35  1  0  0  0  0
 15 16  1  0  0  0  0
 15 17  1  0  0  0  0
 15 36  1  0  0  0  0
 16 37  1  0  0  0  0
 17 23  1  0  0  0  0
 17 18  2  0  0  0  0
 18 19  1  0  0  0  0
 18 38  1  0  0  0  0
 19 20  2  0  0  0  0
 19 39  1  0  0  0  0
 20 21  1  0  0  0  0
 20 40  1  0  0  0  0
 21 22  1  0  0  0  0
 21 23  2  0  0  0  0
 23 41  1  0  0  0  0
M  CHG  1   6   1
M  END
> <s_m_source_file>
AV-unprocessed.smi

> <i_m_source_file_index>
1545

> <i_lp_mmshare_version>
43012

> <i_f3d_flags>
0

> <s_epik_input>
W09IXVtDSDJdW0NIMl1bTkhdYyhuMSluKGMoYzEyKVtjSF1bY0hdW2NIXVtjSF0yKVtDSDJdW0NASF0oW09IXSljM1tjSF1bY0hdW2NIXWMoRilbY0hdMw==

> <s_epik_cmdline>
J2VwaWtfcHl0aG9uJywgJy1waCcsICc3LjAnLCAnLXRuJywgJzgnLCAnLW1hJywgJzIwMCcsICctbWV0YWxfYmluZGluZycsICctaW1hZScsICc8aW5maWxlLm1hZT4nLCAnLW9tYWUnLCAnPG91dGZpbGUubWFlPic=

> <r_epik_Ionization_Penalty>
0.0688114

> <r_epik_Ionization_Penalty_Charging>
0.0688055

> <r_epik_Ionization_Penalty_Neutral>
5.85933e-06

> <r_epik_State_Penalty>
0.0602293

> <r_epik_Charging_Adjusted_Penalty>
0.129035

> <i_epik_Tot_Q>
1

> <i_epik_Tot_abs_Q>
1

> <r_epik_Metal_State_Penalty>
2.77411

> <b_epik_Metal_Only>
0

> <s_lp_Force_Field>
OPLS_2005

> <r_lp_Energy>
22.2772

> <b_lp_Chiralities_Consistent>
1

> <s_lp_Variant>
AV-unprocessed.smi:1545-1

> <Gold.Version>
5.8.1

> <Gold.Id.Protein>
6NUR|6NUR_protein|mol2

> <Gold.PLP.Fitness>
62.8024

> <Gold.PLP.PLP>
-49.7649

> <Gold.PLP.part.hbond>
-3.8218

> <Gold.PLP.part.metal>
0.0000

> <Gold.PLP.part.buried>
-5.1591

> <Gold.PLP.part.nonpolar>
-40.9240

> <Gold.PLP.part.repulsive>
0.0467

> <Gold.PLP.ligand.clash>
0.0000

> <Gold.PLP.ligand.torsion>
0.6959

> <Gold.PLP.Chemscore.Hbond>
4.8000

> <Gold.PLP.Chemscore.CHOScore>
0.0000

> <Gold.PLP.Chemscore.Metal>
0.0000

> <Gold.Chemscore.Hbonds>
donor molecule, donor type, donor heavy atom, donor atom, acceptor molecule, acceptor atom, score
      L1  H     1    24       P1  7957  1.00
      L1  H     6    42       P1  8028  2.00
      P1  H  7989  7998       L1     1  0.75
      P1  H  7997  8009       L1    16  1.00

> <Gold.PLP.Chemscore.Internal.Correction>
0.0293

> <Gold.Rescore>
     Score         DG    S(hbond)    S(metal)    S(lipo)     H(rot)  DE(clash)    DE(int)     intcor
     23.58     -24.33       3.35        0.00     134.51       3.15       0.05       0.70       ----

> <Gold.Chemscore.Fitness>
23.5815

> <Gold.Chemscore.DG>
-24.3292

> <Gold.Chemscore.ZeroCoef>
-5.4800

> <Gold.Chemscore.Hbond>
3.3462

> <Gold.Chemscore.Metal>
0.0000

> <Gold.Chemscore.Lipo>
134.5130

> <Gold.Chemscore.Internal_Hbond>
0.0000

> <Gold.Chemscore.DEClash>
0.0500

> <Gold.Chemscore.DEInternal>
0.6977

> <Gold.Chemscore.Rot>
3.1505

> <Gold.Chemscore.Internal.Correction>
   9.000000E+99

> <Gold.Chemscore.Hbonds>
donor molecule, donor type, donor heavy atom, donor atom, acceptor molecule, acceptor atom, score
      L1  H     1    24       P1  7957  0.94
      L1  H     6    42       P1  8028  1.00
      P1  H  7989  7998       L1     1  0.18
      P1  H  7997  8009       L1    16  0.54

> <Gold.Chemscore.Hbond.Weighted>
-11.1764

> <Gold.Chemscore.Metal.Weighted>
-0.0000

> <Gold.Chemscore.Lipo.Weighted>
-15.7380

> <Gold.Chemscore.Internal_Hbond.Weighted>
0.0000

> <Gold.Chemscore.DEClash.Weighted>
0.0500

> <Gold.Chemscore.DEInternal.Weighted>
0.6977

> <Gold.Chemscore.Rot.Weighted>
8.0652

> <Gold.Chemscore.Internal.Correction.Weighted>
   9.000000E+99

> <Gold.Protein.RotatedTorsions>
[ 6907 6896 6895 6894 ] final   92.64 input  -60.11 | X-H torsion
[ 7974 7965 7964 7962 ] final   10.80 input  175.53 | X-H torsion
[ 8008 7997 7996 7995 ] final  150.79 input   59.86 | X-H torsion
[ 10167 10162 10161 10158 ] final  -79.63 input  -65.29 | X-H torsion
[ 10718 10713 10712 10709 ] final   -8.28 input   66.30 | X-H torsion
[ 10763 10752 10751 10750 ] final -140.37 input  -60.55 | X-H torsion
[ 11005 11000 10999 10996 ] final   40.77 input  -57.11 | X-H torsion

> <Gold.Protein.ActiveResidues>
 VAL166  LYS551  ARG553  GLY616  TRP617  ASP618  TYR619  PRO620  LYS621  CYS622 
 ASP623  PHE694  ASN695  SER759  ASP760  ASP761  ALA762  ILE779  LEU786  VAL792 
 PHE793  MET794  SER795  GLU796  ALA797  LYS798  CYS799  TRP800  GLU811  SER814 

> <Gold.Protein.RotatedAtoms>
  152.5453  134.1471  159.8502 H   0  0  0  0  0  0  0  0  0  0  0  0  # atno 6907 bound_to 6896
  151.1501  133.4906  159.2603 H   0  0  0  0  0  0  0  0  0  0  0  0  # atno 6908 bound_to 6896
  151.1481  135.0224  159.8711 H   0  0  0  0  0  0  0  0  0  0  0  0  # atno 6909 bound_to 6896
  146.2382  139.9580  142.8462 H   0  0  0  0  0  0  0  0  0  0  0  0  # atno 7974 bound_to 7965
  156.2701  140.2065  156.6073 H   0  0  0  0  0  0  0  0  0  0  0  0  # atno 8008 bound_to 7997
  154.6859  140.0535  157.0337 H   0  0  0  0  0  0  0  0  0  0  0  0  # atno 8009 bound_to 7997
  155.0935  140.3199  155.4570 H   0  0  0  0  0  0  0  0  0  0  0  0  # atno 8010 bound_to 7997
  140.4576  143.2463  151.8396 H   0  0  0  0  0  0  0  0  0  0  0  0  # atno 10167 bound_to 10162
  156.7049  130.5104  149.5907 H   0  0  0  0  0  0  0  0  0  0  0  0  # atno 10718 bound_to 10713
  154.8580  135.3555  154.5697 H   0  0  0  0  0  0  0  0  0  0  0  0  # atno 10763 bound_to 10752
  153.6310  135.7002  153.5280 H   0  0  0  0  0  0  0  0  0  0  0  0  # atno 10764 bound_to 10752
  153.3049  135.4195  155.1245 H   0  0  0  0  0  0  0  0  0  0  0  0  # atno 10765 bound_to 10752
  140.1898  134.4000  155.8153 H   0  0  0  0  0  0  0  0  0  0  0  0  # atno 11005 bound_to 11000
  145.1798  140.9761  143.4273 LP  0  0  0  0  0  0  0  0  0  0  0  0  # atno 17320 bound_to 7965
  144.9953  139.3650  143.6194 LP  0  0  0  0  0  0  0  0  0  0  0  0  # atno 17321 bound_to 7965
  139.4803  144.5046  151.9015 LP  0  0  0  0  0  0  0  0  0  0  0  0  # atno 17342 bound_to 10162
  140.4132  144.2341  150.5888 LP  0  0  0  0  0  0  0  0  0  0  0  0  # atno 17343 bound_to 10162
  156.1702  130.6432  151.0828 LP  0  0  0  0  0  0  0  0  0  0  0  0  # atno 17370 bound_to 10713
  157.6959  131.0794  150.6971 LP  0  0  0  0  0  0  0  0  0  0  0  0  # atno 17371 bound_to 10713
  141.2226  133.7041  156.8076 LP  0  0  0  0  0  0  0  0  0  0  0  0  # atno 17394 bound_to 11000
  140.2172  134.8784  157.3338 LP  0  0  0  0  0  0  0  0  0  0  0  0  # atno 17395 bound_to 11000

$$$$
