AV-unprocessed.smi:3350|AV-procd|sdf|12944|dock4
  -GOLD-   2272019373D 1   1.00000     0.00000
 Structure written by MMmdl.
 41 42  0  0  0  0  0  0  0  0  1 V2000
  143.9558  137.0476  152.9248 C   0  0  0  0  0  0  0  0  0  0  0  0
  145.0208  135.9863  152.6172 C   0  0  1  0  0  0  0  0  0  0  0  0
  144.9333  135.5123  151.1501 C   0  0  0  0  0  0  0  0  0  0  0  0
  145.0049  134.0677  151.0203 N   0  0  0  0  0  0  0  0  0  0  0  0
  144.0129  133.1912  150.6331 C   0  0  0  0  0  0  0  0  0  0  0  0
  144.5532  131.9376  150.6389 C   0  0  0  0  0  0  0  0  0  0  0  0
  145.8972  132.1516  151.0543 C   0  0  0  0  0  0  0  0  0  0  0  0
  146.1634  133.4269  151.2861 N   0  0  0  0  0  0  0  0  0  0  0  0
  146.3419  136.5432  152.9069 N   0  0  0  0  0  0  0  0  0  0  0  0
  146.6547  137.3017  153.9678 C   0  0  0  0  0  0  0  0  0  0  0  0
  145.8472  137.6482  154.8297 O   0  0  0  0  0  0  0  0  0  0  0  0
  147.9600  137.6130  153.9820 N   0  0  0  0  0  0  0  0  0  0  0  0
  148.6785  138.3824  155.0007 C   0  0  2  0  0  0  0  0  0  0  0  0
  147.8534  139.5991  155.4623 C   0  0  0  0  0  0  0  0  0  0  0  0
  150.1039  138.7586  154.5378 C   0  0  1  0  0  0  0  0  0  0  0  0
  150.9193  139.5448  155.5648 C   0  0  0  0  0  0  0  0  0  0  0  0
  152.3600  139.2410  155.1847 C   0  0  0  0  0  0  0  0  0  0  0  0
  152.2547  138.0156  154.2724 C   0  0  0  0  0  0  0  0  0  0  0  0
  150.9004  137.5963  154.3657 O   0  0  0  0  0  0  0  0  0  0  0  0
  142.9524  136.6551  152.7582 H   0  0  0  0  0  0  0  0  0  0  0  0
  144.0774  137.9286  152.2935 H   0  0  0  0  0  0  0  0  0  0  0  0
  144.0124  137.3714  153.9647 H   0  0  0  0  0  0  0  0  0  0  0  0
  144.8256  135.1363  153.2740 H   0  0  0  0  0  0  0  0  0  0  0  0
  143.9946  135.8438  150.7037 H   0  0  0  0  0  0  0  0  0  0  0  0
  145.7326  135.9566  150.5550 H   0  0  0  0  0  0  0  0  0  0  0  0
  143.0195  133.5302  150.3791 H   0  0  0  0  0  0  0  0  0  0  0  0
  144.0644  131.0096  150.3826 H   0  0  0  0  0  0  0  0  0  0  0  0
  146.6822  131.4231  151.1933 H   0  0  0  0  0  0  0  0  0  0  0  0
  147.0800  136.3149  152.2574 H   0  0  0  0  0  0  0  0  0  0  0  0
  148.5206  137.2741  153.2142 H   0  0  0  0  0  0  0  0  0  0  0  0
  148.7719  137.7113  155.8550 H   0  0  0  0  0  0  0  0  0  0  0  0
  148.3103  140.0787  156.3278 H   0  0  0  0  0  0  0  0  0  0  0  0
  146.8444  139.3027  155.7509 H   0  0  0  0  0  0  0  0  0  0  0  0
  147.7681  140.3528  154.6792 H   0  0  0  0  0  0  0  0  0  0  0  0
  150.0790  139.3119  153.5975 H   0  0  0  0  0  0  0  0  0  0  0  0
  150.6955  140.6118  155.5536 H   0  0  0  0  0  0  0  0  0  0  0  0
  150.7222  139.1704  156.5703 H   0  0  0  0  0  0  0  0  0  0  0  0
  152.8155  140.0767  154.6523 H   0  0  0  0  0  0  0  0  0  0  0  0
  152.9634  139.0371  156.0699 H   0  0  0  0  0  0  0  0  0  0  0  0
  152.4763  138.2868  153.2393 H   0  0  0  0  0  0  0  0  0  0  0  0
  152.9328  137.2144  154.5665 H   0  0  0  0  0  0  0  0  0  0  0  0
  1  2  1  0  0  0  0
  1 20  1  0  0  0  0
  1 21  1  0  0  0  0
  1 22  1  0  0  0  0
  2  3  1  0  0  0  0
  2  9  1  0  0  0  0
  2 23  1  0  0  0  0
  3  4  1  0  0  0  0
  3 24  1  0  0  0  0
  3 25  1  0  0  0  0
  4  8  1  0  0  0  0
  4  5  1  0  0  0  0
  5  6  2  0  0  0  0
  5 26  1  0  0  0  0
  6  7  1  0  0  0  0
  6 27  1  0  0  0  0
  7  8  2  0  0  0  0
  7 28  1  0  0  0  0
  9 10  1  0  0  0  0
  9 29  1  0  0  0  0
 10 11  2  0  0  0  0
 10 12  1  0  0  0  0
 12 13  1  0  0  0  0
 12 30  1  0  0  0  0
 13 14  1  0  0  0  0
 13 15  1  0  0  0  0
 13 31  1  0  0  0  0
 14 32  1  0  0  0  0
 14 33  1  0  0  0  0
 14 34  1  0  0  0  0
 15 19  1  0  0  0  0
 15 16  1  0  0  0  0
 15 35  1  0  0  0  0
 16 17  1  0  0  0  0
 16 36  1  0  0  0  0
 16 37  1  0  0  0  0
 17 18  1  0  0  0  0
 17 38  1  0  0  0  0
 17 39  1  0  0  0  0
 18 19  1  0  0  0  0
 18 40  1  0  0  0  0
 18 41  1  0  0  0  0
M  END
> <s_m_source_file>
AV-unprocessed.smi

> <i_m_source_file_index>
3350

> <i_lp_mmshare_version>
43012

> <i_f3d_flags>
0

> <s_epik_input>
bjFbY0hdW2NIXVtjSF1uMVtDSDJdW0NAQEhdKFtDSDNdKVtOSF1DKD1PKVtOSF1bQ0BIXShbQ0gzXSlbQ0BASF0yW0NIMl1bQ0gyXVtDSDJdTzI=

> <s_epik_cmdline>
J2VwaWtfcHl0aG9uJywgJy1waCcsICc3LjAnLCAnLXRuJywgJzgnLCAnLW1hJywgJzIwMCcsICctbWV0YWxfYmluZGluZycsICctaW1hZScsICc8aW5maWxlLm1hZT4nLCAnLW9tYWUnLCAnPG91dGZpbGUubWFlPic=

> <r_lp_tautomer_probability>
1

> <r_epik_Ionization_Penalty>
6.42349e-05

> <r_epik_Ionization_Penalty_Charging>
0

> <r_epik_Ionization_Penalty_Neutral>
6.42349e-05

> <r_epik_State_Penalty>
-0

> <r_epik_Charging_Adjusted_Penalty>
0

> <i_epik_Tot_Q>
0

> <i_epik_Tot_abs_Q>
0

> <r_epik_Metal_State_Penalty>
-0

> <b_epik_Metal_Only>
0

> <s_lp_Force_Field>
OPLS_2005

> <r_lp_Energy>
15.9813

> <b_lp_Chiralities_Consistent>
1

> <s_lp_Variant>
AV-unprocessed.smi:3350-6

> <Gold.Version>
5.8.1

> <Gold.Id.Protein>
6NUR|6NUR_protein|mol2

> <Gold.PLP.Fitness>
42.7321

> <Gold.PLP.PLP>
-32.9776

> <Gold.PLP.part.hbond>
-2.0000

> <Gold.PLP.part.metal>
0.0000

> <Gold.PLP.part.buried>
-4.8719

> <Gold.PLP.part.nonpolar>
-27.1272

> <Gold.PLP.part.repulsive>
0.4935

> <Gold.PLP.ligand.clash>
0.0000

> <Gold.PLP.ligand.torsion>
1.1688

> <Gold.PLP.Chemscore.Hbond>
2.0000

> <Gold.PLP.Chemscore.CHOScore>
2.0000

> <Gold.PLP.Chemscore.Metal>
0.0000

> <Gold.Chemscore.Hbonds>
donor molecule, donor type, donor heavy atom, donor atom, acceptor molecule, acceptor atom, score
      L1  H     9    29       P1  7948  1.00
      L1  H    12    30       P1  7948  1.00
      L1  C     5    26       P1 10186  1.00
      L1  C     7    28       P1 10747  0.99

> <Gold.PLP.Chemscore.Internal.Correction>
0.0922

> <Gold.Rescore>
     Score         DG    S(hbond)    S(metal)    S(lipo)     H(rot)  DE(clash)    DE(int)     intcor
     12.41     -16.62       1.93        0.00      80.05       1.82       0.03       4.18       ----

> <Gold.Chemscore.Fitness>
12.4122

> <Gold.Chemscore.DG>
-16.6223

> <Gold.Chemscore.ZeroCoef>
-5.4800

> <Gold.Chemscore.Hbond>
1.9266

> <Gold.Chemscore.Metal>
0.0000

> <Gold.Chemscore.Lipo>
80.0485

> <Gold.Chemscore.Internal_Hbond>
0.0000

> <Gold.Chemscore.DEClash>
0.0318

> <Gold.Chemscore.DEInternal>
4.1783

> <Gold.Chemscore.Rot>
1.8197

> <Gold.Chemscore.Internal.Correction>
   9.000000E+99

> <Gold.Chemscore.Hbonds>
donor molecule, donor type, donor heavy atom, donor atom, acceptor molecule, acceptor atom, score
      L1  H     9    29       P1  7948  0.94
      L1  H    12    30       P1  7948  0.99

> <Gold.Chemscore.Hbond.Weighted>
-6.4349

> <Gold.Chemscore.Metal.Weighted>
-0.0000

> <Gold.Chemscore.Lipo.Weighted>
-9.3657

> <Gold.Chemscore.Internal_Hbond.Weighted>
0.0000

> <Gold.Chemscore.DEClash.Weighted>
0.0318

> <Gold.Chemscore.DEInternal.Weighted>
4.1783

> <Gold.Chemscore.Rot.Weighted>
4.6583

> <Gold.Chemscore.Internal.Correction.Weighted>
   9.000000E+99

> <Gold.Protein.RotatedTorsions>
[ 6907 6896 6895 6894 ] final -134.26 input  -60.11 | X-H torsion
[ 7974 7965 7964 7962 ] final  121.51 input  175.53 | X-H torsion
[ 8008 7997 7996 7995 ] final -163.74 input   59.86 | X-H torsion
[ 10167 10162 10161 10158 ] final  -20.27 input  -65.29 | X-H torsion
[ 10718 10713 10712 10709 ] final  152.76 input   66.30 | X-H torsion
[ 10763 10752 10751 10750 ] final  -42.35 input  -60.55 | X-H torsion
[ 11005 11000 10999 10996 ] final   17.13 input  -57.11 | X-H torsion

> <Gold.Protein.ActiveResidues>
 VAL166  LYS551  ARG553  GLY616  TRP617  ASP618  TYR619  PRO620  LYS621  CYS622 
 ASP623  PHE694  ASN695  SER759  ASP760  ASP761  ALA762  ILE779  LEU786  VAL792 
 PHE793  MET794  SER795  GLU796  ALA797  LYS798  CYS799  TRP800  GLU811  SER814 

> <Gold.Protein.RotatedAtoms>
  150.9838  133.6219  159.2718 H   0  0  0  0  0  0  0  0  0  0  0  0  # atno 6907 bound_to 6896
  151.3464  135.0874  159.9398 H   0  0  0  0  0  0  0  0  0  0  0  0  # atno 6908 bound_to 6896
  152.5224  133.9439  159.7694 H   0  0  0  0  0  0  0  0  0  0  0  0  # atno 6909 bound_to 6896
  145.1185  139.3405  143.4726 H   0  0  0  0  0  0  0  0  0  0  0  0  # atno 7974 bound_to 7965
  155.8256  140.0926  157.1823 H   0  0  0  0  0  0  0  0  0  0  0  0  # atno 8008 bound_to 7997
  154.3979  140.1428  156.3612 H   0  0  0  0  0  0  0  0  0  0  0  0  # atno 8009 bound_to 7997
  155.8220  140.3446  155.5523 H   0  0  0  0  0  0  0  0  0  0  0  0  # atno 8010 bound_to 7997
  140.7275  143.4738  151.0210 H   0  0  0  0  0  0  0  0  0  0  0  0  # atno 10167 bound_to 10162
  157.2536  131.0784  151.1713 H   0  0  0  0  0  0  0  0  0  0  0  0  # atno 10718 bound_to 10713
  153.9776  135.6721  153.4749 H   0  0  0  0  0  0  0  0  0  0  0  0  # atno 10763 bound_to 10752
  153.0763  135.4947  154.8408 H   0  0  0  0  0  0  0  0  0  0  0  0  # atno 10764 bound_to 10752
  154.7183  135.3111  154.9050 H   0  0  0  0  0  0  0  0  0  0  0  0  # atno 10765 bound_to 10752
  140.4394  134.1338  155.7689 H   0  0  0  0  0  0  0  0  0  0  0  0  # atno 11005 bound_to 11000
  146.3522  140.1134  142.8603 LP  0  0  0  0  0  0  0  0  0  0  0  0  # atno 17320 bound_to 7965
  145.0767  140.9193  143.4850 LP  0  0  0  0  0  0  0  0  0  0  0  0  # atno 17321 bound_to 7965
  139.8432  143.7536  152.3180 LP  0  0  0  0  0  0  0  0  0  0  0  0  # atno 17342 bound_to 10162
  139.7692  144.7482  151.0249 LP  0  0  0  0  0  0  0  0  0  0  0  0  # atno 17343 bound_to 10162
  157.3251  130.6957  149.6292 LP  0  0  0  0  0  0  0  0  0  0  0  0  # atno 17370 bound_to 10713
  155.9665  130.4324  150.4961 LP  0  0  0  0  0  0  0  0  0  0  0  0  # atno 17371 bound_to 10713
  141.1712  133.8605  157.1564 LP  0  0  0  0  0  0  0  0  0  0  0  0  # atno 17394 bound_to 11000
  140.0080  135.0000  157.0334 LP  0  0  0  0  0  0  0  0  0  0  0  0  # atno 17395 bound_to 11000

$$$$
