AV-unprocessed.smi:3189|AV-procd|sdf|12187|dock2
  -GOLD-   2272018 33D 1   1.00000     0.00000
 Structure written by MMmdl.
 30 31  0  0  0  0  0  0  0  0  1 V2000
  147.3051  139.1489  153.3137 C   0  0  0  0  0  0  0  0  0  0  0  0
  148.5618  139.4326  154.1148 C   0  0  0  0  0  0  0  0  0  0  0  0
  149.4171  138.3957  154.2486 N   0  0  0  0  0  0  0  0  0  0  0  0
  150.5537  138.5968  154.9463 C   0  0  0  0  0  0  0  0  0  0  0  0
  150.8898  139.8267  155.5436 C   0  0  0  0  0  0  0  0  0  0  0  0
  149.9896  140.9121  155.4168 C   0  0  0  0  0  0  0  0  0  0  0  0
  150.2213  142.2048  155.9645 N   0  0  0  0  0  0  0  0  0  0  0  0
  150.9189  142.5669  157.0594 C   0  0  0  0  0  0  0  0  0  0  0  0
  151.5142  141.7919  157.8046 O   0  0  0  0  0  0  0  0  0  0  0  0
  150.8720  143.8850  157.3225 N   0  0  0  0  0  0  0  0  0  0  0  0
  151.5036  144.5765  158.4051 C   0  0  2  0  0  0  0  0  0  0  0  0
  152.9361  144.2017  158.7129 C   0  0  0  0  0  0  0  0  0  0  0  0
  151.8360  143.7995  159.6611 C   0  0  1  0  0  0  0  0  0  0  0  0
  151.7267  144.4519  161.0221 C   0  0  0  0  0  0  0  0  0  0  0  0
  148.8026  140.7096  154.6738 C   0  0  0  0  0  0  0  0  0  0  0  0
  147.6651  141.9985  154.4556 Cl  0  0  0  0  0  0  0  0  0  0  0  0
  146.4174  139.3648  153.9088 H   0  0  0  0  0  0  0  0  0  0  0  0
  147.2544  138.1043  153.0034 H   0  0  0  0  0  0  0  0  0  0  0  0
  147.2803  139.7698  152.4178 H   0  0  0  0  0  0  0  0  0  0  0  0
  151.2205  137.7511  155.0267 H   0  0  0  0  0  0  0  0  0  0  0  0
  151.8270  139.9088  156.0708 H   0  0  0  0  0  0  0  0  0  0  0  0
  149.7338  142.9551  155.4965 H   0  0  0  0  0  0  0  0  0  0  0  0
  150.2700  144.4432  156.7342 H   0  0  0  0  0  0  0  0  0  0  0  0
  151.2769  145.6359  158.5196 H   0  0  0  0  0  0  0  0  0  0  0  0
  153.3978  143.4135  158.1211 H   0  0  0  0  0  0  0  0  0  0  0  0
  153.6064  145.0008  159.0240 H   0  0  0  0  0  0  0  0  0  0  0  0
  151.5678  142.7445  159.6599 H   0  0  0  0  0  0  0  0  0  0  0  0
  151.9915  145.5082  160.9680 H   0  0  0  0  0  0  0  0  0  0  0  0
  152.3959  143.9605  161.7284 H   0  0  0  0  0  0  0  0  0  0  0  0
  150.7052  144.3693  161.3935 H   0  0  0  0  0  0  0  0  0  0  0  0
  1  2  1  0  0  0  0
  1 17  1  0  0  0  0
  1 18  1  0  0  0  0
  1 19  1  0  0  0  0
  2 15  1  0  0  0  0
  2  3  2  0  0  0  0
  3  4  1  0  0  0  0
  4  5  2  0  0  0  0
  4 20  1  0  0  0  0
  5  6  1  0  0  0  0
  5 21  1  0  0  0  0
  6  7  1  0  0  0  0
  6 15  2  0  0  0  0
  7  8  1  0  0  0  0
  7 22  1  0  0  0  0
  8  9  2  0  0  0  0
  8 10  1  0  0  0  0
 10 11  1  0  0  0  0
 10 23  1  0  0  0  0
 11 13  1  0  0  0  0
 11 12  1  0  0  0  0
 11 24  1  0  0  0  0
 12 13  1  0  0  0  0
 12 25  1  0  0  0  0
 12 26  1  0  0  0  0
 13 14  1  0  0  0  0
 13 27  1  0  0  0  0
 14 28  1  0  0  0  0
 14 29  1  0  0  0  0
 14 30  1  0  0  0  0
 15 16  1  0  0  0  0
M  END
> <s_m_source_file>
AV-unprocessed.smi

> <i_m_source_file_index>
3189

> <i_lp_mmshare_version>
43012

> <i_f3d_flags>
0

> <s_epik_input>
W0NIM11jMW5bY0hdW2NIXWMoYzFDbClbTkhdQyg9TylbTkhdW0NAQEhdMltDSDJdW0NASF0yW0NIM10=

> <s_epik_cmdline>
J2VwaWtfcHl0aG9uJywgJy1waCcsICc3LjAnLCAnLXRuJywgJzgnLCAnLW1hJywgJzIwMCcsICctbWV0YWxfYmluZGluZycsICctaW1hZScsICc8aW5maWxlLm1hZT4nLCAnLW9tYWUnLCAnPG91dGZpbGUubWFlPic=

> <r_epik_Ionization_Penalty>
0.00994309

> <r_epik_Ionization_Penalty_Charging>
0

> <r_epik_Ionization_Penalty_Neutral>
0.00994309

> <r_epik_State_Penalty>
0.00754503

> <r_epik_Charging_Adjusted_Penalty>
0.00754503

> <i_epik_Tot_Q>
0

> <i_epik_Tot_abs_Q>
0

> <r_epik_Metal_State_Penalty>
0.00742071

> <b_epik_Metal_Only>
0

> <s_lp_Force_Field>
OPLS_2005

> <r_lp_Energy>
33.6012

> <b_lp_Chiralities_Consistent>
1

> <s_lp_Variant>
AV-unprocessed.smi:3189-1

> <Gold.Version>
5.8.1

> <Gold.Id.Protein>
6NUR|6NUR_protein|mol2

> <Gold.PLP.Fitness>
43.8236

> <Gold.PLP.PLP>
-38.7087

> <Gold.PLP.part.hbond>
-2.0000

> <Gold.PLP.part.metal>
0.0000

> <Gold.PLP.part.buried>
-1.9839

> <Gold.PLP.part.nonpolar>
-34.4930

> <Gold.PLP.part.repulsive>
0.4065

> <Gold.PLP.ligand.clash>
0.0000

> <Gold.PLP.ligand.torsion>
0.4485

> <Gold.PLP.Chemscore.Hbond>
1.9920

> <Gold.PLP.Chemscore.CHOScore>
0.0000

> <Gold.PLP.Chemscore.Metal>
0.0000

> <Gold.Chemscore.Hbonds>
donor molecule, donor type, donor heavy atom, donor atom, acceptor molecule, acceptor atom, score
      L1  H     7    22       P1  8028  0.94
      L1  H    10    23       P1  8028  1.00

> <Gold.PLP.Chemscore.Internal.Correction>
0.0360

> <Gold.Rescore>
     Score         DG    S(hbond)    S(metal)    S(lipo)     H(rot)  DE(clash)    DE(int)     intcor
     16.83     -20.68       1.87        0.00      98.46       1.00       0.03       3.81       ----

> <Gold.Chemscore.Fitness>
16.8320

> <Gold.Chemscore.DG>
-20.6802

> <Gold.Chemscore.ZeroCoef>
-5.4800

> <Gold.Chemscore.Hbond>
1.8683

> <Gold.Chemscore.Metal>
0.0000

> <Gold.Chemscore.Lipo>
98.4610

> <Gold.Chemscore.Internal_Hbond>
0.0000

> <Gold.Chemscore.DEClash>
0.0348

> <Gold.Chemscore.DEInternal>
3.8134

> <Gold.Chemscore.Rot>
1.0000

> <Gold.Chemscore.Internal.Correction>
   9.000000E+99

> <Gold.Chemscore.Hbonds>
donor molecule, donor type, donor heavy atom, donor atom, acceptor molecule, acceptor atom, score
      L1  H     7    22       P1  8028  0.90
      L1  H    10    23       P1  8028  0.92

> <Gold.Chemscore.Hbond.Weighted>
-6.2402

> <Gold.Chemscore.Metal.Weighted>
-0.0000

> <Gold.Chemscore.Lipo.Weighted>
-11.5199

> <Gold.Chemscore.Internal_Hbond.Weighted>
0.0000

> <Gold.Chemscore.DEClash.Weighted>
0.0348

> <Gold.Chemscore.DEInternal.Weighted>
3.8134

> <Gold.Chemscore.Rot.Weighted>
2.5600

> <Gold.Chemscore.Internal.Correction.Weighted>
   9.000000E+99

> <Gold.Protein.RotatedTorsions>
[ 6907 6896 6895 6894 ] final  130.88 input  -60.11 | X-H torsion
[ 7974 7965 7964 7962 ] final  -78.92 input  175.53 | X-H torsion
[ 8008 7997 7996 7995 ] final   39.39 input   59.86 | X-H torsion
[ 10167 10162 10161 10158 ] final  143.12 input  -65.29 | X-H torsion
[ 10718 10713 10712 10709 ] final  -75.79 input   66.30 | X-H torsion
[ 10763 10752 10751 10750 ] final -170.91 input  -60.55 | X-H torsion
[ 11005 11000 10999 10996 ] final  132.43 input  -57.11 | X-H torsion

> <Gold.Protein.ActiveResidues>
 VAL166  LYS551  ARG553  GLY616  TRP617  ASP618  TYR619  PRO620  LYS621  CYS622 
 ASP623  PHE694  ASN695  SER759  ASP760  ASP761  ALA762  ILE779  LEU786  VAL792 
 PHE793  MET794  SER795  GLU796  ALA797  LYS798  CYS799  TRP800  GLU811  SER814 

> <Gold.Protein.RotatedAtoms>
  152.3482  133.6147  159.5925 H   0  0  0  0  0  0  0  0  0  0  0  0  # atno 6907 bound_to 6896
  150.7521  133.9616  159.3526 H   0  0  0  0  0  0  0  0  0  0  0  0  # atno 6908 bound_to 6896
  151.7471  135.0842  160.0376 H   0  0  0  0  0  0  0  0  0  0  0  0  # atno 6909 bound_to 6896
  145.5801  140.9450  143.1349 H   0  0  0  0  0  0  0  0  0  0  0  0  # atno 7974 bound_to 7965
  155.2359  140.3342  155.4298 H   0  0  0  0  0  0  0  0  0  0  0  0  # atno 8008 bound_to 7997
  156.2276  140.1836  156.7370 H   0  0  0  0  0  0  0  0  0  0  0  0  # atno 8009 bound_to 7997
  154.5924  140.0636  156.9242 H   0  0  0  0  0  0  0  0  0  0  0  0  # atno 8010 bound_to 7997
  139.4977  144.6061  151.6374 H   0  0  0  0  0  0  0  0  0  0  0  0  # atno 10167 bound_to 10162
  156.0196  130.4449  150.3095 H   0  0  0  0  0  0  0  0  0  0  0  0  # atno 10718 bound_to 10713
  154.6363  135.2893  155.0156 H   0  0  0  0  0  0  0  0  0  0  0  0  # atno 10763 bound_to 10752
  154.1299  135.6535  153.4924 H   0  0  0  0  0  0  0  0  0  0  0  0  # atno 10764 bound_to 10752
  153.0304  135.5308  154.7212 H   0  0  0  0  0  0  0  0  0  0  0  0  # atno 10765 bound_to 10752
  139.9789  134.9554  156.9580 H   0  0  0  0  0  0  0  0  0  0  0  0  # atno 11005 bound_to 11000
  144.7398  139.7481  143.7315 LP  0  0  0  0  0  0  0  0  0  0  0  0  # atno 17320 bound_to 7965
  146.1723  139.4878  142.9920 LP  0  0  0  0  0  0  0  0  0  0  0  0  # atno 17321 bound_to 7965
  140.5724  144.0087  150.6223 LP  0  0  0  0  0  0  0  0  0  0  0  0  # atno 17342 bound_to 10162
  140.3209  143.3138  152.0785 LP  0  0  0  0  0  0  0  0  0  0  0  0  # atno 17343 bound_to 10162
  157.1197  131.0243  151.3014 LP  0  0  0  0  0  0  0  0  0  0  0  0  # atno 17370 bound_to 10713
  157.4638  130.7668  149.7260 LP  0  0  0  0  0  0  0  0  0  0  0  0  # atno 17371 bound_to 10713
  140.5136  134.0977  155.7276 LP  0  0  0  0  0  0  0  0  0  0  0  0  # atno 17394 bound_to 11000
  141.1464  133.9048  157.2206 LP  0  0  0  0  0  0  0  0  0  0  0  0  # atno 17395 bound_to 11000

$$$$
