AV-unprocessed.smi:1478|AV-procd|sdf|5982|dock8
  -GOLD-   22720 6 73D 1   1.00000     0.00000
 Structure written by MMmdl.
 46 47  0  0  0  0  0  0  0  0  1 V2000
  151.6999  143.2331  158.6882 C   0  0  0  0  0  0  0  0  0  0  0  0
  150.7295  142.2082  158.5626 O   0  0  0  0  0  0  0  0  0  0  0  0
  151.1323  141.1868  157.6661 C   0  0  0  0  0  0  0  0  0  0  0  0
  150.6410  141.5428  156.2549 C   0  0  0  0  0  0  0  0  0  0  0  0
  150.4105  140.3419  155.4455 N   0  0  0  0  0  0  0  0  0  0  0  0
  149.1399  140.2632  154.8995 N   0  0  0  0  0  0  0  0  0  0  0  0
  148.8079  139.2479  154.1687 C   0  0  0  0  0  0  0  0  0  0  0  0
  147.4537  139.1261  153.5603 C   0  0  0  0  0  0  0  0  0  0  0  0
  146.5625  139.9460  153.7883 O   0  0  0  0  0  0  0  0  0  0  0  0
  147.2822  138.0686  152.7461 N   0  0  0  0  0  0  0  0  0  0  0  0
  146.0523  137.7255  152.0327 C   0  0  0  0  0  0  0  0  0  0  0  0
  145.5740  136.2620  152.2570 C   0  0  0  0  0  0  0  0  0  0  0  0
  145.8640  135.9355  153.7484 C   0  0  0  0  0  0  0  0  0  0  0  0
  147.1234  136.0163  154.1905 N   0  0  0  0  0  0  0  0  0  0  0  0
  144.9540  135.5903  154.5008 O   0  0  0  0  0  0  0  0  0  0  0  0
  144.0715  136.0842  151.8921 C   0  0  0  0  0  0  0  0  0  0  0  0
  143.6238  134.6092  151.9372 C   0  0  0  0  0  0  0  0  0  0  0  0
  144.4299  133.8328  151.0590 O   0  0  0  0  0  0  0  0  0  0  0  0
  145.8088  133.8452  151.4103 C   0  0  0  0  0  0  0  0  0  0  0  0
  146.3541  135.2849  151.3328 C   0  0  0  0  0  0  0  0  0  0  0  0
  149.7546  138.1755  153.9111 C   0  0  0  0  0  0  0  0  0  0  0  0
  150.9893  138.2656  154.4519 C   0  0  0  0  0  0  0  0  0  0  0  0
  151.3909  139.4032  155.2807 C   0  0  0  0  0  0  0  0  0  0  0  0
  152.5078  139.5057  155.7871 O   0  0  0  0  0  0  0  0  0  0  0  0
  151.3437  143.9918  159.3848 H   0  0  0  0  0  0  0  0  0  0  0  0
  151.8886  143.7184  157.7295 H   0  0  0  0  0  0  0  0  0  0  0  0
  152.6414  142.8387  159.0726 H   0  0  0  0  0  0  0  0  0  0  0  0
  152.2190  141.0900  157.6795 H   0  0  0  0  0  0  0  0  0  0  0  0
  150.7118  140.2294  157.9784 H   0  0  0  0  0  0  0  0  0  0  0  0
  149.7202  142.1244  156.3290 H   0  0  0  0  0  0  0  0  0  0  0  0
  151.3601  142.2001  155.7626 H   0  0  0  0  0  0  0  0  0  0  0  0
  148.0690  137.4490  152.6138 H   0  0  0  0  0  0  0  0  0  0  0  0
  145.2876  138.4215  152.3809 H   0  0  0  0  0  0  0  0  0  0  0  0
  146.1653  137.9270  150.9655 H   0  0  0  0  0  0  0  0  0  0  0  0
  147.3327  135.8104  155.1565 H   0  0  0  0  0  0  0  0  0  0  0  0
  147.8611  136.2855  153.5558 H   0  0  0  0  0  0  0  0  0  0  0  0
  143.4312  136.6952  152.5293 H   0  0  0  0  0  0  0  0  0  0  0  0
  143.8920  136.4422  150.8786 H   0  0  0  0  0  0  0  0  0  0  0  0
  143.6702  134.2003  152.9471 H   0  0  0  0  0  0  0  0  0  0  0  0
  142.5852  134.5284  151.6165 H   0  0  0  0  0  0  0  0  0  0  0  0
  145.9487  133.4136  152.4023 H   0  0  0  0  0  0  0  0  0  0  0  0
  146.3505  133.2061  150.7130 H   0  0  0  0  0  0  0  0  0  0  0  0
  146.2804  135.6109  150.2951 H   0  0  0  0  0  0  0  0  0  0  0  0
  147.4203  135.2909  151.5637 H   0  0  0  0  0  0  0  0  0  0  0  0
  149.4859  137.3236  153.3033 H   0  0  0  0  0  0  0  0  0  0  0  0
  151.7028  137.4757  154.2687 H   0  0  0  0  0  0  0  0  0  0  0  0
  1  2  1  0  0  0  0
  1 25  1  0  0  0  0
  1 26  1  0  0  0  0
  1 27  1  0  0  0  0
  2  3  1  0  0  0  0
  3  4  1  0  0  0  0
  3 28  1  0  0  0  0
  3 29  1  0  0  0  0
  4  5  1  0  0  0  0
  4 30  1  0  0  0  0
  4 31  1  0  0  0  0
  5 23  1  0  0  0  0
  5  6  1  0  0  0  0
  6  7  2  0  0  0  0
  7  8  1  0  0  0  0
  7 21  1  0  0  0  0
  8  9  2  0  0  0  0
  8 10  1  0  0  0  0
 10 11  1  0  0  0  0
 10 32  1  0  0  0  0
 11 12  1  0  0  0  0
 11 33  1  0  0  0  0
 11 34  1  0  0  0  0
 12 20  1  0  0  0  0
 12 13  1  0  0  0  0
 12 16  1  0  0  0  0
 13 14  1  0  0  0  0
 13 15  2  0  0  0  0
 14 35  1  0  0  0  0
 14 36  1  0  0  0  0
 16 17  1  0  0  0  0
 16 37  1  0  0  0  0
 16 38  1  0  0  0  0
 17 18  1  0  0  0  0
 17 39  1  0  0  0  0
 17 40  1  0  0  0  0
 18 19  1  0  0  0  0
 19 20  1  0  0  0  0
 19 41  1  0  0  0  0
 19 42  1  0  0  0  0
 20 43  1  0  0  0  0
 20 44  1  0  0  0  0
 21 22  2  0  0  0  0
 21 45  1  0  0  0  0
 22 23  1  0  0  0  0
 22 46  1  0  0  0  0
 23 24  2  0  0  0  0
M  END
> <s_m_source_file>
AV-unprocessed.smi

> <i_m_source_file_index>
1478

> <i_lp_mmshare_version>
43012

> <i_f3d_flags>
0

> <s_epik_input>
W0NIM11PW0NIMl1bQ0gyXW4xbmMoW2NIXVtjSF1jMT1PKUMoPU8pW05IXVtDSDJdQzIoQyg9TylbTkgyXSlbQ0gyXVtDSDJdT1tDSDJdW0NIMl0y

> <s_epik_cmdline>
J2VwaWtfcHl0aG9uJywgJy1waCcsICc3LjAnLCAnLXRuJywgJzgnLCAnLW1hJywgJzIwMCcsICctbWV0YWxfYmluZGluZycsICctaW1hZScsICc8aW5maWxlLm1hZT4nLCAnLW9tYWUnLCAnPG91dGZpbGUubWFlPic=

> <r_lp_tautomer_probability>
1

> <r_epik_Ionization_Penalty>
1.88897e-06

> <r_epik_Ionization_Penalty_Charging>
5.89949e-09

> <r_epik_Ionization_Penalty_Neutral>
1.88307e-06

> <r_epik_State_Penalty>
-0

> <r_epik_Charging_Adjusted_Penalty>
5.89949e-09

> <i_epik_Tot_Q>
0

> <i_epik_Tot_abs_Q>
0

> <r_epik_Metal_State_Penalty>
-0

> <b_epik_Metal_Only>
0

> <s_lp_Force_Field>
OPLS_2005

> <r_lp_Energy>
34.3796

> <b_lp_Chiralities_Consistent>
1

> <s_lp_Variant>
AV-unprocessed.smi:1478-1

> <Gold.Version>
5.8.1

> <Gold.Id.Protein>
6NUR|6NUR_protein|mol2

> <Gold.PLP.Fitness>
41.8936

> <Gold.PLP.PLP>
-34.8590

> <Gold.PLP.part.hbond>
-3.0091

> <Gold.PLP.part.metal>
0.0000

> <Gold.PLP.part.buried>
1.0682

> <Gold.PLP.part.nonpolar>
-33.2693

> <Gold.PLP.part.repulsive>
0.4815

> <Gold.PLP.ligand.clash>
0.5361

> <Gold.PLP.ligand.torsion>
0.7404

> <Gold.PLP.Chemscore.Hbond>
3.0000

> <Gold.PLP.Chemscore.CHOScore>
0.0000

> <Gold.PLP.Chemscore.Metal>
0.0000

> <Gold.Chemscore.Hbonds>
donor molecule, donor type, donor heavy atom, donor atom, acceptor molecule, acceptor atom, score
      L1  H    10    32       P1  7948  1.00
      L1  H    14    36       P1  7948  1.00
      P1  H  7997  8010       L1    24  1.00

> <Gold.PLP.Chemscore.Internal.Correction>
0.0515

> <Gold.Rescore>
     Score         DG    S(hbond)    S(metal)    S(lipo)     H(rot)  DE(clash)    DE(int)     intcor
     12.86     -17.63       2.99        0.00      77.49       2.69       1.96       2.81       ----

> <Gold.Chemscore.Fitness>
12.8622

> <Gold.Chemscore.DG>
-17.6311

> <Gold.Chemscore.ZeroCoef>
-5.4800

> <Gold.Chemscore.Hbond>
2.9887

> <Gold.Chemscore.Metal>
0.0000

> <Gold.Chemscore.Lipo>
77.4906

> <Gold.Chemscore.Internal_Hbond>
0.0000

> <Gold.Chemscore.DEClash>
1.9635

> <Gold.Chemscore.DEInternal>
2.8054

> <Gold.Chemscore.Rot>
2.6944

> <Gold.Chemscore.Internal.Correction>
   9.000000E+99

> <Gold.Chemscore.Hbonds>
donor molecule, donor type, donor heavy atom, donor atom, acceptor molecule, acceptor atom, score
      L1  H    10    32       P1  7948  0.98
      L1  H    14    36       P1  7948  0.93
      P1  H  7997  8010       L1    24  0.97

> <Gold.Chemscore.Hbond.Weighted>
-9.9824

> <Gold.Chemscore.Metal.Weighted>
-0.0000

> <Gold.Chemscore.Lipo.Weighted>
-9.0664

> <Gold.Chemscore.Internal_Hbond.Weighted>
0.0000

> <Gold.Chemscore.DEClash.Weighted>
1.9635

> <Gold.Chemscore.DEInternal.Weighted>
2.8054

> <Gold.Chemscore.Rot.Weighted>
6.8976

> <Gold.Chemscore.Internal.Correction.Weighted>
   9.000000E+99

> <Gold.Protein.RotatedTorsions>
[ 6907 6896 6895 6894 ] final -105.17 input  -60.11 | X-H torsion
[ 7974 7965 7964 7962 ] final -141.30 input  175.53 | X-H torsion
[ 8008 7997 7996 7995 ] final   80.19 input   59.86 | X-H torsion
[ 10167 10162 10161 10158 ] final  -54.58 input  -65.29 | X-H torsion
[ 10718 10713 10712 10709 ] final   56.34 input   66.30 | X-H torsion
[ 10763 10752 10751 10750 ] final   25.48 input  -60.55 | X-H torsion
[ 11005 11000 10999 10996 ] final  151.60 input  -57.11 | X-H torsion

> <Gold.Protein.ActiveResidues>
 VAL166  LYS551  ARG553  GLY616  TRP617  ASP618  TYR619  PRO620  LYS621  CYS622 
 ASP623  PHE694  ASN695  SER759  ASP760  ASP761  ALA762  ILE779  LEU786  VAL792 
 PHE793  MET794  SER795  GLU796  ALA797  LYS798  CYS799  TRP800  GLU811  SER814 

> <Gold.Protein.RotatedAtoms>
  150.7323  134.0167  159.3687 H   0  0  0  0  0  0  0  0  0  0  0  0  # atno 6907 bound_to 6896
  151.8130  135.0673  160.0424 H   0  0  0  0  0  0  0  0  0  0  0  0  # atno 6908 bound_to 6896
  152.3059  133.5666  159.5685 H   0  0  0  0  0  0  0  0  0  0  0  0  # atno 6909 bound_to 6896
  144.8530  140.6096  143.5378 H   0  0  0  0  0  0  0  0  0  0  0  0  # atno 7974 bound_to 7965
  155.8801  140.3444  155.5882 H   0  0  0  0  0  0  0  0  0  0  0  0  # atno 8008 bound_to 7997
  155.7729  140.0848  157.2118 H   0  0  0  0  0  0  0  0  0  0  0  0  # atno 8009 bound_to 7997
  154.4024  140.1515  156.2950 H   0  0  0  0  0  0  0  0  0  0  0  0  # atno 8010 bound_to 7997
  140.6422  143.2514  151.4957 H   0  0  0  0  0  0  0  0  0  0  0  0  # atno 10167 bound_to 10162
  157.5423  130.8706  149.8840 H   0  0  0  0  0  0  0  0  0  0  0  0  # atno 10718 bound_to 10713
  153.0689  135.6582  154.0291 H   0  0  0  0  0  0  0  0  0  0  0  0  # atno 10763 bound_to 10752
  153.9942  135.2943  155.3410 H   0  0  0  0  0  0  0  0  0  0  0  0  # atno 10764 bound_to 10752
  154.7057  135.5226  153.8661 H   0  0  0  0  0  0  0  0  0  0  0  0  # atno 10765 bound_to 10752
  140.1233  134.8849  157.2103 H   0  0  0  0  0  0  0  0  0  0  0  0  # atno 11005 bound_to 11000
  145.4463  139.1529  143.3943 LP  0  0  0  0  0  0  0  0  0  0  0  0  # atno 17320 bound_to 7965
  146.2800  140.4587  142.8780 LP  0  0  0  0  0  0  0  0  0  0  0  0  # atno 17321 bound_to 7965
  139.5632  144.2106  152.1724 LP  0  0  0  0  0  0  0  0  0  0  0  0  # atno 17342 bound_to 10162
  140.1380  144.5228  150.6761 LP  0  0  0  0  0  0  0  0  0  0  0  0  # atno 17343 bound_to 10162
  156.0506  130.3718  150.1209 LP  0  0  0  0  0  0  0  0  0  0  0  0  # atno 17370 bound_to 10713
  156.9388  130.9738  151.3520 LP  0  0  0  0  0  0  0  0  0  0  0  0  # atno 17371 bound_to 10713
  140.2936  134.3212  155.7308 LP  0  0  0  0  0  0  0  0  0  0  0  0  # atno 17394 bound_to 11000
  141.2156  133.7549  156.9539 LP  0  0  0  0  0  0  0  0  0  0  0  0  # atno 17395 bound_to 11000

$$$$
