AV-unprocessed.smi:100|AV-procd|sdf|907|dock1
  -GOLD-   2262017403D 1   1.00000     0.00000
 Structure written by MMmdl.
 31 33  0  0  0  0  0  0  0  0  1 V2000
  148.8503  138.9194  154.5437 N   0  0  0  0  0  0  0  0  0  0  0  0
  149.9833  139.4873  154.9798 C   0  0  0  0  0  0  0  0  0  0  0  0
  151.1623  139.0011  154.5262 N   0  0  0  0  0  0  0  0  0  0  0  0
  152.3058  139.5527  154.9451 C   0  0  0  0  0  0  0  0  0  0  0  0
  152.4814  140.5700  155.7922 N   0  0  0  0  0  0  0  0  0  0  0  0
  151.2918  141.0575  156.2521 C   0  0  0  0  0  0  0  0  0  0  0  0
  150.0035  140.5725  155.8923 C   0  0  0  0  0  0  0  0  0  0  0  0
  149.0216  141.3050  156.5452 N   0  0  0  0  0  0  0  0  0  0  0  0
  149.6958  142.1728  157.2507 C   0  0  0  0  0  0  0  0  0  0  0  0
  151.0672  142.0925  157.1387 N   0  0  0  0  0  0  0  0  0  0  0  0
  152.0874  142.9445  157.8305 C   0  0  2  0  0  0  0  0  0  0  0  0
  151.9671  142.7599  159.2077 O   0  0  0  0  0  0  0  0  0  0  0  0
  152.2098  144.0026  159.8579 C   0  0  2  0  0  0  0  0  0  0  0  0
  151.6488  143.9947  161.2887 C   0  0  0  0  0  0  0  0  0  0  0  0
  152.0492  142.8181  161.9587 O   0  0  0  0  0  0  0  0  0  0  0  0
  151.5349  145.0051  158.9179 C   0  0  2  0  0  0  0  0  0  0  0  0
  150.2134  144.9706  159.1049 F   0  0  0  0  0  0  0  0  0  0  0  0
  151.9133  144.4527  157.5507 C   0  0  2  0  0  0  0  0  0  0  0  0
  150.9753  144.7959  156.5455 O   0  0  0  0  0  0  0  0  0  0  0  0
  147.9584  139.2650  154.8676 H   0  0  0  0  0  0  0  0  0  0  0  0
  148.8907  138.1503  153.8911 H   0  0  0  0  0  0  0  0  0  0  0  0
  153.2099  139.1176  154.5455 H   0  0  0  0  0  0  0  0  0  0  0  0
  149.2062  142.8998  157.8822 H   0  0  0  0  0  0  0  0  0  0  0  0
  153.0480  142.5611  157.4828 H   0  0  0  0  0  0  0  0  0  0  0  0
  153.2838  144.1999  159.8675 H   0  0  0  0  0  0  0  0  0  0  0  0
  152.0436  144.8410  161.8513 H   0  0  0  0  0  0  0  0  0  0  0  0
  150.5616  144.0823  161.2897 H   0  0  0  0  0  0  0  0  0  0  0  0
  152.9892  142.8323  162.0557 H   0  0  0  0  0  0  0  0  0  0  0  0
  151.8628  146.0332  159.0736 H   0  0  0  0  0  0  0  0  0  0  0  0
  152.8898  144.8441  157.2627 H   0  0  0  0  0  0  0  0  0  0  0  0
  150.1202  144.8623  156.9418 H   0  0  0  0  0  0  0  0  0  0  0  0
  1  2  1  0  0  0  0
  1 20  1  0  0  0  0
  1 21  1  0  0  0  0
  2  7  1  0  0  0  0
  2  3  2  0  0  0  0
  3  4  1  0  0  0  0
  4  5  2  0  0  0  0
  4 22  1  0  0  0  0
  5  6  1  0  0  0  0
  6 10  1  0  0  0  0
  6  7  2  0  0  0  0
  7  8  1  0  0  0  0
  8  9  2  0  0  0  0
  9 10  1  0  0  0  0
  9 23  1  0  0  0  0
 10 11  1  0  0  0  0
 11 18  1  0  0  0  0
 11 12  1  0  0  0  0
 11 24  1  0  0  0  0
 12 13  1  0  0  0  0
 13 14  1  0  0  0  0
 13 16  1  0  0  0  0
 13 25  1  0  0  0  0
 14 15  1  0  0  0  0
 14 26  1  0  0  0  0
 14 27  1  0  0  0  0
 15 28  1  0  0  0  0
 16 17  1  0  0  0  0
 16 18  1  0  0  0  0
 16 29  1  0  0  0  0
 18 19  1  0  0  0  0
 18 30  1  0  0  0  0
 19 31  1  0  0  0  0
M  END
> <s_m_source_file>
AV-unprocessed.smi

> <i_m_source_file_index>
100

> <i_lp_mmshare_version>
43012

> <i_f3d_flags>
0

> <s_epik_input>
bjFbY0hdbmMoW05IMl0pYyhjMTIpbltjSF1uMltDQEBIXTNPW0NAQEhdKFtDSDJdW09IXSlbQ0BIXShGKVtDQEhdM1tPSF0=

> <s_epik_cmdline>
J2VwaWtfcHl0aG9uJywgJy1waCcsICc3LjAnLCAnLXRuJywgJzgnLCAnLW1hJywgJzIwMCcsICctbWV0YWxfYmluZGluZycsICctaW1hZScsICc8aW5maWxlLm1hZT4nLCAnLW9tYWUnLCAnPG91dGZpbGUubWFlPic=

> <r_lp_tautomer_probability>
1

> <r_epik_Ionization_Penalty>
0.000750324

> <r_epik_Ionization_Penalty_Charging>
0

> <r_epik_Ionization_Penalty_Neutral>
0.000750324

> <r_epik_State_Penalty>
-0

> <r_epik_Charging_Adjusted_Penalty>
0

> <i_epik_Tot_Q>
0

> <i_epik_Tot_abs_Q>
0

> <r_epik_Metal_State_Penalty>
-0

> <b_epik_Metal_Only>
0

> <s_epik_Chemistry_Notes>
This compound contains an acetal/aminal-like group ( X-CH(R)-Y where X, Y are N, S, or O) that may be acid/base labile, releasing an aldehyde.

> <s_lp_Force_Field>
OPLS_2005

> <r_lp_Energy>
39.5

> <b_lp_Chiralities_Consistent>
1

> <s_lp_Variant>
AV-unprocessed.smi:100-11

> <Gold.Version>
5.8.1

> <Gold.Id.Protein>
6NUR|6NUR_protein|mol2

> <Gold.PLP.Fitness>
41.1815

> <Gold.PLP.PLP>
-33.4383

> <Gold.PLP.part.hbond>
-4.0000

> <Gold.PLP.part.metal>
0.0000

> <Gold.PLP.part.buried>
-1.5266

> <Gold.PLP.part.nonpolar>
-27.5139

> <Gold.PLP.part.repulsive>
0.2404

> <Gold.PLP.ligand.clash>
0.0000

> <Gold.PLP.ligand.torsion>
0.1123

> <Gold.PLP.Chemscore.Hbond>
2.3601

> <Gold.PLP.Chemscore.CHOScore>
0.2935

> <Gold.PLP.Chemscore.Metal>
0.0000

> <Gold.Chemscore.Hbonds>
donor molecule, donor type, donor heavy atom, donor atom, acceptor molecule, acceptor atom, score
      L1  H    19    31       P1  8028  0.18
      P1  H  6933  6945       L1    15  0.32
      P1  H  7997  8008       L1     5  0.76
      L1  C     9    23       P1  8028  0.03

> <Gold.PLP.Chemscore.Internal.Correction>
0.0072

> <Gold.Rescore>
     Score         DG    S(hbond)    S(metal)    S(lipo)     H(rot)  DE(clash)    DE(int)     intcor
      5.07      -8.94       1.39        0.00      59.69       3.19       3.73       0.14       ----

> <Gold.Chemscore.Fitness>
5.0727

> <Gold.Chemscore.DG>
-8.9404

> <Gold.Chemscore.ZeroCoef>
-5.4800

> <Gold.Chemscore.Hbond>
1.3902

> <Gold.Chemscore.Metal>
0.0000

> <Gold.Chemscore.Lipo>
59.6901

> <Gold.Chemscore.Internal_Hbond>
0.0000

> <Gold.Chemscore.DEClash>
3.7272

> <Gold.Chemscore.DEInternal>
0.1404

> <Gold.Chemscore.Rot>
3.1901

> <Gold.Chemscore.Internal.Correction>
   9.000000E+99

> <Gold.Chemscore.Hbonds>
donor molecule, donor type, donor heavy atom, donor atom, acceptor molecule, acceptor atom, score
      L1  H    19    31       P1  8028  0.06
      P1  H  6933  6945       L1    15  0.09
      P1  H  7997  8008       L1     5  0.11

> <Gold.Chemscore.Hbond.Weighted>
-4.6433

> <Gold.Chemscore.Metal.Weighted>
-0.0000

> <Gold.Chemscore.Lipo.Weighted>
-6.9837

> <Gold.Chemscore.Internal_Hbond.Weighted>
0.0000

> <Gold.Chemscore.DEClash.Weighted>
3.7272

> <Gold.Chemscore.DEInternal.Weighted>
0.1404

> <Gold.Chemscore.Rot.Weighted>
8.1667

> <Gold.Chemscore.Internal.Correction.Weighted>
   9.000000E+99

> <Gold.Protein.RotatedTorsions>
[ 6907 6896 6895 6894 ] final -118.97 input  -60.11 | X-H torsion
[ 7974 7965 7964 7962 ] final  151.05 input  175.53 | X-H torsion
[ 8008 7997 7996 7995 ] final  -35.25 input   59.86 | X-H torsion
[ 10167 10162 10161 10158 ] final  -79.59 input  -65.29 | X-H torsion
[ 10718 10713 10712 10709 ] final -171.27 input   66.30 | X-H torsion
[ 10763 10752 10751 10750 ] final -102.24 input  -60.55 | X-H torsion
[ 11005 11000 10999 10996 ] final  139.40 input  -57.11 | X-H torsion

> <Gold.Protein.ActiveResidues>
 VAL166  LYS551  ARG553  GLY616  TRP617  ASP618  TYR619  PRO620  LYS621  CYS622 
 ASP623  PHE694  ASN695  SER759  ASP760  ASP761  ALA762  ILE779  LEU786  VAL792 
 PHE793  MET794  SER795  GLU796  ALA797  LYS798  CYS799  TRP800  GLU811  SER814 

> <Gold.Protein.RotatedAtoms>
  150.8265  133.8163  159.3116 H   0  0  0  0  0  0  0  0  0  0  0  0  # atno 6907 bound_to 6896
  151.5906  135.1052  160.0047 H   0  0  0  0  0  0  0  0  0  0  0  0  # atno 6908 bound_to 6896
  152.4350  133.7303  159.6640 H   0  0  0  0  0  0  0  0  0  0  0  0  # atno 6909 bound_to 6896
  144.8320  139.6488  143.6054 H   0  0  0  0  0  0  0  0  0  0  0  0  # atno 7974 bound_to 7965
  154.4100  140.1662  156.2181 H   0  0  0  0  0  0  0  0  0  0  0  0  # atno 8008 bound_to 7997
  155.9387  140.3409  155.6286 H   0  0  0  0  0  0  0  0  0  0  0  0  # atno 8009 bound_to 7997
  155.7017  140.0746  157.2398 H   0  0  0  0  0  0  0  0  0  0  0  0  # atno 8010 bound_to 7997
  140.4579  143.2462  151.8392 H   0  0  0  0  0  0  0  0  0  0  0  0  # atno 10167 bound_to 10162
  156.7384  130.9333  151.3108 H   0  0  0  0  0  0  0  0  0  0  0  0  # atno 10718 bound_to 10713
  154.7719  135.4868  153.9666 H   0  0  0  0  0  0  0  0  0  0  0  0  # atno 10763 bound_to 10752
  153.1379  135.6766  153.9082 H   0  0  0  0  0  0  0  0  0  0  0  0  # atno 10764 bound_to 10752
  153.8765  135.3137  155.3422 H   0  0  0  0  0  0  0  0  0  0  0  0  # atno 10765 bound_to 10752
  140.0252  134.9378  157.0554 H   0  0  0  0  0  0  0  0  0  0  0  0  # atno 11005 bound_to 11000
  146.2622  139.6437  142.9354 LP  0  0  0  0  0  0  0  0  0  0  0  0  # atno 17320 bound_to 7965
  145.4875  141.0438  143.2611 LP  0  0  0  0  0  0  0  0  0  0  0  0  # atno 17321 bound_to 7965
  139.4803  144.5043  151.9019 LP  0  0  0  0  0  0  0  0  0  0  0  0  # atno 17342 bound_to 10162
  140.4129  144.2345  150.5888 LP  0  0  0  0  0  0  0  0  0  0  0  0  # atno 17343 bound_to 10162
  157.6829  130.9157  150.0313 LP  0  0  0  0  0  0  0  0  0  0  0  0  # atno 17370 bound_to 10713
  156.1481  130.3642  149.9479 LP  0  0  0  0  0  0  0  0  0  0  0  0  # atno 17371 bound_to 10713
  140.4319  134.1772  155.7168 LP  0  0  0  0  0  0  0  0  0  0  0  0  # atno 17394 bound_to 11000
  141.1798  133.8437  157.1297 LP  0  0  0  0  0  0  0  0  0  0  0  0  # atno 17395 bound_to 11000

$$$$
