AV-unprocessed.smi:3025|AV-procd|sdf|11511|dock1
  -GOLD-   2272016443D 1   1.00000     0.00000
 Structure written by MMmdl.
 41 42  0  0  0  0  0  0  0  0  3 V2000
  154.2422  142.9181  164.2697 C   0  0  0  0  0  0  0  0  0  0  0  0
  153.7278  142.5853  162.8646 C   0  0  0  0  0  0  0  0  0  0  0  0
  152.7657  143.6558  162.3221 C   0  0  0  0  0  0  0  0  0  0  0  0
  152.1049  143.2889  160.9772 C   0  0  2  0  0  0  0  0  0  0  0  0
  153.1109  142.7099  159.9592 C   0  0  0  0  0  0  0  0  0  0  0  0
  152.4411  142.3754  158.6163 C   0  0  0  0  0  0  0  0  0  0  0  0
  151.7273  143.6034  158.0154 C   0  0  1  0  0  0  0  0  0  0  0  0
  151.0337  143.2671  156.7522 N   0  3  0  0  0  0  0  0  0  0  0  0
  150.3967  141.9350  156.7188 C   0  0  0  0  0  0  0  0  0  0  0  0
  149.8351  141.6316  155.3259 C   0  0  0  0  0  0  0  0  0  0  0  0
  149.9255  140.1590  154.9985 C   0  0  0  0  0  0  0  0  0  0  0  0
  149.1847  139.1839  155.5621 N   0  5  0  0  0  0  0  0  0  0  0  0
  149.4837  138.0190  155.0208 N   0  0  0  0  0  0  0  0  0  0  0  0
  150.4159  138.3118  154.1063 C   0  0  0  0  0  0  0  0  0  0  0  0
  150.7016  139.6179  154.0638 N   0  0  0  0  0  0  0  0  0  0  0  0
  150.7187  144.1730  159.0287 C   0  0  0  0  0  0  0  0  0  0  0  0
  151.3929  144.5131  160.3674 C   0  0  0  0  0  0  0  0  0  0  0  0
  154.9164  142.1409  164.6304 H   0  0  0  0  0  0  0  0  0  0  0  0
  153.4201  143.0013  164.9813 H   0  0  0  0  0  0  0  0  0  0  0  0
  154.7890  143.8616  164.2758 H   0  0  0  0  0  0  0  0  0  0  0  0
  154.5826  142.4731  162.1982 H   0  0  0  0  0  0  0  0  0  0  0  0
  153.2245  141.6182  162.8891 H   0  0  0  0  0  0  0  0  0  0  0  0
  151.9830  143.8162  163.0649 H   0  0  0  0  0  0  0  0  0  0  0  0
  153.2896  144.6080  162.2281 H   0  0  0  0  0  0  0  0  0  0  0  0
  151.3450  142.5308  161.1740 H   0  0  0  0  0  0  0  0  0  0  0  0
  153.9196  143.4232  159.7934 H   0  0  0  0  0  0  0  0  0  0  0  0
  153.5745  141.8057  160.3528 H   0  0  0  0  0  0  0  0  0  0  0  0
  153.1996  141.9977  157.9308 H   0  0  0  0  0  0  0  0  0  0  0  0
  151.7249  141.5652  158.7607 H   0  0  0  0  0  0  0  0  0  0  0  0
  152.4658  144.3782  157.8030 H   0  0  0  0  0  0  0  0  0  0  0  0
  150.3367  143.9726  156.5614 H   0  0  0  0  0  0  0  0  0  0  0  0
  151.1303  141.1761  156.9944 H   0  0  0  0  0  0  0  0  0  0  0  0
  149.5916  141.8883  157.4523 H   0  0  0  0  0  0  0  0  0  0  0  0
  148.7915  141.9418  155.2615 H   0  0  0  0  0  0  0  0  0  0  0  0
  150.3802  142.1925  154.5656 H   0  0  0  0  0  0  0  0  0  0  0  0
  150.8838  137.5724  153.4682 H   0  0  0  0  0  0  0  0  0  0  0  0
  150.2462  145.0683  158.6224 H   0  0  0  0  0  0  0  0  0  0  0  0
  149.9175  143.4529  159.2009 H   0  0  0  0  0  0  0  0  0  0  0  0
  150.6428  144.8928  161.0622 H   0  0  0  0  0  0  0  0  0  0  0  0
  152.1105  145.3212  160.2185 H   0  0  0  0  0  0  0  0  0  0  0  0
  151.7197  143.2861  156.0113 H   0  0  0  0  0  0  0  0  0  0  0  0
  1  2  1  0  0  0  0
  1 18  1  0  0  0  0
  1 19  1  0  0  0  0
  1 20  1  0  0  0  0
  2  3  1  0  0  0  0
  2 21  1  0  0  0  0
  2 22  1  0  0  0  0
  3  4  1  0  0  0  0
  3 23  1  0  0  0  0
  3 24  1  0  0  0  0
  4 17  1  0  0  0  0
  4  5  1  0  0  0  0
  4 25  1  0  0  0  0
  5  6  1  0  0  0  0
  5 26  1  0  0  0  0
  5 27  1  0  0  0  0
  6  7  1  0  0  0  0
  6 28  1  0  0  0  0
  6 29  1  0  0  0  0
  7  8  1  0  0  0  0
  7 16  1  0  0  0  0
  7 30  1  0  0  0  0
  8  9  1  0  0  0  0
  8 31  1  0  0  0  0
  8 41  1  0  0  0  0
  9 10  1  0  0  0  0
  9 32  1  0  0  0  0
  9 33  1  0  0  0  0
 10 34  1  0  0  0  0
 10 35  1  0  0  0  0
 10 11  1  0  0  0  0
 11 15  2  0  0  0  0
 11 12  1  0  0  0  0
 12 13  1  0  0  0  0
 13 14  2  0  0  0  0
 14 15  1  0  0  0  0
 14 36  1  0  0  0  0
 16 17  1  0  0  0  0
 16 37  1  0  0  0  0
 16 38  1  0  0  0  0
 17 39  1  0  0  0  0
 17 40  1  0  0  0  0
M  CHG  1   8   1
M  CHG  1  12  -1
M  END
> <s_m_source_file>
AV-unprocessed.smi

> <i_m_source_file_index>
3025

> <i_lp_mmshare_version>
43012

> <i_f3d_flags>
0

> <s_epik_input>
W0NIM11bQ0gyXVtDSDJdW0NAQEhdMVtDSDJdW0NIMl1bQ0BIXShbQ0gyXVtDSDJdMSlbTkhdW0NIMl1bQ0gyXWMybm5bY0hdW25IXTI=

> <s_epik_cmdline>
J2VwaWtfcHl0aG9uJywgJy1waCcsICc3LjAnLCAnLXRuJywgJzgnLCAnLW1hJywgJzIwMCcsICctbWV0YWxfYmluZGluZycsICctaW1hZScsICc8aW5maWxlLm1hZT4nLCAnLW9tYWUnLCAnPG91dGZpbGUubWFlPic=

> <r_lp_tautomer_probability>
0.948284

> <r_epik_Ionization_Penalty>
6.65342

> <r_epik_Ionization_Penalty_Charging>
6.65342

> <r_epik_Ionization_Penalty_Neutral>
1.40767e-13

> <r_epik_State_Penalty>
2.88894

> <r_epik_Charging_Adjusted_Penalty>
9.54236

> <i_epik_Tot_Q>
0

> <i_epik_Tot_abs_Q>
2

> <r_epik_Metal_State_Penalty>
0.664188

> <b_epik_Metal_Only>
1

> <s_lp_Force_Field>
OPLS_2005

> <r_lp_Energy>
6.5819

> <b_lp_Chiralities_Consistent>
1

> <s_lp_Variant>
AV-unprocessed.smi:3025-7

> <Gold.Version>
5.8.1

> <Gold.Id.Protein>
6NUR|6NUR_protein|mol2

> <Gold.PLP.Fitness>
52.7463

> <Gold.PLP.PLP>
-41.9977

> <Gold.PLP.part.hbond>
-2.0000

> <Gold.PLP.part.metal>
0.0000

> <Gold.PLP.part.buried>
-3.5020

> <Gold.PLP.part.nonpolar>
-36.0085

> <Gold.PLP.part.repulsive>
0.3849

> <Gold.PLP.ligand.clash>
0.0000

> <Gold.PLP.ligand.torsion>
0.6580

> <Gold.PLP.Chemscore.Hbond>
3.0000

> <Gold.PLP.Chemscore.CHOScore>
0.9883

> <Gold.PLP.Chemscore.Metal>
0.0000

> <Gold.Chemscore.Hbonds>
donor molecule, donor type, donor heavy atom, donor atom, acceptor molecule, acceptor atom, score
      L1  H     8    31       P1  8028  2.00
      P1  H  7989  7998       L1    15  1.00
      L1  C    14    36       P1  7948  0.09
      L1  C    14    36       P1  7949  0.91

> <Gold.PLP.Chemscore.Internal.Correction>
0.0998

> <Gold.Rescore>
     Score         DG    S(hbond)    S(metal)    S(lipo)     H(rot)  DE(clash)    DE(int)     intcor
     17.92     -18.64       1.87        0.00     113.80       2.50       0.02       0.70       ----

> <Gold.Chemscore.Fitness>
17.9211

> <Gold.Chemscore.DG>
-18.6412

> <Gold.Chemscore.ZeroCoef>
-5.4800

> <Gold.Chemscore.Hbond>
1.8716

> <Gold.Chemscore.Metal>
0.0000

> <Gold.Chemscore.Lipo>
113.8025

> <Gold.Chemscore.Internal_Hbond>
0.0000

> <Gold.Chemscore.DEClash>
0.0180

> <Gold.Chemscore.DEInternal>
0.7021

> <Gold.Chemscore.Rot>
2.5019

> <Gold.Chemscore.Internal.Correction>
   9.000000E+99

> <Gold.Chemscore.Hbonds>
donor molecule, donor type, donor heavy atom, donor atom, acceptor molecule, acceptor atom, score
      L1  H     8    31       P1  8028  0.98
      P1  H  7989  7998       L1    15  0.55

> <Gold.Chemscore.Hbond.Weighted>
-6.2512

> <Gold.Chemscore.Metal.Weighted>
-0.0000

> <Gold.Chemscore.Lipo.Weighted>
-13.3149

> <Gold.Chemscore.Internal_Hbond.Weighted>
0.0000

> <Gold.Chemscore.DEClash.Weighted>
0.0180

> <Gold.Chemscore.DEInternal.Weighted>
0.7021

> <Gold.Chemscore.Rot.Weighted>
6.4049

> <Gold.Chemscore.Internal.Correction.Weighted>
   9.000000E+99

> <Gold.Protein.RotatedTorsions>
[ 6907 6896 6895 6894 ] final   31.96 input  -60.11 | X-H torsion
[ 7974 7965 7964 7962 ] final  -48.68 input  175.53 | X-H torsion
[ 8008 7997 7996 7995 ] final  -73.44 input   59.86 | X-H torsion
[ 10167 10162 10161 10158 ] final  109.28 input  -65.29 | X-H torsion
[ 10718 10713 10712 10709 ] final  -40.78 input   66.30 | X-H torsion
[ 10763 10752 10751 10750 ] final -107.20 input  -60.55 | X-H torsion
[ 11005 11000 10999 10996 ] final  119.56 input  -57.11 | X-H torsion

> <Gold.Protein.ActiveResidues>
 VAL166  LYS551  ARG553  GLY616  TRP617  ASP618  TYR619  PRO620  LYS621  CYS622 
 ASP623  PHE694  ASN695  SER759  ASP760  ASP761  ALA762  ILE779  LEU786  VAL792 
 PHE793  MET794  SER795  GLU796  ALA797  LYS798  CYS799  TRP800  GLU811  SER814 

> <Gold.Protein.RotatedAtoms>
  152.0678  134.9553  160.0574 H   0  0  0  0  0  0  0  0  0  0  0  0  # atno 6907 bound_to 6896
  152.0891  133.4186  159.4544 H   0  0  0  0  0  0  0  0  0  0  0  0  # atno 6908 bound_to 6896
  150.6836  134.2812  159.4671 H   0  0  0  0  0  0  0  0  0  0  0  0  # atno 6909 bound_to 6896
  145.9486  140.7594  142.9516 H   0  0  0  0  0  0  0  0  0  0  0  0  # atno 7974 bound_to 7965
  154.5248  140.0779  156.8237 H   0  0  0  0  0  0  0  0  0  0  0  0  # atno 8008 bound_to 7997
  155.3500  140.3412  155.4221 H   0  0  0  0  0  0  0  0  0  0  0  0  # atno 8009 bound_to 7997
  156.1719  140.1622  156.8418 H   0  0  0  0  0  0  0  0  0  0  0  0  # atno 8010 bound_to 7997
  139.6779  144.7121  151.1569 H   0  0  0  0  0  0  0  0  0  0  0  0  # atno 10167 bound_to 10162
  156.2775  130.4213  149.8372 H   0  0  0  0  0  0  0  0  0  0  0  0  # atno 10718 bound_to 10713
  154.8060  135.4683  154.0395 H   0  0  0  0  0  0  0  0  0  0  0  0  # atno 10763 bound_to 10752
  153.1863  135.6848  153.8418 H   0  0  0  0  0  0  0  0  0  0  0  0  # atno 10764 bound_to 10752
  153.7951  135.3237  155.3361 H   0  0  0  0  0  0  0  0  0  0  0  0  # atno 10765 bound_to 10752
  139.9151  134.9629  156.7674 H   0  0  0  0  0  0  0  0  0  0  0  0  # atno 11005 bound_to 11000
  144.6791  140.2397  143.7345 LP  0  0  0  0  0  0  0  0  0  0  0  0  # atno 17320 bound_to 7965
  145.8202  139.2040  143.1942 LP  0  0  0  0  0  0  0  0  0  0  0  0  # atno 17321 bound_to 7965
  140.7642  143.5744  150.8961 LP  0  0  0  0  0  0  0  0  0  0  0  0  # atno 17342 bound_to 10162
  139.9414  143.6378  152.3053 LP  0  0  0  0  0  0  0  0  0  0  0  0  # atno 17343 bound_to 10162
  156.5831  130.8474  151.3388 LP  0  0  0  0  0  0  0  0  0  0  0  0  # atno 17370 bound_to 10713
  157.7304  130.9685  150.1831 LP  0  0  0  0  0  0  0  0  0  0  0  0  # atno 17371 bound_to 10713
  140.6648  133.9612  155.7824 LP  0  0  0  0  0  0  0  0  0  0  0  0  # atno 17394 bound_to 11000
  141.0618  134.0335  157.3648 LP  0  0  0  0  0  0  0  0  0  0  0  0  # atno 17395 bound_to 11000

$$$$
