AV-unprocessed.smi:1115|AV-procd|sdf|4804|dock8
  -GOLD-   22720 3353D 1   1.00000     0.00000
 Structure written by MMmdl.
 52 53  0  0  0  0  0  0  0  0  3 V2000
  151.1471  143.9488  157.9879 C   0  0  0  0  0  0  0  0  0  0  0  0
  151.3907  142.5123  157.9982 N   0  0  0  0  0  0  0  0  0  0  0  0
  152.1606  141.9032  159.0771 C   0  0  0  0  0  0  0  0  0  0  0  0
  150.8323  141.6983  156.9890 C   0  0  0  0  0  0  0  0  0  0  0  0
  151.3879  140.4551  156.5990 C   0  0  0  0  0  0  0  0  0  0  0  0
  150.7697  139.6986  155.5824 C   0  0  0  0  0  0  0  0  0  0  0  0
  149.6054  140.1854  154.9525 C   0  0  0  0  0  0  0  0  0  0  0  0
  149.0128  139.3777  153.9436 N   0  0  0  0  0  0  0  0  0  0  0  0
  147.7262  139.3234  153.5579 C   0  0  0  0  0  0  0  0  0  0  0  0
  146.8179  140.0218  154.0069 O   0  0  0  0  0  0  0  0  0  0  0  0
  147.5487  138.4145  152.5882 N   0  0  0  0  0  0  0  0  0  0  0  0
  146.2744  138.0952  151.9450 C   0  0  0  0  0  0  0  0  0  0  0  0
  145.6322  136.7713  152.4594 C   0  0  0  0  0  0  0  0  0  0  0  0
  144.5995  137.0681  153.5763 C   0  0  0  0  0  0  0  0  0  0  0  0
  144.8400  136.0963  151.3121 C   0  0  0  0  0  0  0  0  0  0  0  0
  146.6803  135.8194  152.9784 N   0  3  0  0  0  0  0  0  0  0  0  0
  147.1253  136.0475  154.3828 C   0  0  0  0  0  0  0  0  0  0  0  0
  148.3180  135.1406  154.7281 C   0  0  0  0  0  0  0  0  0  0  0  0
  147.9560  133.7812  154.5333 O   0  0  0  0  0  0  0  0  0  0  0  0
  147.6155  133.5189  153.1795 C   0  0  0  0  0  0  0  0  0  0  0  0
  146.3995  134.3693  152.7748 C   0  0  0  0  0  0  0  0  0  0  0  0
  149.0832  141.4284  155.3837 C   0  0  0  0  0  0  0  0  0  0  0  0
  149.7068  142.1196  156.3619 N   0  3  0  0  0  0  0  0  0  0  0  0
  151.4936  144.3909  157.0532 H   0  0  0  0  0  0  0  0  0  0  0  0
  151.6724  144.4457  158.8038 H   0  0  0  0  0  0  0  0  0  0  0  0
  150.0824  144.1565  158.0998 H   0  0  0  0  0  0  0  0  0  0  0  0
  153.0404  141.3954  158.6810 H   0  0  0  0  0  0  0  0  0  0  0  0
  151.5541  141.1757  159.6178 H   0  0  0  0  0  0  0  0  0  0  0  0
  152.5011  142.6513  159.7934 H   0  0  0  0  0  0  0  0  0  0  0  0
  152.2812  140.0658  157.0636 H   0  0  0  0  0  0  0  0  0  0  0  0
  151.1945  138.7499  155.2882 H   0  0  0  0  0  0  0  0  0  0  0  0
  149.6532  138.7906  153.4295 H   0  0  0  0  0  0  0  0  0  0  0  0
  148.3543  137.8916  152.2765 H   0  0  0  0  0  0  0  0  0  0  0  0
  145.6171  138.9400  152.1469 H   0  0  0  0  0  0  0  0  0  0  0  0
  146.4032  138.0730  150.8627 H   0  0  0  0  0  0  0  0  0  0  0  0
  143.7140  137.5712  153.1868 H   0  0  0  0  0  0  0  0  0  0  0  0
  145.0027  137.7224  154.3491 H   0  0  0  0  0  0  0  0  0  0  0  0
  144.2568  136.1505  154.0560 H   0  0  0  0  0  0  0  0  0  0  0  0
  143.9539  136.6713  151.0409 H   0  0  0  0  0  0  0  0  0  0  0  0
  144.4989  135.1002  151.5972 H   0  0  0  0  0  0  0  0  0  0  0  0
  145.4282  136.0016  150.3998 H   0  0  0  0  0  0  0  0  0  0  0  0
  147.4335  137.0787  154.5434 H   0  0  0  0  0  0  0  0  0  0  0  0
  146.3099  135.8421  155.0765 H   0  0  0  0  0  0  0  0  0  0  0  0
  149.1890  135.3915  154.1203 H   0  0  0  0  0  0  0  0  0  0  0  0
  148.6066  135.2814  155.7700 H   0  0  0  0  0  0  0  0  0  0  0  0
  148.4683  133.7225  152.5298 H   0  0  0  0  0  0  0  0  0  0  0  0
  147.3827  132.4591  153.0745 H   0  0  0  0  0  0  0  0  0  0  0  0
  145.5346  134.0642  153.3639 H   0  0  0  0  0  0  0  0  0  0  0  0
  146.1748  134.1454  151.7339 H   0  0  0  0  0  0  0  0  0  0  0  0
  148.1894  141.8976  155.0018 H   0  0  0  0  0  0  0  0  0  0  0  0
  149.3031  143.0119  156.6477 H   0  0  0  0  0  0  0  0  0  0  0  0
  147.4949  136.0080  152.4116 H   0  0  0  0  0  0  0  0  0  0  0  0
  1  2  1  0  0  0  0
  1 24  1  0  0  0  0
  1 25  1  0  0  0  0
  1 26  1  0  0  0  0
  2  3  1  0  0  0  0
  2  4  1  0  0  0  0
  3 27  1  0  0  0  0
  3 28  1  0  0  0  0
  3 29  1  0  0  0  0
  4 23  1  0  0  0  0
  4  5  2  0  0  0  0
  5  6  1  0  0  0  0
  5 30  1  0  0  0  0
  6  7  2  0  0  0  0
  6 31  1  0  0  0  0
  7  8  1  0  0  0  0
  7 22  1  0  0  0  0
  8  9  1  0  0  0  0
  8 32  1  0  0  0  0
  9 10  2  0  0  0  0
  9 11  1  0  0  0  0
 11 12  1  0  0  0  0
 11 33  1  0  0  0  0
 12 13  1  0  0  0  0
 12 34  1  0  0  0  0
 12 35  1  0  0  0  0
 13 14  1  0  0  0  0
 13 15  1  0  0  0  0
 13 16  1  0  0  0  0
 14 36  1  0  0  0  0
 14 37  1  0  0  0  0
 14 38  1  0  0  0  0
 15 39  1  0  0  0  0
 15 40  1  0  0  0  0
 15 41  1  0  0  0  0
 16 21  1  0  0  0  0
 16 17  1  0  0  0  0
 16 52  1  0  0  0  0
 17 18  1  0  0  0  0
 17 42  1  0  0  0  0
 17 43  1  0  0  0  0
 18 19  1  0  0  0  0
 18 44  1  0  0  0  0
 18 45  1  0  0  0  0
 19 20  1  0  0  0  0
 20 21  1  0  0  0  0
 20 46  1  0  0  0  0
 20 47  1  0  0  0  0
 21 48  1  0  0  0  0
 21 49  1  0  0  0  0
 22 23  2  0  0  0  0
 22 50  1  0  0  0  0
 23 51  1  0  0  0  0
M  CHG  1  16   1
M  CHG  1  23   1
M  END
> <s_m_source_file>
AV-unprocessed.smi

> <i_m_source_file_index>
1115

> <i_lp_mmshare_version>
43012

> <i_f3d_flags>
0

> <s_epik_input>
W0NIM11OKFtDSDNdKWMxW2NIXVtjSF1jKFtjSF1uMSlbTkhdQyg9TylbTkhdW0NIMl1DKFtDSDNdKShbQ0gzXSlOMltDSDJdW0NIMl1PW0NIMl1bQ0gyXTI=

> <s_epik_cmdline>
J2VwaWtfcHl0aG9uJywgJy1waCcsICc3LjAnLCAnLXRuJywgJzgnLCAnLW1hJywgJzIwMCcsICctbWV0YWxfYmluZGluZycsICctaW1hZScsICc8aW5maWxlLm1hZT4nLCAnLW9tYWUnLCAnPG91dGZpbGUubWFlPic=

> <r_lp_tautomer_probability>
0.999994

> <r_epik_Ionization_Penalty>
0.90424

> <r_epik_Ionization_Penalty_Charging>
0.90422

> <r_epik_Ionization_Penalty_Neutral>
2.023e-05

> <r_epik_State_Penalty>
0.905868

> <r_epik_Charging_Adjusted_Penalty>
1.81009

> <i_epik_Tot_Q>
2

> <i_epik_Tot_abs_Q>
2

> <r_epik_Metal_State_Penalty>
1.19318

> <b_epik_Metal_Only>
0

> <s_lp_Force_Field>
OPLS_2005

> <r_lp_Energy>
35.8961

> <b_lp_Chiralities_Consistent>
1

> <s_lp_Variant>
AV-unprocessed.smi:1115-3

> <Gold.Version>
5.8.1

> <Gold.Id.Protein>
6NUR|6NUR_protein|mol2

> <Gold.PLP.Fitness>
48.0836

> <Gold.PLP.PLP>
-37.7339

> <Gold.PLP.part.hbond>
-5.0000

> <Gold.PLP.part.metal>
0.0000

> <Gold.PLP.part.buried>
0.8347

> <Gold.PLP.part.nonpolar>
-34.4884

> <Gold.PLP.part.repulsive>
0.5081

> <Gold.PLP.ligand.clash>
0.0565

> <Gold.PLP.ligand.torsion>
2.2402

> <Gold.PLP.Chemscore.Hbond>
4.9280

> <Gold.PLP.Chemscore.CHOScore>
0.0000

> <Gold.PLP.Chemscore.Metal>
0.0000

> <Gold.Chemscore.Hbonds>
donor molecule, donor type, donor heavy atom, donor atom, acceptor molecule, acceptor atom, score
      L1  H    11    33       P1  7948  0.91
      L1  H    16    52       P1  7948  2.00
      L1  H    23    51       P1  8028  1.34

> <Gold.PLP.Chemscore.Internal.Correction>
0.1025

> <Gold.Rescore>
     Score         DG    S(hbond)    S(metal)    S(lipo)     H(rot)  DE(clash)    DE(int)     intcor
     16.69     -20.92       2.87        0.00      82.60       1.49       1.10       3.13       ----

> <Gold.Chemscore.Fitness>
16.6943

> <Gold.Chemscore.DG>
-20.9216

> <Gold.Chemscore.ZeroCoef>
-5.4800

> <Gold.Chemscore.Hbond>
2.8701

> <Gold.Chemscore.Metal>
0.0000

> <Gold.Chemscore.Lipo>
82.5999

> <Gold.Chemscore.Internal_Hbond>
0.0000

> <Gold.Chemscore.DEClash>
1.1007

> <Gold.Chemscore.DEInternal>
3.1267

> <Gold.Chemscore.Rot>
1.4878

> <Gold.Chemscore.Internal.Correction>
   9.000000E+99

> <Gold.Chemscore.Hbonds>
donor molecule, donor type, donor heavy atom, donor atom, acceptor molecule, acceptor atom, score
      L1  H    11    33       P1  7948  0.88
      L1  H    16    52       P1  7948  0.96
      L1  H    23    51       P1  8028  0.64

> <Gold.Chemscore.Hbond.Weighted>
-9.5863

> <Gold.Chemscore.Metal.Weighted>
-0.0000

> <Gold.Chemscore.Lipo.Weighted>
-9.6642

> <Gold.Chemscore.Internal_Hbond.Weighted>
0.0000

> <Gold.Chemscore.DEClash.Weighted>
1.1007

> <Gold.Chemscore.DEInternal.Weighted>
3.1267

> <Gold.Chemscore.Rot.Weighted>
3.8089

> <Gold.Chemscore.Internal.Correction.Weighted>
   9.000000E+99

> <Gold.Protein.RotatedTorsions>
[ 6907 6896 6895 6894 ] final -164.46 input  -60.11 | X-H torsion
[ 7974 7965 7964 7962 ] final  109.45 input  175.53 | X-H torsion
[ 8008 7997 7996 7995 ] final -128.19 input   59.86 | X-H torsion
[ 10167 10162 10161 10158 ] final -161.26 input  -65.29 | X-H torsion
[ 10718 10713 10712 10709 ] final  149.04 input   66.30 | X-H torsion
[ 10763 10752 10751 10750 ] final   43.35 input  -60.55 | X-H torsion
[ 11005 11000 10999 10996 ] final  148.21 input  -57.11 | X-H torsion

> <Gold.Protein.ActiveResidues>
 VAL166  LYS551  ARG553  GLY616  TRP617  ASP618  TYR619  PRO620  LYS621  CYS622 
 ASP623  PHE694  ASN695  SER759  ASP760  ASP761  ALA762  ILE779  LEU786  VAL792 
 PHE793  MET794  SER795  GLU796  ALA797  LYS798  CYS799  TRP800  GLU811  SER814 

> <Gold.Protein.RotatedAtoms>
  151.4122  133.3724  159.2745 H   0  0  0  0  0  0  0  0  0  0  0  0  # atno 6907 bound_to 6896
  150.9355  134.8769  159.7589 H   0  0  0  0  0  0  0  0  0  0  0  0  # atno 6908 bound_to 6896
  152.5048  134.4069  159.9487 H   0  0  0  0  0  0  0  0  0  0  0  0  # atno 6909 bound_to 6896
  145.2676  139.2679  143.3983 H   0  0  0  0  0  0  0  0  0  0  0  0  # atno 7974 bound_to 7965
  155.2586  140.0435  157.2995 H   0  0  0  0  0  0  0  0  0  0  0  0  # atno 8008 bound_to 7997
  154.5724  140.2377  155.8141 H   0  0  0  0  0  0  0  0  0  0  0  0  # atno 8009 bound_to 7997
  156.2133  140.2992  155.9789 H   0  0  0  0  0  0  0  0  0  0  0  0  # atno 8010 bound_to 7997
  139.6478  144.0140  152.2140 H   0  0  0  0  0  0  0  0  0  0  0  0  # atno 10167 bound_to 10162
  157.3011  131.0871  151.1389 H   0  0  0  0  0  0  0  0  0  0  0  0  # atno 10718 bound_to 10713
  152.9862  135.6104  154.3098 H   0  0  0  0  0  0  0  0  0  0  0  0  # atno 10763 bound_to 10752
  154.2814  135.2777  155.2697 H   0  0  0  0  0  0  0  0  0  0  0  0  # atno 10764 bound_to 10752
  154.5034  135.5860  153.6605 H   0  0  0  0  0  0  0  0  0  0  0  0  # atno 10765 bound_to 10752
  140.0941  134.9023  157.1695 H   0  0  0  0  0  0  0  0  0  0  0  0  # atno 11005 bound_to 11000
  146.3256  140.3110  142.8627 LP  0  0  0  0  0  0  0  0  0  0  0  0  # atno 17320 bound_to 7965
  144.9363  140.8030  143.5658 LP  0  0  0  0  0  0  0  0  0  0  0  0  # atno 17321 bound_to 7965
  139.9846  144.6404  150.7869 LP  0  0  0  0  0  0  0  0  0  0  0  0  # atno 17342 bound_to 10162
  140.7523  143.2988  151.3135 LP  0  0  0  0  0  0  0  0  0  0  0  0  # atno 17343 bound_to 10162
  157.2748  130.6721  149.6037 LP  0  0  0  0  0  0  0  0  0  0  0  0  # atno 17370 bound_to 10713
  155.9671  130.4468  150.5555 LP  0  0  0  0  0  0  0  0  0  0  0  0  # atno 17371 bound_to 10713
  140.3311  134.2808  155.7228 LP  0  0  0  0  0  0  0  0  0  0  0  0  # atno 17394 bound_to 11000
  141.2086  133.7771  157.0045 LP  0  0  0  0  0  0  0  0  0  0  0  0  # atno 17395 bound_to 11000

$$$$
