AV-unprocessed.smi:2356|AV-procd|sdf|9397|dock9
  -GOLD-   2272013 33D 1   1.00000     0.00000
 Structure written by MMmdl.
 54 57  0  0  0  0  0  0  0  0  2 V2000
  147.2036  142.4849  153.8861 C   0  0  0  0  0  0  0  0  0  0  0  0
  148.2441  141.5749  154.5145 C   0  0  0  0  0  0  0  0  0  0  0  0
  149.1013  142.1282  155.4008 N   0  3  0  0  0  0  0  0  0  0  0  0
  150.0742  141.4407  156.0457 C   0  0  0  0  0  0  0  0  0  0  0  0
  150.9058  142.1322  156.9501 N   0  0  0  0  0  0  0  0  0  0  0  0
  150.8542  143.5843  156.9910 C   0  0  0  0  0  0  0  0  0  0  0  0
  151.6848  143.9917  158.2108 C   0  0  0  0  0  0  0  0  0  0  0  0
  151.7976  142.7267  159.0725 C   0  0  0  0  0  0  0  0  0  0  0  0
  151.0331  141.6402  158.3107 C   0  0  0  0  0  0  0  0  0  0  0  0
  150.2113  140.0591  155.7754 C   0  0  0  0  0  0  0  0  0  0  0  0
  149.3423  139.4343  154.8585 C   0  0  0  0  0  0  0  0  0  0  0  0
  148.3443  140.1981  154.2046 C   0  0  0  0  0  0  0  0  0  0  0  0
  147.4113  139.6474  153.2836 N   0  0  0  0  0  0  0  0  0  0  0  0
  146.7558  138.4717  153.3332 C   0  0  0  0  0  0  0  0  0  0  0  0
  146.8791  137.6381  154.2276 O   0  0  0  0  0  0  0  0  0  0  0  0
  145.9406  138.2550  152.2849 N   0  0  0  0  0  0  0  0  0  0  0  0
  145.0890  137.0917  152.0248 C   0  0  2  0  0  0  0  0  0  0  0  0
  143.7727  137.2271  152.8014 C   0  0  0  0  0  0  0  0  0  0  0  0
  142.9117  135.9662  152.6307 C   0  0  0  0  0  0  0  0  0  0  0  0
  143.6354  134.8096  153.0458 O   0  0  0  0  0  0  0  0  0  0  0  0
  144.8564  134.5687  152.3444 C   0  0  1  0  0  0  0  0  0  0  0  0
  144.6093  134.1225  150.9095 C   0  0  0  0  0  0  0  0  0  0  0  0
  143.8750  132.8340  150.6228 C   0  0  0  0  0  0  0  0  0  0  0  0
  145.3521  132.9426  150.3277 C   0  0  0  0  0  0  0  0  0  0  0  0
  145.7913  135.7891  152.4514 C   0  0  0  0  0  0  0  0  0  0  0  0
  146.1989  142.1128  154.0888 H   0  0  0  0  0  0  0  0  0  0  0  0
  147.3418  142.5303  152.8056 H   0  0  0  0  0  0  0  0  0  0  0  0
  147.2723  143.5001  154.2782 H   0  0  0  0  0  0  0  0  0  0  0  0
  151.2506  144.0248  156.0755 H   0  0  0  0  0  0  0  0  0  0  0  0
  149.8193  143.9095  157.1081 H   0  0  0  0  0  0  0  0  0  0  0  0
  152.6778  144.3186  157.8999 H   0  0  0  0  0  0  0  0  0  0  0  0
  151.2209  144.8177  158.7510 H   0  0  0  0  0  0  0  0  0  0  0  0
  152.8458  142.4458  159.1817 H   0  0  0  0  0  0  0  0  0  0  0  0
  151.3901  142.8728  160.0732 H   0  0  0  0  0  0  0  0  0  0  0  0
  150.0411  141.4958  158.7412 H   0  0  0  0  0  0  0  0  0  0  0  0
  151.5655  140.6892  158.3453 H   0  0  0  0  0  0  0  0  0  0  0  0
  150.9707  139.4651  156.2616 H   0  0  0  0  0  0  0  0  0  0  0  0
  149.4536  138.3749  154.6888 H   0  0  0  0  0  0  0  0  0  0  0  0
  147.2650  140.1903  152.4451 H   0  0  0  0  0  0  0  0  0  0  0  0
  145.9077  138.9834  151.5859 H   0  0  0  0  0  0  0  0  0  0  0  0
  144.8453  137.0496  150.9621 H   0  0  0  0  0  0  0  0  0  0  0  0
  143.9784  137.3797  153.8619 H   0  0  0  0  0  0  0  0  0  0  0  0
  143.2195  138.1032  152.4607 H   0  0  0  0  0  0  0  0  0  0  0  0
  142.0117  136.0471  153.2402 H   0  0  0  0  0  0  0  0  0  0  0  0
  142.5764  135.8608  151.5988 H   0  0  0  0  0  0  0  0  0  0  0  0
  145.3393  133.7372  152.8596 H   0  0  0  0  0  0  0  0  0  0  0  0
  144.4146  134.9348  150.2130 H   0  0  0  0  0  0  0  0  0  0  0  0
  143.5761  132.2210  151.4707 H   0  0  0  0  0  0  0  0  0  0  0  0
  143.1908  132.8247  149.7769 H   0  0  0  0  0  0  0  0  0  0  0  0
  145.6525  133.0036  149.2836 H   0  0  0  0  0  0  0  0  0  0  0  0
  146.0358  132.4014  150.9786 H   0  0  0  0  0  0  0  0  0  0  0  0
  146.6923  135.6203  151.8607 H   0  0  0  0  0  0  0  0  0  0  0  0
  146.1212  135.8849  153.4868 H   0  0  0  0  0  0  0  0  0  0  0  0
  149.0073  143.1244  155.5984 H   0  0  0  0  0  0  0  0  0  0  0  0
  1  2  1  0  0  0  0
  1 26  1  0  0  0  0
  1 27  1  0  0  0  0
  1 28  1  0  0  0  0
  2 12  1  0  0  0  0
  2  3  2  0  0  0  0
  3  4  1  0  0  0  0
  3 54  1  0  0  0  0
  4  5  1  0  0  0  0
  4 10  2  0  0  0  0
  5  9  1  0  0  0  0
  5  6  1  0  0  0  0
  6  7  1  0  0  0  0
  6 29  1  0  0  0  0
  6 30  1  0  0  0  0
  7  8  1  0  0  0  0
  7 31  1  0  0  0  0
  7 32  1  0  0  0  0
  8  9  1  0  0  0  0
  8 33  1  0  0  0  0
  8 34  1  0  0  0  0
  9 35  1  0  0  0  0
  9 36  1  0  0  0  0
 10 11  1  0  0  0  0
 10 37  1  0  0  0  0
 11 12  2  0  0  0  0
 11 38  1  0  0  0  0
 12 13  1  0  0  0  0
 13 14  1  0  0  0  0
 13 39  1  0  0  0  0
 14 15  2  0  0  0  0
 14 16  1  0  0  0  0
 16 17  1  0  0  0  0
 16 40  1  0  0  0  0
 17 25  1  0  0  0  0
 17 18  1  0  0  0  0
 17 41  1  0  0  0  0
 18 19  1  0  0  0  0
 18 42  1  0  0  0  0
 18 43  1  0  0  0  0
 19 20  1  0  0  0  0
 19 44  1  0  0  0  0
 19 45  1  0  0  0  0
 20 21  1  0  0  0  0
 21 22  1  0  0  0  0
 21 25  1  0  0  0  0
 21 46  1  0  0  0  0
 22 24  1  0  0  0  0
 22 23  1  0  0  0  0
 22 47  1  0  0  0  0
 23 24  1  0  0  0  0
 23 48  1  0  0  0  0
 23 49  1  0  0  0  0
 24 50  1  0  0  0  0
 24 51  1  0  0  0  0
 25 52  1  0  0  0  0
 25 53  1  0  0  0  0
M  CHG  1   3   1
M  END
> <s_m_source_file>
AV-unprocessed.smi

> <i_m_source_file_index>
2356

> <i_lp_mmshare_version>
43012

> <i_f3d_flags>
0

> <s_epik_input>
W0NIMl0xW0NIMl1bQ0gyXVtDSDJdTjFjKG5jMltDSDNdKVtjSF1bY0hdYzJbTkhdQyg9TylbTkhdW0NAQEhdM1tDSDJdW0NIMl1PW0NASF0oW0NIMl0zKVtDSF00W0NIMl1bQ0gyXTQ=

> <s_epik_cmdline>
J2VwaWtfcHl0aG9uJywgJy1waCcsICc3LjAnLCAnLXRuJywgJzgnLCAnLW1hJywgJzIwMCcsICctbWV0YWxfYmluZGluZycsICctaW1hZScsICc8aW5maWxlLm1hZT4nLCAnLW9tYWUnLCAnPG91dGZpbGUubWFlPic=

> <r_lp_tautomer_probability>
0.999994

> <r_epik_Ionization_Penalty>
0.534681

> <r_epik_Ionization_Penalty_Charging>
0.534661

> <r_epik_Ionization_Penalty_Neutral>
1.99132e-05

> <r_epik_State_Penalty>
0.543738

> <r_epik_Charging_Adjusted_Penalty>
1.0784

> <i_epik_Tot_Q>
1

> <i_epik_Tot_abs_Q>
1

> <r_epik_Metal_State_Penalty>
0.74699

> <b_epik_Metal_Only>
0

> <s_lp_Force_Field>
OPLS_2005

> <r_lp_Energy>
60.0457

> <b_lp_Chiralities_Consistent>
1

> <s_lp_Variant>
AV-unprocessed.smi:2356-5

> <Gold.Version>
5.8.1

> <Gold.Id.Protein>
6NUR|6NUR_protein|mol2

> <Gold.PLP.Fitness>
49.0222

> <Gold.PLP.PLP>
-44.4981

> <Gold.PLP.part.hbond>
-3.3109

> <Gold.PLP.part.metal>
0.0000

> <Gold.PLP.part.buried>
0.6884

> <Gold.PLP.part.nonpolar>
-42.3344

> <Gold.PLP.part.repulsive>
0.5714

> <Gold.PLP.ligand.clash>
0.0000

> <Gold.PLP.ligand.torsion>
1.4091

> <Gold.PLP.Chemscore.Hbond>
2.0000

> <Gold.PLP.Chemscore.CHOScore>
0.0000

> <Gold.PLP.Chemscore.Metal>
0.0000

> <Gold.Chemscore.Hbonds>
donor molecule, donor type, donor heavy atom, donor atom, acceptor molecule, acceptor atom, score
      L1  H     3    54       P1  8028  2.00

> <Gold.PLP.Chemscore.Internal.Correction>
1.3423

> <Gold.Rescore>
     Score         DG    S(hbond)    S(metal)    S(lipo)     H(rot)  DE(clash)    DE(int)     intcor
     15.08     -18.87       1.00        0.00     114.59       1.31       0.46       3.33       ----

> <Gold.Chemscore.Fitness>
15.0815

> <Gold.Chemscore.DG>
-18.8726

> <Gold.Chemscore.ZeroCoef>
-5.4800

> <Gold.Chemscore.Hbond>
0.9967

> <Gold.Chemscore.Metal>
0.0000

> <Gold.Chemscore.Lipo>
114.5875

> <Gold.Chemscore.Internal_Hbond>
0.0000

> <Gold.Chemscore.DEClash>
0.4590

> <Gold.Chemscore.DEInternal>
3.3320

> <Gold.Chemscore.Rot>
1.3060

> <Gold.Chemscore.Internal.Correction>
   9.000000E+99

> <Gold.Chemscore.Hbonds>
donor molecule, donor type, donor heavy atom, donor atom, acceptor molecule, acceptor atom, score
      L1  H     3    54       P1  8028  0.98

> <Gold.Chemscore.Hbond.Weighted>
-3.3291

> <Gold.Chemscore.Metal.Weighted>
-0.0000

> <Gold.Chemscore.Lipo.Weighted>
-13.4067

> <Gold.Chemscore.Internal_Hbond.Weighted>
0.0000

> <Gold.Chemscore.DEClash.Weighted>
0.4590

> <Gold.Chemscore.DEInternal.Weighted>
3.3320

> <Gold.Chemscore.Rot.Weighted>
3.3433

> <Gold.Chemscore.Internal.Correction.Weighted>
   9.000000E+99

> <Gold.Protein.RotatedTorsions>
[ 6907 6896 6895 6894 ] final   36.72 input  -60.11 | X-H torsion
[ 7974 7965 7964 7962 ] final -163.71 input  175.53 | X-H torsion
[ 8008 7997 7996 7995 ] final   86.12 input   59.86 | X-H torsion
[ 10167 10162 10161 10158 ] final  110.08 input  -65.29 | X-H torsion
[ 10718 10713 10712 10709 ] final   41.45 input   66.30 | X-H torsion
[ 10763 10752 10751 10750 ] final  -99.66 input  -60.55 | X-H torsion
[ 11005 11000 10999 10996 ] final   68.65 input  -57.11 | X-H torsion

> <Gold.Protein.ActiveResidues>
 VAL166  LYS551  ARG553  GLY616  TRP617  ASP618  TYR619  PRO620  LYS621  CYS622 
 ASP623  PHE694  ASN695  SER759  ASP760  ASP761  ALA762  ILE779  LEU786  VAL792 
 PHE793  MET794  SER795  GLU796  ALA797  LYS798  CYS799  TRP800  GLU811  SER814 

> <Gold.Protein.RotatedAtoms>
  152.1336  134.9116  160.0557 H   0  0  0  0  0  0  0  0  0  0  0  0  # atno 6907 bound_to 6896
  152.0211  133.3894  159.4267 H   0  0  0  0  0  0  0  0  0  0  0  0  # atno 6908 bound_to 6896
  150.6858  134.3546  159.4967 H   0  0  0  0  0  0  0  0  0  0  0  0  # atno 6909 bound_to 6896
  144.7318  140.3067  143.6195 H   0  0  0  0  0  0  0  0  0  0  0  0  # atno 7974 bound_to 7965
  155.9587  140.3395  155.6471 H   0  0  0  0  0  0  0  0  0  0  0  0  # atno 8008 bound_to 7997
  155.6827  140.0739  157.2497 H   0  0  0  0  0  0  0  0  0  0  0  0  # atno 8009 bound_to 7997
  154.4138  140.1671  156.1987 H   0  0  0  0  0  0  0  0  0  0  0  0  # atno 8010 bound_to 7997
  139.6716  144.7125  151.1677 H   0  0  0  0  0  0  0  0  0  0  0  0  # atno 10167 bound_to 10162
  157.3937  130.7821  149.7290 H   0  0  0  0  0  0  0  0  0  0  0  0  # atno 10718 bound_to 10713
  154.7516  135.4964  153.9300 H   0  0  0  0  0  0  0  0  0  0  0  0  # atno 10763 bound_to 10752
  153.1150  135.6718  153.9442 H   0  0  0  0  0  0  0  0  0  0  0  0  # atno 10764 bound_to 10752
  153.9190  135.3090  155.3427 H   0  0  0  0  0  0  0  0  0  0  0  0  # atno 10765 bound_to 10752
  139.9699  134.6917  156.0468 H   0  0  0  0  0  0  0  0  0  0  0  0  # atno 11005 bound_to 11000
  145.7706  139.1856  143.2215 LP  0  0  0  0  0  0  0  0  0  0  0  0  # atno 17320 bound_to 7965
  146.0914  140.7651  142.9593 LP  0  0  0  0  0  0  0  0  0  0  0  0  # atno 17321 bound_to 7965
  140.7620  143.5835  150.8870 LP  0  0  0  0  0  0  0  0  0  0  0  0  # atno 17342 bound_to 10162
  139.9501  143.6282  152.3031 LP  0  0  0  0  0  0  0  0  0  0  0  0  # atno 17343 bound_to 10162
  155.9805  130.4029  150.3527 LP  0  0  0  0  0  0  0  0  0  0  0  0  # atno 17370 bound_to 10713
  157.1646  131.0353  151.2825 LP  0  0  0  0  0  0  0  0  0  0  0  0  # atno 17371 bound_to 10713
  141.1379  133.6571  156.3645 LP  0  0  0  0  0  0  0  0  0  0  0  0  # atno 17394 bound_to 11000
  140.5315  134.6208  157.5351 LP  0  0  0  0  0  0  0  0  0  0  0  0  # atno 17395 bound_to 11000

$$$$
