AV-unprocessed.smi:1986|AV-procd|sdf|8052|dock9
  -GOLD-   2272010253D 1   1.00000     0.00000
 Structure written by MMmdl.
 48 49  0  0  0  0  0  0  0  0  2 V2000
  145.6790  135.7359  156.6680 C   0  0  0  0  0  0  0  0  0  0  0  0
  145.5523  135.2929  155.1996 C   0  0  0  0  0  0  0  0  0  0  0  0
  146.7144  135.7240  154.2536 C   0  0  1  0  0  0  0  0  0  0  0  0
  146.7686  137.2730  154.1920 C   0  0  0  0  0  0  0  0  0  0  0  0
  148.0751  135.2221  154.8389 C   0  0  0  0  0  0  0  0  0  0  0  0
  149.2160  136.0611  154.4764 N   0  0  0  0  0  0  0  0  0  0  0  0
  150.3041  136.2815  155.2276 C   0  0  0  0  0  0  0  0  0  0  0  0
  150.5180  135.7194  156.3012 O   0  0  0  0  0  0  0  0  0  0  0  0
  151.2983  137.3132  154.6829 C   0  0  0  0  0  0  0  0  0  0  0  0
  150.7950  138.6860  154.8277 N   0  0  0  0  0  0  0  0  0  0  0  0
  149.6220  138.9379  154.1333 N   0  0  0  0  0  0  0  0  0  0  0  0
  149.0865  140.1110  154.1764 C   0  0  0  0  0  0  0  0  0  0  0  0
  147.9257  140.3179  153.4727 O   0  0  0  0  0  0  0  0  0  0  0  0
  149.6876  141.1804  154.9428 C   0  0  0  0  0  0  0  0  0  0  0  0
  150.8282  140.9248  155.6201 C   0  0  0  0  0  0  0  0  0  0  0  0
  151.4612  139.6054  155.5939 C   0  0  0  0  0  0  0  0  0  0  0  0
  152.5009  139.3436  156.2006 O   0  0  0  0  0  0  0  0  0  0  0  0
  146.5101  135.1757  152.8608 N   0  3  0  0  0  0  0  0  0  0  0  0
  146.7045  133.7063  152.7102 C   0  0  0  0  0  0  0  0  0  0  0  0
  146.7015  133.3194  151.2231 C   0  0  0  0  0  0  0  0  0  0  0  0
  145.4646  133.7056  150.6409 O   0  0  0  0  0  0  0  0  0  0  0  0
  145.2703  135.1120  150.6996 C   0  0  0  0  0  0  0  0  0  0  0  0
  145.2557  135.5830  152.1648 C   0  0  0  0  0  0  0  0  0  0  0  0
  148.1933  140.4219  152.5725 H   0  0  0  0  0  0  0  0  0  0  0  0
  144.8231  135.3835  157.2440 H   0  0  0  0  0  0  0  0  0  0  0  0
  145.7054  136.8208  156.7665 H   0  0  0  0  0  0  0  0  0  0  0  0
  146.5730  135.3300  157.1407 H   0  0  0  0  0  0  0  0  0  0  0  0
  145.4543  134.2077  155.1992 H   0  0  0  0  0  0  0  0  0  0  0  0
  144.6039  135.6757  154.8237 H   0  0  0  0  0  0  0  0  0  0  0  0
  147.1680  137.7026  155.1110 H   0  0  0  0  0  0  0  0  0  0  0  0
  145.7807  137.7127  154.0524 H   0  0  0  0  0  0  0  0  0  0  0  0
  147.4023  137.6227  153.3765 H   0  0  0  0  0  0  0  0  0  0  0  0
  148.0242  135.1175  155.9240 H   0  0  0  0  0  0  0  0  0  0  0  0
  148.2936  134.2189  154.4727 H   0  0  0  0  0  0  0  0  0  0  0  0
  149.1504  136.5547  153.5978 H   0  0  0  0  0  0  0  0  0  0  0  0
  152.2429  137.1896  155.2156 H   0  0  0  0  0  0  0  0  0  0  0  0
  151.5233  137.1114  153.6336 H   0  0  0  0  0  0  0  0  0  0  0  0
  149.2266  142.1570  154.9669 H   0  0  0  0  0  0  0  0  0  0  0  0
  151.2872  141.7149  156.1962 H   0  0  0  0  0  0  0  0  0  0  0  0
  147.6452  133.3778  153.1483 H   0  0  0  0  0  0  0  0  0  0  0  0
  145.9080  133.1647  153.2205 H   0  0  0  0  0  0  0  0  0  0  0  0
  147.5346  133.7861  150.6944 H   0  0  0  0  0  0  0  0  0  0  0  0
  146.8191  132.2412  151.1152 H   0  0  0  0  0  0  0  0  0  0  0  0
  146.0494  135.6216  150.1315 H   0  0  0  0  0  0  0  0  0  0  0  0
  144.3218  135.3546  150.2199 H   0  0  0  0  0  0  0  0  0  0  0  0
  144.3885  135.1600  152.6720 H   0  0  0  0  0  0  0  0  0  0  0  0
  145.1297  136.6640  152.1581 H   0  0  0  0  0  0  0  0  0  0  0  0
  147.2517  135.5967  152.3185 H   0  0  0  0  0  0  0  0  0  0  0  0
  1  2  1  0  0  0  0
  1 25  1  0  0  0  0
  1 26  1  0  0  0  0
  1 27  1  0  0  0  0
  2  3  1  0  0  0  0
  2 28  1  0  0  0  0
  2 29  1  0  0  0  0
  3  4  1  0  0  0  0
  3  5  1  0  0  0  0
  3 18  1  0  0  0  0
  4 30  1  0  0  0  0
  4 31  1  0  0  0  0
  4 32  1  0  0  0  0
  5  6  1  0  0  0  0
  5 33  1  0  0  0  0
  5 34  1  0  0  0  0
  6  7  1  0  0  0  0
  6 35  1  0  0  0  0
  7  8  2  0  0  0  0
  7  9  1  0  0  0  0
  9 36  1  0  0  0  0
  9 37  1  0  0  0  0
  9 10  1  0  0  0  0
 10 11  1  0  0  0  0
 10 16  1  0  0  0  0
 11 12  2  0  0  0  0
 12 13  1  0  0  0  0
 12 14  1  0  0  0  0
 13 24  1  0  0  0  0
 14 38  1  0  0  0  0
 14 15  2  0  0  0  0
 15 39  1  0  0  0  0
 15 16  1  0  0  0  0
 16 17  2  0  0  0  0
 18 23  1  0  0  0  0
 18 19  1  0  0  0  0
 18 48  1  0  0  0  0
 19 20  1  0  0  0  0
 19 40  1  0  0  0  0
 19 41  1  0  0  0  0
 20 21  1  0  0  0  0
 20 42  1  0  0  0  0
 20 43  1  0  0  0  0
 21 22  1  0  0  0  0
 22 23  1  0  0  0  0
 22 44  1  0  0  0  0
 22 45  1  0  0  0  0
 23 46  1  0  0  0  0
 23 47  1  0  0  0  0
M  CHG  1  18   1
M  END
> <s_m_source_file>
AV-unprocessed.smi

> <i_m_source_file_index>
1986

> <i_lp_mmshare_version>
43012

> <i_f3d_flags>
0

> <s_epik_input>
W0NIMl0xW0NIMl1PW0NIMl1bQ0gyXU4xW0NAQF0oW0NIM10pKFtDSDJdW0NIM10pW0NIMl1bTkhdQyg9TylbQ0gyXW4yW25IXWMoPU8pW2NIXVtjSF1jMj1P

> <s_epik_cmdline>
J2VwaWtfcHl0aG9uJywgJy1waCcsICc3LjAnLCAnLXRuJywgJzgnLCAnLW1hJywgJzIwMCcsICctbWV0YWxfYmluZGluZycsICctaW1hZScsICc8aW5maWxlLm1hZT4nLCAnLW9tYWUnLCAnPG91dGZpbGUubWFlPic=

> <r_lp_tautomer_probability>
0.9996

> <r_epik_Ionization_Penalty>
2.73198

> <r_epik_Ionization_Penalty_Charging>
0.519658

> <r_epik_Ionization_Penalty_Neutral>
2.21233

> <r_epik_State_Penalty>
2.2852

> <r_epik_Charging_Adjusted_Penalty>
2.80486

> <i_epik_Tot_Q>
1

> <i_epik_Tot_abs_Q>
1

> <r_epik_Metal_State_Penalty>
2.2852

> <b_epik_Metal_Only>
0

> <s_lp_Force_Field>
OPLS_2005

> <r_lp_Energy>
43.5621

> <b_lp_Chiralities_Consistent>
1

> <s_lp_Variant>
AV-unprocessed.smi:1986-7

> <Gold.Version>
5.8.1

> <Gold.Id.Protein>
6NUR|6NUR_protein|mol2

> <Gold.PLP.Fitness>
44.9707

> <Gold.PLP.PLP>
-32.2845

> <Gold.PLP.part.hbond>
-4.0000

> <Gold.PLP.part.metal>
0.0000

> <Gold.PLP.part.buried>
-2.4786

> <Gold.PLP.part.nonpolar>
-26.1771

> <Gold.PLP.part.repulsive>
0.3953

> <Gold.PLP.ligand.clash>
0.1535

> <Gold.PLP.ligand.torsion>
0.9458

> <Gold.PLP.Chemscore.Hbond>
4.8160

> <Gold.PLP.Chemscore.CHOScore>
0.0000

> <Gold.PLP.Chemscore.Metal>
0.0000

> <Gold.Chemscore.Hbonds>
donor molecule, donor type, donor heavy atom, donor atom, acceptor molecule, acceptor atom, score
      L1  H     6    35       P1  7948  0.80
      L1  H    13    24       P1  7957  0.96
      L1  H    18    48       P1  7948  2.00
      P1  H  7997  8010       L1    17  1.00

> <Gold.PLP.Chemscore.Internal.Correction>
0.2833

> <Gold.Rescore>
     Score         DG    S(hbond)    S(metal)    S(lipo)     H(rot)  DE(clash)    DE(int)     intcor
     13.50     -15.77       3.79        0.00      48.78       3.15       0.07       2.20       ----

> <Gold.Chemscore.Fitness>
13.4962

> <Gold.Chemscore.DG>
-15.7691

> <Gold.Chemscore.ZeroCoef>
-5.4800

> <Gold.Chemscore.Hbond>
3.7851

> <Gold.Chemscore.Metal>
0.0000

> <Gold.Chemscore.Lipo>
48.7773

> <Gold.Chemscore.Internal_Hbond>
0.0000

> <Gold.Chemscore.DEClash>
0.0749

> <Gold.Chemscore.DEInternal>
2.1980

> <Gold.Chemscore.Rot>
3.1485

> <Gold.Chemscore.Internal.Correction>
   9.000000E+99

> <Gold.Chemscore.Hbonds>
donor molecule, donor type, donor heavy atom, donor atom, acceptor molecule, acceptor atom, score
      L1  H     6    35       P1  7948  0.78
      L1  H    13    24       P1  7957  0.86
      L1  H    18    48       P1  7948  1.00
      P1  H  7997  8010       L1    17  0.97

> <Gold.Chemscore.Hbond.Weighted>
-12.6423

> <Gold.Chemscore.Metal.Weighted>
-0.0000

> <Gold.Chemscore.Lipo.Weighted>
-5.7069

> <Gold.Chemscore.Internal_Hbond.Weighted>
0.0000

> <Gold.Chemscore.DEClash.Weighted>
0.0749

> <Gold.Chemscore.DEInternal.Weighted>
2.1980

> <Gold.Chemscore.Rot.Weighted>
8.0601

> <Gold.Chemscore.Internal.Correction.Weighted>
   9.000000E+99

> <Gold.Protein.RotatedTorsions>
[ 6907 6896 6895 6894 ] final  165.84 input  -60.11 | X-H torsion
[ 7974 7965 7964 7962 ] final  113.99 input  175.53 | X-H torsion
[ 8008 7997 7996 7995 ] final   76.60 input   59.86 | X-H torsion
[ 10167 10162 10161 10158 ] final   90.29 input  -65.29 | X-H torsion
[ 10718 10713 10712 10709 ] final  108.97 input   66.30 | X-H torsion
[ 10763 10752 10751 10750 ] final  -21.09 input  -60.55 | X-H torsion
[ 11005 11000 10999 10996 ] final  149.96 input  -57.11 | X-H torsion

> <Gold.Protein.ActiveResidues>
 VAL166  LYS551  ARG553  GLY616  TRP617  ASP618  TYR619  PRO620  LYS621  CYS622 
 ASP623  PHE694  ASN695  SER759  ASP760  ASP761  ALA762  ILE779  LEU786  VAL792 
 PHE793  MET794  SER795  GLU796  ALA797  LYS798  CYS799  TRP800  GLU811  SER814 

> <Gold.Protein.RotatedAtoms>
  151.8882  133.3510  159.3789 H   0  0  0  0  0  0  0  0  0  0  0  0  # atno 6907 bound_to 6896
  150.7110  134.4950  159.5543 H   0  0  0  0  0  0  0  0  0  0  0  0  # atno 6908 bound_to 6896
  152.2515  134.8128  160.0496 H   0  0  0  0  0  0  0  0  0  0  0  0  # atno 6909 bound_to 6896
  145.2100  139.2911  143.4273 H   0  0  0  0  0  0  0  0  0  0  0  0  # atno 7974 bound_to 7965
  155.8296  140.3466  155.5564 H   0  0  0  0  0  0  0  0  0  0  0  0  # atno 8008 bound_to 7997
  155.8256  140.0919  157.1843 H   0  0  0  0  0  0  0  0  0  0  0  0  # atno 8009 bound_to 7997
  154.4004  140.1422  156.3540 H   0  0  0  0  0  0  0  0  0  0  0  0  # atno 8010 bound_to 7997
  139.8488  144.6604  150.9194 H   0  0  0  0  0  0  0  0  0  0  0  0  # atno 10167 bound_to 10162
  157.6563  131.0904  150.6384 H   0  0  0  0  0  0  0  0  0  0  0  0  # atno 10718 bound_to 10713
  153.6307  135.6989  153.5276 H   0  0  0  0  0  0  0  0  0  0  0  0  # atno 10763 bound_to 10752
  153.2862  135.4171  155.1124 H   0  0  0  0  0  0  0  0  0  0  0  0  # atno 10764 bound_to 10752
  154.8522  135.3614  154.5850 H   0  0  0  0  0  0  0  0  0  0  0  0  # atno 10765 bound_to 10752
  140.1090  134.8936  157.1908 H   0  0  0  0  0  0  0  0  0  0  0  0  # atno 11005 bound_to 11000
  146.3399  140.2372  142.8595 LP  0  0  0  0  0  0  0  0  0  0  0  0  # atno 17320 bound_to 7965
  144.9865  140.8508  143.5365 LP  0  0  0  0  0  0  0  0  0  0  0  0  # atno 17321 bound_to 7965
  140.7790  143.3846  151.1416 LP  0  0  0  0  0  0  0  0  0  0  0  0  # atno 17342 bound_to 10162
  139.7486  143.8814  152.3070 LP  0  0  0  0  0  0  0  0  0  0  0  0  # atno 17343 bound_to 10162
  156.6690  130.4534  149.5663 LP  0  0  0  0  0  0  0  0  0  0  0  0  # atno 17370 bound_to 10713
  156.2011  130.6620  151.1168 LP  0  0  0  0  0  0  0  0  0  0  0  0  # atno 17371 bound_to 10713
  140.3117  134.3016  155.7265 LP  0  0  0  0  0  0  0  0  0  0  0  0  # atno 17394 bound_to 11000
  141.2125  133.7654  156.9786 LP  0  0  0  0  0  0  0  0  0  0  0  0  # atno 17395 bound_to 11000

$$$$
