AV-unprocessed.smi:3155|AV-procd|sdf|12028|dock10
  -GOLD-   2272017443D 1   1.00000     0.00000
 Structure written by MMmdl.
 37 38  0  0  0  0  0  0  0  0  1 V2000
  151.1175  137.6953  154.1704 C   0  0  0  0  0  0  0  0  0  0  0  0
  150.7830  139.1411  154.5648 C   0  0  1  0  0  0  0  0  0  0  0  0
  149.3965  139.2104  155.2473 C   0  0  0  0  0  0  0  0  0  0  0  0
  148.4242  140.0042  154.5160 N   0  0  0  0  0  0  0  0  0  0  0  0
  148.2289  141.3693  154.5537 C   0  0  0  0  0  0  0  0  0  0  0  0
  147.2129  141.6592  153.6890 C   0  0  0  0  0  0  0  0  0  0  0  0
  146.8561  140.3919  153.1502 C   0  0  0  0  0  0  0  0  0  0  0  0
  147.5891  139.4053  153.6398 N   0  0  0  0  0  0  0  0  0  0  0  0
  151.8443  139.5898  155.4628 N   0  0  0  0  0  0  0  0  0  0  0  0
  151.4984  140.8226  156.1821 C   0  0  0  0  0  0  0  0  0  0  0  0
  152.2388  140.9205  157.5203 C   0  0  0  0  0  0  0  0  0  0  0  0
  152.8955  139.9516  157.9025 O   0  0  0  0  0  0  0  0  0  0  0  0
  152.1527  142.0609  158.2378 N   0  0  0  0  0  0  0  0  0  0  0  0
  151.3791  143.2478  157.8758 C   0  0  0  0  0  0  0  0  0  0  0  0
  151.3948  144.1464  159.1118 C   0  0  0  0  0  0  0  0  0  0  0  0
  152.6657  143.7453  159.8470 C   0  0  0  0  0  0  0  0  0  0  0  0
  152.8378  142.2632  159.5131 C   0  0  0  0  0  0  0  0  0  0  0  0
  150.3788  137.3001  153.4724 H   0  0  0  0  0  0  0  0  0  0  0  0
  151.1355  137.0369  155.0400 H   0  0  0  0  0  0  0  0  0  0  0  0
  152.0911  137.6321  153.6829 H   0  0  0  0  0  0  0  0  0  0  0  0
  150.7834  139.7317  153.6472 H   0  0  0  0  0  0  0  0  0  0  0  0
  148.9810  138.2059  155.3364 H   0  0  0  0  0  0  0  0  0  0  0  0
  149.4894  139.5930  156.2655 H   0  0  0  0  0  0  0  0  0  0  0  0
  148.8187  142.0122  155.1905 H   0  0  0  0  0  0  0  0  0  0  0  0
  146.7907  142.6290  153.4717 H   0  0  0  0  0  0  0  0  0  0  0  0
  146.0933  140.1609  152.4211 H   0  0  0  0  0  0  0  0  0  0  0  0
  152.6852  139.7256  154.9196 H   0  0  0  0  0  0  0  0  0  0  0  0
  151.7698  141.6849  155.5714 H   0  0  0  0  0  0  0  0  0  0  0  0
  150.4258  140.8902  156.3520 H   0  0  0  0  0  0  0  0  0  0  0  0
  151.8646  143.7478  157.0365 H   0  0  0  0  0  0  0  0  0  0  0  0
  150.3565  143.0039  157.5861 H   0  0  0  0  0  0  0  0  0  0  0  0
  151.3644  145.2077  158.8632 H   0  0  0  0  0  0  0  0  0  0  0  0
  150.5275  143.9244  159.7352 H   0  0  0  0  0  0  0  0  0  0  0  0
  153.5096  144.3106  159.4495 H   0  0  0  0  0  0  0  0  0  0  0  0
  152.6121  143.9343  160.9196 H   0  0  0  0  0  0  0  0  0  0  0  0
  152.3633  141.6413  160.2733 H   0  0  0  0  0  0  0  0  0  0  0  0
  153.8927  141.9893  159.4603 H   0  0  0  0  0  0  0  0  0  0  0  0
  1  2  1  0  0  0  0
  1 18  1  0  0  0  0
  1 19  1  0  0  0  0
  1 20  1  0  0  0  0
  2  3  1  0  0  0  0
  2  9  1  0  0  0  0
  2 21  1  0  0  0  0
  3  4  1  0  0  0  0
  3 22  1  0  0  0  0
  3 23  1  0  0  0  0
  4  8  1  0  0  0  0
  4  5  1  0  0  0  0
  5  6  2  0  0  0  0
  5 24  1  0  0  0  0
  6  7  1  0  0  0  0
  6 25  1  0  0  0  0
  7  8  2  0  0  0  0
  7 26  1  0  0  0  0
  9 10  1  0  0  0  0
  9 27  1  0  0  0  0
 10 11  1  0  0  0  0
 10 28  1  0  0  0  0
 10 29  1  0  0  0  0
 11 12  2  0  0  0  0
 11 13  1  0  0  0  0
 13 17  1  0  0  0  0
 13 14  1  0  0  0  0
 14 15  1  0  0  0  0
 14 30  1  0  0  0  0
 14 31  1  0  0  0  0
 15 16  1  0  0  0  0
 15 32  1  0  0  0  0
 15 33  1  0  0  0  0
 16 17  1  0  0  0  0
 16 34  1  0  0  0  0
 16 35  1  0  0  0  0
 17 36  1  0  0  0  0
 17 37  1  0  0  0  0
M  END
> <s_m_source_file>
AV-unprocessed.smi

> <i_m_source_file_index>
3155

> <i_lp_mmshare_version>
43012

> <i_f3d_flags>
0

> <s_epik_input>
bjFbY0hdW2NIXVtjSF1uMVtDSDJdW0NAQEhdKFtDSDNdKVtOSF1bQ0gyXUMoPU8pTjJbQ0gyXVtDSDJdW0NIMl1bQ0gyXTI=

> <s_epik_cmdline>
J2VwaWtfcHl0aG9uJywgJy1waCcsICc3LjAnLCAnLXRuJywgJzgnLCAnLW1hJywgJzIwMCcsICctbWV0YWxfYmluZGluZycsICctaW1hZScsICc8aW5maWxlLm1hZT4nLCAnLW9tYWUnLCAnPG91dGZpbGUubWFlPic=

> <r_lp_tautomer_probability>
1

> <r_epik_Ionization_Penalty>
1.00455

> <r_epik_Ionization_Penalty_Charging>
0

> <r_epik_Ionization_Penalty_Neutral>
1.00455

> <r_epik_State_Penalty>
1.05336

> <r_epik_Charging_Adjusted_Penalty>
1.05336

> <i_epik_Tot_Q>
0

> <i_epik_Tot_abs_Q>
0

> <r_epik_Metal_State_Penalty>
1.05331

> <b_epik_Metal_Only>
0

> <s_lp_Force_Field>
OPLS_2005

> <r_lp_Energy>
30.9369

> <b_lp_Chiralities_Consistent>
1

> <s_lp_Variant>
AV-unprocessed.smi:3155-4

> <Gold.Version>
5.8.1

> <Gold.Id.Protein>
6NUR|6NUR_protein|mol2

> <Gold.PLP.Fitness>
42.5860

> <Gold.PLP.PLP>
-36.4669

> <Gold.PLP.part.hbond>
-1.2710

> <Gold.PLP.part.metal>
0.0000

> <Gold.PLP.part.buried>
-4.1811

> <Gold.PLP.part.nonpolar>
-29.8674

> <Gold.PLP.part.repulsive>
0.1890

> <Gold.PLP.ligand.clash>
0.0000

> <Gold.PLP.ligand.torsion>
1.4148

> <Gold.PLP.Chemscore.Hbond>
0.9913

> <Gold.PLP.Chemscore.CHOScore>
1.9855

> <Gold.PLP.Chemscore.Metal>
0.0000

> <Gold.Chemscore.Hbonds>
donor molecule, donor type, donor heavy atom, donor atom, acceptor molecule, acceptor atom, score
      P1  H  7997  8009       L1    12  1.00
      L1  C     5    24       P1  8028  0.48
      L1  C     7    26       P1 10175  1.00

> <Gold.PLP.Chemscore.Internal.Correction>
0.0186

> <Gold.Rescore>
     Score         DG    S(hbond)    S(metal)    S(lipo)     H(rot)  DE(clash)    DE(int)     intcor
     12.68     -14.34       0.69        0.00      94.72       1.77       0.42       1.23       ----

> <Gold.Chemscore.Fitness>
12.6832

> <Gold.Chemscore.DG>
-14.3388

> <Gold.Chemscore.ZeroCoef>
-5.4800

> <Gold.Chemscore.Hbond>
0.6903

> <Gold.Chemscore.Metal>
0.0000

> <Gold.Chemscore.Lipo>
94.7230

> <Gold.Chemscore.Internal_Hbond>
0.0000

> <Gold.Chemscore.DEClash>
0.4236

> <Gold.Chemscore.DEInternal>
1.2320

> <Gold.Chemscore.Rot>
1.7693

> <Gold.Chemscore.Internal.Correction>
   9.000000E+99

> <Gold.Chemscore.Hbonds>
donor molecule, donor type, donor heavy atom, donor atom, acceptor molecule, acceptor atom, score
      P1  H  7997  8009       L1    12  0.61

> <Gold.Chemscore.Hbond.Weighted>
-2.3056

> <Gold.Chemscore.Metal.Weighted>
-0.0000

> <Gold.Chemscore.Lipo.Weighted>
-11.0826

> <Gold.Chemscore.Internal_Hbond.Weighted>
0.0000

> <Gold.Chemscore.DEClash.Weighted>
0.4236

> <Gold.Chemscore.DEInternal.Weighted>
1.2320

> <Gold.Chemscore.Rot.Weighted>
4.5294

> <Gold.Chemscore.Internal.Correction.Weighted>
   9.000000E+99

> <Gold.Protein.RotatedTorsions>
[ 6907 6896 6895 6894 ] final   54.80 input  -60.11 | X-H torsion
[ 7974 7965 7964 7962 ] final   49.70 input  175.53 | X-H torsion
[ 8008 7997 7996 7995 ] final  151.33 input   59.86 | X-H torsion
[ 10167 10162 10161 10158 ] final  -22.08 input  -65.29 | X-H torsion
[ 10718 10713 10712 10709 ] final -144.75 input   66.30 | X-H torsion
[ 10763 10752 10751 10750 ] final  103.14 input  -60.55 | X-H torsion
[ 11005 11000 10999 10996 ] final  137.98 input  -57.11 | X-H torsion

> <Gold.Protein.ActiveResidues>
 VAL166  LYS551  ARG553  GLY616  TRP617  ASP618  TYR619  PRO620  LYS621  CYS622 
 ASP623  PHE694  ASN695  SER759  ASP760  ASP761  ALA762  ILE779  LEU786  VAL792 
 PHE793  MET794  SER795  GLU796  ALA797  LYS798  CYS799  TRP800  GLU811  SER814 

> <Gold.Protein.RotatedAtoms>
  152.3475  134.7051  160.0245 H   0  0  0  0  0  0  0  0  0  0  0  0  # atno 6907 bound_to 6896
  151.7415  133.3317  159.3375 H   0  0  0  0  0  0  0  0  0  0  0  0  # atno 6908 bound_to 6896
  150.7519  134.6206  159.6179 H   0  0  0  0  0  0  0  0  0  0  0  0  # atno 6909 bound_to 6896
  146.0084  139.4515  142.9972 H   0  0  0  0  0  0  0  0  0  0  0  0  # atno 7974 bound_to 7965
  156.2678  140.2051  156.6158 H   0  0  0  0  0  0  0  0  0  0  0  0  # atno 8008 bound_to 7997
  154.6795  140.0541  157.0275 H   0  0  0  0  0  0  0  0  0  0  0  0  # atno 8009 bound_to 7997
  155.1020  140.3207  155.4547 H   0  0  0  0  0  0  0  0  0  0  0  0  # atno 8010 bound_to 7997
  140.7284  143.4568  151.0437 H   0  0  0  0  0  0  0  0  0  0  0  0  # atno 10167 bound_to 10162
  156.3739  130.7802  151.1986 H   0  0  0  0  0  0  0  0  0  0  0  0  # atno 10718 bound_to 10713
  153.3488  135.3986  155.1630 H   0  0  0  0  0  0  0  0  0  0  0  0  # atno 10763 bound_to 10752
  154.8658  135.3651  154.5249 H   0  0  0  0  0  0  0  0  0  0  0  0  # atno 10764 bound_to 10752
  153.5699  135.7079  153.5569 H   0  0  0  0  0  0  0  0  0  0  0  0  # atno 10765 bound_to 10752
  140.0151  134.9422  157.0360 H   0  0  0  0  0  0  0  0  0  0  0  0  # atno 11005 bound_to 11000
  145.7381  141.0018  143.1316 LP  0  0  0  0  0  0  0  0  0  0  0  0  # atno 17320 bound_to 7965
  144.6944  139.9065  143.7461 LP  0  0  0  0  0  0  0  0  0  0  0  0  # atno 17321 bound_to 7965
  139.8249  143.7770  152.3178 LP  0  0  0  0  0  0  0  0  0  0  0  0  # atno 17342 bound_to 10162
  139.7865  144.7426  151.0014 LP  0  0  0  0  0  0  0  0  0  0  0  0  # atno 17343 bound_to 10162
  157.7486  131.0364  150.4407 LP  0  0  0  0  0  0  0  0  0  0  0  0  # atno 17370 bound_to 10713
  156.4639  130.4038  149.6559 LP  0  0  0  0  0  0  0  0  0  0  0  0  # atno 17371 bound_to 10713
  140.4485  134.1607  155.7179 LP  0  0  0  0  0  0  0  0  0  0  0  0  # atno 17394 bound_to 11000
  141.1737  133.8556  157.1488 LP  0  0  0  0  0  0  0  0  0  0  0  0  # atno 17395 bound_to 11000

$$$$
