AV-unprocessed.smi:3116|AV-procd|sdf|11866|dock2
  -GOLD-   2272017243D 1   1.00000     0.00000
 Structure written by MMmdl.
 34 34  0  0  0  0  0  0  0  0  2 V2000
  148.4719  141.7575  154.4323 C   0  0  0  0  0  0  0  0  0  0  0  0
  149.2488  141.2525  155.6606 C   0  0  2  0  0  0  0  0  0  0  0  0
  150.2125  142.2747  156.1308 N   0  3  0  0  0  0  0  0  0  0  0  0
  150.5426  142.2425  157.5760 C   0  0  2  0  0  0  0  0  0  0  0  0
  149.3578  142.8367  158.3558 C   0  0  0  0  0  0  0  0  0  0  0  0
  151.8743  142.9962  157.8468 C   0  0  1  0  0  0  0  0  0  0  0  0
  151.7320  144.5295  157.7744 C   0  0  0  0  0  0  0  0  0  0  0  0
  152.4588  142.6109  159.1267 N   0  0  0  0  0  0  0  0  0  0  0  0
  152.7250  143.4123  160.2182 C   0  0  0  0  0  0  0  0  0  0  0  0
  153.2948  142.6235  161.1759 C   0  0  0  0  0  0  0  0  0  0  0  0
  153.3344  141.3353  160.5740 C   0  0  0  0  0  0  0  0  0  0  0  0
  152.8396  141.3318  159.3469 N   0  0  0  0  0  0  0  0  0  0  0  0
  149.9770  139.9437  155.3333 C   0  0  0  0  0  0  0  0  0  0  0  0
  149.6051  138.8549  156.0117 N   0  0  0  0  0  0  0  0  0  0  0  0
  150.8579  139.9092  154.4759 O   0  0  0  0  0  0  0  0  0  0  0  0
  147.7581  141.0115  154.0812 H   0  0  0  0  0  0  0  0  0  0  0  0
  149.1420  141.9924  153.6041 H   0  0  0  0  0  0  0  0  0  0  0  0
  147.9051  142.6595  154.6636 H   0  0  0  0  0  0  0  0  0  0  0  0
  148.5428  141.0388  156.4633 H   0  0  0  0  0  0  0  0  0  0  0  0
  151.0740  142.1472  155.6194 H   0  0  0  0  0  0  0  0  0  0  0  0
  150.6534  141.2059  157.8982 H   0  0  0  0  0  0  0  0  0  0  0  0
  149.4920  142.7393  159.4328 H   0  0  0  0  0  0  0  0  0  0  0  0
  148.4294  142.3219  158.1060 H   0  0  0  0  0  0  0  0  0  0  0  0
  149.2216  143.8944  158.1281 H   0  0  0  0  0  0  0  0  0  0  0  0
  152.5892  142.7033  157.0761 H   0  0  0  0  0  0  0  0  0  0  0  0
  151.4844  144.8646  156.7675 H   0  0  0  0  0  0  0  0  0  0  0  0
  152.6656  145.0213  158.0503 H   0  0  0  0  0  0  0  0  0  0  0  0
  150.9553  144.8936  158.4476 H   0  0  0  0  0  0  0  0  0  0  0  0
  152.4920  144.4671  160.2234 H   0  0  0  0  0  0  0  0  0  0  0  0
  153.6301  142.9206  162.1586 H   0  0  0  0  0  0  0  0  0  0  0  0
  153.7084  140.4104  160.9879 H   0  0  0  0  0  0  0  0  0  0  0  0
  150.0557  137.9679  155.8374 H   0  0  0  0  0  0  0  0  0  0  0  0
  148.8727  138.9233  156.7041 H   0  0  0  0  0  0  0  0  0  0  0  0
  149.8413  143.1840  155.8958 H   0  0  0  0  0  0  0  0  0  0  0  0
  1  2  1  0  0  0  0
  1 16  1  0  0  0  0
  1 17  1  0  0  0  0
  1 18  1  0  0  0  0
  2  3  1  0  0  0  0
  2 13  1  0  0  0  0
  2 19  1  0  0  0  0
  3  4  1  0  0  0  0
  3 20  1  0  0  0  0
  3 34  1  0  0  0  0
  4  5  1  0  0  0  0
  4  6  1  0  0  0  0
  4 21  1  0  0  0  0
  5 22  1  0  0  0  0
  5 23  1  0  0  0  0
  5 24  1  0  0  0  0
  6  7  1  0  0  0  0
  6  8  1  0  0  0  0
  6 25  1  0  0  0  0
  7 26  1  0  0  0  0
  7 27  1  0  0  0  0
  7 28  1  0  0  0  0
  8 12  1  0  0  0  0
  8  9  1  0  0  0  0
  9 10  2  0  0  0  0
  9 29  1  0  0  0  0
 10 11  1  0  0  0  0
 10 30  1  0  0  0  0
 11 12  2  0  0  0  0
 11 31  1  0  0  0  0
 13 14  1  0  0  0  0
 13 15  2  0  0  0  0
 14 32  1  0  0  0  0
 14 33  1  0  0  0  0
M  CHG  1   3   1
M  END
> <s_m_source_file>
AV-unprocessed.smi

> <i_m_source_file_index>
3116

> <i_lp_mmshare_version>
43012

> <i_f3d_flags>
0

> <s_epik_input>
W05IMl1DKD1PKVtDQEhdKFtDSDNdKVtOSF1bQ0BIXShbQ0gzXSlbQ0BIXShbQ0gzXSluMVtjSF1bY0hdW2NIXW4x

> <s_epik_cmdline>
J2VwaWtfcHl0aG9uJywgJy1waCcsICc3LjAnLCAnLXRuJywgJzgnLCAnLW1hJywgJzIwMCcsICctbWV0YWxfYmluZGluZycsICctaW1hZScsICc8aW5maWxlLm1hZT4nLCAnLW9tYWUnLCAnPG91dGZpbGUubWFlPic=

> <r_lp_tautomer_probability>
1

> <r_epik_Ionization_Penalty>
0.15658

> <r_epik_Ionization_Penalty_Charging>
0.156568

> <r_epik_Ionization_Penalty_Neutral>
1.19778e-05

> <r_epik_State_Penalty>
0.145866

> <r_epik_Charging_Adjusted_Penalty>
0.302434

> <i_epik_Tot_Q>
1

> <i_epik_Tot_abs_Q>
1

> <r_epik_Metal_State_Penalty>
0.146064

> <b_epik_Metal_Only>
0

> <s_lp_Force_Field>
OPLS_2005

> <r_lp_Energy>
9.52806

> <b_lp_Chiralities_Consistent>
1

> <s_lp_Variant>
AV-unprocessed.smi:3116-5

> <Gold.Version>
5.8.1

> <Gold.Id.Protein>
6NUR|6NUR_protein|mol2

> <Gold.PLP.Fitness>
41.7452

> <Gold.PLP.PLP>
-34.1607

> <Gold.PLP.part.hbond>
-2.0000

> <Gold.PLP.part.metal>
0.0000

> <Gold.PLP.part.buried>
-4.6207

> <Gold.PLP.part.nonpolar>
-27.4974

> <Gold.PLP.part.repulsive>
0.2128

> <Gold.PLP.ligand.clash>
0.0000

> <Gold.PLP.ligand.torsion>
0.7947

> <Gold.PLP.Chemscore.Hbond>
3.0000

> <Gold.PLP.Chemscore.CHOScore>
0.0000

> <Gold.PLP.Chemscore.Metal>
0.0000

> <Gold.Chemscore.Hbonds>
donor molecule, donor type, donor heavy atom, donor atom, acceptor molecule, acceptor atom, score
      L1  H     3    34       P1  8028  2.00
      P1  H  7989  7998       L1    15  1.00

> <Gold.PLP.Chemscore.Internal.Correction>
0.1738

> <Gold.Rescore>
     Score         DG    S(hbond)    S(metal)    S(lipo)     H(rot)  DE(clash)    DE(int)     intcor
     14.97     -15.48       2.00        0.00      81.96       2.45       0.01       0.50       ----

> <Gold.Chemscore.Fitness>
14.9665

> <Gold.Chemscore.DG>
-15.4773

> <Gold.Chemscore.ZeroCoef>
-5.4800

> <Gold.Chemscore.Hbond>
1.9974

> <Gold.Chemscore.Metal>
0.0000

> <Gold.Chemscore.Lipo>
81.9586

> <Gold.Chemscore.Internal_Hbond>
0.0000

> <Gold.Chemscore.DEClash>
0.0126

> <Gold.Chemscore.DEInternal>
0.4981

> <Gold.Chemscore.Rot>
2.4465

> <Gold.Chemscore.Internal.Correction>
   9.000000E+99

> <Gold.Chemscore.Hbonds>
donor molecule, donor type, donor heavy atom, donor atom, acceptor molecule, acceptor atom, score
      L1  H     3    34       P1  8028  1.00
      P1  H  7989  7998       L1    15  0.97

> <Gold.Chemscore.Hbond.Weighted>
-6.6713

> <Gold.Chemscore.Metal.Weighted>
-0.0000

> <Gold.Chemscore.Lipo.Weighted>
-9.5892

> <Gold.Chemscore.Internal_Hbond.Weighted>
0.0000

> <Gold.Chemscore.DEClash.Weighted>
0.0126

> <Gold.Chemscore.DEInternal.Weighted>
0.4981

> <Gold.Chemscore.Rot.Weighted>
6.2631

> <Gold.Chemscore.Internal.Correction.Weighted>
   9.000000E+99

> <Gold.Protein.RotatedTorsions>
[ 6907 6896 6895 6894 ] final  179.02 input  -60.11 | X-H torsion
[ 7974 7965 7964 7962 ] final   17.47 input  175.53 | X-H torsion
[ 8008 7997 7996 7995 ] final  -92.97 input   59.86 | X-H torsion
[ 10167 10162 10161 10158 ] final  135.09 input  -65.29 | X-H torsion
[ 10718 10713 10712 10709 ] final    1.45 input   66.30 | X-H torsion
[ 10763 10752 10751 10750 ] final   14.09 input  -60.55 | X-H torsion
[ 11005 11000 10999 10996 ] final  -98.25 input  -57.11 | X-H torsion

> <Gold.Protein.ActiveResidues>
 VAL166  LYS551  ARG553  GLY616  TRP617  ASP618  TYR619  PRO620  LYS621  CYS622 
 ASP623  PHE694  ASN695  SER759  ASP760  ASP761  ALA762  ILE779  LEU786  VAL792 
 PHE793  MET794  SER795  GLU796  ALA797  LYS798  CYS799  TRP800  GLU811  SER814 

> <Gold.Protein.RotatedAtoms>
  151.6785  133.3312  159.3213 H   0  0  0  0  0  0  0  0  0  0  0  0  # atno 6907 bound_to 6896
  150.7834  134.6802  159.6449 H   0  0  0  0  0  0  0  0  0  0  0  0  # atno 6908 bound_to 6896
  152.3898  134.6463  160.0164 H   0  0  0  0  0  0  0  0  0  0  0  0  # atno 6909 bound_to 6896
  146.2217  139.8597  142.8607 H   0  0  0  0  0  0  0  0  0  0  0  0  # atno 7974 bound_to 7965
  154.7298  140.0503  157.0716 H   0  0  0  0  0  0  0  0  0  0  0  0  # atno 8008 bound_to 7997
  155.0316  140.3158  155.4737 H   0  0  0  0  0  0  0  0  0  0  0  0  # atno 8009 bound_to 7997
  156.2838  140.2149  156.5438 H   0  0  0  0  0  0  0  0  0  0  0  0  # atno 8010 bound_to 7997
  139.5230  144.6534  151.5233 H   0  0  0  0  0  0  0  0  0  0  0  0  # atno 10167 bound_to 10162
  156.8484  130.5545  149.5671 H   0  0  0  0  0  0  0  0  0  0  0  0  # atno 10718 bound_to 10713
  153.1656  135.6803  153.8680 H   0  0  0  0  0  0  0  0  0  0  0  0  # atno 10763 bound_to 10752
  153.8061  135.3149  155.3397 H   0  0  0  0  0  0  0  0  0  0  0  0  # atno 10764 bound_to 10752
  154.7963  135.4805  154.0259 H   0  0  0  0  0  0  0  0  0  0  0  0  # atno 10765 bound_to 10752
  141.1351  133.8231  157.0814 H   0  0  0  0  0  0  0  0  0  0  0  0  # atno 11005 bound_to 11000
  145.2717  141.0111  143.3768 LP  0  0  0  0  0  0  0  0  0  0  0  0  # atno 17320 bound_to 7965
  144.9218  139.4402  143.6537 LP  0  0  0  0  0  0  0  0  0  0  0  0  # atno 17321 bound_to 7965
  140.6350  143.9003  150.6639 LP  0  0  0  0  0  0  0  0  0  0  0  0  # atno 17342 bound_to 10162
  140.2319  143.3729  152.1559 LP  0  0  0  0  0  0  0  0  0  0  0  0  # atno 17343 bound_to 10162
  156.0841  130.5844  150.9617 LP  0  0  0  0  0  0  0  0  0  0  0  0  # atno 17370 bound_to 10713
  157.6317  131.0920  150.8428 LP  0  0  0  0  0  0  0  0  0  0  0  0  # atno 17371 bound_to 10713
  140.0449  134.9835  157.1031 LP  0  0  0  0  0  0  0  0  0  0  0  0  # atno 17394 bound_to 11000
  140.4078  134.2014  155.7163 LP  0  0  0  0  0  0  0  0  0  0  0  0  # atno 17395 bound_to 11000

$$$$
