#       Name:                AV-unprocessed.smi:2884
#       Creating user name   scv26
#       Creation time:       Fri Mar 27 15:55:46 2020


#       File generated by GOLD software.
#

@<TRIPOS>MOLECULE
AV-unprocessed.smi:2884
    47    48     1
SMALL
NO_CHARGES


@<TRIPOS>ATOM
      1 ****         0.5653  -6.3955  -0.8707 C.3            1 S1                 0.0000
      2 ****         1.4573  -6.2170  -2.1061 C.3            1 S1                 0.0000
      3 ****         2.5220  -5.1285  -1.9224 C.3            1 S1                 0.0000
      4 ****         1.8545  -3.8772  -1.8088 O.3            1 S1                 0.0000
      5 ****         2.5982  -2.6873  -1.5220 C.3            1 S1                 0.0000
      6 ****         1.4944  -1.5981  -1.5071 C.3            1 S1                 0.0000
      7 ****         0.5018  -1.8141  -0.4620 N.pl3          1 S1                 0.0000
      8 ****        -0.7216  -2.4712  -0.5360 C.2            1 S1                 0.0000
      9 ****        -1.6381  -2.5955   0.6255 C.2            1 S1                 0.0000
     10 ****        -2.7616  -3.1920   0.5486 N.2            1 S1                 0.0000
     11 ****        -3.2084  -3.7838  -0.6926 N.pl3          1 S1                -1.0000
     12 ****        -2.4242  -3.7075  -1.8103 C.2            1 S1                 0.0000
     13 ****        -2.7694  -4.1931  -2.8862 O.2            1 S1                 0.0000
     14 ****        -1.1313  -3.0204  -1.7077 C.2            1 S1                 0.0000
     15 ****        -0.1396  -2.9159  -3.1263 Cl             1 S1                 0.0000
     16 ****         3.3472  -2.7757  -0.1627 C.3            1 S1                 0.0000
     17 ****         4.1877  -1.5186   0.1243 C.3            1 S1                 0.0000
     18 ****         5.1828  -1.2447  -1.0152 C.3            1 S1                 0.0000
     19 ****         4.4739  -1.1473  -2.3759 C.3            1 S1                 0.0000
     20 ****         3.6177  -2.3973  -2.6545 C.3            1 S1                 0.0000
     21 ****        -0.1661  -7.1878  -1.0313 H              1 S1                 0.0000
     22 ****         0.0158  -5.4825  -0.6416 H              1 S1                 0.0000
     23 ****         1.1553  -6.6589   0.0074 H              1 S1                 0.0000
     24 ****         1.9494  -7.1646  -2.3266 H              1 S1                 0.0000
     25 ****         0.8388  -5.9821  -2.9730 H              1 S1                 0.0000
     26 ****         3.1185  -5.3597  -1.0415 H              1 S1                 0.0000
     27 ****         3.1859  -5.1324  -2.7860 H              1 S1                 0.0000
     28 ****         1.9257  -0.6142  -1.3310 H              1 S1                 0.0000
     29 ****         1.0137  -1.5302  -2.4819 H              1 S1                 0.0000
     30 ****         0.7918  -1.5191   0.4590 H              1 S1                 0.0000
     31 ****        -1.3055  -2.1431   1.5618 H              1 S1                 0.0000
     32 ****         2.6497  -2.9560   0.6556 H              1 S1                 0.0000
     33 ****         4.0324  -3.6218  -0.1611 H              1 S1                 0.0000
     34 ****         3.5387  -0.6546   0.2673 H              1 S1                 0.0000
     35 ****         4.7298  -1.6460   1.0616 H              1 S1                 0.0000
     36 ****         5.7329  -0.3246  -0.8156 H              1 S1                 0.0000
     37 ****         5.9234  -2.0451  -1.0494 H              1 S1                 0.0000
     38 ****         3.8553  -0.2504  -2.4065 H              1 S1                 0.0000
     39 ****         5.2149  -1.0276  -3.1667 H              1 S1                 0.0000
     40 ****         4.3019  -3.2369  -2.7712 H              1 S1                 0.0000
     41 ****         3.1013  -2.2902  -3.6090 H              1 S1                 0.0000
     42 ****         1.1783  -3.9769  -1.0789 LP             1 S1                 0.0000
     43 ****         1.3859  -3.7211  -2.6783 LP             1 S1                 0.0000
     44 ****        -3.3435  -3.2518   1.3596 LP             1 S1                 0.0000
     45 ****        -4.0923  -4.2497  -0.7338 LP             1 S1                 0.0000
     46 ****        -3.6490  -4.6625  -2.9637 LP             1 S1                 0.0000
     47 ****        -2.1705  -4.1186  -3.6836 LP             1 S1                 0.0000
@<TRIPOS>BOND
    1    1    2 1     
    2    1   21 1     
    3    1   22 1     
    4    1   23 1     
    5    2    3 1     
    6    2   24 1     
    7    2   25 1     
    8    3    4 1     
    9    3   26 1     
   10    3   27 1     
   11    4    5 1     
   12    5   20 1     
   13    5    6 1     
   14    5   16 1     
   15    6    7 1     
   16    6   28 1     
   17    6   29 1     
   18    7    8 1     
   19    7   30 1     
   20    8   14 2     
   21    8    9 1     
   22    9   10 2     
   23    9   31 1     
   24   10   11 1     
   25   11   12 1     
   26   12   13 2     
   27   12   14 1     
   28   14   15 1     
   29   16   17 1     
   30   16   32 1     
   31   16   33 1     
   32   17   18 1     
   33   17   34 1     
   34   17   35 1     
   35   18   19 1     
   36   18   36 1     
   37   18   37 1     
   38   19   20 1     
   39   19   38 1     
   40   19   39 1     
   41   20   40 1     
   42   20   41 1     
   43    4   42 1     
   44    4   43 1     
   45   10   44 1     
   46   11   45 1     
   47   13   46 1     
   48   13   47 1     
@<TRIPOS>SUBSTRUCTURE
      1 S1             1
@<TRIPOS>SET
LONE_PAIRS      STATIC     ATOMS    <user>   **** ""
6 42 43 44 45 46 47
DONOR_HYDROGENS      STATIC     ATOMS    <user>   **** ""
1 30
ATOM$BLUE        STATIC     ATOMS    COLORGROUP SYSTEM
6 42 43 44 45 46 47
ATOM$RED        STATIC     ATOMS    COLORGROUP SYSTEM
1 30
