#       Name:                AV-unprocessed.smi:81
#       Creating user name   scv26
#       Creation time:       Thu Mar 26 17:15:28 2020


#       File generated by GOLD software.
#

@<TRIPOS>MOLECULE
AV-unprocessed.smi:81
    72    75     1
SMALL
NO_CHARGES


@<TRIPOS>ATOM
      1 ****        -2.8360  -2.3382  -1.2349 C.3            1 S1                 0.0000
      2 ****        -2.5512  -2.5283   0.2641 C.3            1 S1                 0.0000
      3 ****        -3.3050  -3.7518   0.8036 C.3            1 S1                 0.0000
      4 ****        -2.9140  -1.2687   1.0838 C.3            1 S1                 0.0000
      5 ****        -2.1316  -0.0796   0.7325 N.3            1 S1                 0.0000
      6 ****        -0.7919  -0.2159   0.8933 C.ar           1 S1                 0.0000
      7 ****        -0.2876  -0.6149   2.0909 N.ar           1 S1                 0.0000
      8 ****         1.0311  -0.7684   2.2432 C.ar           1 S1                 0.0000
      9 ****         2.0015  -0.5871   1.3449 N.ar           1 S1                 0.0000
     10 ****         1.4958  -0.1986   0.1391 C.ar           1 S1                 0.0000
     11 ****         0.1236   0.0146  -0.1677 C.ar           1 S1                 0.0000
     12 ****        -0.0142   0.4091  -1.4921 N.2            1 S1                 0.0000
     13 ****         1.2093   0.4221  -1.9462 C.2            1 S1                 0.0000
     14 ****         2.1778   0.0580  -1.0373 N.pl3          1 S1                 0.0000
     15 ****         3.6098  -0.0333  -1.2783 C.3            1 S1                 0.0000
     16 ****         4.0591  -1.4332  -1.7745 C.3            1 S1                 0.0000
     17 ****         3.7375  -2.3785  -0.7677 O.3            1 S1                 0.0000
     18 ****         3.3706  -1.8753  -3.0625 C.3            1 S1                 0.0000
     19 ****         4.3882  -2.8184  -3.6853 C.3            1 S1                 0.0000
     20 ****         5.6164  -2.1657  -3.4161 O.3            1 S1                 0.0000
     21 ****         5.5685  -1.5984  -2.1087 C.3            1 S1                 0.0000
     22 ****         6.4150  -0.3163  -2.1330 C.3            1 S1                 0.0000
     23 ****        -2.7035   1.2179   1.1207 C.3            1 S1                 0.0000
     24 ****        -2.0245   2.4268   0.4430 C.3            1 S1                 0.0000
     25 ****        -2.7287   3.7382   0.8273 C.3            1 S1                 0.0000
     26 ****        -2.7575   3.9151   2.3005 N.4            1 S1                 1.0000
     27 ****        -3.3192   5.2238   2.6983 C.3            1 S1                 0.0000
     28 ****        -3.4283   2.7816   2.9848 C.3            1 S1                 0.0000
     29 ****        -2.7438   1.4469   2.6473 C.3            1 S1                 0.0000
     30 ****        -3.8905  -2.1266  -1.4141 H              1 S1                 0.0000
     31 ****        -2.5758  -3.2336  -1.8001 H              1 S1                 0.0000
     32 ****        -2.2568  -1.5137  -1.6502 H              1 S1                 0.0000
     33 ****        -1.4874  -2.7386   0.3803 H              1 S1                 0.0000
     34 ****        -4.3845  -3.6218   0.7200 H              1 S1                 0.0000
     35 ****        -3.0708  -3.9249   1.8543 H              1 S1                 0.0000
     36 ****        -3.0345  -4.6544   0.2550 H              1 S1                 0.0000
     37 ****        -3.9729  -1.0474   0.9456 H              1 S1                 0.0000
     38 ****        -2.7883  -1.4770   2.1472 H              1 S1                 0.0000
     39 ****         1.3554  -1.0863   3.2232 H              1 S1                 0.0000
     40 ****         1.4397   0.6899  -2.9670 H              1 S1                 0.0000
     41 ****         3.8678   0.7331  -2.0094 H              1 S1                 0.0000
     42 ****         4.1298   0.2298  -0.3562 H              1 S1                 0.0000
     43 ****         4.0047  -3.2353  -1.0634 H              1 S1                 0.0000
     44 ****         2.3945  -2.3371  -2.9064 H              1 S1                 0.0000
     45 ****         3.2317  -1.0209  -3.7261 H              1 S1                 0.0000
     46 ****         4.3722  -3.7942  -3.1974 H              1 S1                 0.0000
     47 ****         4.2336  -2.9618  -4.7547 H              1 S1                 0.0000
     48 ****         6.0362  -2.3054  -1.4208 H              1 S1                 0.0000
     49 ****         6.4326   0.1686  -1.1570 H              1 S1                 0.0000
     50 ****         6.0379   0.3990  -2.8641 H              1 S1                 0.0000
     51 ****         7.4468  -0.5436  -2.4018 H              1 S1                 0.0000
     52 ****        -3.7355   1.2007   0.7677 H              1 S1                 0.0000
     53 ****        -0.9750   2.4931   0.7325 H              1 S1                 0.0000
     54 ****        -2.0446   2.3076  -0.6408 H              1 S1                 0.0000
     55 ****        -2.2071   4.5787   0.3681 H              1 S1                 0.0000
     56 ****        -3.7479   3.7457   0.4375 H              1 S1                 0.0000
     57 ****        -4.3640   5.3095   2.3968 H              1 S1                 0.0000
     58 ****        -2.7619   6.0392   2.2362 H              1 S1                 0.0000
     59 ****        -3.2631   5.3546   3.7794 H              1 S1                 0.0000
     60 ****        -3.4023   2.9399   4.0636 H              1 S1                 0.0000
     61 ****        -4.4797   2.7483   2.6944 H              1 S1                 0.0000
     62 ****        -3.2759   0.6348   3.1432 H              1 S1                 0.0000
     63 ****        -1.7342   1.4540   3.0588 H              1 S1                 0.0000
     64 ****        -1.7958   3.9101   2.6099 H              1 S1                 0.0000
     65 ****        -2.2357  -0.0333  -0.2609 LP             1 S1                 0.0000
     66 ****        -0.9036  -0.7936   2.8582 LP             1 S1                 0.0000
     67 ****         2.9749  -0.7192   1.5320 LP             1 S1                 0.0000
     68 ****        -0.8560   0.6317  -1.9839 LP             1 S1                 0.0000
     69 ****         2.7514  -2.3716  -0.6014 LP             1 S1                 0.0000
     70 ****         4.2197  -2.1480   0.0776 LP             1 S1                 0.0000
     71 ****         5.7652  -1.4417  -4.0897 LP             1 S1                 0.0000
     72 ****         6.3648  -2.8270  -3.4666 LP             1 S1                 0.0000
@<TRIPOS>BOND
    1    1    2 1     
    2    1   30 1     
    3    1   31 1     
    4    1   32 1     
    5    2    3 1     
    6    2    4 1     
    7    2   33 1     
    8    3   34 1     
    9    3   35 1     
   10    3   36 1     
   11    4    5 1     
   12    4   37 1     
   13    4   38 1     
   14    5    6 1     
   15    5   23 1     
   16    6   11 ar    
   17    6    7 ar    
   18    7    8 ar    
   19    8    9 ar    
   20    8   39 1     
   21    9   10 ar    
   22   10   14 1     
   23   10   11 ar    
   24   11   12 1     
   25   12   13 2     
   26   13   14 1     
   27   13   40 1     
   28   14   15 1     
   29   15   16 1     
   30   15   41 1     
   31   15   42 1     
   32   16   21 1     
   33   16   17 1     
   34   16   18 1     
   35   17   43 1     
   36   18   19 1     
   37   18   44 1     
   38   18   45 1     
   39   19   20 1     
   40   19   46 1     
   41   19   47 1     
   42   20   21 1     
   43   21   22 1     
   44   21   48 1     
   45   22   49 1     
   46   22   50 1     
   47   22   51 1     
   48   23   29 1     
   49   23   24 1     
   50   23   52 1     
   51   24   25 1     
   52   24   53 1     
   53   24   54 1     
   54   25   26 1     
   55   25   55 1     
   56   25   56 1     
   57   26   27 1     
   58   26   28 1     
   59   26   64 1     
   60   27   57 1     
   61   27   58 1     
   62   27   59 1     
   63   28   29 1     
   64   28   60 1     
   65   28   61 1     
   66   29   62 1     
   67   29   63 1     
   68    5   65 1     
   69    7   66 1     
   70    9   67 1     
   71   12   68 1     
   72   17   69 1     
   73   17   70 1     
   74   20   71 1     
   75   20   72 1     
@<TRIPOS>SUBSTRUCTURE
      1 S1             1
@<TRIPOS>SET
LONE_PAIRS      STATIC     ATOMS    <user>   **** ""
8 65 66 67 68 69 70 71 72
DONOR_HYDROGENS      STATIC     ATOMS    <user>   **** ""
2 43 64
ATOM$BLUE        STATIC     ATOMS    COLORGROUP SYSTEM
8 65 66 67 68 69 70 71 72
ATOM$RED        STATIC     ATOMS    COLORGROUP SYSTEM
2 43 64
