AV-unprocessed.smi:1047|AV-procd|sdf|4594|dock1
  -GOLD-   22720 3 73D 1   1.00000     0.00000
 Structure written by MMmdl.
 55 57  0  0  0  0  0  0  0  0  1 V2000
  142.0452  146.6906  155.1389 C   0  0  0  0  0  0  0  0  0  0  0  0
  143.0361  145.6836  155.7405 C   0  0  0  0  0  0  0  0  0  0  0  0
  143.6868  144.8054  154.7701 N   0  0  0  0  0  0  0  0  0  0  0  0
  144.2752  145.5412  153.6531 C   0  0  0  0  0  0  0  0  0  0  0  0
  144.9885  144.6059  152.6615 C   0  0  0  0  0  0  0  0  0  0  0  0
  145.9699  143.8421  153.3539 O   0  0  0  0  0  0  0  0  0  0  0  0
  145.4153  143.0546  154.4051 C   0  0  1  0  0  0  0  0  0  0  0  0
  146.5453  142.2465  155.0573 C   0  0  0  0  0  0  0  0  0  0  0  0
  146.9311  141.1412  154.1921 N   0  0  0  0  0  0  0  0  0  0  0  0
  147.8805  140.2010  154.7773 C   0  0  0  0  0  0  0  0  0  0  0  0
  149.3384  140.6294  154.5036 C   0  0  1  0  0  0  0  0  0  0  0  0
  149.3838  141.2122  153.2184 O   0  0  0  0  0  0  0  0  0  0  0  0
  149.9231  141.6668  155.4938 C   0  0  0  0  0  0  0  0  0  0  0  0
  150.6784  141.0733  156.5844 N   0  0  0  0  0  0  0  0  0  0  0  0
  151.0655  139.7876  156.6959 C   0  0  0  0  0  0  0  0  0  0  0  0
  151.7836  139.4570  157.7652 N   0  0  0  0  0  0  0  0  0  0  0  0
  151.8684  140.6688  158.4287 C   0  0  0  0  0  0  0  0  0  0  0  0
  152.5180  141.0079  159.6356 C   0  0  0  0  0  0  0  0  0  0  0  0
  152.4794  142.3302  160.1324 C   0  0  0  0  0  0  0  0  0  0  0  0
  153.1972  142.6524  161.4312 C   0  0  0  0  0  0  0  0  0  0  0  0
  151.7765  143.3360  159.4217 C   0  0  0  0  0  0  0  0  0  0  0  0
  151.7198  144.7631  159.9371 C   0  0  0  0  0  0  0  0  0  0  0  0
  151.1213  143.0137  158.2147 C   0  0  0  0  0  0  0  0  0  0  0  0
  151.1743  141.6966  157.7255 C   0  0  0  0  0  0  0  0  0  0  0  0
  144.7236  143.9994  155.4064 C   0  0  0  0  0  0  0  0  0  0  0  0
  141.5246  147.2324  155.9287 H   0  0  0  0  0  0  0  0  0  0  0  0
  141.2925  146.1869  154.5315 H   0  0  0  0  0  0  0  0  0  0  0  0
  142.5444  147.4311  154.5142 H   0  0  0  0  0  0  0  0  0  0  0  0
  143.7892  146.2164  156.3231 H   0  0  0  0  0  0  0  0  0  0  0  0
  142.4839  145.0704  156.4542 H   0  0  0  0  0  0  0  0  0  0  0  0
  143.5058  146.0960  153.1170 H   0  0  0  0  0  0  0  0  0  0  0  0
  144.9880  146.2768  154.0296 H   0  0  0  0  0  0  0  0  0  0  0  0
  144.2749  143.9393  152.1743 H   0  0  0  0  0  0  0  0  0  0  0  0
  145.4746  145.1841  151.8758 H   0  0  0  0  0  0  0  0  0  0  0  0
  144.6733  142.3670  153.9925 H   0  0  0  0  0  0  0  0  0  0  0  0
  147.4012  142.8890  155.2673 H   0  0  0  0  0  0  0  0  0  0  0  0
  146.2007  141.8540  156.0148 H   0  0  0  0  0  0  0  0  0  0  0  0
  147.2934  141.5023  153.3148 H   0  0  0  0  0  0  0  0  0  0  0  0
  147.7133  140.1576  155.8546 H   0  0  0  0  0  0  0  0  0  0  0  0
  147.7083  139.1942  154.3948 H   0  0  0  0  0  0  0  0  0  0  0  0
  149.9755  139.7449  154.4760 H   0  0  0  0  0  0  0  0  0  0  0  0
  149.3260  140.5228  152.5746 H   0  0  0  0  0  0  0  0  0  0  0  0
  150.5775  142.3627  154.9672 H   0  0  0  0  0  0  0  0  0  0  0  0
  149.1184  142.2640  155.9257 H   0  0  0  0  0  0  0  0  0  0  0  0
  150.8205  139.0552  155.9406 H   0  0  0  0  0  0  0  0  0  0  0  0
  153.0522  140.2412  160.1770 H   0  0  0  0  0  0  0  0  0  0  0  0
  152.4836  142.9750  162.1897 H   0  0  0  0  0  0  0  0  0  0  0  0
  153.9261  143.4491  161.2791 H   0  0  0  0  0  0  0  0  0  0  0  0
  153.7298  141.7833  161.8189 H   0  0  0  0  0  0  0  0  0  0  0  0
  151.1196  145.3980  159.2845 H   0  0  0  0  0  0  0  0  0  0  0  0
  152.7215  145.1902  159.9904 H   0  0  0  0  0  0  0  0  0  0  0  0
  151.2762  144.7926  160.9325 H   0  0  0  0  0  0  0  0  0  0  0  0
  150.5879  143.7717  157.6608 H   0  0  0  0  0  0  0  0  0  0  0  0
  145.4690  144.6509  155.8660 H   0  0  0  0  0  0  0  0  0  0  0  0
  144.2861  143.4094  156.2127 H   0  0  0  0  0  0  0  0  0  0  0  0
  1  2  1  0  0  0  0
  1 26  1  0  0  0  0
  1 27  1  0  0  0  0
  1 28  1  0  0  0  0
  2  3  1  0  0  0  0
  2 29  1  0  0  0  0
  2 30  1  0  0  0  0
  3 25  1  0  0  0  0
  3  4  1  0  0  0  0
  4  5  1  0  0  0  0
  4 31  1  0  0  0  0
  4 32  1  0  0  0  0
  5  6  1  0  0  0  0
  5 33  1  0  0  0  0
  5 34  1  0  0  0  0
  6  7  1  0  0  0  0
  7  8  1  0  0  0  0
  7 25  1  0  0  0  0
  7 35  1  0  0  0  0
  8  9  1  0  0  0  0
  8 36  1  0  0  0  0
  8 37  1  0  0  0  0
  9 10  1  0  0  0  0
  9 38  1  0  0  0  0
 10 11  1  0  0  0  0
 10 39  1  0  0  0  0
 10 40  1  0  0  0  0
 11 12  1  0  0  0  0
 11 13  1  0  0  0  0
 11 41  1  0  0  0  0
 12 42  1  0  0  0  0
 13 14  1  0  0  0  0
 13 43  1  0  0  0  0
 13 44  1  0  0  0  0
 14 24  1  0  0  0  0
 14 15  1  0  0  0  0
 15 16  2  0  0  0  0
 15 45  1  0  0  0  0
 16 17  1  0  0  0  0
 17 24  2  0  0  0  0
 17 18  1  0  0  0  0
 18 19  2  0  0  0  0
 18 46  1  0  0  0  0
 19 20  1  0  0  0  0
 19 21  1  0  0  0  0
 20 47  1  0  0  0  0
 20 48  1  0  0  0  0
 20 49  1  0  0  0  0
 21 22  1  0  0  0  0
 21 23  2  0  0  0  0
 22 50  1  0  0  0  0
 22 51  1  0  0  0  0
 22 52  1  0  0  0  0
 23 24  1  0  0  0  0
 23 53  1  0  0  0  0
 25 54  1  0  0  0  0
 25 55  1  0  0  0  0
M  END
> <s_m_source_file>
AV-unprocessed.smi

> <i_m_source_file_index>
1047

> <i_lp_mmshare_version>
43012

> <i_f3d_flags>
0

> <s_epik_input>
W0NIM11bQ0gyXU4xW0NIMl1bQ0gyXU9bQ0BIXShbQ0gyXTEpW0NIMl1bTkhdW0NIMl1bQ0BIXShbT0hdKVtDSDJdbihbY0hdbjIpYyhjMjMpW2NIXWMoW0NIM10pYyhbY0hdMylbQ0gzXQ==

> <s_epik_cmdline>
J2VwaWtfcHl0aG9uJywgJy1waCcsICc3LjAnLCAnLXRuJywgJzgnLCAnLW1hJywgJzIwMCcsICctbWV0YWxfYmluZGluZycsICctaW1hZScsICc8aW5maWxlLm1hZT4nLCAnLW9tYWUnLCAnPG91dGZpbGUubWFlPic=

> <r_epik_Ionization_Penalty>
2.74124

> <r_epik_Ionization_Penalty_Charging>
0

> <r_epik_Ionization_Penalty_Neutral>
2.74124

> <r_epik_State_Penalty>
2.37482

> <r_epik_Charging_Adjusted_Penalty>
2.37482

> <i_epik_Tot_Q>
0

> <i_epik_Tot_abs_Q>
0

> <r_epik_Metal_State_Penalty>
2.25944

> <b_epik_Metal_Only>
0

> <s_lp_Force_Field>
OPLS_2005

> <r_lp_Energy>
29.9902

> <b_lp_Chiralities_Consistent>
1

> <s_lp_Variant>
AV-unprocessed.smi:1047-35

> <Gold.Version>
5.8.1

> <Gold.Id.Protein>
6NUR|6NUR_protein|mol2

> <Gold.PLP.Fitness>
57.4013

> <Gold.PLP.PLP>
-53.6235

> <Gold.PLP.part.hbond>
-3.4032

> <Gold.PLP.part.metal>
0.0000

> <Gold.PLP.part.buried>
-4.6839

> <Gold.PLP.part.nonpolar>
-46.0653

> <Gold.PLP.part.repulsive>
0.2960

> <Gold.PLP.ligand.clash>
0.0000

> <Gold.PLP.ligand.torsion>
1.1621

> <Gold.PLP.Chemscore.Hbond>
1.9400

> <Gold.PLP.Chemscore.CHOScore>
0.0000

> <Gold.PLP.Chemscore.Metal>
0.0000

> <Gold.Chemscore.Hbonds>
donor molecule, donor type, donor heavy atom, donor atom, acceptor molecule, acceptor atom, score
      L1  H    12    42       P1  7957  0.94
      P1  H  8011  8017       L1    12  1.00

> <Gold.PLP.Chemscore.Internal.Correction>
0.2820

> <Gold.Rescore>
     Score         DG    S(hbond)    S(metal)    S(lipo)     H(rot)  DE(clash)    DE(int)     intcor
     18.43     -19.65       1.31        0.00     139.02       2.52       0.08       1.14       ----

> <Gold.Chemscore.Fitness>
18.4258

> <Gold.Chemscore.DG>
-19.6452

> <Gold.Chemscore.ZeroCoef>
-5.4800

> <Gold.Chemscore.Hbond>
1.3057

> <Gold.Chemscore.Metal>
0.0000

> <Gold.Chemscore.Lipo>
139.0160

> <Gold.Chemscore.Internal_Hbond>
0.0000

> <Gold.Chemscore.DEClash>
0.0762

> <Gold.Chemscore.DEInternal>
1.1432

> <Gold.Chemscore.Rot>
2.5237

> <Gold.Chemscore.Internal.Correction>
   9.000000E+99

> <Gold.Chemscore.Hbonds>
donor molecule, donor type, donor heavy atom, donor atom, acceptor molecule, acceptor atom, score
      L1  H    12    42       P1  7957  0.84
      P1  H  8011  8017       L1    12  0.28

> <Gold.Chemscore.Hbond.Weighted>
-4.3610

> <Gold.Chemscore.Metal.Weighted>
-0.0000

> <Gold.Chemscore.Lipo.Weighted>
-16.2649

> <Gold.Chemscore.Internal_Hbond.Weighted>
0.0000

> <Gold.Chemscore.DEClash.Weighted>
0.0762

> <Gold.Chemscore.DEInternal.Weighted>
1.1432

> <Gold.Chemscore.Rot.Weighted>
6.4607

> <Gold.Chemscore.Internal.Correction.Weighted>
   9.000000E+99

> <Gold.Protein.RotatedTorsions>
[ 6907 6896 6895 6894 ] final -178.30 input  -60.11 | X-H torsion
[ 7974 7965 7964 7962 ] final  140.13 input  175.53 | X-H torsion
[ 8008 7997 7996 7995 ] final  129.01 input   59.86 | X-H torsion
[ 10167 10162 10161 10158 ] final   95.85 input  -65.29 | X-H torsion
[ 10718 10713 10712 10709 ] final  -13.13 input   66.30 | X-H torsion
[ 10763 10752 10751 10750 ] final   18.26 input  -60.55 | X-H torsion
[ 11005 11000 10999 10996 ] final   14.24 input  -57.11 | X-H torsion

> <Gold.Protein.ActiveResidues>
 VAL166  LYS551  ARG553  GLY616  TRP617  ASP618  TYR619  PRO620  LYS621  CYS622 
 ASP623  PHE694  ASN695  SER759  ASP760  ASP761  ALA762  ILE779  LEU786  VAL792 
 PHE793  MET794  SER795  GLU796  ALA797  LYS798  CYS799  TRP800  GLU811  SER814 

> <Gold.Protein.RotatedAtoms>
  151.6349  133.3329  159.3116 H   0  0  0  0  0  0  0  0  0  0  0  0  # atno 6907 bound_to 6896
  150.8037  134.7152  159.6636 H   0  0  0  0  0  0  0  0  0  0  0  0  # atno 6908 bound_to 6896
  152.4131  134.6093  160.0073 H   0  0  0  0  0  0  0  0  0  0  0  0  # atno 6909 bound_to 6896
  144.9215  139.5161  143.5661 H   0  0  0  0  0  0  0  0  0  0  0  0  # atno 7974 bound_to 7965
  156.2927  140.2631  156.2528 H   0  0  0  0  0  0  0  0  0  0  0  0  # atno 8008 bound_to 7997
  154.9865  140.0389  157.2319 H   0  0  0  0  0  0  0  0  0  0  0  0  # atno 8009 bound_to 7997
  154.7724  140.2780  155.6132 H   0  0  0  0  0  0  0  0  0  0  0  0  # atno 8010 bound_to 7997
  139.7949  144.6837  150.9842 H   0  0  0  0  0  0  0  0  0  0  0  0  # atno 10167 bound_to 10162
  156.6346  130.4911  149.6117 H   0  0  0  0  0  0  0  0  0  0  0  0  # atno 10718 bound_to 10713
  153.1265  135.6731  153.9249 H   0  0  0  0  0  0  0  0  0  0  0  0  # atno 10763 bound_to 10752
  153.8749  135.3065  155.3444 H   0  0  0  0  0  0  0  0  0  0  0  0  # atno 10764 bound_to 10752
  154.7669  135.4959  153.9652 H   0  0  0  0  0  0  0  0  0  0  0  0  # atno 10765 bound_to 10752
  140.4718  134.1024  155.7734 H   0  0  0  0  0  0  0  0  0  0  0  0  # atno 11005 bound_to 11000
  146.3207  139.8098  142.8948 LP  0  0  0  0  0  0  0  0  0  0  0  0  # atno 17320 bound_to 7965
  145.3288  141.0261  143.3458 LP  0  0  0  0  0  0  0  0  0  0  0  0  # atno 17321 bound_to 7965
  140.7820  143.4341  151.0649 LP  0  0  0  0  0  0  0  0  0  0  0  0  # atno 17342 bound_to 10162
  139.8016  143.8075  152.3163 LP  0  0  0  0  0  0  0  0  0  0  0  0  # atno 17343 bound_to 10162
  156.2207  130.6735  151.1365 LP  0  0  0  0  0  0  0  0  0  0  0  0  # atno 17370 bound_to 10713
  157.7189  131.0693  150.6214 LP  0  0  0  0  0  0  0  0  0  0  0  0  # atno 17371 bound_to 10713
  141.1573  133.8858  157.1942 LP  0  0  0  0  0  0  0  0  0  0  0  0  # atno 17394 bound_to 11000
  139.9880  135.0075  156.9909 LP  0  0  0  0  0  0  0  0  0  0  0  0  # atno 17395 bound_to 11000

$$$$
