AV-unprocessed.smi:3338|AV-procd|sdf|12870|dock8
  -GOLD-   2272019273D 1   1.00000     0.00000
 Structure written by MMmdl.
 44 45  0  0  0  0  0  0  0  0  2 V2000
  147.3606  140.1260  153.5865 C   0  0  0  0  0  0  0  0  0  0  0  0
  147.7893  141.5395  154.0172 C   0  0  1  0  0  0  0  0  0  0  0  0
  146.7690  142.2157  154.9519 C   0  0  0  0  0  0  0  0  0  0  0  0
  146.8209  141.6137  156.3632 C   0  0  0  0  0  0  0  0  0  0  0  0
  148.2524  141.6386  156.9216 C   0  0  0  0  0  0  0  0  0  0  0  0
  149.1947  140.9415  156.0089 N   0  3  2  0  0  0  0  0  0  0  0  0
  150.5539  140.8133  156.5911 C   0  0  0  0  0  0  0  0  0  0  0  0
  150.5270  140.1934  157.9975 C   0  0  0  0  0  0  0  0  0  0  0  0
  151.7568  140.5067  158.7111 N   0  0  0  0  0  0  0  0  0  0  0  0
  152.1286  141.7367  159.0968 C   0  0  0  0  0  0  0  0  0  0  0  0
  151.4393  142.7380  158.8979 O   0  0  0  0  0  0  0  0  0  0  0  0
  153.4848  141.8379  159.8142 C   0  0  2  0  0  0  0  0  0  0  0  0
  154.2134  140.4850  159.9270 C   0  0  0  0  0  0  0  0  0  0  0  0
  153.3168  142.4579  161.1231 N   0  0  0  0  0  0  0  0  0  0  0  0
  152.5409  143.5457  161.4746 C   0  0  0  0  0  0  0  0  0  0  0  0
  152.7352  143.7738  162.8065 C   0  0  0  0  0  0  0  0  0  0  0  0
  153.6639  142.7669  163.1896 C   0  0  0  0  0  0  0  0  0  0  0  0
  154.0149  141.9866  162.1805 N   0  0  0  0  0  0  0  0  0  0  0  0
  149.1953  141.5523  154.6516 C   0  0  0  0  0  0  0  0  0  0  0  0
  147.3152  139.4383  154.4308 H   0  0  0  0  0  0  0  0  0  0  0  0
  148.0609  139.7101  152.8620 H   0  0  0  0  0  0  0  0  0  0  0  0
  146.3763  140.1408  153.1173 H   0  0  0  0  0  0  0  0  0  0  0  0
  147.8369  142.1358  153.1050 H   0  0  0  0  0  0  0  0  0  0  0  0
  146.9908  143.2820  155.0127 H   0  0  0  0  0  0  0  0  0  0  0  0
  145.7615  142.1368  154.5420 H   0  0  0  0  0  0  0  0  0  0  0  0
  146.1546  142.1663  157.0263 H   0  0  0  0  0  0  0  0  0  0  0  0
  146.4505  140.5883  156.3453 H   0  0  0  0  0  0  0  0  0  0  0  0
  148.5823  142.6677  157.0731 H   0  0  0  0  0  0  0  0  0  0  0  0
  148.2584  141.1559  157.8997 H   0  0  0  0  0  0  0  0  0  0  0  0
  151.1926  140.2363  155.9203 H   0  0  0  0  0  0  0  0  0  0  0  0
  151.0071  141.8027  156.6710 H   0  0  0  0  0  0  0  0  0  0  0  0
  149.6652  140.5748  158.5480 H   0  0  0  0  0  0  0  0  0  0  0  0
  150.4265  139.1092  157.9527 H   0  0  0  0  0  0  0  0  0  0  0  0
  152.3812  139.7392  158.9160 H   0  0  0  0  0  0  0  0  0  0  0  0
  154.1146  142.4930  159.2090 H   0  0  0  0  0  0  0  0  0  0  0  0
  154.3821  140.0442  158.9437 H   0  0  0  0  0  0  0  0  0  0  0  0
  153.6484  139.7657  160.5210 H   0  0  0  0  0  0  0  0  0  0  0  0
  155.1885  140.6083  160.3990 H   0  0  0  0  0  0  0  0  0  0  0  0
  151.9230  144.0624  160.7551 H   0  0  0  0  0  0  0  0  0  0  0  0
  152.2844  144.5442  163.4143 H   0  0  0  0  0  0  0  0  0  0  0  0
  154.0939  142.5834  164.1632 H   0  0  0  0  0  0  0  0  0  0  0  0
  149.8906  141.0300  153.9951 H   0  0  0  0  0  0  0  0  0  0  0  0
  149.5553  142.5796  154.7256 H   0  0  0  0  0  0  0  0  0  0  0  0
  148.8397  140.0013  155.9081 H   0  0  0  0  0  0  0  0  0  0  0  0
  1  2  1  0  0  0  0
  1 20  1  0  0  0  0
  1 21  1  0  0  0  0
  1 22  1  0  0  0  0
  2 19  1  0  0  0  0
  2  3  1  0  0  0  0
  2 23  1  0  0  0  0
  3  4  1  0  0  0  0
  3 24  1  0  0  0  0
  3 25  1  0  0  0  0
  4  5  1  0  0  0  0
  4 26  1  0  0  0  0
  4 27  1  0  0  0  0
  5  6  1  0  0  0  0
  5 28  1  0  0  0  0
  5 29  1  0  0  0  0
  6  7  1  0  0  0  0
  6 19  1  0  0  0  0
  6 44  1  0  0  0  0
  7  8  1  0  0  0  0
  7 30  1  0  0  0  0
  7 31  1  0  0  0  0
  8  9  1  0  0  0  0
  8 32  1  0  0  0  0
  8 33  1  0  0  0  0
  9 10  1  0  0  0  0
  9 34  1  0  0  0  0
 10 11  2  0  0  0  0
 10 12  1  0  0  0  0
 12 13  1  0  0  0  0
 12 14  1  0  0  0  0
 12 35  1  0  0  0  0
 13 36  1  0  0  0  0
 13 37  1  0  0  0  0
 13 38  1  0  0  0  0
 14 18  1  0  0  0  0
 14 15  1  0  0  0  0
 15 16  2  0  0  0  0
 15 39  1  0  0  0  0
 16 17  1  0  0  0  0
 16 40  1  0  0  0  0
 17 18  2  0  0  0  0
 17 41  1  0  0  0  0
 19 42  1  0  0  0  0
 19 43  1  0  0  0  0
M  CHG  1   6   1
M  END
> <s_m_source_file>
AV-unprocessed.smi

> <i_m_source_file_index>
3338

> <i_lp_mmshare_version>
43012

> <i_f3d_flags>
0

> <s_epik_input>
W0NIM11bQ0BASF0xW0NIMl1bQ0gyXVtDSDJdTihbQ0gyXTEpW0NIMl1bQ0gyXVtOSF1DKD1PKVtDQEhdKFtDSDNdKW4yW2NIXVtjSF1bY0hdbjI=

> <s_epik_cmdline>
J2VwaWtfcHl0aG9uJywgJy1waCcsICc3LjAnLCAnLXRuJywgJzgnLCAnLW1hJywgJzIwMCcsICctbWV0YWxfYmluZGluZycsICctaW1hZScsICc8aW5maWxlLm1hZT4nLCAnLW9tYWUnLCAnPG91dGZpbGUubWFlPic=

> <r_lp_tautomer_probability>
1

> <r_epik_Ionization_Penalty>
0.00225707

> <r_epik_Ionization_Penalty_Charging>
0.00223709

> <r_epik_Ionization_Penalty_Neutral>
1.99775e-05

> <r_epik_State_Penalty>
0.00153978

> <r_epik_Charging_Adjusted_Penalty>
0.00377687

> <i_epik_Tot_Q>
1

> <i_epik_Tot_abs_Q>
1

> <r_epik_Metal_State_Penalty>
-0

> <b_epik_Metal_Only>
0

> <s_lp_Force_Field>
OPLS_2005

> <r_lp_Energy>
22.9717

> <b_lp_Chiralities_Consistent>
1

> <s_lp_Variant>
AV-unprocessed.smi:3338-2

> <Gold.Version>
5.8.1

> <Gold.Id.Protein>
6NUR|6NUR_protein|mol2

> <Gold.PLP.Fitness>
40.1889

> <Gold.PLP.PLP>
-41.4742

> <Gold.PLP.part.hbond>
-1.0000

> <Gold.PLP.part.metal>
0.0000

> <Gold.PLP.part.buried>
-1.9484

> <Gold.PLP.part.nonpolar>
-37.7893

> <Gold.PLP.part.repulsive>
0.2195

> <Gold.PLP.ligand.clash>
0.3225

> <Gold.PLP.ligand.torsion>
0.5487

> <Gold.PLP.Chemscore.Hbond>
0.0000

> <Gold.PLP.Chemscore.CHOScore>
0.0000

> <Gold.PLP.Chemscore.Metal>
0.0000

> <Gold.PLP.Chemscore.Internal.Correction>
0.1346

> <Gold.Rescore>
     Score         DG    S(hbond)    S(metal)    S(lipo)     H(rot)  DE(clash)    DE(int)     intcor
     10.64     -12.65       0.00        0.00      99.75       1.76       0.51       1.50       ----

> <Gold.Chemscore.Fitness>
10.6379

> <Gold.Chemscore.DG>
-12.6530

> <Gold.Chemscore.ZeroCoef>
-5.4800

> <Gold.Chemscore.Hbond>
0.0000

> <Gold.Chemscore.Metal>
0.0000

> <Gold.Chemscore.Lipo>
99.7507

> <Gold.Chemscore.Internal_Hbond>
0.0000

> <Gold.Chemscore.DEClash>
0.5112

> <Gold.Chemscore.DEInternal>
1.5038

> <Gold.Chemscore.Rot>
1.7570

> <Gold.Chemscore.Internal.Correction>
   9.000000E+99

> <Gold.Chemscore.Hbond.Weighted>
-0.0000

> <Gold.Chemscore.Metal.Weighted>
-0.0000

> <Gold.Chemscore.Lipo.Weighted>
-11.6708

> <Gold.Chemscore.Internal_Hbond.Weighted>
0.0000

> <Gold.Chemscore.DEClash.Weighted>
0.5112

> <Gold.Chemscore.DEInternal.Weighted>
1.5038

> <Gold.Chemscore.Rot.Weighted>
4.4979

> <Gold.Chemscore.Internal.Correction.Weighted>
   9.000000E+99

> <Gold.Protein.RotatedTorsions>
[ 6907 6896 6895 6894 ] final -158.70 input  -60.11 | X-H torsion
[ 7974 7965 7964 7962 ] final  -66.12 input  175.53 | X-H torsion
[ 8008 7997 7996 7995 ] final  124.25 input   59.86 | X-H torsion
[ 10167 10162 10161 10158 ] final  -27.99 input  -65.29 | X-H torsion
[ 10718 10713 10712 10709 ] final -126.84 input   66.30 | X-H torsion
[ 10763 10752 10751 10750 ] final  101.50 input  -60.55 | X-H torsion
[ 11005 11000 10999 10996 ] final   19.15 input  -57.11 | X-H torsion

> <Gold.Protein.ActiveResidues>
 VAL166  LYS551  ARG553  GLY616  TRP617  ASP618  TYR619  PRO620  LYS621  CYS622 
 ASP623  PHE694  ASN695  SER759  ASP760  ASP761  ALA762  ILE779  LEU786  VAL792 
 PHE793  MET794  SER795  GLU796  ALA797  LYS798  CYS799  TRP800  GLU811  SER814 

> <Gold.Protein.RotatedAtoms>
  151.3222  133.4035  159.2655 H   0  0  0  0  0  0  0  0  0  0  0  0  # atno 6907 bound_to 6896
  151.0025  134.9334  159.7972 H   0  0  0  0  0  0  0  0  0  0  0  0  # atno 6908 bound_to 6896
  152.5279  134.3187  159.9192 H   0  0  0  0  0  0  0  0  0  0  0  0  # atno 6909 bound_to 6896
  145.7457  140.8932  143.0506 H   0  0  0  0  0  0  0  0  0  0  0  0  # atno 7974 bound_to 7965
  156.2795  140.2744  156.1758 H   0  0  0  0  0  0  0  0  0  0  0  0  # atno 8008 bound_to 7997
  155.0607  140.0386  157.2593 H   0  0  0  0  0  0  0  0  0  0  0  0  # atno 8009 bound_to 7997
  154.7119  140.2670  155.6626 H   0  0  0  0  0  0  0  0  0  0  0  0  # atno 8010 bound_to 7997
  140.7273  143.4047  151.1205 H   0  0  0  0  0  0  0  0  0  0  0  0  # atno 10167 bound_to 10162
  156.1802  130.6727  151.0294 H   0  0  0  0  0  0  0  0  0  0  0  0  # atno 10718 bound_to 10713
  153.3275  135.4042  155.1468 H   0  0  0  0  0  0  0  0  0  0  0  0  # atno 10763 bound_to 10752
  154.8615  135.3602  154.5515 H   0  0  0  0  0  0  0  0  0  0  0  0  # atno 10764 bound_to 10752
  153.5951  135.7072  153.5466 H   0  0  0  0  0  0  0  0  0  0  0  0  # atno 10765 bound_to 10752
  140.4169  134.1560  155.7670 H   0  0  0  0  0  0  0  0  0  0  0  0  # atno 11005 bound_to 11000
  144.6860  139.9522  143.7478 LP  0  0  0  0  0  0  0  0  0  0  0  0  # atno 17320 bound_to 7965
  146.0405  139.3417  143.0700 LP  0  0  0  0  0  0  0  0  0  0  0  0  # atno 17321 bound_to 7965
  139.7672  143.8547  152.3113 LP  0  0  0  0  0  0  0  0  0  0  0  0  # atno 17342 bound_to 10162
  139.8453  144.7190  150.9280 LP  0  0  0  0  0  0  0  0  0  0  0  0  # atno 17343 bound_to 10162
  157.6863  131.0824  150.7234 LP  0  0  0  0  0  0  0  0  0  0  0  0  # atno 17370 bound_to 10713
  156.7291  130.4704  149.5504 LP  0  0  0  0  0  0  0  0  0  0  0  0  # atno 17371 bound_to 10713
  141.1799  133.8435  157.1293 LP  0  0  0  0  0  0  0  0  0  0  0  0  # atno 17394 bound_to 11000
  140.0228  134.9938  157.0625 LP  0  0  0  0  0  0  0  0  0  0  0  0  # atno 17395 bound_to 11000

$$$$
