AV-unprocessed.smi:3085|AV-procd|sdf|11750|dock6
  -GOLD-   2272017143D 1   1.00000     0.00000
 Structure written by MMmdl.
 28 29  0  0  0  0  0  0  0  0  2 V2000
  149.7395  132.5973  154.2784 C   0  0  0  0  0  0  0  0  0  0  0  0
  148.7449  133.6387  154.8030 C   0  0  0  0  0  0  0  0  0  0  0  0
  147.6325  133.9026  153.8422 C   0  0  0  0  0  0  0  0  0  0  0  0
  147.5635  133.4301  152.6021 N   0  0  0  0  0  0  0  0  0  0  0  0
  146.3819  133.9848  152.1944 C   0  0  0  0  0  0  0  0  0  0  0  0
  145.8520  133.7993  150.8059 C   0  0  2  0  0  0  0  0  0  0  0  0
  144.4614  134.4362  150.6233 C   0  0  0  0  0  0  0  0  0  0  0  0
  143.9509  134.1464  149.2694 N   0  3  0  0  0  0  0  0  0  0  0  0
  143.9438  132.6960  148.9934 C   0  0  0  0  0  0  0  0  0  0  0  0
  145.3433  132.1027  149.2368 C   0  0  0  0  0  0  0  0  0  0  0  0
  145.7685  132.3958  150.5641 O   0  0  0  0  0  0  0  0  0  0  0  0
  145.7692  134.7669  153.0841 N   0  0  0  0  0  0  0  0  0  0  0  0
  146.5969  134.6869  154.1472 N   0  0  0  0  0  0  0  0  0  0  0  0
  146.4272  135.1713  155.0175 H   0  0  0  0  0  0  0  0  0  0  0  0
  150.5384  132.4247  154.9996 H   0  0  0  0  0  0  0  0  0  0  0  0
  150.1979  132.9269  153.3454 H   0  0  0  0  0  0  0  0  0  0  0  0
  149.2475  131.6422  154.0915 H   0  0  0  0  0  0  0  0  0  0  0  0
  148.3176  133.3001  155.7475 H   0  0  0  0  0  0  0  0  0  0  0  0
  149.2639  134.5746  155.0145 H   0  0  0  0  0  0  0  0  0  0  0  0
  146.5614  134.2415  150.1036 H   0  0  0  0  0  0  0  0  0  0  0  0
  143.7605  134.0410  151.3602 H   0  0  0  0  0  0  0  0  0  0  0  0
  144.5088  135.5156  150.7692 H   0  0  0  0  0  0  0  0  0  0  0  0
  143.0137  134.5121  149.1772 H   0  0  0  0  0  0  0  0  0  0  0  0
  143.2113  132.2111  149.6404 H   0  0  0  0  0  0  0  0  0  0  0  0
  143.6274  132.5250  147.9643 H   0  0  0  0  0  0  0  0  0  0  0  0
  145.3219  131.0210  149.1023 H   0  0  0  0  0  0  0  0  0  0  0  0
  146.0630  132.4980  148.5180 H   0  0  0  0  0  0  0  0  0  0  0  0
  144.5499  134.6007  148.5946 H   0  0  0  0  0  0  0  0  0  0  0  0
  1  2  1  0  0  0  0
  1 15  1  0  0  0  0
  1 16  1  0  0  0  0
  1 17  1  0  0  0  0
  2  3  1  0  0  0  0
  2 18  1  0  0  0  0
  2 19  1  0  0  0  0
  3 13  1  0  0  0  0
  3  4  2  0  0  0  0
  4  5  1  0  0  0  0
  5  6  1  0  0  0  0
  5 12  2  0  0  0  0
  6 11  1  0  0  0  0
  6  7  1  0  0  0  0
  6 20  1  0  0  0  0
  7  8  1  0  0  0  0
  7 21  1  0  0  0  0
  7 22  1  0  0  0  0
  8  9  1  0  0  0  0
  8 23  1  0  0  0  0
  8 28  1  0  0  0  0
  9 10  1  0  0  0  0
  9 24  1  0  0  0  0
  9 25  1  0  0  0  0
 10 11  1  0  0  0  0
 10 26  1  0  0  0  0
 10 27  1  0  0  0  0
 12 13  1  0  0  0  0
 13 14  1  0  0  0  0
M  CHG  1   8   1
M  END
> <s_m_source_file>
AV-unprocessed.smi

> <i_m_source_file_index>
3085

> <i_lp_mmshare_version>
43012

> <i_f3d_flags>
0

> <s_epik_input>
W0NIM11bQ0gyXWMxbmMobltuSF0xKVtDQEBIXTJbQ0gyXVtOSF1bQ0gyXVtDSDJdTzI=

> <s_epik_cmdline>
J2VwaWtfcHl0aG9uJywgJy1waCcsICc3LjAnLCAnLXRuJywgJzgnLCAnLW1hJywgJzIwMCcsICctbWV0YWxfYmluZGluZycsICctaW1hZScsICc8aW5maWxlLm1hZT4nLCAnLW9tYWUnLCAnPG91dGZpbGUubWFlPic=

> <r_lp_tautomer_probability>
0.948284

> <r_epik_Ionization_Penalty>
0.107151

> <r_epik_Ionization_Penalty_Charging>
0.100865

> <r_epik_Ionization_Penalty_Neutral>
0.00628602

> <r_epik_State_Penalty>
0.429695

> <r_epik_Charging_Adjusted_Penalty>
0.530559

> <i_epik_Tot_Q>
1

> <i_epik_Tot_abs_Q>
1

> <r_epik_Metal_State_Penalty>
0.651827

> <b_epik_Metal_Only>
0

> <s_lp_Force_Field>
OPLS_2005

> <r_lp_Energy>
10.1089

> <b_lp_Chiralities_Consistent>
1

> <s_lp_Variant>
AV-unprocessed.smi:3085-1

> <Gold.Version>
5.8.1

> <Gold.Id.Protein>
6NUR|6NUR_protein|mol2

> <Gold.PLP.Fitness>
31.8341

> <Gold.PLP.PLP>
-23.0741

> <Gold.PLP.part.hbond>
-2.0000

> <Gold.PLP.part.metal>
0.0000

> <Gold.PLP.part.buried>
-4.4415

> <Gold.PLP.part.nonpolar>
-17.2073

> <Gold.PLP.part.repulsive>
0.5218

> <Gold.PLP.ligand.clash>
0.0000

> <Gold.PLP.ligand.torsion>
0.1294

> <Gold.PLP.Chemscore.Hbond>
3.0000

> <Gold.PLP.Chemscore.CHOScore>
0.0000

> <Gold.PLP.Chemscore.Metal>
0.0000

> <Gold.Chemscore.Hbonds>
donor molecule, donor type, donor heavy atom, donor atom, acceptor molecule, acceptor atom, score
      L1  H     8    23       P1 10186  2.00
      L1  H     8    28       P1  7921  1.00

> <Gold.PLP.Chemscore.Internal.Correction>
0.0188

> <Gold.Rescore>
     Score         DG    S(hbond)    S(metal)    S(lipo)     H(rot)  DE(clash)    DE(int)     intcor
     14.50     -14.64       1.94        0.00      51.51       1.30       0.00       0.14       ----

> <Gold.Chemscore.Fitness>
14.5011

> <Gold.Chemscore.DG>
-14.6398

> <Gold.Chemscore.ZeroCoef>
-5.4800

> <Gold.Chemscore.Hbond>
1.9353

> <Gold.Chemscore.Metal>
0.0000

> <Gold.Chemscore.Lipo>
51.5096

> <Gold.Chemscore.Internal_Hbond>
0.0000

> <Gold.Chemscore.DEClash>
0.0034

> <Gold.Chemscore.DEInternal>
0.1353

> <Gold.Chemscore.Rot>
1.3011

> <Gold.Chemscore.Internal.Correction>
   9.000000E+99

> <Gold.Chemscore.Hbonds>
donor molecule, donor type, donor heavy atom, donor atom, acceptor molecule, acceptor atom, score
      L1  H     8    23       P1 10186  0.90
      L1  H     8    28       P1  7921  0.98

> <Gold.Chemscore.Hbond.Weighted>
-6.4640

> <Gold.Chemscore.Metal.Weighted>
-0.0000

> <Gold.Chemscore.Lipo.Weighted>
-6.0266

> <Gold.Chemscore.Internal_Hbond.Weighted>
0.0000

> <Gold.Chemscore.DEClash.Weighted>
0.0034

> <Gold.Chemscore.DEInternal.Weighted>
0.1353

> <Gold.Chemscore.Rot.Weighted>
3.3308

> <Gold.Chemscore.Internal.Correction.Weighted>
   9.000000E+99

> <Gold.Protein.RotatedTorsions>
[ 6907 6896 6895 6894 ] final  -54.18 input  -60.11 | X-H torsion
[ 7974 7965 7964 7962 ] final   54.77 input  175.53 | X-H torsion
[ 8008 7997 7996 7995 ] final -103.28 input   59.86 | X-H torsion
[ 10167 10162 10161 10158 ] final  -55.27 input  -65.29 | X-H torsion
[ 10718 10713 10712 10709 ] final    3.37 input   66.30 | X-H torsion
[ 10763 10752 10751 10750 ] final  -98.68 input  -60.55 | X-H torsion
[ 11005 11000 10999 10996 ] final   77.47 input  -57.11 | X-H torsion

> <Gold.Protein.ActiveResidues>
 VAL166  LYS551  ARG553  GLY616  TRP617  ASP618  TYR619  PRO620  LYS621  CYS622 
 ASP623  PHE694  ASN695  SER759  ASP760  ASP761  ALA762  ILE779  LEU786  VAL792 
 PHE793  MET794  SER795  GLU796  ALA797  LYS798  CYS799  TRP800  GLU811  SER814 

> <Gold.Protein.RotatedAtoms>
  150.8361  134.7634  159.6893 H   0  0  0  0  0  0  0  0  0  0  0  0  # atno 6907 bound_to 6896
  152.4457  134.5496  159.9872 H   0  0  0  0  0  0  0  0  0  0  0  0  # atno 6908 bound_to 6896
  151.5646  133.3360  159.3013 H   0  0  0  0  0  0  0  0  0  0  0  0  # atno 6909 bound_to 6896
  145.9574  139.4027  143.0269 H   0  0  0  0  0  0  0  0  0  0  0  0  # atno 7974 bound_to 7965
  154.8686  140.0424  157.1710 H   0  0  0  0  0  0  0  0  0  0  0  0  # atno 8008 bound_to 7997
  154.8763  140.2966  155.5431 H   0  0  0  0  0  0  0  0  0  0  0  0  # atno 8009 bound_to 7997
  156.2999  140.2419  156.3759 H   0  0  0  0  0  0  0  0  0  0  0  0  # atno 8010 bound_to 7997
  140.6384  143.2494  151.5056 H   0  0  0  0  0  0  0  0  0  0  0  0  # atno 10167 bound_to 10162
  156.8768  130.5639  149.5655 H   0  0  0  0  0  0  0  0  0  0  0  0  # atno 10718 bound_to 10713
  154.7434  135.5000  153.9162 H   0  0  0  0  0  0  0  0  0  0  0  0  # atno 10763 bound_to 10752
  153.1067  135.6699  153.9582 H   0  0  0  0  0  0  0  0  0  0  0  0  # atno 10764 bound_to 10752
  153.9353  135.3073  155.3423 H   0  0  0  0  0  0  0  0  0  0  0  0  # atno 10765 bound_to 10752
  139.9253  134.7686  156.1526 H   0  0  0  0  0  0  0  0  0  0  0  0  # atno 11005 bound_to 11000
  145.8088  140.9736  143.0960 LP  0  0  0  0  0  0  0  0  0  0  0  0  # atno 17320 bound_to 7965
  144.6808  139.9894  143.7484 LP  0  0  0  0  0  0  0  0  0  0  0  0  # atno 17321 bound_to 7965
  139.5594  144.2195  152.1666 LP  0  0  0  0  0  0  0  0  0  0  0  0  # atno 17342 bound_to 10162
  140.1458  144.5160  150.6716 LP  0  0  0  0  0  0  0  0  0  0  0  0  # atno 17343 bound_to 10162
  156.0698  130.5733  150.9360 LP  0  0  0  0  0  0  0  0  0  0  0  0  # atno 17370 bound_to 10713
  157.6164  131.0933  150.8703 LP  0  0  0  0  0  0  0  0  0  0  0  0  # atno 17371 bound_to 10713
  141.0806  133.6756  156.2327 LP  0  0  0  0  0  0  0  0  0  0  0  0  # atno 17394 bound_to 11000
  140.6354  134.5220  157.5564 LP  0  0  0  0  0  0  0  0  0  0  0  0  # atno 17395 bound_to 11000

$$$$
