AV-unprocessed.smi:845|AV-procd|sdf|3928|dock8
  -GOLD-   22720 1393D 1   1.00000     0.00000
 Structure written by MMmdl.
 43 44  0  0  0  0  0  0  0  0  2 V2000
  147.1168  137.9850  154.4914 C   0  0  0  0  0  0  0  0  0  0  0  0
  146.5086  139.2295  153.8157 C   0  0  0  0  0  0  0  0  0  0  0  0
  146.8192  139.1816  152.3077 C   0  0  0  0  0  0  0  0  0  0  0  0
  147.0015  140.5510  154.4761 C   0  0  1  0  0  0  0  0  0  0  0  0
  148.4836  140.9191  154.1818 C   0  0  0  0  0  0  0  0  0  0  0  0
  149.0397  141.9028  155.1107 N   0  0  0  0  0  0  0  0  0  0  0  0
  150.0024  141.6673  156.0134 C   0  0  0  0  0  0  0  0  0  0  0  0
  150.5227  140.5639  156.1791 O   0  0  0  0  0  0  0  0  0  0  0  0
  150.3063  142.7811  156.7024 N   0  0  0  0  0  0  0  0  0  0  0  0
  151.2473  142.9313  157.7550 C   0  0  0  0  0  0  0  0  0  0  0  0
  151.7312  141.9192  158.4844 N   0  0  0  0  0  0  0  0  0  0  0  0
  152.6378  142.3574  159.4531 C   0  0  0  0  0  0  0  0  0  0  0  0
  152.8320  143.7164  159.4485 C   0  0  0  0  0  0  0  0  0  0  0  0
  151.8783  144.5045  158.2198 S   0  0  0  0  0  0  0  0  0  0  0  0
  146.0492  141.6785  154.2334 N   0  3  0  0  0  0  0  0  0  0  0  0
  145.1751  142.0066  155.3860 C   0  0  0  0  0  0  0  0  0  0  0  0
  144.0919  143.0092  154.9527 C   0  0  0  0  0  0  0  0  0  0  0  0
  144.7035  144.1737  154.4095 O   0  0  0  0  0  0  0  0  0  0  0  0
  145.4904  143.8822  153.2601 C   0  0  0  0  0  0  0  0  0  0  0  0
  146.6211  142.9149  153.6453 C   0  0  0  0  0  0  0  0  0  0  0  0
  148.2061  137.9990  154.4420 H   0  0  0  0  0  0  0  0  0  0  0  0
  146.7770  137.0700  154.0051 H   0  0  0  0  0  0  0  0  0  0  0  0
  146.8305  137.9088  155.5405 H   0  0  0  0  0  0  0  0  0  0  0  0
  145.4264  139.1576  153.9246 H   0  0  0  0  0  0  0  0  0  0  0  0
  147.8891  139.2793  152.1200 H   0  0  0  0  0  0  0  0  0  0  0  0
  146.3115  139.9745  151.7592 H   0  0  0  0  0  0  0  0  0  0  0  0
  146.4930  138.2378  151.8699 H   0  0  0  0  0  0  0  0  0  0  0  0
  146.9544  140.3667  155.5506 H   0  0  0  0  0  0  0  0  0  0  0  0
  149.1015  140.0233  154.1198 H   0  0  0  0  0  0  0  0  0  0  0  0
  148.5438  141.3686  153.1904 H   0  0  0  0  0  0  0  0  0  0  0  0
  148.6749  142.8420  155.0449 H   0  0  0  0  0  0  0  0  0  0  0  0
  149.8059  143.6197  156.4474 H   0  0  0  0  0  0  0  0  0  0  0  0
  153.0998  141.6318  160.1061 H   0  0  0  0  0  0  0  0  0  0  0  0
  153.4755  144.2991  160.0910 H   0  0  0  0  0  0  0  0  0  0  0  0
  144.7001  141.1031  155.7698 H   0  0  0  0  0  0  0  0  0  0  0  0
  145.7649  142.4311  156.1988 H   0  0  0  0  0  0  0  0  0  0  0  0
  143.4198  142.5630  154.2179 H   0  0  0  0  0  0  0  0  0  0  0  0
  143.4812  143.2963  155.8090 H   0  0  0  0  0  0  0  0  0  0  0  0
  144.8660  143.4594  152.4716 H   0  0  0  0  0  0  0  0  0  0  0  0
  145.9071  144.8119  152.8727 H   0  0  0  0  0  0  0  0  0  0  0  0
  147.2718  143.4066  154.3671 H   0  0  0  0  0  0  0  0  0  0  0  0
  147.2219  142.6823  152.7666 H   0  0  0  0  0  0  0  0  0  0  0  0
  145.4178  141.3200  153.5314 H   0  0  0  0  0  0  0  0  0  0  0  0
  1  2  1  0  0  0  0
  1 21  1  0  0  0  0
  1 22  1  0  0  0  0
  1 23  1  0  0  0  0
  2  3  1  0  0  0  0
  2  4  1  0  0  0  0
  2 24  1  0  0  0  0
  3 25  1  0  0  0  0
  3 26  1  0  0  0  0
  3 27  1  0  0  0  0
  4  5  1  0  0  0  0
  4 15  1  0  0  0  0
  4 28  1  0  0  0  0
  5  6  1  0  0  0  0
  5 29  1  0  0  0  0
  5 30  1  0  0  0  0
  6  7  1  0  0  0  0
  6 31  1  0  0  0  0
  7  8  2  0  0  0  0
  7  9  1  0  0  0  0
  9 10  1  0  0  0  0
  9 32  1  0  0  0  0
 10 14  1  0  0  0  0
 10 11  2  0  0  0  0
 11 12  1  0  0  0  0
 12 13  2  0  0  0  0
 12 33  1  0  0  0  0
 13 14  1  0  0  0  0
 13 34  1  0  0  0  0
 15 20  1  0  0  0  0
 15 16  1  0  0  0  0
 15 43  1  0  0  0  0
 16 17  1  0  0  0  0
 16 35  1  0  0  0  0
 16 36  1  0  0  0  0
 17 18  1  0  0  0  0
 17 37  1  0  0  0  0
 17 38  1  0  0  0  0
 18 19  1  0  0  0  0
 19 20  1  0  0  0  0
 19 39  1  0  0  0  0
 19 40  1  0  0  0  0
 20 41  1  0  0  0  0
 20 42  1  0  0  0  0
M  CHG  1  15   1
M  END
> <s_m_source_file>
AV-unprocessed.smi

> <i_m_source_file_index>
845

> <i_lp_mmshare_version>
43012

> <i_f3d_flags>
0

> <s_epik_input>
W0NIMl0xW0NIMl1PW0NIMl1bQ0gyXU4xW0NASF0oW0NIXShbQ0gzXSlbQ0gzXSlbQ0gyXVtOSF1DKD1PKVtOSF1jMm5bY0hdW2NIXXMy

> <s_epik_cmdline>
J2VwaWtfcHl0aG9uJywgJy1waCcsICc3LjAnLCAnLXRuJywgJzgnLCAnLW1hJywgJzIwMCcsICctbWV0YWxfYmluZGluZycsICctaW1hZScsICc8aW5maWxlLm1hZT4nLCAnLW9tYWUnLCAnPG91dGZpbGUubWFlPic=

> <r_lp_tautomer_probability>
0.999

> <r_epik_Ionization_Penalty>
0.398341

> <r_epik_Ionization_Penalty_Charging>
0.398119

> <r_epik_Ionization_Penalty_Neutral>
0.000222117

> <r_epik_State_Penalty>
0.397286

> <r_epik_Charging_Adjusted_Penalty>
0.795404

> <i_epik_Tot_Q>
1

> <i_epik_Tot_abs_Q>
1

> <r_epik_Metal_State_Penalty>
0.407542

> <b_epik_Metal_Only>
0

> <s_lp_Force_Field>
OPLS_2005

> <r_lp_Energy>
31.69

> <b_lp_Chiralities_Consistent>
1

> <s_lp_Variant>
AV-unprocessed.smi:845-2

> <Gold.Version>
5.8.1

> <Gold.Id.Protein>
6NUR|6NUR_protein|mol2

> <Gold.PLP.Fitness>
45.5545

> <Gold.PLP.PLP>
-39.4700

> <Gold.PLP.part.hbond>
-2.5092

> <Gold.PLP.part.metal>
0.0000

> <Gold.PLP.part.buried>
-5.5681

> <Gold.PLP.part.nonpolar>
-32.7369

> <Gold.PLP.part.repulsive>
0.4542

> <Gold.PLP.ligand.clash>
0.0000

> <Gold.PLP.ligand.torsion>
1.8665

> <Gold.PLP.Chemscore.Hbond>
3.1795

> <Gold.PLP.Chemscore.CHOScore>
0.0000

> <Gold.PLP.Chemscore.Metal>
0.0000

> <Gold.Chemscore.Hbonds>
donor molecule, donor type, donor heavy atom, donor atom, acceptor molecule, acceptor atom, score
      L1  H     6    31       P1  8028  0.93
      L1  H     9    32       P1  8028  1.00
      L1  H    15    43       P1 10175  1.24

> <Gold.PLP.Chemscore.Internal.Correction>
0.2790

> <Gold.Rescore>
     Score         DG    S(hbond)    S(metal)    S(lipo)     H(rot)  DE(clash)    DE(int)     intcor
     15.39     -18.35       2.29        0.00      84.19       1.80       0.03       2.93       ----

> <Gold.Chemscore.Fitness>
15.3914

> <Gold.Chemscore.DG>
-18.3487

> <Gold.Chemscore.ZeroCoef>
-5.4800

> <Gold.Chemscore.Hbond>
2.2870

> <Gold.Chemscore.Metal>
0.0000

> <Gold.Chemscore.Lipo>
84.1872

> <Gold.Chemscore.Internal_Hbond>
0.0000

> <Gold.Chemscore.DEClash>
0.0264

> <Gold.Chemscore.DEInternal>
2.9309

> <Gold.Chemscore.Rot>
1.8046

> <Gold.Chemscore.Internal.Correction>
   9.000000E+99

> <Gold.Chemscore.Hbonds>
donor molecule, donor type, donor heavy atom, donor atom, acceptor molecule, acceptor atom, score
      L1  H     6    31       P1  8028  0.88
      L1  H     9    32       P1  8028  0.99
      L1  H    15    43       P1 10175  0.19

> <Gold.Chemscore.Hbond.Weighted>
-7.6385

> <Gold.Chemscore.Metal.Weighted>
-0.0000

> <Gold.Chemscore.Lipo.Weighted>
-9.8499

> <Gold.Chemscore.Internal_Hbond.Weighted>
0.0000

> <Gold.Chemscore.DEClash.Weighted>
0.0264

> <Gold.Chemscore.DEInternal.Weighted>
2.9309

> <Gold.Chemscore.Rot.Weighted>
4.6197

> <Gold.Chemscore.Internal.Correction.Weighted>
   9.000000E+99

> <Gold.Protein.RotatedTorsions>
[ 6907 6896 6895 6894 ] final  -52.43 input  -60.11 | X-H torsion
[ 7974 7965 7964 7962 ] final  168.75 input  175.53 | X-H torsion
[ 8008 7997 7996 7995 ] final   88.28 input   59.86 | X-H torsion
[ 10167 10162 10161 10158 ] final  102.00 input  -65.29 | X-H torsion
[ 10718 10713 10712 10709 ] final   47.35 input   66.30 | X-H torsion
[ 10763 10752 10751 10750 ] final -176.33 input  -60.55 | X-H torsion
[ 11005 11000 10999 10996 ] final  151.99 input  -57.11 | X-H torsion

> <Gold.Protein.ActiveResidues>
 VAL166  LYS551  ARG553  GLY616  TRP617  ASP618  TYR619  PRO620  LYS621  CYS622 
 ASP623  PHE694  ASN695  SER759  ASP760  ASP761  ALA762  ILE779  LEU786  VAL792 
 PHE793  MET794  SER795  GLU796  ALA797  LYS798  CYS799  TRP800  GLU811  SER814 

> <Gold.Protein.RotatedAtoms>
  150.8519  134.7846  159.7014 H   0  0  0  0  0  0  0  0  0  0  0  0  # atno 6907 bound_to 6896
  152.4581  134.5243  159.9802 H   0  0  0  0  0  0  0  0  0  0  0  0  # atno 6908 bound_to 6896
  151.5362  133.3402  159.2963 H   0  0  0  0  0  0  0  0  0  0  0  0  # atno 6909 bound_to 6896
  144.7378  139.8953  143.6406 H   0  0  0  0  0  0  0  0  0  0  0  0  # atno 7974 bound_to 7965
  155.9859  140.3373  155.6706 H   0  0  0  0  0  0  0  0  0  0  0  0  # atno 8008 bound_to 7997
  155.6487  140.0703  157.2612 H   0  0  0  0  0  0  0  0  0  0  0  0  # atno 8009 bound_to 7997
  154.4205  140.1729  156.1638 H   0  0  0  0  0  0  0  0  0  0  0  0  # atno 8010 bound_to 7997
  139.7389  144.7016  151.0606 H   0  0  0  0  0  0  0  0  0  0  0  0  # atno 10167 bound_to 10162
  157.4576  130.8176  149.7853 H   0  0  0  0  0  0  0  0  0  0  0  0  # atno 10718 bound_to 10713
  154.5736  135.2830  155.0803 H   0  0  0  0  0  0  0  0  0  0  0  0  # atno 10763 bound_to 10752
  154.2166  135.6398  153.5135 H   0  0  0  0  0  0  0  0  0  0  0  0  # atno 10764 bound_to 10752
  153.0065  135.5504  154.6367 H   0  0  0  0  0  0  0  0  0  0  0  0  # atno 10765 bound_to 10752
  140.1267  134.8828  157.2148 H   0  0  0  0  0  0  0  0  0  0  0  0  # atno 11005 bound_to 11000
  146.1112  139.4117  143.0287 LP  0  0  0  0  0  0  0  0  0  0  0  0  # atno 17320 bound_to 7965
  145.7441  140.9997  143.1285 LP  0  0  0  0  0  0  0  0  0  0  0  0  # atno 17321 bound_to 7965
  140.7783  143.4949  150.9845 LP  0  0  0  0  0  0  0  0  0  0  0  0  # atno 17342 bound_to 10162
  139.8638  143.7280  152.3171 LP  0  0  0  0  0  0  0  0  0  0  0  0  # atno 17343 bound_to 10162
  156.0014  130.3878  150.2591 LP  0  0  0  0  0  0  0  0  0  0  0  0  # atno 17370 bound_to 10713
  157.0767  131.0132  151.3171 LP  0  0  0  0  0  0  0  0  0  0  0  0  # atno 17371 bound_to 10713
  140.2894  134.3258  155.7319 LP  0  0  0  0  0  0  0  0  0  0  0  0  # atno 17394 bound_to 11000
  141.2162  133.7526  156.9481 LP  0  0  0  0  0  0  0  0  0  0  0  0  # atno 17395 bound_to 11000

$$$$
