#       Name:                AV-unprocessed.smi:159
#       Creating user name   scv26
#       Creation time:       Thu Mar 26 19:03:57 2020


#       File generated by GOLD software.
#

@<TRIPOS>MOLECULE
AV-unprocessed.smi:159
    35    36     1
SMALL
NO_CHARGES


@<TRIPOS>ATOM
      1 ****        -4.8445  -0.4163   0.2107 N.pl3          1 S1                 0.0000
      2 ****        -3.5107  -0.5149   0.2963 C.2            1 S1                 0.0000
      3 ****        -2.7009   0.6714   0.4531 C.2            1 S1                 0.0000
      4 ****        -1.3639   0.4931   0.5316 C.2            1 S1                 0.0000
      5 ****        -0.7782  -0.7655   0.4561 N.am           1 S1                 0.0000
      6 ****         0.7208  -0.9750   0.5645 C.3            1 S1                 0.0000
      7 ****         1.3097  -1.4464  -0.7791 C.3            1 S1                 0.0000
      8 ****         2.4200  -0.4433  -1.0238 C.3            1 S1                 0.0000
      9 ****         1.8872   0.8003  -0.3212 C.3            1 S1                 0.0000
     10 ****         2.9710   1.8329   0.0158 C.3            1 S1                 0.0000
     11 ****         2.3719   3.0782   0.3026 O.3            1 S1                 0.0000
     12 ****         1.3519   0.2351   0.8698 O.3            1 S1                 0.0000
     13 ****        -1.6020  -1.9090   0.3179 C.2            1 S1                 0.0000
     14 ****        -1.1290  -3.0441   0.2711 O.2            1 S1                 0.0000
     15 ****        -2.9540  -1.7089   0.2384 N.2            1 S1                 0.0000
     16 ****         0.8606  -1.6777   1.3883 H              1 S1                 0.0000
     17 ****         1.0946   1.2448  -0.9266 H              1 S1                 0.0000
     18 ****        -5.4079  -1.2472   0.1037 H              1 S1                 0.0000
     19 ****        -5.2835   0.4922   0.2510 H              1 S1                 0.0000
     20 ****        -3.1129   1.6689   0.5099 H              1 S1                 0.0000
     21 ****        -0.7610   1.3797   0.6564 H              1 S1                 0.0000
     22 ****         1.6678  -2.4740  -0.7115 H              1 S1                 0.0000
     23 ****         0.5586  -1.3825  -1.5680 H              1 S1                 0.0000
     24 ****         3.3410  -0.7838  -0.5482 H              1 S1                 0.0000
     25 ****         2.6211  -0.2822  -2.0832 H              1 S1                 0.0000
     26 ****         3.5874   1.5045   0.8532 H              1 S1                 0.0000
     27 ****         3.6320   1.9755  -0.8396 H              1 S1                 0.0000
     28 ****         3.0536   3.6999   0.5065 H              1 S1                 0.0000
     29 ****         1.7565   2.9840   1.0851 LP             1 S1                 0.0000
     30 ****         1.8542   3.3943  -0.4924 LP             1 S1                 0.0000
     31 ****         2.0910   0.0708   1.5230 LP             1 S1                 0.0000
     32 ****         0.6877   0.8666   1.2699 LP             1 S1                 0.0000
     33 ****        -0.1396  -3.1763   0.3311 LP             1 S1                 0.0000
     34 ****        -1.7340  -3.8342   0.1731 LP             1 S1                 0.0000
     35 ****        -3.5478  -2.5063   0.1313 LP             1 S1                 0.0000
@<TRIPOS>BOND
    1    1    2 1     
    2    1   18 1     
    3    1   19 1     
    4    2   15 2     
    5    2    3 1     
    6    3    4 2     
    7    3   20 1     
    8    4    5 1     
    9    4   21 1     
   10    5    6 1     
   11    5   13 am    
   12    6   16 1     
   13    6   12 1     
   14    6    7 1     
   15    7    8 1     
   16    7   22 1     
   17    7   23 1     
   18    8    9 1     
   19    8   24 1     
   20    8   25 1     
   21    9   17 1     
   22    9   10 1     
   23    9   12 1     
   24   10   11 1     
   25   10   26 1     
   26   10   27 1     
   27   11   28 1     
   28   13   14 2     
   29   13   15 1     
   30   11   29 1     
   31   11   30 1     
   32   12   31 1     
   33   12   32 1     
   34   14   33 1     
   35   14   34 1     
   36   15   35 1     
@<TRIPOS>SUBSTRUCTURE
      1 S1             1
@<TRIPOS>SET
LONE_PAIRS      STATIC     ATOMS    <user>   **** ""
7 29 30 31 32 33 34 35
DONOR_HYDROGENS      STATIC     ATOMS    <user>   **** ""
3 18 19 28
ATOM$BLUE        STATIC     ATOMS    COLORGROUP SYSTEM
7 29 30 31 32 33 34 35
ATOM$RED        STATIC     ATOMS    COLORGROUP SYSTEM
3 18 19 28
