#       Name:                AV-unprocessed.smi:3152
#       Creating user name   scv26
#       Creation time:       Fri Mar 27 17:42:52 2020


#       File generated by GOLD software.
#

@<TRIPOS>MOLECULE
AV-unprocessed.smi:3152
    44    45     1
SMALL
NO_CHARGES


@<TRIPOS>ATOM
      1 ****        -6.8777   1.7642  -1.3615 C.3            1 S1                 0.0000
      2 ****        -5.5351   1.6946  -0.6927 C.2            1 S1                 0.0000
      3 ****        -5.2592   1.5351   0.6950 C.2            1 S1                 0.0000
      4 ****        -3.9635   1.5088   0.9619 N.2            1 S1                 0.0000
      5 ****        -3.3684   1.6483  -0.2413 N.pl3          1 S1                 0.0000
      6 ****        -1.9211   1.6591  -0.3278 C.3            1 S1                 0.0000
      7 ****        -1.3350   0.2503  -0.1580 C.3            1 S1                 0.0000
      8 ****         0.1394   0.2776  -0.2011 N.4            1 S1                 1.0000
      9 ****         0.7693  -1.0504  -0.0426 C.3            1 S1                 0.0000
     10 ****         2.3125  -0.9788  -0.0597 C.3            1 S1                 0.0000
     11 ****         2.6946  -0.4424  -1.3140 O.3            1 S1                 0.0000
     12 ****         2.8620  -0.0801   1.0760 C.3            1 S1                 0.0000
     13 ****         4.3982  -0.1030   1.1699 C.3            1 S1                 0.0000
     14 ****         4.9311  -1.5360   1.3056 C.3            1 S1                 0.0000
     15 ****         4.4400  -2.4158   0.1479 C.3            1 S1                 0.0000
     16 ****         2.9038  -2.4045   0.0502 C.3            1 S1                 0.0000
     17 ****        -4.2929   1.7650  -1.2577 C.2            1 S1                 0.0000
     18 ****        -7.6217   2.2440  -0.7253 H              1 S1                 0.0000
     19 ****        -7.2555   0.7713  -1.6053 H              1 S1                 0.0000
     20 ****        -6.8385   2.3314  -2.2919 H              1 S1                 0.0000
     21 ****        -5.9591   1.4374   1.5119 H              1 S1                 0.0000
     22 ****        -1.6328   2.0786  -1.2926 H              1 S1                 0.0000
     23 ****        -1.5340   2.3311   0.4396 H              1 S1                 0.0000
     24 ****        -1.6531  -0.1768   0.7942 H              1 S1                 0.0000
     25 ****        -1.7068  -0.4055  -0.9464 H              1 S1                 0.0000
     26 ****         0.4335   0.6628  -1.0876 H              1 S1                 0.0000
     27 ****         0.4304  -1.4896   0.8970 H              1 S1                 0.0000
     28 ****         0.4145  -1.7045  -0.8407 H              1 S1                 0.0000
     29 ****         3.6391  -0.4312  -1.3598 H              1 S1                 0.0000
     30 ****         2.5269   0.9500   0.9485 H              1 S1                 0.0000
     31 ****         2.4502  -0.4156   2.0290 H              1 S1                 0.0000
     32 ****         4.8300   0.3656   0.2847 H              1 S1                 0.0000
     33 ****         4.7247   0.4942   2.0218 H              1 S1                 0.0000
     34 ****         6.0213  -1.5273   1.3304 H              1 S1                 0.0000
     35 ****         4.6032  -1.9617   2.2549 H              1 S1                 0.0000
     36 ****         4.8751  -2.0665  -0.7890 H              1 S1                 0.0000
     37 ****         4.7932  -3.4381   0.2860 H              1 S1                 0.0000
     38 ****         2.4987  -2.8932   0.9375 H              1 S1                 0.0000
     39 ****         2.5870  -3.0131  -0.7981 H              1 S1                 0.0000
     40 ****        -3.9949   1.8850  -2.2889 H              1 S1                 0.0000
     41 ****         0.4723   0.8799   0.5381 H              1 S1                 0.0000
     42 ****        -3.5241   1.4082   1.8545 LP             1 S1                 0.0000
     43 ****         2.3412   0.4887  -1.4045 LP             1 S1                 0.0000
     44 ****         2.3277  -1.0112  -2.0501 LP             1 S1                 0.0000
@<TRIPOS>BOND
    1    1    2 1     
    2    1   18 1     
    3    1   19 1     
    4    1   20 1     
    5    2   17 2     
    6    2    3 1     
    7    3    4 2     
    8    3   21 1     
    9    4    5 1     
   10    5    6 1     
   11    5   17 1     
   12    6    7 1     
   13    6   22 1     
   14    6   23 1     
   15    7    8 1     
   16    7   24 1     
   17    7   25 1     
   18    8    9 1     
   19    8   26 1     
   20    8   41 1     
   21    9   10 1     
   22    9   27 1     
   23    9   28 1     
   24   10   16 1     
   25   10   11 1     
   26   10   12 1     
   27   11   29 1     
   28   12   13 1     
   29   12   30 1     
   30   12   31 1     
   31   13   14 1     
   32   13   32 1     
   33   13   33 1     
   34   14   15 1     
   35   14   34 1     
   36   14   35 1     
   37   15   16 1     
   38   15   36 1     
   39   15   37 1     
   40   16   38 1     
   41   16   39 1     
   42   17   40 1     
   43    4   42 1     
   44   11   43 1     
   45   11   44 1     
@<TRIPOS>SUBSTRUCTURE
      1 S1             1
@<TRIPOS>SET
LONE_PAIRS      STATIC     ATOMS    <user>   **** ""
3 42 43 44
DONOR_HYDROGENS      STATIC     ATOMS    <user>   **** ""
3 26 41 29
ATOM$BLUE        STATIC     ATOMS    COLORGROUP SYSTEM
3 42 43 44
ATOM$RED        STATIC     ATOMS    COLORGROUP SYSTEM
3 26 41 29
