AV-unprocessed.smi:1703|AV-procd|sdf|6853|dock9
  -GOLD-   22720 8 33D 1   1.00000     0.00000
 Structure written by MMmdl.
 48 50  0  0  0  0  0  0  0  0  1 V2000
  147.3261  137.3058  156.4866 C   0  0  0  0  0  0  0  0  0  0  0  0
  147.8672  136.9072  155.1030 C   0  0  2  0  0  0  0  0  0  0  0  0
  149.3955  137.0694  154.9762 C   0  0  0  0  0  0  0  0  0  0  0  0
  149.8088  138.4676  154.8640 N   0  0  0  0  0  0  0  0  0  0  0  0
  151.2565  138.6206  154.7098 C   0  0  0  0  0  0  0  0  0  0  0  0
  151.9096  139.7116  155.5824 C   0  0  2  0  0  0  0  0  0  0  0  0
  153.2869  139.4195  155.7195 O   0  0  0  0  0  0  0  0  0  0  0  0
  151.2624  139.7752  156.9798 C   0  0  0  0  0  0  0  0  0  0  0  0
  151.7665  140.8779  157.7899 N   0  0  0  0  0  0  0  0  0  0  0  0
  151.5453  142.2091  157.6343 C   0  0  0  0  0  0  0  0  0  0  0  0
  150.7049  142.7562  156.5145 C   0  0  0  0  0  0  0  0  0  0  0  0
  149.3325  142.4402  156.6318 O   0  0  0  0  0  0  0  0  0  0  0  0
  152.1440  143.0004  158.5274 N   0  0  0  0  0  0  0  0  0  0  0  0
  152.8072  142.1023  159.3391 C   0  0  0  0  0  0  0  0  0  0  0  0
  153.6219  142.3189  160.4735 C   0  0  0  0  0  0  0  0  0  0  0  0
  154.2062  141.2291  161.1512 C   0  0  0  0  0  0  0  0  0  0  0  0
  153.9857  139.9102  160.7043 C   0  0  0  0  0  0  0  0  0  0  0  0
  153.1766  139.6725  159.5764 C   0  0  0  0  0  0  0  0  0  0  0  0
  152.5933  140.7640  158.9044 C   0  0  0  0  0  0  0  0  0  0  0  0
  149.1005  139.0803  153.7475 C   0  0  0  0  0  0  0  0  0  0  0  0
  147.5732  138.9796  153.9079 C   0  0  1  0  0  0  0  0  0  0  0  0
  146.8279  139.5507  152.6968 C   0  0  0  0  0  0  0  0  0  0  0  0
  147.2035  137.6095  154.0510 O   0  0  0  0  0  0  0  0  0  0  0  0
  147.7599  136.6794  157.2664 H   0  0  0  0  0  0  0  0  0  0  0  0
  146.2436  137.1852  156.5303 H   0  0  0  0  0  0  0  0  0  0  0  0
  147.5580  138.3411  156.7357 H   0  0  0  0  0  0  0  0  0  0  0  0
  147.6303  135.8522  154.9623 H   0  0  0  0  0  0  0  0  0  0  0  0
  149.8670  136.5942  155.8348 H   0  0  0  0  0  0  0  0  0  0  0  0
  149.7350  136.5213  154.0961 H   0  0  0  0  0  0  0  0  0  0  0  0
  151.7368  137.6628  154.9162 H   0  0  0  0  0  0  0  0  0  0  0  0
  151.4855  138.8442  153.6666 H   0  0  0  0  0  0  0  0  0  0  0  0
  151.8143  140.6890  155.1135 H   0  0  0  0  0  0  0  0  0  0  0  0
  153.5949  139.0355  154.9130 H   0  0  0  0  0  0  0  0  0  0  0  0
  150.1791  139.8637  156.8988 H   0  0  0  0  0  0  0  0  0  0  0  0
  151.4398  138.8414  157.5143 H   0  0  0  0  0  0  0  0  0  0  0  0
  150.8144  143.8405  156.4910 H   0  0  0  0  0  0  0  0  0  0  0  0
  151.0498  142.3734  155.5551 H   0  0  0  0  0  0  0  0  0  0  0  0
  148.8269  143.1797  156.3314 H   0  0  0  0  0  0  0  0  0  0  0  0
  153.7979  143.3258  160.8221 H   0  0  0  0  0  0  0  0  0  0  0  0
  154.8272  141.4057  162.0172 H   0  0  0  0  0  0  0  0  0  0  0  0
  154.4386  139.0810  161.2279 H   0  0  0  0  0  0  0  0  0  0  0  0
  153.0094  138.6628  159.2329 H   0  0  0  0  0  0  0  0  0  0  0  0
  149.3812  140.1311  153.6657 H   0  0  0  0  0  0  0  0  0  0  0  0
  149.4025  138.6040  152.8131 H   0  0  0  0  0  0  0  0  0  0  0  0
  147.2624  139.5336  154.7943 H   0  0  0  0  0  0  0  0  0  0  0  0
  147.0661  140.6045  152.5502 H   0  0  0  0  0  0  0  0  0  0  0  0
  145.7490  139.4697  152.8304 H   0  0  0  0  0  0  0  0  0  0  0  0
  147.0916  139.0169  151.7831 H   0  0  0  0  0  0  0  0  0  0  0  0
  1  2  1  0  0  0  0
  1 24  1  0  0  0  0
  1 25  1  0  0  0  0
  1 26  1  0  0  0  0
  2 23  1  0  0  0  0
  2  3  1  0  0  0  0
  2 27  1  0  0  0  0
  3  4  1  0  0  0  0
  3 28  1  0  0  0  0
  3 29  1  0  0  0  0
  4  5  1  0  0  0  0
  4 20  1  0  0  0  0
  5  6  1  0  0  0  0
  5 30  1  0  0  0  0
  5 31  1  0  0  0  0
  6  7  1  0  0  0  0
  6  8  1  0  0  0  0
  6 32  1  0  0  0  0
  7 33  1  0  0  0  0
  8  9  1  0  0  0  0
  8 34  1  0  0  0  0
  8 35  1  0  0  0  0
  9 19  1  0  0  0  0
  9 10  1  0  0  0  0
 10 11  1  0  0  0  0
 10 13  2  0  0  0  0
 11 12  1  0  0  0  0
 11 36  1  0  0  0  0
 11 37  1  0  0  0  0
 12 38  1  0  0  0  0
 13 14  1  0  0  0  0
 14 19  2  0  0  0  0
 14 15  1  0  0  0  0
 15 16  2  0  0  0  0
 15 39  1  0  0  0  0
 16 17  1  0  0  0  0
 16 40  1  0  0  0  0
 17 18  2  0  0  0  0
 17 41  1  0  0  0  0
 18 19  1  0  0  0  0
 18 42  1  0  0  0  0
 20 21  1  0  0  0  0
 20 43  1  0  0  0  0
 20 44  1  0  0  0  0
 21 22  1  0  0  0  0
 21 23  1  0  0  0  0
 21 45  1  0  0  0  0
 22 46  1  0  0  0  0
 22 47  1  0  0  0  0
 22 48  1  0  0  0  0
M  END
> <s_m_source_file>
AV-unprocessed.smi

> <i_m_source_file_index>
1703

> <i_lp_mmshare_version>
43012

> <i_f3d_flags>
0

> <s_epik_input>
W0NIM11bQ0BASF0xW0NIMl1OKFtDSDJdW0NASF0oTzEpW0NIM10pW0NIMl1bQ0BIXShbT0hdKVtDSDJdbihjKG4yKVtDSDJdW09IXSljKGMyMylbY0hdW2NIXVtjSF1bY0hdMw==

> <s_epik_cmdline>
J2VwaWtfcHl0aG9uJywgJy1waCcsICc3LjAnLCAnLXRuJywgJzgnLCAnLW1hJywgJzIwMCcsICctbWV0YWxfYmluZGluZycsICctaW1hZScsICc8aW5maWxlLm1hZT4nLCAnLW9tYWUnLCAnPG91dGZpbGUubWFlPic=

> <r_epik_Ionization_Penalty>
0.307685

> <r_epik_Ionization_Penalty_Charging>
0

> <r_epik_Ionization_Penalty_Neutral>
0.307685

> <r_epik_State_Penalty>
0.277856

> <r_epik_Charging_Adjusted_Penalty>
0.277856

> <i_epik_Tot_Q>
0

> <i_epik_Tot_abs_Q>
0

> <r_epik_Metal_State_Penalty>
0.238959

> <b_epik_Metal_Only>
0

> <s_lp_Force_Field>
OPLS_2005

> <r_lp_Energy>
33.4043

> <b_lp_Chiralities_Consistent>
1

> <s_lp_Variant>
AV-unprocessed.smi:1703-1

> <Gold.Version>
5.8.1

> <Gold.Id.Protein>
6NUR|6NUR_protein|mol2

> <Gold.PLP.Fitness>
39.9280

> <Gold.PLP.PLP>
-35.9250

> <Gold.PLP.part.hbond>
-1.7636

> <Gold.PLP.part.metal>
0.0000

> <Gold.PLP.part.buried>
-0.9872

> <Gold.PLP.part.nonpolar>
-32.8656

> <Gold.PLP.part.repulsive>
0.2711

> <Gold.PLP.ligand.clash>
0.0000

> <Gold.PLP.ligand.torsion>
1.0333

> <Gold.PLP.Chemscore.Hbond>
2.0000

> <Gold.PLP.Chemscore.CHOScore>
0.0000

> <Gold.PLP.Chemscore.Metal>
0.0000

> <Gold.Chemscore.Hbonds>
donor molecule, donor type, donor heavy atom, donor atom, acceptor molecule, acceptor atom, score
      L1  H    12    38       P1  8028  0.93
      P1  H  7997  8008       L1     7  0.74

> <Gold.PLP.Chemscore.Internal.Correction>
0.0696

> <Gold.Rescore>
     Score         DG    S(hbond)    S(metal)    S(lipo)     H(rot)  DE(clash)    DE(int)     intcor
     13.81     -16.36       1.79        0.00     104.72       2.88       1.32       1.22       ----

> <Gold.Chemscore.Fitness>
13.8096

> <Gold.Chemscore.DG>
-16.3572

> <Gold.Chemscore.ZeroCoef>
-5.4800

> <Gold.Chemscore.Hbond>
1.7941

> <Gold.Chemscore.Metal>
0.0000

> <Gold.Chemscore.Lipo>
104.7166

> <Gold.Chemscore.Internal_Hbond>
0.0000

> <Gold.Chemscore.DEClash>
1.3232

> <Gold.Chemscore.DEInternal>
1.2244

> <Gold.Chemscore.Rot>
2.8778

> <Gold.Chemscore.Internal.Correction>
   9.000000E+99

> <Gold.Chemscore.Hbonds>
donor molecule, donor type, donor heavy atom, donor atom, acceptor molecule, acceptor atom, score
      L1  H    12    38       P1  8028  0.88
      P1  H  7997  8008       L1     7  0.55

> <Gold.Chemscore.Hbond.Weighted>
-5.9925

> <Gold.Chemscore.Metal.Weighted>
-0.0000

> <Gold.Chemscore.Lipo.Weighted>
-12.2518

> <Gold.Chemscore.Internal_Hbond.Weighted>
0.0000

> <Gold.Chemscore.DEClash.Weighted>
1.3232

> <Gold.Chemscore.DEInternal.Weighted>
1.2244

> <Gold.Chemscore.Rot.Weighted>
7.3671

> <Gold.Chemscore.Internal.Correction.Weighted>
   9.000000E+99

> <Gold.Protein.RotatedTorsions>
[ 6907 6896 6895 6894 ] final  127.27 input  -60.11 | X-H torsion
[ 7974 7965 7964 7962 ] final   35.21 input  175.53 | X-H torsion
[ 8008 7997 7996 7995 ] final  -48.00 input   59.86 | X-H torsion
[ 10167 10162 10161 10158 ] final   76.14 input  -65.29 | X-H torsion
[ 10718 10713 10712 10709 ] final  152.40 input   66.30 | X-H torsion
[ 10763 10752 10751 10750 ] final   21.47 input  -60.55 | X-H torsion
[ 11005 11000 10999 10996 ] final  -12.98 input  -57.11 | X-H torsion

> <Gold.Protein.ActiveResidues>
 VAL166  LYS551  ARG553  GLY616  TRP617  ASP618  TYR619  PRO620  LYS621  CYS622 
 ASP623  PHE694  ASN695  SER759  ASP760  ASP761  ALA762  ILE779  LEU786  VAL792 
 PHE793  MET794  SER795  GLU796  ALA797  LYS798  CYS799  TRP800  GLU811  SER814 

> <Gold.Protein.RotatedAtoms>
  152.3828  133.6569  159.6174 H   0  0  0  0  0  0  0  0  0  0  0  0  # atno 6907 bound_to 6896
  150.7754  133.9085  159.3371 H   0  0  0  0  0  0  0  0  0  0  0  0  # atno 6908 bound_to 6896
  151.6888  135.0951  160.0281 H   0  0  0  0  0  0  0  0  0  0  0  0  # atno 6909 bound_to 6896
  146.1299  139.6171  142.9233 H   0  0  0  0  0  0  0  0  0  0  0  0  # atno 7974 bound_to 7965
  154.4023  140.1332  156.4268 H   0  0  0  0  0  0  0  0  0  0  0  0  # atno 8008 bound_to 7997
  155.7589  140.3486  155.5168 H   0  0  0  0  0  0  0  0  0  0  0  0  # atno 8009 bound_to 7997
  155.8877  140.0998  157.1431 H   0  0  0  0  0  0  0  0  0  0  0  0  # atno 8010 bound_to 7997
  139.9954  144.5726  150.7782 H   0  0  0  0  0  0  0  0  0  0  0  0  # atno 10167 bound_to 10162
  157.2582  131.0793  151.1684 H   0  0  0  0  0  0  0  0  0  0  0  0  # atno 10718 bound_to 10713
  153.0993  135.6668  153.9703 H   0  0  0  0  0  0  0  0  0  0  0  0  # atno 10763 bound_to 10752
  153.9278  135.3007  155.3448 H   0  0  0  0  0  0  0  0  0  0  0  0  # atno 10764 bound_to 10752
  154.7413  135.5078  153.9202 H   0  0  0  0  0  0  0  0  0  0  0  0  # atno 10765 bound_to 10752
  140.7713  133.8436  155.9210 H   0  0  0  0  0  0  0  0  0  0  0  0  # atno 11005 bound_to 11000
  145.5283  141.0428  143.2397 LP  0  0  0  0  0  0  0  0  0  0  0  0  # atno 17320 bound_to 7965
  144.7680  139.6801  143.7207 LP  0  0  0  0  0  0  0  0  0  0  0  0  # atno 17321 bound_to 7965
  140.7439  143.2853  151.3482 LP  0  0  0  0  0  0  0  0  0  0  0  0  # atno 17342 bound_to 10162
  139.6309  144.0722  152.2476 LP  0  0  0  0  0  0  0  0  0  0  0  0  # atno 17343 bound_to 10162
  157.3204  130.6934  149.6266 LP  0  0  0  0  0  0  0  0  0  0  0  0  # atno 17370 bound_to 10713
  155.9664  130.4337  150.5017 LP  0  0  0  0  0  0  0  0  0  0  0  0  # atno 17371 bound_to 10713
  140.9571  134.1704  157.4683 LP  0  0  0  0  0  0  0  0  0  0  0  0  # atno 17394 bound_to 11000
  139.8755  134.9931  156.5627 LP  0  0  0  0  0  0  0  0  0  0  0  0  # atno 17395 bound_to 11000

$$$$
