#       Name:                AV-unprocessed.smi:1978
#       Creating user name   scv26
#       Creation time:       Fri Mar 27 10:18:40 2020


#       File generated by GOLD software.
#

@<TRIPOS>MOLECULE
AV-unprocessed.smi:1978
    50    51     1
SMALL
NO_CHARGES


@<TRIPOS>ATOM
      1 ****        -2.7707   6.2418  -2.9323 C.3            1 S1                 0.0000
      2 ****        -3.0547   5.0690  -2.0571 C.2            1 S1                 0.0000
      3 ****        -2.3196   4.4250  -1.1027 C.2            1 S1                 0.0000
      4 ****        -3.1896   3.3881  -0.6676 C.2            1 S1                 0.0000
      5 ****        -2.9211   2.4808   0.2840 N.pl3          1 S1                -1.0000
      6 ****        -2.2501   1.3484  -0.0250 C.2            1 S1                 0.0000
      7 ****        -1.8273   1.0272  -1.1381 O.2            1 S1                 0.0000
      8 ****        -2.0482   0.5390   1.0247 N.am           1 S1                 0.0000
      9 ****        -1.3306  -0.7324   0.9944 C.3            1 S1                 0.0000
     10 ****         0.2122  -0.5617   0.8778 C.3            1 S1                 0.0000
     11 ****         0.7142   0.3394   2.0362 C.3            1 S1                 0.0000
     12 ****         0.9151  -1.8912   0.8294 N.4            1 S1                 1.0000
     13 ****         0.5619  -2.7216  -0.3631 C.3            1 S1                 0.0000
     14 ****         1.1081  -4.1538  -0.2420 C.3            1 S1                 0.0000
     15 ****         2.6230  -4.1600  -0.0281 C.3            1 S1                 0.0000
     16 ****         2.9738  -3.2812   1.1775 C.3            1 S1                 0.0000
     17 ****         2.4010  -1.8540   1.0464 C.3            1 S1                 0.0000
     18 ****         3.1584  -1.0239  -0.0158 C.3            1 S1                 0.0000
     19 ****        -4.3558   3.4116  -1.2905 N.2            1 S1                 0.0000
     20 ****        -4.2754   4.4833  -2.1878 O.3            1 S1                 0.0000
     21 ****        -2.7528   7.1624  -2.3488 H              1 S1                 0.0000
     22 ****        -3.5301   6.3473  -3.7075 H              1 S1                 0.0000
     23 ****        -1.8029   6.1318  -3.4212 H              1 S1                 0.0000
     24 ****        -1.3187   4.6559  -0.7708 H              1 S1                 0.0000
     25 ****        -2.4170   0.8369   1.9162 H              1 S1                 0.0000
     26 ****        -1.5749  -1.2768   1.9069 H              1 S1                 0.0000
     27 ****        -1.7568  -1.3056   0.1739 H              1 S1                 0.0000
     28 ****         0.4302  -0.0467  -0.0585 H              1 S1                 0.0000
     29 ****         0.1672   1.2802   2.0892 H              1 S1                 0.0000
     30 ****         1.7581   0.6278   1.9247 H              1 S1                 0.0000
     31 ****         0.6006  -0.1567   3.0006 H              1 S1                 0.0000
     32 ****        -0.5130  -2.8161  -0.4860 H              1 S1                 0.0000
     33 ****         0.9289  -2.2467  -1.2732 H              1 S1                 0.0000
     34 ****         0.6194  -4.6596   0.5920 H              1 S1                 0.0000
     35 ****         0.8578  -4.7243  -1.1369 H              1 S1                 0.0000
     36 ****         2.9753  -5.1791   0.1340 H              1 S1                 0.0000
     37 ****         3.1287  -3.7968  -0.9232 H              1 S1                 0.0000
     38 ****         2.5766  -3.7441   2.0819 H              1 S1                 0.0000
     39 ****         4.0560  -3.2446   1.3091 H              1 S1                 0.0000
     40 ****         2.5965  -1.3981   2.0156 H              1 S1                 0.0000
     41 ****         4.2250  -0.9973   0.2083 H              1 S1                 0.0000
     42 ****         2.8177   0.0102  -0.0503 H              1 S1                 0.0000
     43 ****         3.0524  -1.4343  -1.0193 H              1 S1                 0.0000
     44 ****         0.5528  -2.3990   1.6236 H              1 S1                 0.0000
     45 ****        -3.2184   2.6428   1.2249 LP             1 S1                 0.0000
     46 ****        -1.9709   1.6323  -1.9212 LP             1 S1                 0.0000
     47 ****        -1.3409   0.1617  -1.2576 LP             1 S1                 0.0000
     48 ****        -5.1305   2.7950  -1.1504 LP             1 S1                 0.0000
     49 ****        -4.3900   4.1487  -3.1232 LP             1 S1                 0.0000
     50 ****        -4.9923   5.1494  -1.9819 LP             1 S1                 0.0000
@<TRIPOS>BOND
    1    1    2 1     
    2    1   21 1     
    3    1   22 1     
    4    1   23 1     
    5    2   20 1     
    6    2    3 2     
    7    3    4 1     
    8    3   24 1     
    9    4    5 1     
   10    4   19 2     
   11    5    6 1     
   12    6    7 2     
   13    6    8 am    
   14    8    9 1     
   15    8   25 1     
   16    9   10 1     
   17    9   26 1     
   18    9   27 1     
   19   10   11 1     
   20   10   12 1     
   21   10   28 1     
   22   11   29 1     
   23   11   30 1     
   24   11   31 1     
   25   12   17 1     
   26   12   13 1     
   27   12   44 1     
   28   13   14 1     
   29   13   32 1     
   30   13   33 1     
   31   14   15 1     
   32   14   34 1     
   33   14   35 1     
   34   15   16 1     
   35   15   36 1     
   36   15   37 1     
   37   16   17 1     
   38   16   38 1     
   39   16   39 1     
   40   17   18 1     
   41   17   40 1     
   42   18   41 1     
   43   18   42 1     
   44   18   43 1     
   45   19   20 1     
   46    5   45 1     
   47    7   46 1     
   48    7   47 1     
   49   19   48 1     
   50   20   49 1     
   51   20   50 1     
@<TRIPOS>SUBSTRUCTURE
      1 S1             1
@<TRIPOS>SET
LONE_PAIRS      STATIC     ATOMS    <user>   **** ""
6 45 46 47 48 49 50
DONOR_HYDROGENS      STATIC     ATOMS    <user>   **** ""
2 25 44
ATOM$BLUE        STATIC     ATOMS    COLORGROUP SYSTEM
6 45 46 47 48 49 50
ATOM$RED        STATIC     ATOMS    COLORGROUP SYSTEM
2 25 44
