AV-unprocessed.smi:249|AV-procd|sdf|1910|dock2
  -GOLD-   2262020593D 1   1.00000     0.00000
 Structure written by MMmdl.
 64 67  0  0  0  0  0  0  0  0  2 V2000
  146.1016  132.1476  151.7814 C   0  0  0  0  0  0  0  0  0  0  0  0
  146.5740  133.6102  151.8177 C   0  0  0  0  0  0  0  0  0  0  0  0
  147.5193  133.9063  152.9335 N   0  3  2  0  0  0  0  0  0  0  0  0
  148.5664  132.8528  153.0682 C   0  0  0  0  0  0  0  0  0  0  0  0
  149.6156  133.2089  154.1302 C   0  0  0  0  0  0  0  0  0  0  0  0
  148.9485  133.4395  155.4957 C   0  0  1  0  0  0  0  0  0  0  0  0
  149.9073  133.7022  156.5779 N   0  0  0  0  0  0  0  0  0  0  0  0
  151.2246  133.0857  156.4622 C   0  0  0  0  0  0  0  0  0  0  0  0
  149.9356  134.9532  157.0975 C   0  0  0  0  0  0  0  0  0  0  0  0
  149.3109  135.2097  158.2772 N   0  0  0  0  0  0  0  0  0  0  0  0
  149.3427  136.4404  158.7974 C   0  0  0  0  0  0  0  0  0  0  0  0
  149.9265  137.5375  158.3105 N   0  0  0  0  0  0  0  0  0  0  0  0
  150.5428  137.2857  157.1201 C   0  0  0  0  0  0  0  0  0  0  0  0
  150.5968  136.0316  156.4504 C   0  0  0  0  0  0  0  0  0  0  0  0
  151.3166  136.1524  155.2687 N   0  0  0  0  0  0  0  0  0  0  0  0
  151.6759  137.4069  155.2440 C   0  0  0  0  0  0  0  0  0  0  0  0
  151.2358  138.1651  156.3064 N   0  0  0  0  0  0  0  0  0  0  0  0
  151.4955  139.5770  156.5282 C   0  0  0  0  0  0  0  0  0  0  0  0
  151.7440  139.9700  158.0087 C   0  0  1  0  0  0  0  0  0  0  0  0
  152.6188  138.8863  158.6807 C   0  0  0  0  0  0  0  0  0  0  0  0
  153.7921  138.6285  157.9358 O   0  0  0  0  0  0  0  0  0  0  0  0
  152.3160  141.4036  158.2149 C   0  0  1  0  0  0  0  0  0  0  0  0
  151.4883  142.5426  157.6374 C   0  0  0  0  0  0  0  0  0  0  0  0
  151.9866  143.7608  158.4098 C   0  0  0  0  0  0  0  0  0  0  0  0
  152.4628  143.2710  159.6569 O   0  0  0  0  0  0  0  0  0  0  0  0
  152.3762  141.8524  159.6796 C   0  0  0  0  0  0  0  0  0  0  0  0
  147.8758  134.5310  155.3341 C   0  0  0  0  0  0  0  0  0  0  0  0
  146.8420  134.1757  154.2445 C   0  0  1  0  0  0  0  0  0  0  0  0
  145.7984  135.3101  154.1713 C   0  0  0  0  0  0  0  0  0  0  0  0
  145.5564  131.9490  150.8582 H   0  0  0  0  0  0  0  0  0  0  0  0
  145.4255  131.9076  152.6013 H   0  0  0  0  0  0  0  0  0  0  0  0
  146.9450  131.4573  151.8187 H   0  0  0  0  0  0  0  0  0  0  0  0
  147.0550  133.7868  150.8585 H   0  0  0  0  0  0  0  0  0  0  0  0
  145.7182  134.2851  151.8658 H   0  0  0  0  0  0  0  0  0  0  0  0
  148.0943  131.9002  153.3141 H   0  0  0  0  0  0  0  0  0  0  0  0
  149.0919  132.7088  152.1259 H   0  0  0  0  0  0  0  0  0  0  0  0
  150.3476  132.4036  154.1935 H   0  0  0  0  0  0  0  0  0  0  0  0
  150.1590  134.0999  153.8137 H   0  0  0  0  0  0  0  0  0  0  0  0
  148.4326  132.5189  155.7725 H   0  0  0  0  0  0  0  0  0  0  0  0
  151.7729  133.1694  157.4015 H   0  0  0  0  0  0  0  0  0  0  0  0
  151.8183  133.5552  155.6774 H   0  0  0  0  0  0  0  0  0  0  0  0
  151.1288  132.0256  156.2269 H   0  0  0  0  0  0  0  0  0  0  0  0
  148.8270  136.5643  159.7384 H   0  0  0  0  0  0  0  0  0  0  0  0
  152.2636  137.8198  154.4367 H   0  0  0  0  0  0  0  0  0  0  0  0
  152.3648  139.8397  155.9243 H   0  0  0  0  0  0  0  0  0  0  0  0
  150.6597  140.1496  156.1243 H   0  0  0  0  0  0  0  0  0  0  0  0
  150.7841  139.9306  158.5243 H   0  0  0  0  0  0  0  0  0  0  0  0
  152.9011  139.1788  159.6918 H   0  0  0  0  0  0  0  0  0  0  0  0
  152.0598  137.9555  158.7819 H   0  0  0  0  0  0  0  0  0  0  0  0
  154.2177  137.8667  158.2987 H   0  0  0  0  0  0  0  0  0  0  0  0
  153.3224  141.4583  157.7967 H   0  0  0  0  0  0  0  0  0  0  0  0
  151.6163  142.6778  156.5650 H   0  0  0  0  0  0  0  0  0  0  0  0
  150.4279  142.3825  157.8377 H   0  0  0  0  0  0  0  0  0  0  0  0
  152.8170  144.2346  157.8854 H   0  0  0  0  0  0  0  0  0  0  0  0
  151.2042  144.5070  158.5492 H   0  0  0  0  0  0  0  0  0  0  0  0
  151.4620  141.5735  160.2059 H   0  0  0  0  0  0  0  0  0  0  0  0
  153.2211  141.4231  160.2185 H   0  0  0  0  0  0  0  0  0  0  0  0
  147.3644  134.6727  156.2869 H   0  0  0  0  0  0  0  0  0  0  0  0
  148.3390  135.4863  155.0822 H   0  0  0  0  0  0  0  0  0  0  0  0
  146.3264  133.2633  154.5490 H   0  0  0  0  0  0  0  0  0  0  0  0
  145.4510  135.5839  155.1682 H   0  0  0  0  0  0  0  0  0  0  0  0
  144.9082  135.0209  153.6136 H   0  0  0  0  0  0  0  0  0  0  0  0
  146.2151  136.2077  153.7133 H   0  0  0  0  0  0  0  0  0  0  0  0
  147.9979  134.7598  152.6825 H   0  0  0  0  0  0  0  0  0  0  0  0
  1  2  1  0  0  0  0
  1 30  1  0  0  0  0
  1 31  1  0  0  0  0
  1 32  1  0  0  0  0
  2  3  1  0  0  0  0
  2 33  1  0  0  0  0
  2 34  1  0  0  0  0
  3 28  1  0  0  0  0
  3  4  1  0  0  0  0
  3 64  1  0  0  0  0
  4  5  1  0  0  0  0
  4 35  1  0  0  0  0
  4 36  1  0  0  0  0
  5  6  1  0  0  0  0
  5 37  1  0  0  0  0
  5 38  1  0  0  0  0
  6  7  1  0  0  0  0
  6 27  1  0  0  0  0
  6 39  1  0  0  0  0
  7  8  1  0  0  0  0
  7  9  1  0  0  0  0
  8 40  1  0  0  0  0
  8 41  1  0  0  0  0
  8 42  1  0  0  0  0
  9 14  1  0  0  0  0
  9 10  2  0  0  0  0
 10 11  1  0  0  0  0
 11 12  2  0  0  0  0
 11 43  1  0  0  0  0
 12 13  1  0  0  0  0
 13 17  1  0  0  0  0
 13 14  2  0  0  0  0
 14 15  1  0  0  0  0
 15 16  2  0  0  0  0
 16 17  1  0  0  0  0
 16 44  1  0  0  0  0
 17 18  1  0  0  0  0
 18 19  1  0  0  0  0
 18 45  1  0  0  0  0
 18 46  1  0  0  0  0
 19 20  1  0  0  0  0
 19 22  1  0  0  0  0
 19 47  1  0  0  0  0
 20 21  1  0  0  0  0
 20 48  1  0  0  0  0
 20 49  1  0  0  0  0
 21 50  1  0  0  0  0
 22 26  1  0  0  0  0
 22 23  1  0  0  0  0
 22 51  1  0  0  0  0
 23 24  1  0  0  0  0
 23 52  1  0  0  0  0
 23 53  1  0  0  0  0
 24 25  1  0  0  0  0
 24 54  1  0  0  0  0
 24 55  1  0  0  0  0
 25 26  1  0  0  0  0
 26 56  1  0  0  0  0
 26 57  1  0  0  0  0
 27 28  1  0  0  0  0
 27 58  1  0  0  0  0
 27 59  1  0  0  0  0
 28 29  1  0  0  0  0
 28 60  1  0  0  0  0
 29 61  1  0  0  0  0
 29 62  1  0  0  0  0
 29 63  1  0  0  0  0
M  CHG  1   3   1
M  END
> <s_m_source_file>
AV-unprocessed.smi

> <i_m_source_file_index>
249

> <i_lp_mmshare_version>
43012

> <i_f3d_flags>
0

> <s_epik_input>
W0NIM11bQ0gyXU4xW0NIMl1bQ0gyXVtDQEhdKFtDSDJdW0NASF0xW0NIM10pTihbQ0gzXSljKG5bY0hdbjIpYyhjMjMpbltjSF1uM1tDSDJdW0NASF0oW0NIMl1bT0hdKVtDQEBIXTRbQ0gyXVtDSDJdT1tDSDJdNA==

> <s_epik_cmdline>
J2VwaWtfcHl0aG9uJywgJy1waCcsICc3LjAnLCAnLXRuJywgJzgnLCAnLW1hJywgJzIwMCcsICctbWV0YWxfYmluZGluZycsICctaW1hZScsICc8aW5maWxlLm1hZT4nLCAnLW9tYWUnLCAnPG91dGZpbGUubWFlPic=

> <r_lp_tautomer_probability>
1

> <r_epik_Ionization_Penalty>
0.00294688

> <r_epik_Ionization_Penalty_Charging>
0.00169971

> <r_epik_Ionization_Penalty_Neutral>
0.00124717

> <r_epik_State_Penalty>
-0

> <r_epik_Charging_Adjusted_Penalty>
0.00169971

> <i_epik_Tot_Q>
1

> <i_epik_Tot_abs_Q>
1

> <r_epik_Metal_State_Penalty>
-0

> <b_epik_Metal_Only>
0

> <s_lp_Force_Field>
OPLS_2005

> <r_lp_Energy>
54.6385

> <b_lp_Chiralities_Consistent>
1

> <s_lp_Variant>
AV-unprocessed.smi:249-13

> <Gold.Version>
5.8.1

> <Gold.Id.Protein>
6NUR|6NUR_protein|mol2

> <Gold.PLP.Fitness>
53.2901

> <Gold.PLP.PLP>
-41.5438

> <Gold.PLP.part.hbond>
-4.0000

> <Gold.PLP.part.metal>
0.0000

> <Gold.PLP.part.buried>
-7.1511

> <Gold.PLP.part.nonpolar>
-30.9851

> <Gold.PLP.part.repulsive>
0.1072

> <Gold.PLP.ligand.clash>
0.2123

> <Gold.PLP.ligand.torsion>
2.0105

> <Gold.PLP.Chemscore.Hbond>
5.0000

> <Gold.PLP.Chemscore.CHOScore>
0.0000

> <Gold.PLP.Chemscore.Metal>
0.0000

> <Gold.Chemscore.Hbonds>
donor molecule, donor type, donor heavy atom, donor atom, acceptor molecule, acceptor atom, score
      L1  H     3    64       P1  7948  2.00
      P1  H  6896  6908       L1    10  0.60
      P1  H  7997  8009       L1    21  0.98
      P1  H 10752 10763       L1    15  0.65

> <Gold.PLP.Chemscore.Internal.Correction>
0.9796

> <Gold.Rescore>
     Score         DG    S(hbond)    S(metal)    S(lipo)     H(rot)  DE(clash)    DE(int)     intcor
     15.45     -18.22       2.54        0.00      99.79       2.90       0.07       2.69       ----

> <Gold.Chemscore.Fitness>
15.4532

> <Gold.Chemscore.DG>
-18.2160

> <Gold.Chemscore.ZeroCoef>
-5.4800

> <Gold.Chemscore.Hbond>
2.5409

> <Gold.Chemscore.Metal>
0.0000

> <Gold.Chemscore.Lipo>
99.7876

> <Gold.Chemscore.Internal_Hbond>
0.0000

> <Gold.Chemscore.DEClash>
0.0741

> <Gold.Chemscore.DEInternal>
2.6887

> <Gold.Chemscore.Rot>
2.9006

> <Gold.Chemscore.Internal.Correction>
   9.000000E+99

> <Gold.Chemscore.Hbonds>
donor molecule, donor type, donor heavy atom, donor atom, acceptor molecule, acceptor atom, score
      L1  H     3    64       P1  7948  0.78
      P1  H  6896  6908       L1    10  0.01
      P1  H  7997  8009       L1    21  0.86
      P1  H 10752 10763       L1    15  0.06

> <Gold.Chemscore.Hbond.Weighted>
-8.4865

> <Gold.Chemscore.Metal.Weighted>
-0.0000

> <Gold.Chemscore.Lipo.Weighted>
-11.6751

> <Gold.Chemscore.Internal_Hbond.Weighted>
0.0000

> <Gold.Chemscore.DEClash.Weighted>
0.0741

> <Gold.Chemscore.DEInternal.Weighted>
2.6887

> <Gold.Chemscore.Rot.Weighted>
7.4256

> <Gold.Chemscore.Internal.Correction.Weighted>
   9.000000E+99

> <Gold.Protein.RotatedTorsions>
[ 6907 6896 6895 6894 ] final  169.94 input  -60.11 | X-H torsion
[ 7974 7965 7964 7962 ] final   69.40 input  175.53 | X-H torsion
[ 8008 7997 7996 7995 ] final  130.59 input   59.86 | X-H torsion
[ 10167 10162 10161 10158 ] final  -22.16 input  -65.29 | X-H torsion
[ 10718 10713 10712 10709 ] final   99.63 input   66.30 | X-H torsion
[ 10763 10752 10751 10750 ] final   55.80 input  -60.55 | X-H torsion
[ 11005 11000 10999 10996 ] final  179.04 input  -57.11 | X-H torsion

> <Gold.Protein.ActiveResidues>
 VAL166  LYS551  ARG553  GLY616  TRP617  ASP618  TYR619  PRO620  LYS621  CYS622 
 ASP623  PHE694  ASN695  SER759  ASP760  ASP761  ALA762  ILE779  LEU786  VAL792 
 PHE793  MET794  SER795  GLU796  ALA797  LYS798  CYS799  TRP800  GLU811  SER814 

> <Gold.Protein.RotatedAtoms>
  151.8240  133.3398  159.3592 H   0  0  0  0  0  0  0  0  0  0  0  0  # atno 6907 bound_to 6896
  150.7285  134.5546  159.5821 H   0  0  0  0  0  0  0  0  0  0  0  0  # atno 6908 bound_to 6896
  152.2985  134.7640  160.0414 H   0  0  0  0  0  0  0  0  0  0  0  0  # atno 6909 bound_to 6896
  145.7908  139.2933  143.1211 H   0  0  0  0  0  0  0  0  0  0  0  0  # atno 7974 bound_to 7965
  156.2957  140.2592  156.2786 H   0  0  0  0  0  0  0  0  0  0  0  0  # atno 8008 bound_to 7997
  154.9624  140.0392  157.2215 H   0  0  0  0  0  0  0  0  0  0  0  0  # atno 8009 bound_to 7997
  154.7934  140.2816  155.5979 H   0  0  0  0  0  0  0  0  0  0  0  0  # atno 8010 bound_to 7997
  140.7285  143.4560  151.0448 H   0  0  0  0  0  0  0  0  0  0  0  0  # atno 10167 bound_to 10162
  157.6872  131.0675  150.4977 H   0  0  0  0  0  0  0  0  0  0  0  0  # atno 10718 bound_to 10713
  152.9822  135.5698  154.5126 H   0  0  0  0  0  0  0  0  0  0  0  0  # atno 10763 bound_to 10752
  154.4627  135.2782  155.1703 H   0  0  0  0  0  0  0  0  0  0  0  0  # atno 10764 bound_to 10752
  154.3284  135.6254  153.5593 H   0  0  0  0  0  0  0  0  0  0  0  0  # atno 10765 bound_to 10752
  140.4017  134.6771  157.4565 H   0  0  0  0  0  0  0  0  0  0  0  0  # atno 11005 bound_to 11000
  145.9978  140.8547  143.0034 LP  0  0  0  0  0  0  0  0  0  0  0  0  # atno 17320 bound_to 7965
  144.6782  140.2309  143.7355 LP  0  0  0  0  0  0  0  0  0  0  0  0  # atno 17321 bound_to 7965
  139.8240  143.7781  152.3178 LP  0  0  0  0  0  0  0  0  0  0  0  0  # atno 17342 bound_to 10162
  139.7873  144.7423  151.0004 LP  0  0  0  0  0  0  0  0  0  0  0  0  # atno 17343 bound_to 10162
  156.5301  130.4182  149.6206 LP  0  0  0  0  0  0  0  0  0  0  0  0  # atno 17370 bound_to 10713
  156.3077  130.7212  151.2098 LP  0  0  0  0  0  0  0  0  0  0  0  0  # atno 17371 bound_to 10713
  140.0331  134.6376  155.9079 LP  0  0  0  0  0  0  0  0  0  0  0  0  # atno 17394 bound_to 11000
  141.1854  133.6555  156.5197 LP  0  0  0  0  0  0  0  0  0  0  0  0  # atno 17395 bound_to 11000

$$$$
