AV-unprocessed.smi:3032|AV-procd|sdf|11559|dock1
  -GOLD-   2272016523D 1   1.00000     0.00000
 Structure written by MMmdl.
 37 38  0  0  0  0  0  0  0  0  1 V2000
  151.4143  144.8478  158.2106 C   0  0  0  0  0  0  0  0  0  0  0  0
  151.5319  143.7762  159.3038 C   0  0  2  0  0  0  0  0  0  0  0  0
  152.4657  144.2325  160.4416 C   0  0  0  0  0  0  0  0  0  0  0  0
  152.5891  143.1594  161.5345 C   0  0  0  0  0  0  0  0  0  0  0  0
  153.0586  141.8189  160.9487 C   0  0  0  0  0  0  0  0  0  0  0  0
  152.1222  141.3455  159.8178 C   0  0  2  0  0  0  0  0  0  0  0  0
  152.6115  140.0154  159.2299 C   0  0  0  0  0  0  0  0  0  0  0  0
  153.7493  139.9193  158.7689 O   0  0  0  0  0  0  0  0  0  0  0  0
  151.7458  138.9911  159.2672 N   0  0  0  0  0  0  0  0  0  0  0  0
  152.0308  137.6317  158.8166 C   0  0  0  0  0  0  0  0  0  0  0  0
  152.7135  137.5862  157.4342 C   0  0  0  0  0  0  0  0  0  0  0  0
  151.7857  137.8606  156.2927 C   0  0  0  0  0  0  0  0  0  0  0  0
  151.3380  139.0874  156.0167 N   0  0  0  0  0  0  0  0  0  0  0  0
  150.5443  139.0375  154.9265 N   0  0  0  0  0  0  0  0  0  0  0  0
  150.5736  137.7418  154.6201 C   0  0  0  0  0  0  0  0  0  0  0  0
  151.3345  136.9512  155.4356 N   0  0  0  0  0  0  0  0  0  0  0  0
  152.0087  142.4295  158.7243 C   0  0  0  0  0  0  0  0  0  0  0  0
  151.5417  139.9431  156.5137 H   0  0  0  0  0  0  0  0  0  0  0  0
  152.3801  145.0486  157.7462 H   0  0  0  0  0  0  0  0  0  0  0  0
  151.0402  145.7866  158.6200 H   0  0  0  0  0  0  0  0  0  0  0  0
  150.7259  144.5338  157.4255 H   0  0  0  0  0  0  0  0  0  0  0  0
  150.5365  143.6277  159.7249 H   0  0  0  0  0  0  0  0  0  0  0  0
  153.4549  144.4562  160.0395 H   0  0  0  0  0  0  0  0  0  0  0  0
  152.0945  145.1592  160.8807 H   0  0  0  0  0  0  0  0  0  0  0  0
  153.2857  143.4922  162.3044 H   0  0  0  0  0  0  0  0  0  0  0  0
  151.6250  143.0262  162.0270 H   0  0  0  0  0  0  0  0  0  0  0  0
  154.0778  141.9282  160.5742 H   0  0  0  0  0  0  0  0  0  0  0  0
  153.1004  141.0703  161.7414 H   0  0  0  0  0  0  0  0  0  0  0  0
  151.1294  141.1880  160.2436 H   0  0  0  0  0  0  0  0  0  0  0  0
  150.8313  139.1572  159.6626 H   0  0  0  0  0  0  0  0  0  0  0  0
  152.6895  137.1785  159.5580 H   0  0  0  0  0  0  0  0  0  0  0  0
  151.1169  137.0361  158.8112 H   0  0  0  0  0  0  0  0  0  0  0  0
  153.5281  138.3104  157.4033 H   0  0  0  0  0  0  0  0  0  0  0  0
  153.1737  136.6089  157.2813 H   0  0  0  0  0  0  0  0  0  0  0  0
  150.0270  137.3499  153.7750 H   0  0  0  0  0  0  0  0  0  0  0  0
  151.3151  142.0998  157.9491 H   0  0  0  0  0  0  0  0  0  0  0  0
  152.9736  142.5697  158.2333 H   0  0  0  0  0  0  0  0  0  0  0  0
  1  2  1  0  0  0  0
  1 19  1  0  0  0  0
  1 20  1  0  0  0  0
  1 21  1  0  0  0  0
  2 17  1  0  0  0  0
  2  3  1  0  0  0  0
  2 22  1  0  0  0  0
  3  4  1  0  0  0  0
  3 23  1  0  0  0  0
  3 24  1  0  0  0  0
  4  5  1  0  0  0  0
  4 25  1  0  0  0  0
  4 26  1  0  0  0  0
  5  6  1  0  0  0  0
  5 27  1  0  0  0  0
  5 28  1  0  0  0  0
  6  7  1  0  0  0  0
  6 17  1  0  0  0  0
  6 29  1  0  0  0  0
  7  8  2  0  0  0  0
  7  9  1  0  0  0  0
  9 10  1  0  0  0  0
  9 30  1  0  0  0  0
 10 11  1  0  0  0  0
 10 31  1  0  0  0  0
 10 32  1  0  0  0  0
 11 33  1  0  0  0  0
 11 34  1  0  0  0  0
 11 12  1  0  0  0  0
 12 16  2  0  0  0  0
 12 13  1  0  0  0  0
 13 18  1  0  0  0  0
 13 14  1  0  0  0  0
 14 15  2  0  0  0  0
 15 16  1  0  0  0  0
 15 35  1  0  0  0  0
 17 36  1  0  0  0  0
 17 37  1  0  0  0  0
M  END
> <s_m_source_file>
AV-unprocessed.smi

> <i_m_source_file_index>
3032

> <i_lp_mmshare_version>
43012

> <i_f3d_flags>
0

> <s_epik_input>
W0NIM11bQ0BASF0xW0NIMl1bQ0gyXVtDSDJdW0NASF0oW0NIMl0xKUMoPU8pW05IXVtDSDJdW0NIMl1jMm5uW2NIXVtuSF0y

> <s_epik_cmdline>
J2VwaWtfcHl0aG9uJywgJy1waCcsICc3LjAnLCAnLXRuJywgJzgnLCAnLW1hJywgJzIwMCcsICctbWV0YWxfYmluZGluZycsICctaW1hZScsICc8aW5maWxlLm1hZT4nLCAnLW9tYWUnLCAnPG91dGZpbGUubWFlPic=

> <r_lp_tautomer_probability>
0.948284

> <r_epik_Ionization_Penalty>
0.000474052

> <r_epik_Ionization_Penalty_Charging>
0

> <r_epik_Ionization_Penalty_Neutral>
0.000474052

> <r_epik_State_Penalty>
0.271807

> <r_epik_Charging_Adjusted_Penalty>
0.271807

> <i_epik_Tot_Q>
0

> <i_epik_Tot_abs_Q>
0

> <r_epik_Metal_State_Penalty>
0.397201

> <b_epik_Metal_Only>
0

> <s_lp_Force_Field>
OPLS_2005

> <r_lp_Energy>
10.6887

> <b_lp_Chiralities_Consistent>
1

> <s_lp_Variant>
AV-unprocessed.smi:3032-3

> <Gold.Version>
5.8.1

> <Gold.Id.Protein>
6NUR|6NUR_protein|mol2

> <Gold.PLP.Fitness>
46.5374

> <Gold.PLP.PLP>
-35.1490

> <Gold.PLP.part.hbond>
-3.0000

> <Gold.PLP.part.metal>
0.0000

> <Gold.PLP.part.buried>
-6.2875

> <Gold.PLP.part.nonpolar>
-26.1617

> <Gold.PLP.part.repulsive>
0.4322

> <Gold.PLP.ligand.clash>
0.0000

> <Gold.PLP.ligand.torsion>
0.3379

> <Gold.PLP.Chemscore.Hbond>
2.9120

> <Gold.PLP.Chemscore.CHOScore>
1.1020

> <Gold.PLP.Chemscore.Metal>
0.0000

> <Gold.Chemscore.Hbonds>
donor molecule, donor type, donor heavy atom, donor atom, acceptor molecule, acceptor atom, score
      P1  H  7997  8008       L1     8  1.00
      P1  H 10752 10763       L1    16  0.42
      L1  C    15    35       P1  7948  1.00
      L1  C    15    35       P1  7949  0.01

> <Gold.PLP.Chemscore.Internal.Correction>
0.0221

> <Gold.Rescore>
     Score         DG    S(hbond)    S(metal)    S(lipo)     H(rot)  DE(clash)    DE(int)     intcor
     17.58     -19.25       2.85        0.00      85.62       2.25       0.00       1.66       ----

> <Gold.Chemscore.Fitness>
17.5821

> <Gold.Chemscore.DG>
-19.2492

> <Gold.Chemscore.ZeroCoef>
-5.4800

> <Gold.Chemscore.Hbond>
2.8478

> <Gold.Chemscore.Metal>
0.0000

> <Gold.Chemscore.Lipo>
85.6235

> <Gold.Chemscore.Internal_Hbond>
0.0000

> <Gold.Chemscore.DEClash>
0.0029

> <Gold.Chemscore.DEInternal>
1.6643

> <Gold.Chemscore.Rot>
2.2501

> <Gold.Chemscore.Internal.Correction>
   9.000000E+99

> <Gold.Chemscore.Hbonds>
donor molecule, donor type, donor heavy atom, donor atom, acceptor molecule, acceptor atom, score
      P1  H  7997  8008       L1     8  0.96
      P1  H 10752 10763       L1    16  0.38

> <Gold.Chemscore.Hbond.Weighted>
-9.5116

> <Gold.Chemscore.Metal.Weighted>
-0.0000

> <Gold.Chemscore.Lipo.Weighted>
-10.0180

> <Gold.Chemscore.Internal_Hbond.Weighted>
0.0000

> <Gold.Chemscore.DEClash.Weighted>
0.0029

> <Gold.Chemscore.DEInternal.Weighted>
1.6643

> <Gold.Chemscore.Rot.Weighted>
5.7603

> <Gold.Chemscore.Internal.Correction.Weighted>
   9.000000E+99

> <Gold.Protein.RotatedTorsions>
[ 6907 6896 6895 6894 ] final   98.82 input  -60.11 | X-H torsion
[ 7974 7965 7964 7962 ] final  158.95 input  175.53 | X-H torsion
[ 8008 7997 7996 7995 ] final -109.12 input   59.86 | X-H torsion
[ 10167 10162 10161 10158 ] final  123.65 input  -65.29 | X-H torsion
[ 10718 10713 10712 10709 ] final -158.75 input   66.30 | X-H torsion
[ 10763 10752 10751 10750 ] final   60.31 input  -60.55 | X-H torsion
[ 11005 11000 10999 10996 ] final  -93.10 input  -57.11 | X-H torsion

> <Gold.Protein.ActiveResidues>
 VAL166  LYS551  ARG553  GLY616  TRP617  ASP618  TYR619  PRO620  LYS621  CYS622 
 ASP623  PHE694  ASN695  SER759  ASP760  ASP761  ALA762  ILE779  LEU786  VAL792 
 PHE793  MET794  SER795  GLU796  ALA797  LYS798  CYS799  TRP800  GLU811  SER814 

> <Gold.Protein.RotatedAtoms>
  152.5403  134.0522  159.8114 H   0  0  0  0  0  0  0  0  0  0  0  0  # atno 6907 bound_to 6896
  151.0662  133.5495  159.2637 H   0  0  0  0  0  0  0  0  0  0  0  0  # atno 6908 bound_to 6896
  151.2376  135.0585  159.9066 H   0  0  0  0  0  0  0  0  0  0  0  0  # atno 6909 bound_to 6896
  144.7817  139.7549  143.6257 H   0  0  0  0  0  0  0  0  0  0  0  0  # atno 7974 bound_to 7965
  154.9545  140.0400  157.2160 H   0  0  0  0  0  0  0  0  0  0  0  0  # atno 8008 bound_to 7997
  154.7947  140.2841  155.5943 H   0  0  0  0  0  0  0  0  0  0  0  0  # atno 8009 bound_to 7997
  156.2954  140.2566  156.2802 H   0  0  0  0  0  0  0  0  0  0  0  0  # atno 8010 bound_to 7997
  139.5787  144.6976  151.3585 H   0  0  0  0  0  0  0  0  0  0  0  0  # atno 10167 bound_to 10162
  156.5584  130.8636  151.2802 H   0  0  0  0  0  0  0  0  0  0  0  0  # atno 10718 bound_to 10713
  152.9917  135.5541  154.5853 H   0  0  0  0  0  0  0  0  0  0  0  0  # atno 10763 bound_to 10752
  154.5226  135.2808  155.1252 H   0  0  0  0  0  0  0  0  0  0  0  0  # atno 10764 bound_to 10752
  154.2599  135.6383  153.5323 H   0  0  0  0  0  0  0  0  0  0  0  0  # atno 10765 bound_to 10752
  141.1505  133.7865  157.0112 H   0  0  0  0  0  0  0  0  0  0  0  0  # atno 11005 bound_to 11000
  146.2028  139.5334  142.9732 LP  0  0  0  0  0  0  0  0  0  0  0  0  # atno 17320 bound_to 7965
  145.6032  141.0352  143.2007 LP  0  0  0  0  0  0  0  0  0  0  0  0  # atno 17321 bound_to 7965
  140.7067  143.7494  150.7495 LP  0  0  0  0  0  0  0  0  0  0  0  0  # atno 17342 bound_to 10162
  140.1021  143.4778  152.2419 LP  0  0  0  0  0  0  0  0  0  0  0  0  # atno 17343 bound_to 10162
  157.7373  130.9794  150.2187 LP  0  0  0  0  0  0  0  0  0  0  0  0  # atno 17370 bound_to 10713
  156.2821  130.3734  149.7925 LP  0  0  0  0  0  0  0  0  0  0  0  0  # atno 17371 bound_to 10713
  140.0876  134.9611  157.1725 LP  0  0  0  0  0  0  0  0  0  0  0  0  # atno 17394 bound_to 11000
  140.3490  134.2620  155.7201 LP  0  0  0  0  0  0  0  0  0  0  0  0  # atno 17395 bound_to 11000

$$$$
