AV-unprocessed.smi:2100|AV-procd|sdf|8574|dock1
  -GOLD-   2272011303D 1   1.00000     0.00000
 Structure written by MMmdl.
 41 42  0  0  0  0  0  0  0  0  1 V2000
  151.0497  144.8789  158.6098 C   0  0  0  0  0  0  0  0  0  0  0  0
  151.2114  143.3723  158.8384 C   0  0  1  0  0  0  0  0  0  0  0  0
  151.3008  142.5918  157.5146 C   0  0  0  0  0  0  0  0  0  0  0  0
  151.5818  141.1660  157.7582 N   0  0  0  0  0  0  0  0  0  0  0  0
  151.4512  140.0861  156.4117 S   0  0  0  0  0  0  0  0  0  0  0  0
  150.8252  140.8067  155.2927 O   0  0  0  0  0  0  0  0  0  0  0  0
  152.7335  139.3868  156.2365 O   0  0  0  0  0  0  0  0  0  0  0  0
  150.3132  138.9596  157.0579 N   0  0  0  0  0  0  0  0  0  0  0  0
  150.6862  138.1071  158.1886 C   0  0  0  0  0  0  0  0  0  0  0  0
  149.6980  136.9438  158.3698 C   0  0  0  0  0  0  0  0  0  0  0  0
  149.8393  135.8970  157.2811 C   0  0  0  0  0  0  0  0  0  0  0  0
  149.6735  136.2430  155.9231 C   0  0  0  0  0  0  0  0  0  0  0  0
  149.8123  135.2328  154.9515 C   0  0  0  0  0  0  0  0  0  0  0  0
  150.1075  133.9221  155.3732 C   0  0  0  0  0  0  0  0  0  0  0  0
  150.2510  133.6788  156.7536 C   0  0  0  0  0  0  0  0  0  0  0  0
  150.1208  134.6403  157.6932 N   0  0  0  0  0  0  0  0  0  0  0  0
  152.7149  140.9484  158.6713 C   0  0  0  0  0  0  0  0  0  0  0  0
  152.5714  141.7983  159.9474 C   0  0  1  0  0  0  0  0  0  0  0  0
  153.8045  141.6929  160.8515 C   0  0  0  0  0  0  0  0  0  0  0  0
  152.3973  143.1630  159.5924 O   0  0  0  0  0  0  0  0  0  0  0  0
  150.1474  145.0946  158.0371 H   0  0  0  0  0  0  0  0  0  0  0  0
  151.8994  145.2890  158.0633 H   0  0  0  0  0  0  0  0  0  0  0  0
  150.9758  145.4108  159.5585 H   0  0  0  0  0  0  0  0  0  0  0  0
  150.3533  143.0187  159.4129 H   0  0  0  0  0  0  0  0  0  0  0  0
  150.3688  142.6998  156.9603 H   0  0  0  0  0  0  0  0  0  0  0  0
  152.0932  143.0018  156.8868 H   0  0  0  0  0  0  0  0  0  0  0  0
  149.3790  139.3585  157.1448 H   0  0  0  0  0  0  0  0  0  0  0  0
  151.7017  137.7369  158.0420 H   0  0  0  0  0  0  0  0  0  0  0  0
  150.6987  138.7213  159.0893 H   0  0  0  0  0  0  0  0  0  0  0  0
  149.8475  136.4740  159.3427 H   0  0  0  0  0  0  0  0  0  0  0  0
  148.6709  137.3097  158.3593 H   0  0  0  0  0  0  0  0  0  0  0  0
  149.4454  137.2573  155.6306 H   0  0  0  0  0  0  0  0  0  0  0  0
  149.6934  135.4593  153.9023 H   0  0  0  0  0  0  0  0  0  0  0  0
  150.2204  133.1225  154.6562 H   0  0  0  0  0  0  0  0  0  0  0  0
  150.4759  132.6854  157.1128 H   0  0  0  0  0  0  0  0  0  0  0  0
  152.7744  139.8925  158.9363 H   0  0  0  0  0  0  0  0  0  0  0  0
  153.6386  141.1994  158.1480 H   0  0  0  0  0  0  0  0  0  0  0  0
  151.7011  141.4620  160.5137 H   0  0  0  0  0  0  0  0  0  0  0  0
  153.9721  140.6631  161.1680 H   0  0  0  0  0  0  0  0  0  0  0  0
  153.6827  142.3000  161.7488 H   0  0  0  0  0  0  0  0  0  0  0  0
  154.7025  142.0356  160.3366 H   0  0  0  0  0  0  0  0  0  0  0  0
  1  2  1  0  0  0  0
  1 21  1  0  0  0  0
  1 22  1  0  0  0  0
  1 23  1  0  0  0  0
  2 20  1  0  0  0  0
  2  3  1  0  0  0  0
  2 24  1  0  0  0  0
  3  4  1  0  0  0  0
  3 25  1  0  0  0  0
  3 26  1  0  0  0  0
  4  5  1  0  0  0  0
  4 17  1  0  0  0  0
  5  6  2  0  0  0  0
  5  7  2  0  0  0  0
  5  8  1  0  0  0  0
  8  9  1  0  0  0  0
  8 27  1  0  0  0  0
  9 10  1  0  0  0  0
  9 28  1  0  0  0  0
  9 29  1  0  0  0  0
 10 11  1  0  0  0  0
 10 30  1  0  0  0  0
 10 31  1  0  0  0  0
 11 16  1  0  0  0  0
 11 12  2  0  0  0  0
 12 13  1  0  0  0  0
 12 32  1  0  0  0  0
 13 14  2  0  0  0  0
 13 33  1  0  0  0  0
 14 15  1  0  0  0  0
 14 34  1  0  0  0  0
 15 16  2  0  0  0  0
 15 35  1  0  0  0  0
 17 18  1  0  0  0  0
 17 36  1  0  0  0  0
 17 37  1  0  0  0  0
 18 19  1  0  0  0  0
 18 20  1  0  0  0  0
 18 38  1  0  0  0  0
 19 39  1  0  0  0  0
 19 40  1  0  0  0  0
 19 41  1  0  0  0  0
M  END
> <s_m_source_file>
AV-unprocessed.smi

> <i_m_source_file_index>
2100

> <i_lp_mmshare_version>
43012

> <i_f3d_flags>
0

> <s_epik_input>
W0NIM11bQ0BASF0xW0NIMl1OKFtDSDJdW0NASF0oTzEpW0NIM10pUyg9TykoPU8pW05IXVtDSDJdW0NIMl1jMltjSF1bY0hdW2NIXVtjSF1uMg==

> <s_epik_cmdline>
J2VwaWtfcHl0aG9uJywgJy1waCcsICc3LjAnLCAnLXRuJywgJzgnLCAnLW1hJywgJzIwMCcsICctbWV0YWxfYmluZGluZycsICctaW1hZScsICc8aW5maWxlLm1hZT4nLCAnLW9tYWUnLCAnPG91dGZpbGUubWFlPic=

> <r_epik_Ionization_Penalty>
0.085378

> <r_epik_Ionization_Penalty_Charging>
0

> <r_epik_Ionization_Penalty_Neutral>
0.085378

> <r_epik_State_Penalty>
0.0441186

> <r_epik_Charging_Adjusted_Penalty>
0.0441186

> <i_epik_Tot_Q>
0

> <i_epik_Tot_abs_Q>
0

> <r_epik_Metal_State_Penalty>
0.24397

> <b_epik_Metal_Only>
0

> <s_lp_Force_Field>
OPLS_2005

> <r_lp_Energy>
5.36855

> <b_lp_Chiralities_Consistent>
1

> <s_lp_Variant>
AV-unprocessed.smi:2100-2

> <Gold.Version>
5.8.1

> <Gold.Id.Protein>
6NUR|6NUR_protein|mol2

> <Gold.PLP.Fitness>
40.6753

> <Gold.PLP.PLP>
-33.3318

> <Gold.PLP.part.hbond>
-3.0000

> <Gold.PLP.part.metal>
0.0000

> <Gold.PLP.part.buried>
-6.0220

> <Gold.PLP.part.nonpolar>
-24.6718

> <Gold.PLP.part.repulsive>
0.0612

> <Gold.PLP.ligand.clash>
0.0000

> <Gold.PLP.ligand.torsion>
0.7090

> <Gold.PLP.Chemscore.Hbond>
2.6640

> <Gold.PLP.Chemscore.CHOScore>
0.0000

> <Gold.PLP.Chemscore.Metal>
0.0000

> <Gold.Chemscore.Hbonds>
donor molecule, donor type, donor heavy atom, donor atom, acceptor molecule, acceptor atom, score
      P1  H  6896  6908       L1    16  0.80
      P1  H  7989  7998       L1     6  0.82
      P1  H  7997  8009       L1     7  1.00

> <Gold.PLP.Chemscore.Internal.Correction>
0.7695

> <Gold.Rescore>
     Score         DG    S(hbond)    S(metal)    S(lipo)     H(rot)  DE(clash)    DE(int)     intcor
     19.09     -19.87       2.63        0.00      85.19       1.71       0.00       0.78       ----

> <Gold.Chemscore.Fitness>
19.0912

> <Gold.Chemscore.DG>
-19.8679

> <Gold.Chemscore.ZeroCoef>
-5.4800

> <Gold.Chemscore.Hbond>
2.6310

> <Gold.Chemscore.Metal>
0.0000

> <Gold.Chemscore.Lipo>
85.1936

> <Gold.Chemscore.Internal_Hbond>
0.0000

> <Gold.Chemscore.DEClash>
0.0000

> <Gold.Chemscore.DEInternal>
0.7767

> <Gold.Chemscore.Rot>
1.7060

> <Gold.Chemscore.Internal.Correction>
   9.000000E+99

> <Gold.Chemscore.Hbonds>
donor molecule, donor type, donor heavy atom, donor atom, acceptor molecule, acceptor atom, score
      P1  H  6896  6908       L1    16  0.70
      P1  H  7989  7998       L1     6  0.80
      P1  H  7997  8009       L1     7  1.00

> <Gold.Chemscore.Hbond.Weighted>
-8.7876

> <Gold.Chemscore.Metal.Weighted>
-0.0000

> <Gold.Chemscore.Lipo.Weighted>
-9.9676

> <Gold.Chemscore.Internal_Hbond.Weighted>
0.0000

> <Gold.Chemscore.DEClash.Weighted>
0.0000

> <Gold.Chemscore.DEInternal.Weighted>
0.7767

> <Gold.Chemscore.Rot.Weighted>
4.3674

> <Gold.Chemscore.Internal.Correction.Weighted>
   9.000000E+99

> <Gold.Protein.RotatedTorsions>
[ 6907 6896 6895 6894 ] final  142.29 input  -60.11 | X-H torsion
[ 7974 7965 7964 7962 ] final   49.93 input  175.53 | X-H torsion
[ 8008 7997 7996 7995 ] final -158.20 input   59.86 | X-H torsion
[ 10167 10162 10161 10158 ] final   26.32 input  -65.29 | X-H torsion
[ 10718 10713 10712 10709 ] final  158.50 input   66.30 | X-H torsion
[ 10763 10752 10751 10750 ] final   77.17 input  -60.55 | X-H torsion
[ 11005 11000 10999 10996 ] final  178.96 input  -57.11 | X-H torsion

> <Gold.Protein.ActiveResidues>
 VAL166  LYS551  ARG553  GLY616  TRP617  ASP618  TYR619  PRO620  LYS621  CYS622 
 ASP623  PHE694  ASN695  SER759  ASP760  ASP761  ALA762  ILE779  LEU786  VAL792 
 PHE793  MET794  SER795  GLU796  ALA797  LYS798  CYS799  TRP800  GLU811  SER814 

> <Gold.Protein.RotatedAtoms>
  152.2205  133.4980  159.5159 H   0  0  0  0  0  0  0  0  0  0  0  0  # atno 6907 bound_to 6896
  150.7011  134.1349  159.4092 H   0  0  0  0  0  0  0  0  0  0  0  0  # atno 6908 bound_to 6896
  151.9269  135.0273  160.0577 H   0  0  0  0  0  0  0  0  0  0  0  0  # atno 6909 bound_to 6896
  146.0061  139.4492  142.9985 H   0  0  0  0  0  0  0  0  0  0  0  0  # atno 7974 bound_to 7965
  155.7440  140.0818  157.2232 H   0  0  0  0  0  0  0  0  0  0  0  0  # atno 8008 bound_to 7997
  154.4019  140.1572  156.2703 H   0  0  0  0  0  0  0  0  0  0  0  0  # atno 8009 bound_to 7997
  155.8993  140.3410  155.6017 H   0  0  0  0  0  0  0  0  0  0  0  0  # atno 8010 bound_to 7997
  140.5032  144.0281  150.6341 H   0  0  0  0  0  0  0  0  0  0  0  0  # atno 10167 bound_to 10162
  157.1770  131.0623  151.2152 H   0  0  0  0  0  0  0  0  0  0  0  0  # atno 10718 bound_to 10713
  153.0779  135.4924  154.8442 H   0  0  0  0  0  0  0  0  0  0  0  0  # atno 10763 bound_to 10752
  154.7112  135.3020  154.9196 H   0  0  0  0  0  0  0  0  0  0  0  0  # atno 10764 bound_to 10752
  153.9890  135.6780  153.4806 H   0  0  0  0  0  0  0  0  0  0  0  0  # atno 10765 bound_to 10752
  140.4009  134.6778  157.4561 H   0  0  0  0  0  0  0  0  0  0  0  0  # atno 11005 bound_to 11000
  145.7413  141.0007  143.1299 LP  0  0  0  0  0  0  0  0  0  0  0  0  # atno 17320 bound_to 7965
  144.6936  139.9102  143.7463 LP  0  0  0  0  0  0  0  0  0  0  0  0  # atno 17321 bound_to 7965
  140.3583  143.2923  152.0412 LP  0  0  0  0  0  0  0  0  0  0  0  0  # atno 17342 bound_to 10162
  139.4877  144.6322  151.7046 LP  0  0  0  0  0  0  0  0  0  0  0  0  # atno 17343 bound_to 10162
  157.3989  130.7322  149.6752 LP  0  0  0  0  0  0  0  0  0  0  0  0  # atno 17370 bound_to 10713
  155.9730  130.4126  150.4041 LP  0  0  0  0  0  0  0  0  0  0  0  0  # atno 17371 bound_to 10713
  140.0337  134.6369  155.9072 LP  0  0  0  0  0  0  0  0  0  0  0  0  # atno 17394 bound_to 11000
  141.1857  133.6555  156.5208 LP  0  0  0  0  0  0  0  0  0  0  0  0  # atno 17395 bound_to 11000

$$$$
