AV-unprocessed.smi:839|AV-procd|sdf|3910|dock3
  -GOLD-   22720 1373D 1   1.00000     0.00000
 Structure written by MMmdl.
 47 49  0  0  0  0  0  0  0  0  1 V2000
  146.5150  139.4903  153.5649 O   0  0  0  0  0  0  0  0  0  0  0  0
  147.4074  138.8500  153.0094 C   0  0  0  0  0  0  0  0  0  0  0  0
  147.1813  137.9817  152.0126 N   0  0  0  0  0  0  0  0  0  0  0  0
  145.8734  137.6936  151.4262 C   0  0  0  0  0  0  0  0  0  0  0  0
  144.9879  136.7966  152.3114 C   0  0  0  0  0  0  0  0  0  0  0  0
  144.6461  137.1803  153.4317 O   0  0  0  0  0  0  0  0  0  0  0  0
  144.6002  135.6027  151.8165 N   0  0  0  0  0  0  0  0  0  0  0  0
  143.7601  134.6243  152.5068 C   0  0  0  0  0  0  0  0  0  0  0  0
  143.4463  133.5426  151.4724 C   0  0  0  0  0  0  0  0  0  0  0  0
  144.5935  133.6314  150.4756 C   0  0  0  0  0  0  0  0  0  0  0  0
  144.9977  135.1054  150.5009 C   0  0  0  0  0  0  0  0  0  0  0  0
  148.7147  138.9067  153.3163 N   0  0  0  0  0  0  0  0  0  0  0  0
  149.3650  139.7098  154.2924 C   0  0  0  0  0  0  0  0  0  0  0  0
  148.9872  141.0319  154.6228 C   0  0  0  0  0  0  0  0  0  0  0  0
  149.7270  141.7297  155.5967 C   0  0  0  0  0  0  0  0  0  0  0  0
  150.8332  141.0981  156.2124 C   0  0  0  0  0  0  0  0  0  0  0  0
  151.5897  141.7824  157.1890 N   0  0  0  0  0  0  0  0  0  0  0  0
  151.2790  143.1895  157.4360 C   0  0  0  0  0  0  0  0  0  0  0  0
  152.3727  143.8371  158.3023 C   0  0  0  0  0  0  0  0  0  0  0  0
  152.5357  143.0917  159.5040 O   0  0  0  0  0  0  0  0  0  0  0  0
  152.9482  141.7542  159.2441 C   0  0  0  0  0  0  0  0  0  0  0  0
  151.8782  141.0309  158.4082 C   0  0  0  0  0  0  0  0  0  0  0  0
  151.1949  139.8325  155.8889 N   0  0  0  0  0  0  0  0  0  0  0  0
  150.4841  139.1675  154.9545 C   0  0  0  0  0  0  0  0  0  0  0  0
  147.9725  137.4974  151.6146 H   0  0  0  0  0  0  0  0  0  0  0  0
  145.3638  138.6438  151.2652 H   0  0  0  0  0  0  0  0  0  0  0  0
  146.0031  137.2341  150.4451 H   0  0  0  0  0  0  0  0  0  0  0  0
  144.3178  134.2016  153.3435 H   0  0  0  0  0  0  0  0  0  0  0  0
  142.8419  135.0658  152.8954 H   0  0  0  0  0  0  0  0  0  0  0  0
  143.3462  132.5512  151.9150 H   0  0  0  0  0  0  0  0  0  0  0  0
  142.5080  133.7795  150.9689 H   0  0  0  0  0  0  0  0  0  0  0  0
  145.4263  133.0182  150.8227 H   0  0  0  0  0  0  0  0  0  0  0  0
  144.3168  133.2858  149.4791 H   0  0  0  0  0  0  0  0  0  0  0  0
  144.4606  135.6645  149.7330 H   0  0  0  0  0  0  0  0  0  0  0  0
  146.0674  135.2246  150.3217 H   0  0  0  0  0  0  0  0  0  0  0  0
  149.3140  138.2636  152.8197 H   0  0  0  0  0  0  0  0  0  0  0  0
  148.1572  141.5297  154.1468 H   0  0  0  0  0  0  0  0  0  0  0  0
  149.4311  142.7328  155.8648 H   0  0  0  0  0  0  0  0  0  0  0  0
  151.1997  143.7302  156.4920 H   0  0  0  0  0  0  0  0  0  0  0  0
  150.3132  143.2637  157.9377 H   0  0  0  0  0  0  0  0  0  0  0  0
  153.3189  143.8877  157.7613 H   0  0  0  0  0  0  0  0  0  0  0  0
  152.0951  144.8607  158.5538 H   0  0  0  0  0  0  0  0  0  0  0  0
  153.9105  141.7526  158.7293 H   0  0  0  0  0  0  0  0  0  0  0  0
  153.0944  141.2377  160.1926 H   0  0  0  0  0  0  0  0  0  0  0  0
  150.9580  140.9322  158.9855 H   0  0  0  0  0  0  0  0  0  0  0  0
  152.2237  140.0216  158.1895 H   0  0  0  0  0  0  0  0  0  0  0  0
  150.8202  138.1652  154.7320 H   0  0  0  0  0  0  0  0  0  0  0  0
  1  2  2  0  0  0  0
  2  3  1  0  0  0  0
  2 12  1  0  0  0  0
  3  4  1  0  0  0  0
  3 25  1  0  0  0  0
  4  5  1  0  0  0  0
  4 26  1  0  0  0  0
  4 27  1  0  0  0  0
  5  6  2  0  0  0  0
  5  7  1  0  0  0  0
  7 11  1  0  0  0  0
  7  8  1  0  0  0  0
  8  9  1  0  0  0  0
  8 28  1  0  0  0  0
  8 29  1  0  0  0  0
  9 10  1  0  0  0  0
  9 30  1  0  0  0  0
  9 31  1  0  0  0  0
 10 11  1  0  0  0  0
 10 32  1  0  0  0  0
 10 33  1  0  0  0  0
 11 34  1  0  0  0  0
 11 35  1  0  0  0  0
 12 13  1  0  0  0  0
 12 36  1  0  0  0  0
 13 24  1  0  0  0  0
 13 14  2  0  0  0  0
 14 15  1  0  0  0  0
 14 37  1  0  0  0  0
 15 16  2  0  0  0  0
 15 38  1  0  0  0  0
 16 17  1  0  0  0  0
 16 23  1  0  0  0  0
 17 22  1  0  0  0  0
 17 18  1  0  0  0  0
 18 19  1  0  0  0  0
 18 39  1  0  0  0  0
 18 40  1  0  0  0  0
 19 20  1  0  0  0  0
 19 41  1  0  0  0  0
 19 42  1  0  0  0  0
 20 21  1  0  0  0  0
 21 22  1  0  0  0  0
 21 43  1  0  0  0  0
 21 44  1  0  0  0  0
 22 45  1  0  0  0  0
 22 46  1  0  0  0  0
 23 24  2  0  0  0  0
 24 47  1  0  0  0  0
M  END
> <s_m_source_file>
AV-unprocessed.smi

> <i_m_source_file_index>
839

> <i_lp_mmshare_version>
43012

> <i_f3d_flags>
0

> <s_epik_input>
W0NIMl0xW0NIMl1bQ0gyXVtDSDJdTjFDKD1PKVtDSDJdW05IXUMoPU8pW05IXWMyW2NIXVtjSF1jKG5bY0hdMilOM1tDSDJdW0NIMl1PW0NIMl1bQ0gyXTM=

> <s_epik_cmdline>
J2VwaWtfcHl0aG9uJywgJy1waCcsICc3LjAnLCAnLXRuJywgJzgnLCAnLW1hJywgJzIwMCcsICctbWV0YWxfYmluZGluZycsICctaW1hZScsICc8aW5maWxlLm1hZT4nLCAnLW9tYWUnLCAnPG91dGZpbGUubWFlPic=

> <r_lp_tautomer_probability>
1

> <r_epik_Ionization_Penalty>
0.00586185

> <r_epik_Ionization_Penalty_Charging>
0

> <r_epik_Ionization_Penalty_Neutral>
0.00586185

> <r_epik_State_Penalty>
0.00428328

> <r_epik_Charging_Adjusted_Penalty>
0.00428328

> <i_epik_Tot_Q>
0

> <i_epik_Tot_abs_Q>
0

> <r_epik_Metal_State_Penalty>
-0

> <b_epik_Metal_Only>
0

> <s_lp_Force_Field>
OPLS_2005

> <r_lp_Energy>
41.3163

> <b_lp_Chiralities_Consistent>
1

> <s_lp_Variant>
AV-unprocessed.smi:839-1

> <Gold.Version>
5.8.1

> <Gold.Id.Protein>
6NUR|6NUR_protein|mol2

> <Gold.PLP.Fitness>
47.3551

> <Gold.PLP.PLP>
-44.0104

> <Gold.PLP.part.hbond>
-2.7260

> <Gold.PLP.part.metal>
0.0000

> <Gold.PLP.part.buried>
-1.7036

> <Gold.PLP.part.nonpolar>
-40.8847

> <Gold.PLP.part.repulsive>
0.5062

> <Gold.PLP.ligand.clash>
0.0000

> <Gold.PLP.ligand.torsion>
0.5335

> <Gold.PLP.Chemscore.Hbond>
1.3547

> <Gold.PLP.Chemscore.CHOScore>
0.0000

> <Gold.PLP.Chemscore.Metal>
0.0000

> <Gold.Chemscore.Hbonds>
donor molecule, donor type, donor heavy atom, donor atom, acceptor molecule, acceptor atom, score
      L1  H     3    25       P1  7948  0.88
      L1  H    12    36       P1  7948  0.34

> <Gold.PLP.Chemscore.Internal.Correction>
0.3477

> <Gold.Rescore>
     Score         DG    S(hbond)    S(metal)    S(lipo)     H(rot)  DE(clash)    DE(int)     intcor
     16.41     -18.99       1.68        0.00     100.42       1.50       1.37       1.22       ----

> <Gold.Chemscore.Fitness>
16.4058

> <Gold.Chemscore.DG>
-18.9901

> <Gold.Chemscore.ZeroCoef>
-5.4800

> <Gold.Chemscore.Hbond>
1.6771

> <Gold.Chemscore.Metal>
0.0000

> <Gold.Chemscore.Lipo>
100.4163

> <Gold.Chemscore.Internal_Hbond>
0.0000

> <Gold.Chemscore.DEClash>
1.3651

> <Gold.Chemscore.DEInternal>
1.2191

> <Gold.Chemscore.Rot>
1.5001

> <Gold.Chemscore.Internal.Correction>
   9.000000E+99

> <Gold.Chemscore.Hbonds>
donor molecule, donor type, donor heavy atom, donor atom, acceptor molecule, acceptor atom, score
      L1  H     3    25       P1  7948  0.85
      L1  H    12    36       P1  7948  0.30

> <Gold.Chemscore.Hbond.Weighted>
-5.6016

> <Gold.Chemscore.Metal.Weighted>
-0.0000

> <Gold.Chemscore.Lipo.Weighted>
-11.7487

> <Gold.Chemscore.Internal_Hbond.Weighted>
0.0000

> <Gold.Chemscore.DEClash.Weighted>
1.3651

> <Gold.Chemscore.DEInternal.Weighted>
1.2191

> <Gold.Chemscore.Rot.Weighted>
3.8402

> <Gold.Chemscore.Internal.Correction.Weighted>
   9.000000E+99

> <Gold.Protein.RotatedTorsions>
[ 6907 6896 6895 6894 ] final -179.04 input  -60.11 | X-H torsion
[ 7974 7965 7964 7962 ] final   37.60 input  175.53 | X-H torsion
[ 8008 7997 7996 7995 ] final  -42.12 input   59.86 | X-H torsion
[ 10167 10162 10161 10158 ] final -161.59 input  -65.29 | X-H torsion
[ 10718 10713 10712 10709 ] final   96.06 input   66.30 | X-H torsion
[ 10763 10752 10751 10750 ] final -158.50 input  -60.55 | X-H torsion
[ 11005 11000 10999 10996 ] final  -44.25 input  -57.11 | X-H torsion

> <Gold.Protein.ActiveResidues>
 VAL166  LYS551  ARG553  GLY616  TRP617  ASP618  TYR619  PRO620  LYS621  CYS622 
 ASP623  PHE694  ASN695  SER759  ASP760  ASP761  ALA762  ILE779  LEU786  VAL792 
 PHE793  MET794  SER795  GLU796  ALA797  LYS798  CYS799  TRP800  GLU811  SER814 

> <Gold.Protein.RotatedAtoms>
  151.6470  133.3323  159.3142 H   0  0  0  0  0  0  0  0  0  0  0  0  # atno 6907 bound_to 6896
  150.7979  134.7056  159.6584 H   0  0  0  0  0  0  0  0  0  0  0  0  # atno 6908 bound_to 6896
  152.4069  134.6196  160.0099 H   0  0  0  0  0  0  0  0  0  0  0  0  # atno 6909 bound_to 6896
  146.1125  139.5875  142.9342 H   0  0  0  0  0  0  0  0  0  0  0  0  # atno 7974 bound_to 7965
  154.4000  140.1482  156.3302 H   0  0  0  0  0  0  0  0  0  0  0  0  # atno 8008 bound_to 7997
  155.8450  140.3460  155.5635 H   0  0  0  0  0  0  0  0  0  0  0  0  # atno 8009 bound_to 7997
  155.8046  140.0875  157.1929 H   0  0  0  0  0  0  0  0  0  0  0  0  # atno 8010 bound_to 7997
  139.6454  144.0182  152.2123 H   0  0  0  0  0  0  0  0  0  0  0  0  # atno 10167 bound_to 10162
  157.6931  131.0566  150.4433 H   0  0  0  0  0  0  0  0  0  0  0  0  # atno 10718 bound_to 10713
  154.7551  135.3102  154.8485 H   0  0  0  0  0  0  0  0  0  0  0  0  # atno 10763 bound_to 10752
  153.9261  135.6790  153.4750 H   0  0  0  0  0  0  0  0  0  0  0  0  # atno 10764 bound_to 10752
  153.1148  135.4849  154.9026 H   0  0  0  0  0  0  0  0  0  0  0  0  # atno 10765 bound_to 10752
  141.0438  133.6769  156.2846 H   0  0  0  0  0  0  0  0  0  0  0  0  # atno 11005 bound_to 11000
  145.5633  141.0402  143.2214 LP  0  0  0  0  0  0  0  0  0  0  0  0  # atno 17320 bound_to 7965
  144.7524  139.7159  143.7267 LP  0  0  0  0  0  0  0  0  0  0  0  0  # atno 17321 bound_to 7965
  139.9883  144.6380  150.7838 LP  0  0  0  0  0  0  0  0  0  0  0  0  # atno 17342 bound_to 10162
  140.7512  143.2968  151.3184 LP  0  0  0  0  0  0  0  0  0  0  0  0  # atno 17343 bound_to 10162
  156.4790  130.4069  149.6473 LP  0  0  0  0  0  0  0  0  0  0  0  0  # atno 17370 bound_to 10713
  156.3525  130.7439  151.2401 LP  0  0  0  0  0  0  0  0  0  0  0  0  # atno 17371 bound_to 10713
  140.6185  134.5386  157.5544 LP  0  0  0  0  0  0  0  0  0  0  0  0  # atno 17394 bound_to 11000
  139.9296  134.7989  156.0969 LP  0  0  0  0  0  0  0  0  0  0  0  0  # atno 17395 bound_to 11000

$$$$
