#       Name:                AV-unprocessed.smi:240
#       Creating user name   scv26
#       Creation time:       Thu Mar 26 20:43:47 2020


#       File generated by GOLD software.
#

@<TRIPOS>MOLECULE
AV-unprocessed.smi:240
    67    71     1
SMALL
NO_CHARGES


@<TRIPOS>ATOM
      1 ****        -2.2886  -2.8341   2.2916 O.3            1 S1                 0.0000
      2 ****        -2.7063  -3.1490   0.9796 C.3            1 S1                 0.0000
      3 ****        -2.1691  -4.5080   0.5312 C.3            1 S1                 0.0000
      4 ****        -2.2203  -4.4566  -0.9998 C.3            1 S1                 0.0000
      5 ****        -2.2113  -2.9682  -1.3850 C.3            1 S1                 0.0000
      6 ****        -2.1340  -2.1795  -0.0643 C.3            1 S1                 0.0000
      7 ****        -2.7512  -0.7476  -0.0843 C.3            1 S1                 0.0000
      8 ****        -4.2884  -0.7348  -0.2878 C.3            1 S1                 0.0000
      9 ****        -4.7792   0.6010  -0.2863 O.3            1 S1                 0.0000
     10 ****        -4.2259   1.3713  -1.3443 C.3            1 S1                 0.0000
     11 ****        -2.7071   1.4612  -1.1504 C.3            1 S1                 0.0000
     12 ****        -2.1245   0.1259  -1.0870 N.3            1 S1                 0.0000
     13 ****        -0.7740   0.1967  -1.0918 C.ar           1 S1                 0.0000
     14 ****        -0.1521  -0.0290  -2.2750 N.ar           1 S1                 0.0000
     15 ****         1.1810   0.0237  -2.3500 C.ar           1 S1                 0.0000
     16 ****         2.0623   0.2882  -1.3830 N.ar           1 S1                 0.0000
     17 ****         1.4375   0.5303  -0.1946 C.ar           1 S1                 0.0000
     18 ****         0.0338   0.5060   0.0395 C.ar           1 S1                 0.0000
     19 ****        -0.2289   0.8050   1.3708 N.2            1 S1                 0.0000
     20 ****         0.9517   0.9928   1.8941 C.2            1 S1                 0.0000
     21 ****         2.0092   0.8565   1.0230 N.pl3          1 S1                 0.0000
     22 ****         3.4225   1.0102   1.3350 C.3            1 S1                 0.0000
     23 ****         3.9051   2.4827   1.3754 C.3            1 S1                 0.0000
     24 ****         3.2214   3.1670   2.4094 O.3            1 S1                 0.0000
     25 ****         3.7147   3.2414   0.0614 C.3            1 S1                 0.0000
     26 ****         5.0735   3.0998  -0.6065 C.3            1 S1                 0.0000
     27 ****         5.9634   3.2665   0.4831 O.3            1 S1                 0.0000
     28 ****         5.4281   2.5735   1.6051 C.3            1 S1                 0.0000
     29 ****        -1.3439  -2.8281   2.3136 H              1 S1                 0.0000
     30 ****        -3.7945  -3.1770   0.9431 H              1 S1                 0.0000
     31 ****        -1.1327  -4.6249   0.8517 H              1 S1                 0.0000
     32 ****        -2.7383  -5.3421   0.9428 H              1 S1                 0.0000
     33 ****        -1.3840  -4.9971  -1.4438 H              1 S1                 0.0000
     34 ****        -3.1377  -4.9235  -1.3597 H              1 S1                 0.0000
     35 ****        -1.3698  -2.7283  -2.0353 H              1 S1                 0.0000
     36 ****        -3.1174  -2.7362  -1.9424 H              1 S1                 0.0000
     37 ****        -1.0731  -2.0887   0.1741 H              1 S1                 0.0000
     38 ****        -2.5687  -0.3019   0.8936 H              1 S1                 0.0000
     39 ****        -4.5816  -1.2238  -1.2167 H              1 S1                 0.0000
     40 ****        -4.7922  -1.2611   0.5214 H              1 S1                 0.0000
     41 ****        -4.4730   0.9257  -2.3092 H              1 S1                 0.0000
     42 ****        -4.6672   2.3679  -1.3280 H              1 S1                 0.0000
     43 ****        -2.2644   2.0257  -1.9726 H              1 S1                 0.0000
     44 ****        -2.4822   2.0027  -0.2302 H              1 S1                 0.0000
     45 ****         1.6018  -0.1729  -3.3251 H              1 S1                 0.0000
     46 ****         1.0847   1.2435   2.9366 H              1 S1                 0.0000
     47 ****         3.6110   0.5274   2.2949 H              1 S1                 0.0000
     48 ****         3.9964   0.4484   0.5969 H              1 S1                 0.0000
     49 ****         3.5396   4.0565   2.4395 H              1 S1                 0.0000
     50 ****         2.8980   2.8782  -0.5603 H              1 S1                 0.0000
     51 ****         3.5302   4.3002   0.2506 H              1 S1                 0.0000
     52 ****         5.1981   2.1069  -1.0416 H              1 S1                 0.0000
     53 ****         5.2427   3.8451  -1.3839 H              1 S1                 0.0000
     54 ****         5.6921   3.0999   2.5234 H              1 S1                 0.0000
     55 ****         5.8835   1.5837   1.6561 H              1 S1                 0.0000
     56 ****        -2.6362  -3.5209   2.9299 LP             1 S1                 0.0000
     57 ****        -2.6374  -1.9330   2.5492 LP             1 S1                 0.0000
     58 ****        -4.5423   1.0313   0.5848 LP             1 S1                 0.0000
     59 ****        -5.7738   0.5799  -0.3879 LP             1 S1                 0.0000
     60 ****        -2.3528  -0.3680  -1.9260 LP             1 S1                 0.0000
     61 ****        -0.6911  -0.2349  -3.0918 LP             1 S1                 0.0000
     62 ****         3.0536   0.3066  -1.5130 LP             1 S1                 0.0000
     63 ****        -1.1185   0.8630   1.8239 LP             1 S1                 0.0000
     64 ****         3.3951   2.7163   3.2851 LP             1 S1                 0.0000
     65 ****         2.2389   3.1659   2.2231 LP             1 S1                 0.0000
     66 ****         6.0563   4.2386   0.6985 LP             1 S1                 0.0000
     67 ****         6.8596   2.8899   0.2488 LP             1 S1                 0.0000
@<TRIPOS>BOND
    1    1    2 1     
    2    1   29 1     
    3    2    6 1     
    4    2    3 1     
    5    2   30 1     
    6    3    4 1     
    7    3   31 1     
    8    3   32 1     
    9    4    5 1     
   10    4   33 1     
   11    4   34 1     
   12    5    6 1     
   13    5   35 1     
   14    5   36 1     
   15    6    7 1     
   16    6   37 1     
   17    7   12 1     
   18    7    8 1     
   19    7   38 1     
   20    8    9 1     
   21    8   39 1     
   22    8   40 1     
   23    9   10 1     
   24   10   11 1     
   25   10   41 1     
   26   10   42 1     
   27   11   12 1     
   28   11   43 1     
   29   11   44 1     
   30   12   13 1     
   31   13   18 ar    
   32   13   14 ar    
   33   14   15 ar    
   34   15   16 ar    
   35   15   45 1     
   36   16   17 ar    
   37   17   21 1     
   38   17   18 ar    
   39   18   19 1     
   40   19   20 2     
   41   20   21 1     
   42   20   46 1     
   43   21   22 1     
   44   22   23 1     
   45   22   47 1     
   46   22   48 1     
   47   23   28 1     
   48   23   24 1     
   49   23   25 1     
   50   24   49 1     
   51   25   26 1     
   52   25   50 1     
   53   25   51 1     
   54   26   27 1     
   55   26   52 1     
   56   26   53 1     
   57   27   28 1     
   58   28   54 1     
   59   28   55 1     
   60    1   56 1     
   61    1   57 1     
   62    9   58 1     
   63    9   59 1     
   64   12   60 1     
   65   14   61 1     
   66   16   62 1     
   67   19   63 1     
   68   24   64 1     
   69   24   65 1     
   70   27   66 1     
   71   27   67 1     
@<TRIPOS>SUBSTRUCTURE
      1 S1             1
@<TRIPOS>SET
LONE_PAIRS      STATIC     ATOMS    <user>   **** ""
12 56 57 58 59 60 61 62 63 64 65 66 67
DONOR_HYDROGENS      STATIC     ATOMS    <user>   **** ""
2 29 49
ATOM$BLUE        STATIC     ATOMS    COLORGROUP SYSTEM
12 56 57 58 59 60 61 62 63 64 65 66 67
ATOM$RED        STATIC     ATOMS    COLORGROUP SYSTEM
2 29 49
