#       Name:                AV-unprocessed.smi:3187
#       Creating user name   scv26
#       Creation time:       Fri Mar 27 18:01:40 2020


#       File generated by GOLD software.
#

@<TRIPOS>MOLECULE
AV-unprocessed.smi:3187
    42    43     1
SMALL
NO_CHARGES


@<TRIPOS>ATOM
      1 ****        -0.3487   1.4825   2.1785 C.3            1 S1                 0.0000
      2 ****        -1.4315   1.7410   1.1437 C.2            1 S1                 0.0000
      3 ****        -2.6056   2.2784   1.5267 C.2            1 S1                 0.0000
      4 ****        -3.7242   2.6474   0.5799 C.3            1 S1                 0.0000
      5 ****        -3.2037   2.8068  -0.8505 C.3            1 S1                 0.0000
      6 ****        -2.3431   1.6047  -1.2726 C.3            1 S1                 0.0000
      7 ****        -1.9287   1.7666  -2.7482 C.3            1 S1                 0.0000
      8 ****        -1.1206   1.3920  -0.3268 C.3            1 S1                 0.0000
      9 ****        -0.5555  -0.0434  -0.4973 C.3            1 S1                 0.0000
     10 ****         0.8478  -0.1656  -0.0511 N.4            1 S1                 1.0000
     11 ****         1.3909  -1.5349  -0.1330 C.3            1 S1                 0.0000
     12 ****         2.8386  -1.5827   0.3733 C.3            1 S1                 0.0000
     13 ****         3.3797  -2.9250   0.3083 N.pl3          1 S1                 0.0000
     14 ****         3.3132  -3.9036   1.2915 C.2            1 S1                 0.0000
     15 ****         3.9556  -5.0118   0.7869 C.2            1 S1                 0.0000
     16 ****         4.4200  -4.7394  -0.4978 N.2            1 S1                 0.0000
     17 ****         4.0434  -3.4856  -0.7121 C.2            1 S1                 0.0000
     18 ****         0.5960   1.9250   1.8619 H              1 S1                 0.0000
     19 ****        -0.2072   0.4135   2.3357 H              1 S1                 0.0000
     20 ****        -0.6103   1.9195   3.1430 H              1 S1                 0.0000
     21 ****        -2.7884   2.4864   2.5712 H              1 S1                 0.0000
     22 ****        -4.4942   1.8771   0.6304 H              1 S1                 0.0000
     23 ****        -4.1807   3.5805   0.9115 H              1 S1                 0.0000
     24 ****        -4.0484   2.9309  -1.5294 H              1 S1                 0.0000
     25 ****        -2.6133   3.7216  -0.9231 H              1 S1                 0.0000
     26 ****        -2.9811   0.7219  -1.2035 H              1 S1                 0.0000
     27 ****        -1.2682   2.6239  -2.8814 H              1 S1                 0.0000
     28 ****        -2.8014   1.9251  -3.3825 H              1 S1                 0.0000
     29 ****        -1.4144   0.8892  -3.1368 H              1 S1                 0.0000
     30 ****        -0.3500   2.1005  -0.6350 H              1 S1                 0.0000
     31 ****        -1.1790  -0.7514   0.0509 H              1 S1                 0.0000
     32 ****        -0.5835  -0.3571  -1.5395 H              1 S1                 0.0000
     33 ****         1.4198   0.4446  -0.6174 H              1 S1                 0.0000
     34 ****         0.7663  -2.2038   0.4610 H              1 S1                 0.0000
     35 ****         1.3426  -1.8798  -1.1670 H              1 S1                 0.0000
     36 ****         3.4744  -0.9222  -0.2182 H              1 S1                 0.0000
     37 ****         2.8940  -1.2372   1.4065 H              1 S1                 0.0000
     38 ****         2.8287  -3.7371   2.2425 H              1 S1                 0.0000
     39 ****         4.1169  -5.9765   1.2449 H              1 S1                 0.0000
     40 ****         4.2537  -2.9640  -1.6344 H              1 S1                 0.0000
     41 ****         0.9016   0.1417   0.9097 H              1 S1                 0.0000
     42 ****         4.9204  -5.3471  -1.1145 LP             1 S1                 0.0000
@<TRIPOS>BOND
    1    1    2 1     
    2    1   18 1     
    3    1   19 1     
    4    1   20 1     
    5    2    8 1     
    6    2    3 2     
    7    3    4 1     
    8    3   21 1     
    9    4    5 1     
   10    4   22 1     
   11    4   23 1     
   12    5    6 1     
   13    5   24 1     
   14    5   25 1     
   15    6    7 1     
   16    6    8 1     
   17    6   26 1     
   18    7   27 1     
   19    7   28 1     
   20    7   29 1     
   21    8    9 1     
   22    8   30 1     
   23    9   10 1     
   24    9   31 1     
   25    9   32 1     
   26   10   11 1     
   27   10   33 1     
   28   10   41 1     
   29   11   12 1     
   30   11   34 1     
   31   11   35 1     
   32   12   13 1     
   33   12   36 1     
   34   12   37 1     
   35   13   17 1     
   36   13   14 1     
   37   14   15 2     
   38   14   38 1     
   39   15   16 1     
   40   15   39 1     
   41   16   17 2     
   42   17   40 1     
   43   16   42 1     
@<TRIPOS>SUBSTRUCTURE
      1 S1             1
@<TRIPOS>SET
LONE_PAIRS      STATIC     ATOMS    <user>   **** ""
1 42
DONOR_HYDROGENS      STATIC     ATOMS    <user>   **** ""
2 33 41
ATOM$BLUE        STATIC     ATOMS    COLORGROUP SYSTEM
1 42
ATOM$RED        STATIC     ATOMS    COLORGROUP SYSTEM
2 33 41
