#       Name:                AV-unprocessed.smi:2069
#       Creating user name   scv26
#       Creation time:       Fri Mar 27 11:13:28 2020


#       File generated by GOLD software.
#

@<TRIPOS>MOLECULE
AV-unprocessed.smi:2069
    45    46     1
SMALL
NO_CHARGES


@<TRIPOS>ATOM
      1 ****        -6.6406   4.3604   1.2076 C.3            1 S1                 0.0000
      2 ****        -5.6599   3.4484   0.5541 C.2            1 S1                 0.0000
      3 ****        -5.4011   3.4866  -0.7552 N.2            1 S1                 0.0000
      4 ****        -4.4528   2.5453  -1.1280 N.2            1 S1                 0.0000
      5 ****        -4.0012   1.8164  -0.0975 C.2            1 S1                 0.0000
      6 ****        -3.0826   0.8484  -0.2505 N.pl3          1 S1                -1.0000
      7 ****        -1.7860   1.0918   0.0483 C.2            1 S1                 0.0000
      8 ****        -1.3218   2.1465   0.4875 O.2            1 S1                 0.0000
      9 ****        -0.9769   0.0478  -0.1747 N.am           1 S1                 0.0000
     10 ****         0.4651   0.0308   0.0496 C.3            1 S1                 0.0000
     11 ****         1.1412  -1.2294  -0.5572 C.3            1 S1                 0.0000
     12 ****         0.8270  -1.2801  -2.0744 C.3            1 S1                 0.0000
     13 ****         2.5931  -1.3152  -0.2719 N.3            1 S1                 0.0000
     14 ****         2.8924  -1.2950   1.1647 C.3            1 S1                 0.0000
     15 ****         4.3966  -1.4179   1.4642 C.3            1 S1                 0.0000
     16 ****         4.9094  -2.6045   0.8745 O.3            1 S1                 0.0000
     17 ****         4.7104  -2.6286  -0.5320 C.3            1 S1                 0.0000
     18 ****         3.2081  -2.5183  -0.8445 C.3            1 S1                 0.0000
     19 ****        -4.7488   2.2393   1.4431 S.3            1 S1                 0.0000
     20 ****        -6.2109   5.3570   1.3089 H              1 S1                 0.0000
     21 ****        -6.9022   3.9888   2.1985 H              1 S1                 0.0000
     22 ****        -7.5497   4.4278   0.6094 H              1 S1                 0.0000
     23 ****        -1.3947  -0.7976  -0.5348 H              1 S1                 0.0000
     24 ****         0.9169   0.9316  -0.3692 H              1 S1                 0.0000
     25 ****         0.5938   0.0777   1.1296 H              1 S1                 0.0000
     26 ****         0.6590  -2.0966  -0.1032 H              1 S1                 0.0000
     27 ****        -0.2351  -1.1608  -2.2857 H              1 S1                 0.0000
     28 ****         1.0983  -2.2352  -2.5216 H              1 S1                 0.0000
     29 ****         1.3560  -0.4924  -2.6117 H              1 S1                 0.0000
     30 ****         2.5578  -0.3630   1.6156 H              1 S1                 0.0000
     31 ****         2.3559  -2.1021   1.6659 H              1 S1                 0.0000
     32 ****         4.9380  -0.5499   1.0848 H              1 S1                 0.0000
     33 ****         4.5661  -1.4548   2.5404 H              1 S1                 0.0000
     34 ****         5.2638  -1.8133  -1.0008 H              1 S1                 0.0000
     35 ****         5.1127  -3.5595  -0.9317 H              1 S1                 0.0000
     36 ****         2.6952  -3.4077  -0.4748 H              1 S1                 0.0000
     37 ****         3.1078  -2.5224  -1.9282 H              1 S1                 0.0000
     38 ****        -5.8398   4.1199  -1.3927 LP             1 S1                 0.0000
     39 ****        -4.1382   2.4229  -2.0693 LP             1 S1                 0.0000
     40 ****        -3.3575  -0.0528  -0.5855 LP             1 S1                 0.0000
     41 ****        -1.9246   2.9265   0.6553 LP             1 S1                 0.0000
     42 ****        -0.3426   2.2217   0.6759 LP             1 S1                 0.0000
     43 ****         2.9812  -0.5008  -0.7032 LP             1 S1                 0.0000
     44 ****         4.4461  -3.3927   1.2797 LP             1 S1                 0.0000
     45 ****         5.8899  -2.6610   1.0629 LP             1 S1                 0.0000
@<TRIPOS>BOND
    1    1    2 1     
    2    1   20 1     
    3    1   21 1     
    4    1   22 1     
    5    2   19 1     
    6    2    3 2     
    7    3    4 1     
    8    4    5 2     
    9    5    6 1     
   10    5   19 1     
   11    6    7 1     
   12    7    8 2     
   13    7    9 am    
   14    9   10 1     
   15    9   23 1     
   16   10   11 1     
   17   10   24 1     
   18   10   25 1     
   19   11   12 1     
   20   11   13 1     
   21   11   26 1     
   22   12   27 1     
   23   12   28 1     
   24   12   29 1     
   25   13   18 1     
   26   13   14 1     
   27   14   15 1     
   28   14   30 1     
   29   14   31 1     
   30   15   16 1     
   31   15   32 1     
   32   15   33 1     
   33   16   17 1     
   34   17   18 1     
   35   17   34 1     
   36   17   35 1     
   37   18   36 1     
   38   18   37 1     
   39    3   38 1     
   40    4   39 1     
   41    6   40 1     
   42    8   41 1     
   43    8   42 1     
   44   13   43 1     
   45   16   44 1     
   46   16   45 1     
@<TRIPOS>SUBSTRUCTURE
      1 S1             1
@<TRIPOS>SET
LONE_PAIRS      STATIC     ATOMS    <user>   **** ""
8 38 39 40 41 42 43 44 45
DONOR_HYDROGENS      STATIC     ATOMS    <user>   **** ""
1 23
ATOM$BLUE        STATIC     ATOMS    COLORGROUP SYSTEM
8 38 39 40 41 42 43 44 45
ATOM$RED        STATIC     ATOMS    COLORGROUP SYSTEM
1 23
