AV-unprocessed.smi:2881|AV-procd|sdf|11058|dock9
  -GOLD-   2272015533D 1   1.00000     0.00000
 Structure written by MMmdl.
 40 42  0  0  0  0  0  0  0  0  1 V2000
  151.1161  144.7827  159.2517 C   0  0  0  0  0  0  0  0  0  0  0  0
  151.1255  143.5098  158.4749 C   0  0  0  0  0  0  0  0  0  0  0  0
  151.7146  142.3038  158.7296 C   0  0  0  0  0  0  0  0  0  0  0  0
  151.3470  141.4883  157.6181 C   0  0  0  0  0  0  0  0  0  0  0  0
  151.6926  140.0416  157.3769 C   0  0  0  0  0  0  0  0  0  0  0  0
  151.1909  139.6044  155.9992 C   0  0  0  0  0  0  0  0  0  0  0  0
  151.9934  139.3091  155.1144 O   0  0  0  0  0  0  0  0  0  0  0  0
  149.8594  139.5902  155.8282 N   0  0  0  0  0  0  0  0  0  0  0  0
  149.1615  139.3296  154.5705 C   0  0  1  0  0  0  0  0  0  0  0  0
  147.9326  138.4303  154.8242 C   0  0  2  0  0  0  0  0  0  0  0  0
  147.4296  137.8725  153.4804 C   0  0  0  0  0  0  0  0  0  0  0  0
  146.8012  139.1135  152.8180 C   0  0  0  0  0  0  0  0  0  0  0  0
  147.0306  140.2174  153.8694 C   0  0  1  0  0  0  0  0  0  0  0  0
  146.8451  139.4414  155.1671 C   0  0  0  0  0  0  0  0  0  0  0  0
  148.5331  140.5918  153.9029 C   0  0  1  0  0  0  0  0  0  0  0  0
  148.8108  141.9444  154.6010 C   0  0  0  0  0  0  0  0  0  0  0  0
  148.1570  142.9957  153.9221 O   0  0  0  0  0  0  0  0  0  0  0  0
  150.5980  142.1414  156.7402 N   0  0  0  0  0  0  0  0  0  0  0  0
  150.4683  143.3698  157.2742 N   0  0  0  0  0  0  0  0  0  0  0  0
  149.9365  144.0942  156.8130 H   0  0  0  0  0  0  0  0  0  0  0  0
  150.6297  144.6400  160.2168 H   0  0  0  0  0  0  0  0  0  0  0  0
  150.5814  145.5691  158.7182 H   0  0  0  0  0  0  0  0  0  0  0  0
  152.1329  145.1308  159.4340 H   0  0  0  0  0  0  0  0  0  0  0  0
  152.3125  142.0376  159.5888 H   0  0  0  0  0  0  0  0  0  0  0  0
  152.7702  139.8848  157.4424 H   0  0  0  0  0  0  0  0  0  0  0  0
  151.2380  139.4074  158.1387 H   0  0  0  0  0  0  0  0  0  0  0  0
  149.2830  139.8403  156.6188 H   0  0  0  0  0  0  0  0  0  0  0  0
  149.8450  138.8320  153.8795 H   0  0  0  0  0  0  0  0  0  0  0  0
  148.0958  137.6560  155.5751 H   0  0  0  0  0  0  0  0  0  0  0  0
  148.2314  137.4396  152.8815 H   0  0  0  0  0  0  0  0  0  0  0  0
  146.6761  137.1000  153.6383 H   0  0  0  0  0  0  0  0  0  0  0  0
  147.2589  139.3510  151.8572 H   0  0  0  0  0  0  0  0  0  0  0  0
  145.7353  138.9563  152.6482 H   0  0  0  0  0  0  0  0  0  0  0  0
  146.3601  141.0684  153.7465 H   0  0  0  0  0  0  0  0  0  0  0  0
  145.8546  138.9940  155.2659 H   0  0  0  0  0  0  0  0  0  0  0  0
  147.0606  140.0269  156.0620 H   0  0  0  0  0  0  0  0  0  0  0  0
  148.9107  140.6728  152.8822 H   0  0  0  0  0  0  0  0  0  0  0  0
  148.4853  141.9358  155.6414 H   0  0  0  0  0  0  0  0  0  0  0  0
  149.8782  142.1662  154.5965 H   0  0  0  0  0  0  0  0  0  0  0  0
  148.4566  143.8167  154.2817 H   0  0  0  0  0  0  0  0  0  0  0  0
  1  2  1  0  0  0  0
  1 21  1  0  0  0  0
  1 22  1  0  0  0  0
  1 23  1  0  0  0  0
  2 19  1  0  0  0  0
  2  3  2  0  0  0  0
  3  4  1  0  0  0  0
  3 24  1  0  0  0  0
  4  5  1  0  0  0  0
  4 18  2  0  0  0  0
  5  6  1  0  0  0  0
  5 25  1  0  0  0  0
  5 26  1  0  0  0  0
  6  7  2  0  0  0  0
  6  8  1  0  0  0  0
  8  9  1  0  0  0  0
  8 27  1  0  0  0  0
  9 15  1  0  0  0  0
  9 10  1  0  0  0  0
  9 28  1  0  0  0  0
 10 14  1  0  0  0  0
 10 11  1  0  0  0  0
 10 29  1  0  0  0  0
 11 12  1  0  0  0  0
 11 30  1  0  0  0  0
 11 31  1  0  0  0  0
 12 13  1  0  0  0  0
 12 32  1  0  0  0  0
 12 33  1  0  0  0  0
 13 14  1  0  0  0  0
 13 15  1  0  0  0  0
 13 34  1  0  0  0  0
 14 35  1  0  0  0  0
 14 36  1  0  0  0  0
 15 16  1  0  0  0  0
 15 37  1  0  0  0  0
 16 17  1  0  0  0  0
 16 38  1  0  0  0  0
 16 39  1  0  0  0  0
 17 40  1  0  0  0  0
 18 19  1  0  0  0  0
 19 20  1  0  0  0  0
M  END
> <s_m_source_file>
AV-unprocessed.smi

> <i_m_source_file_index>
2881

> <i_lp_mmshare_version>
43012

> <i_f3d_flags>
0

> <s_epik_input>
W0NIM11jMVtjSF1jKG5bbkhdMSlbQ0gyXUMoPU8pW05IXVtDQEhdKFtDQEBIXTIzKVtDQEhdKFtDSDJdW09IXSlbQ0BASF0oW0NIMl0zKVtDSDJdW0NIMl0y

> <s_epik_cmdline>
J2VwaWtfcHl0aG9uJywgJy1waCcsICc3LjAnLCAnLXRuJywgJzgnLCAnLW1hJywgJzIwMCcsICctbWV0YWxfYmluZGluZycsICctaW1hZScsICc8aW5maWxlLm1hZT4nLCAnLW9tYWUnLCAnPG91dGZpbGUubWFlPic=

> <r_lp_tautomer_probability>
0.5

> <r_epik_Ionization_Penalty>
9.4349e-05

> <r_epik_Ionization_Penalty_Charging>
0

> <r_epik_Ionization_Penalty_Neutral>
9.4349e-05

> <r_epik_State_Penalty>
0.41068

> <r_epik_Charging_Adjusted_Penalty>
0.41068

> <i_epik_Tot_Q>
0

> <i_epik_Tot_abs_Q>
0

> <r_epik_Metal_State_Penalty>
0.4107

> <b_epik_Metal_Only>
0

> <s_lp_Force_Field>
OPLS_2005

> <r_lp_Energy>
47.5678

> <b_lp_Chiralities_Consistent>
1

> <s_lp_Variant>
AV-unprocessed.smi:2881-4

> <Gold.Version>
5.8.1

> <Gold.Id.Protein>
6NUR|6NUR_protein|mol2

> <Gold.PLP.Fitness>
37.1410

> <Gold.PLP.PLP>
-28.9489

> <Gold.PLP.part.hbond>
-5.0000

> <Gold.PLP.part.metal>
0.0000

> <Gold.PLP.part.buried>
-0.7091

> <Gold.PLP.part.nonpolar>
-22.5820

> <Gold.PLP.part.repulsive>
0.1987

> <Gold.PLP.ligand.clash>
0.0000

> <Gold.PLP.ligand.torsion>
0.2821

> <Gold.PLP.Chemscore.Hbond>
2.9120

> <Gold.PLP.Chemscore.CHOScore>
0.0000

> <Gold.PLP.Chemscore.Metal>
0.0000

> <Gold.Chemscore.Hbonds>
donor molecule, donor type, donor heavy atom, donor atom, acceptor molecule, acceptor atom, score
      L1  H    17    40       P1  8028  0.99
      L1  H    19    20       P1  8028  1.00
      P1  H  7989  7998       L1     7  0.41

> <Gold.PLP.Chemscore.Internal.Correction>
0.0202

> <Gold.Rescore>
     Score         DG    S(hbond)    S(metal)    S(lipo)     H(rot)  DE(clash)    DE(int)     intcor
     12.80     -16.67       2.37        0.00      77.83       2.28       0.91       2.96       ----

> <Gold.Chemscore.Fitness>
12.7981

> <Gold.Chemscore.DG>
-16.6748

> <Gold.Chemscore.ZeroCoef>
-5.4800

> <Gold.Chemscore.Hbond>
2.3694

> <Gold.Chemscore.Metal>
0.0000

> <Gold.Chemscore.Lipo>
77.8291

> <Gold.Chemscore.Internal_Hbond>
0.0000

> <Gold.Chemscore.DEClash>
0.9144

> <Gold.Chemscore.DEInternal>
2.9622

> <Gold.Chemscore.Rot>
2.2755

> <Gold.Chemscore.Internal.Correction>
   9.000000E+99

> <Gold.Chemscore.Hbonds>
donor molecule, donor type, donor heavy atom, donor atom, acceptor molecule, acceptor atom, score
      L1  H    17    40       P1  8028  0.91
      L1  H    19    20       P1  8028  0.95
      P1  H  7989  7998       L1     7  0.19

> <Gold.Chemscore.Hbond.Weighted>
-7.9140

> <Gold.Chemscore.Metal.Weighted>
-0.0000

> <Gold.Chemscore.Lipo.Weighted>
-9.1060

> <Gold.Chemscore.Internal_Hbond.Weighted>
0.0000

> <Gold.Chemscore.DEClash.Weighted>
0.9144

> <Gold.Chemscore.DEInternal.Weighted>
2.9622

> <Gold.Chemscore.Rot.Weighted>
5.8252

> <Gold.Chemscore.Internal.Correction.Weighted>
   9.000000E+99

> <Gold.Protein.RotatedTorsions>
[ 6907 6896 6895 6894 ] final   35.04 input  -60.11 | X-H torsion
[ 7974 7965 7964 7962 ] final  171.13 input  175.53 | X-H torsion
[ 8008 7997 7996 7995 ] final -128.77 input   59.86 | X-H torsion
[ 10167 10162 10161 10158 ] final  132.69 input  -65.29 | X-H torsion
[ 10718 10713 10712 10709 ] final   95.36 input   66.30 | X-H torsion
[ 10763 10752 10751 10750 ] final  105.02 input  -60.55 | X-H torsion
[ 11005 11000 10999 10996 ] final  129.27 input  -57.11 | X-H torsion

> <Gold.Protein.ActiveResidues>
 VAL166  LYS551  ARG553  GLY616  TRP617  ASP618  TYR619  PRO620  LYS621  CYS622 
 ASP623  PHE694  ASN695  SER759  ASP760  ASP761  ALA762  ILE779  LEU786  VAL792 
 PHE793  MET794  SER795  GLU796  ALA797  LYS798  CYS799  TRP800  GLU811  SER814 

> <Gold.Protein.RotatedAtoms>
  152.1106  134.9277  160.0566 H   0  0  0  0  0  0  0  0  0  0  0  0  # atno 6907 bound_to 6896
  152.0456  133.3991  159.4363 H   0  0  0  0  0  0  0  0  0  0  0  0  # atno 6908 bound_to 6896
  150.6843  134.3287  159.4861 H   0  0  0  0  0  0  0  0  0  0  0  0  # atno 6909 bound_to 6896
  144.7303  139.9305  143.6424 H   0  0  0  0  0  0  0  0  0  0  0  0  # atno 7974 bound_to 7965
  155.2681  140.0439  157.3004 H   0  0  0  0  0  0  0  0  0  0  0  0  # atno 8008 bound_to 7997
  154.5670  140.2362  155.8218 H   0  0  0  0  0  0  0  0  0  0  0  0  # atno 8009 bound_to 7997
  156.2093  140.3003  155.9703 H   0  0  0  0  0  0  0  0  0  0  0  0  # atno 8010 bound_to 7997
  139.5329  144.6650  151.4887 H   0  0  0  0  0  0  0  0  0  0  0  0  # atno 10167 bound_to 10162
  157.6939  131.0543  150.4326 H   0  0  0  0  0  0  0  0  0  0  0  0  # atno 10718 bound_to 10713
  153.3737  135.3924  155.1807 H   0  0  0  0  0  0  0  0  0  0  0  0  # atno 10763 bound_to 10752
  154.8698  135.3709  154.4945 H   0  0  0  0  0  0  0  0  0  0  0  0  # atno 10764 bound_to 10752
  153.5415  135.7084  153.5695 H   0  0  0  0  0  0  0  0  0  0  0  0  # atno 10765 bound_to 10752
  139.9606  134.9603  156.9124 H   0  0  0  0  0  0  0  0  0  0  0  0  # atno 11005 bound_to 11000
  146.0861  139.3850  143.0434 LP  0  0  0  0  0  0  0  0  0  0  0  0  # atno 17320 bound_to 7965
  145.7775  140.9870  143.1117 LP  0  0  0  0  0  0  0  0  0  0  0  0  # atno 17321 bound_to 7965
  140.6518  143.8681  150.6793 LP  0  0  0  0  0  0  0  0  0  0  0  0  # atno 17342 bound_to 10162
  140.2048  143.3930  152.1764 LP  0  0  0  0  0  0  0  0  0  0  0  0  # atno 17343 bound_to 10162
  156.4692  130.4049  149.6529 LP  0  0  0  0  0  0  0  0  0  0  0  0  # atno 17370 bound_to 10713
  156.3615  130.7484  151.2457 LP  0  0  0  0  0  0  0  0  0  0  0  0  # atno 17371 bound_to 10713
  140.5509  134.0628  155.7369 LP  0  0  0  0  0  0  0  0  0  0  0  0  # atno 17394 bound_to 11000
  141.1283  133.9346  157.2589 LP  0  0  0  0  0  0  0  0  0  0  0  0  # atno 17395 bound_to 11000

$$$$
