AV-unprocessed.smi:1947|AV-procd|sdf|7866|dock6
  -GOLD-   2272010 13D 1   1.00000     0.00000
 Structure written by MMmdl.
 39 40  0  0  0  0  0  0  0  0  1 V2000
  147.9084  138.3927  154.5605 C   0  0  0  0  0  0  0  0  0  0  0  0
  149.3811  138.8298  154.5080 C   0  0  1  0  0  0  0  0  0  0  0  0
  149.7303  139.8059  155.6489 C   0  0  0  0  0  0  0  0  0  0  0  0
  151.1955  140.2632  155.5689 C   0  0  0  0  0  0  0  0  0  0  0  0
  152.1548  139.0633  155.5689 C   0  0  0  0  0  0  0  0  0  0  0  0
  151.8164  138.0767  154.4386 C   0  0  0  0  0  0  0  0  0  0  0  0
  150.3457  137.6229  154.4933 C   0  0  1  0  0  0  0  0  0  0  0  0
  150.1541  136.8623  155.6799 O   0  0  0  0  0  0  0  0  0  0  0  0
  150.6430  135.5326  155.6062 C   0  0  0  0  0  0  0  0  0  0  0  0
  149.4489  134.5717  155.5086 C   0  0  0  0  0  0  0  0  0  0  0  0
  148.6178  134.8651  154.3456 N   0  0  0  0  0  0  0  0  0  0  0  0
  147.5170  134.1874  153.9916 C   0  0  0  0  0  0  0  0  0  0  0  0
  147.0504  133.2594  154.6518 O   0  0  0  0  0  0  0  0  0  0  0  0
  147.0145  134.6492  152.8355 N   0  0  0  0  0  0  0  0  0  0  0  0
  145.8972  134.1601  152.1140 C   0  0  0  0  0  0  0  0  0  0  0  0
  145.4158  132.9552  152.4418 N   0  0  0  0  0  0  0  0  0  0  0  0
  144.3228  132.6010  151.6602 N   0  0  0  0  0  0  0  0  0  0  0  0
  144.0213  133.5546  150.7739 C   0  0  0  0  0  0  0  0  0  0  0  0
  145.0419  134.9817  150.8051 S   0  0  0  0  0  0  0  0  0  0  0  0
  147.6744  137.8886  155.4981 H   0  0  0  0  0  0  0  0  0  0  0  0
  147.6727  137.7066  153.7466 H   0  0  0  0  0  0  0  0  0  0  0  0
  147.2415  139.2506  154.4724 H   0  0  0  0  0  0  0  0  0  0  0  0
  149.5188  139.3648  153.5672 H   0  0  0  0  0  0  0  0  0  0  0  0
  149.0743  140.6760  155.6090 H   0  0  0  0  0  0  0  0  0  0  0  0
  149.5494  139.3294  156.6135 H   0  0  0  0  0  0  0  0  0  0  0  0
  151.3461  140.8513  154.6627 H   0  0  0  0  0  0  0  0  0  0  0  0
  151.4251  140.9223  156.4067 H   0  0  0  0  0  0  0  0  0  0  0  0
  153.1831  139.4100  155.4634 H   0  0  0  0  0  0  0  0  0  0  0  0
  152.0996  138.5522  156.5308 H   0  0  0  0  0  0  0  0  0  0  0  0
  152.0103  138.5531  153.4767 H   0  0  0  0  0  0  0  0  0  0  0  0
  152.4768  137.2105  154.4899 H   0  0  0  0  0  0  0  0  0  0  0  0
  150.1377  137.0233  153.6046 H   0  0  0  0  0  0  0  0  0  0  0  0
  151.2941  135.4146  154.7384 H   0  0  0  0  0  0  0  0  0  0  0  0
  151.2369  135.3086  156.4932 H   0  0  0  0  0  0  0  0  0  0  0  0
  149.7960  133.5383  155.4674 H   0  0  0  0  0  0  0  0  0  0  0  0
  148.8305  134.6586  156.4025 H   0  0  0  0  0  0  0  0  0  0  0  0
  148.9311  135.6125  153.7438 H   0  0  0  0  0  0  0  0  0  0  0  0
  147.4986  135.4266  152.4109 H   0  0  0  0  0  0  0  0  0  0  0  0
  143.1912  133.4167  150.0971 H   0  0  0  0  0  0  0  0  0  0  0  0
  1  2  1  0  0  0  0
  1 20  1  0  0  0  0
  1 21  1  0  0  0  0
  1 22  1  0  0  0  0
  2  7  1  0  0  0  0
  2  3  1  0  0  0  0
  2 23  1  0  0  0  0
  3  4  1  0  0  0  0
  3 24  1  0  0  0  0
  3 25  1  0  0  0  0
  4  5  1  0  0  0  0
  4 26  1  0  0  0  0
  4 27  1  0  0  0  0
  5  6  1  0  0  0  0
  5 28  1  0  0  0  0
  5 29  1  0  0  0  0
  6  7  1  0  0  0  0
  6 30  1  0  0  0  0
  6 31  1  0  0  0  0
  7  8  1  0  0  0  0
  7 32  1  0  0  0  0
  8  9  1  0  0  0  0
  9 10  1  0  0  0  0
  9 33  1  0  0  0  0
  9 34  1  0  0  0  0
 10 11  1  0  0  0  0
 10 35  1  0  0  0  0
 10 36  1  0  0  0  0
 11 12  1  0  0  0  0
 11 37  1  0  0  0  0
 12 13  2  0  0  0  0
 12 14  1  0  0  0  0
 14 15  1  0  0  0  0
 14 38  1  0  0  0  0
 15 19  1  0  0  0  0
 15 16  2  0  0  0  0
 16 17  1  0  0  0  0
 17 18  2  0  0  0  0
 18 19  1  0  0  0  0
 18 39  1  0  0  0  0
M  END
> <s_m_source_file>
AV-unprocessed.smi

> <i_m_source_file_index>
1947

> <i_lp_mmshare_version>
43012

> <i_f3d_flags>
0

> <s_epik_input>
W0NIM11bQ0BASF0xW0NIMl1bQ0gyXVtDSDJdW0NIMl1bQ0BIXTFPW0NIMl1bQ0gyXVtOSF1DKD1PKVtOSF1jMm5uW2NIXXMy

> <s_epik_cmdline>
J2VwaWtfcHl0aG9uJywgJy1waCcsICc3LjAnLCAnLXRuJywgJzgnLCAnLW1hJywgJzIwMCcsICctbWV0YWxfYmluZGluZycsICctaW1hZScsICc8aW5maWxlLm1hZT4nLCAnLW9tYWUnLCAnPG91dGZpbGUubWFlPic=

> <r_lp_tautomer_probability>
1

> <r_epik_Ionization_Penalty>
0.00220897

> <r_epik_Ionization_Penalty_Charging>
0

> <r_epik_Ionization_Penalty_Neutral>
0.00220897

> <r_epik_State_Penalty>
-0

> <r_epik_Charging_Adjusted_Penalty>
0

> <i_epik_Tot_Q>
0

> <i_epik_Tot_abs_Q>
0

> <r_epik_Metal_State_Penalty>
0.345002

> <b_epik_Metal_Only>
0

> <s_lp_Force_Field>
OPLS_2005

> <r_lp_Energy>
8.88806

> <b_lp_Chiralities_Consistent>
1

> <s_lp_Variant>
AV-unprocessed.smi:1947-2

> <Gold.Version>
5.8.1

> <Gold.Id.Protein>
6NUR|6NUR_protein|mol2

> <Gold.PLP.Fitness>
36.6775

> <Gold.PLP.PLP>
-29.2900

> <Gold.PLP.part.hbond>
-2.0000

> <Gold.PLP.part.metal>
0.0000

> <Gold.PLP.part.buried>
-3.2918

> <Gold.PLP.part.nonpolar>
-24.8914

> <Gold.PLP.part.repulsive>
0.3651

> <Gold.PLP.ligand.clash>
0.0000

> <Gold.PLP.ligand.torsion>
0.5431

> <Gold.PLP.Chemscore.Hbond>
1.8160

> <Gold.PLP.Chemscore.CHOScore>
1.0000

> <Gold.PLP.Chemscore.Metal>
0.0000

> <Gold.Chemscore.Hbonds>
donor molecule, donor type, donor heavy atom, donor atom, acceptor molecule, acceptor atom, score
      L1  H    11    37       P1  7948  0.86
      L1  H    14    38       P1  7948  1.00
      L1  C    18    39       P1 10186  1.00

> <Gold.PLP.Chemscore.Internal.Correction>
0.0256

> <Gold.Rescore>
     Score         DG    S(hbond)    S(metal)    S(lipo)     H(rot)  DE(clash)    DE(int)     intcor
     12.01     -14.09       1.73        0.00      66.53       1.94       0.05       2.03       ----

> <Gold.Chemscore.Fitness>
12.0129

> <Gold.Chemscore.DG>
-14.0879

> <Gold.Chemscore.ZeroCoef>
-5.4800

> <Gold.Chemscore.Hbond>
1.7324

> <Gold.Chemscore.Metal>
0.0000

> <Gold.Chemscore.Lipo>
66.5318

> <Gold.Chemscore.Internal_Hbond>
0.0000

> <Gold.Chemscore.DEClash>
0.0462

> <Gold.Chemscore.DEInternal>
2.0289

> <Gold.Chemscore.Rot>
1.9385

> <Gold.Chemscore.Internal.Correction>
   9.000000E+99

> <Gold.Chemscore.Hbonds>
donor molecule, donor type, donor heavy atom, donor atom, acceptor molecule, acceptor atom, score
      L1  H    11    37       P1  7948  0.74
      L1  H    14    38       P1  7948  0.96

> <Gold.Chemscore.Hbond.Weighted>
-5.7863

> <Gold.Chemscore.Metal.Weighted>
-0.0000

> <Gold.Chemscore.Lipo.Weighted>
-7.7842

> <Gold.Chemscore.Internal_Hbond.Weighted>
0.0000

> <Gold.Chemscore.DEClash.Weighted>
0.0462

> <Gold.Chemscore.DEInternal.Weighted>
2.0289

> <Gold.Chemscore.Rot.Weighted>
4.9625

> <Gold.Chemscore.Internal.Correction.Weighted>
   9.000000E+99

> <Gold.Protein.RotatedTorsions>
[ 6907 6896 6895 6894 ] final   90.66 input  -60.11 | X-H torsion
[ 7974 7965 7964 7962 ] final  -70.45 input  175.53 | X-H torsion
[ 8008 7997 7996 7995 ] final  -86.71 input   59.86 | X-H torsion
[ 10167 10162 10161 10158 ] final   65.70 input  -65.29 | X-H torsion
[ 10718 10713 10712 10709 ] final  -63.26 input   66.30 | X-H torsion
[ 10763 10752 10751 10750 ] final -166.99 input  -60.55 | X-H torsion
[ 11005 11000 10999 10996 ] final    0.25 input  -57.11 | X-H torsion

> <Gold.Protein.ActiveResidues>
 VAL166  LYS551  ARG553  GLY616  TRP617  ASP618  TYR619  PRO620  LYS621  CYS622 
 ASP623  PHE694  ASN695  SER759  ASP760  ASP761  ALA762  ILE779  LEU786  VAL792 
 PHE793  MET794  SER795  GLU796  ALA797  LYS798  CYS799  TRP800  GLU811  SER814 

> <Gold.Protein.RotatedAtoms>
  152.5446  134.1776  159.8622 H   0  0  0  0  0  0  0  0  0  0  0  0  # atno 6907 bound_to 6896
  151.1781  133.4735  159.2601 H   0  0  0  0  0  0  0  0  0  0  0  0  # atno 6908 bound_to 6896
  151.1206  135.0088  159.8592 H   0  0  0  0  0  0  0  0  0  0  0  0  # atno 6909 bound_to 6896
  145.6908  140.9153  143.0782 H   0  0  0  0  0  0  0  0  0  0  0  0  # atno 7974 bound_to 7965
  154.6549  140.0575  156.9998 H   0  0  0  0  0  0  0  0  0  0  0  0  # atno 8008 bound_to 7997
  155.1315  140.3257  155.4454 H   0  0  0  0  0  0  0  0  0  0  0  0  # atno 8009 bound_to 7997
  156.2593  140.1980  156.6434 H   0  0  0  0  0  0  0  0  0  0  0  0  # atno 8010 bound_to 7997
  140.1084  144.4840  150.6993 H   0  0  0  0  0  0  0  0  0  0  0  0  # atno 10167 bound_to 10162
  156.0802  130.4218  150.1252 H   0  0  0  0  0  0  0  0  0  0  0  0  # atno 10718 bound_to 10713
  154.6777  135.2949  154.9656 H   0  0  0  0  0  0  0  0  0  0  0  0  # atno 10763 bound_to 10752
  154.0661  135.6624  153.4822 H   0  0  0  0  0  0  0  0  0  0  0  0  # atno 10764 bound_to 10752
  153.0527  135.5164  154.7804 H   0  0  0  0  0  0  0  0  0  0  0  0  # atno 10765 bound_to 10752
  140.6287  133.9595  155.8263 H   0  0  0  0  0  0  0  0  0  0  0  0  # atno 11005 bound_to 11000
  144.6997  139.8819  143.7447 LP  0  0  0  0  0  0  0  0  0  0  0  0  # atno 17320 bound_to 7965
  146.0883  139.3872  143.0421 LP  0  0  0  0  0  0  0  0  0  0  0  0  # atno 17321 bound_to 7965
  140.6939  143.2392  151.5055 LP  0  0  0  0  0  0  0  0  0  0  0  0  # atno 17342 bound_to 10162
  139.5632  144.2105  152.1725 LP  0  0  0  0  0  0  0  0  0  0  0  0  # atno 17343 bound_to 10162
  156.9285  130.9706  151.3537 LP  0  0  0  0  0  0  0  0  0  0  0  0  # atno 17370 bound_to 10713
  157.5916  130.8447  149.8667 LP  0  0  0  0  0  0  0  0  0  0  0  0  # atno 17371 bound_to 10713
  141.0691  134.0232  157.3552 LP  0  0  0  0  0  0  0  0  0  0  0  0  # atno 17394 bound_to 11000
  139.9124  135.0192  156.7748 LP  0  0  0  0  0  0  0  0  0  0  0  0  # atno 17395 bound_to 11000

$$$$
