AV-unprocessed.smi:682|AV-procd|sdf|3326|dock5
  -GOLD-   22720 0293D 1   1.00000     0.00000
 Structure written by MMmdl.
 41 42  0  0  0  0  0  0  0  0  1 V2000
  148.9188  140.1104  154.1582 C   0  0  0  0  0  0  0  0  0  0  0  0
  150.2763  139.7865  154.4329 O   0  0  0  0  0  0  0  0  0  0  0  0
  150.7371  139.9563  155.7801 C   0  0  1  0  0  0  0  0  0  0  0  0
  150.9336  141.4458  156.0910 C   0  0  0  0  0  0  0  0  0  0  0  0
  149.9020  139.0900  156.7419 C   0  0  0  0  0  0  0  0  0  0  0  0
  150.8657  137.9291  156.4867 C   0  0  1  0  0  0  0  0  0  0  0  0
  150.3738  137.0578  155.4192 N   0  0  0  0  0  0  0  0  0  0  0  0
  150.3649  135.7195  155.4676 C   0  0  0  0  0  0  0  0  0  0  0  0
  150.7463  135.0705  156.4415 O   0  0  0  0  0  0  0  0  0  0  0  0
  149.9042  135.1955  154.3206 N   0  0  0  0  0  0  0  0  0  0  0  0
  149.7733  133.8221  153.9972 C   0  0  0  0  0  0  0  0  0  0  0  0
  148.9293  133.1989  153.0350 C   0  0  0  0  0  0  0  0  0  0  0  0
  149.0994  131.8850  153.0342 N   0  0  0  0  0  0  0  0  0  0  0  0
  150.0410  131.6511  153.9802 N   0  0  0  0  0  0  0  0  0  0  0  0
  150.4621  130.2907  154.2389 C   0  0  0  0  0  0  0  0  0  0  0  0
  150.4763  132.8135  154.5845 C   0  0  0  0  0  0  0  0  0  0  0  0
  151.9240  138.9678  156.0248 C   0  0  0  0  0  0  0  0  0  0  0  0
  152.8076  138.6242  154.8139 C   0  0  0  0  0  0  0  0  0  0  0  0
  152.9044  139.3655  157.1382 C   0  0  0  0  0  0  0  0  0  0  0  0
  148.6730  139.7784  153.1496 H   0  0  0  0  0  0  0  0  0  0  0  0
  148.7477  141.1862  154.1925 H   0  0  0  0  0  0  0  0  0  0  0  0
  148.2267  139.6235  154.8442 H   0  0  0  0  0  0  0  0  0  0  0  0
  151.3755  141.6006  157.0747 H   0  0  0  0  0  0  0  0  0  0  0  0
  149.9893  141.9895  156.0973 H   0  0  0  0  0  0  0  0  0  0  0  0
  151.5891  141.9198  155.3603 H   0  0  0  0  0  0  0  0  0  0  0  0
  149.9492  139.4469  157.7719 H   0  0  0  0  0  0  0  0  0  0  0  0
  148.8693  138.9013  156.4490 H   0  0  0  0  0  0  0  0  0  0  0  0
  151.1355  137.4003  157.4028 H   0  0  0  0  0  0  0  0  0  0  0  0
  150.0516  137.5094  154.5756 H   0  0  0  0  0  0  0  0  0  0  0  0
  149.6402  135.8474  153.5965 H   0  0  0  0  0  0  0  0  0  0  0  0
  148.2160  133.6347  152.3513 H   0  0  0  0  0  0  0  0  0  0  0  0
  151.1858  130.2711  155.0543 H   0  0  0  0  0  0  0  0  0  0  0  0
  150.9231  129.8707  153.3446 H   0  0  0  0  0  0  0  0  0  0  0  0
  149.5998  129.6836  154.5162 H   0  0  0  0  0  0  0  0  0  0  0  0
  151.2261  132.8199  155.3620 H   0  0  0  0  0  0  0  0  0  0  0  0
  153.4950  137.8089  155.0414 H   0  0  0  0  0  0  0  0  0  0  0  0
  153.4057  139.4810  154.5025 H   0  0  0  0  0  0  0  0  0  0  0  0
  152.2297  138.3127  153.9440 H   0  0  0  0  0  0  0  0  0  0  0  0
  153.5810  138.5462  157.3836 H   0  0  0  0  0  0  0  0  0  0  0  0
  152.3886  139.6338  158.0603 H   0  0  0  0  0  0  0  0  0  0  0  0
  153.5180  140.2197  156.8502 H   0  0  0  0  0  0  0  0  0  0  0  0
  1  2  1  0  0  0  0
  1 20  1  0  0  0  0
  1 21  1  0  0  0  0
  1 22  1  0  0  0  0
  2  3  1  0  0  0  0
  3 17  1  0  0  0  0
  3  4  1  0  0  0  0
  3  5  1  0  0  0  0
  4 23  1  0  0  0  0
  4 24  1  0  0  0  0
  4 25  1  0  0  0  0
  5  6  1  0  0  0  0
  5 26  1  0  0  0  0
  5 27  1  0  0  0  0
  6  7  1  0  0  0  0
  6 17  1  0  0  0  0
  6 28  1  0  0  0  0
  7  8  1  0  0  0  0
  7 29  1  0  0  0  0
  8  9  2  0  0  0  0
  8 10  1  0  0  0  0
 10 11  1  0  0  0  0
 10 30  1  0  0  0  0
 11 16  2  0  0  0  0
 11 12  1  0  0  0  0
 12 13  2  0  0  0  0
 12 31  1  0  0  0  0
 13 14  1  0  0  0  0
 14 15  1  0  0  0  0
 14 16  1  0  0  0  0
 15 32  1  0  0  0  0
 15 33  1  0  0  0  0
 15 34  1  0  0  0  0
 16 35  1  0  0  0  0
 17 18  1  0  0  0  0
 17 19  1  0  0  0  0
 18 36  1  0  0  0  0
 18 37  1  0  0  0  0
 18 38  1  0  0  0  0
 19 39  1  0  0  0  0
 19 40  1  0  0  0  0
 19 41  1  0  0  0  0
M  END
> <s_m_source_file>
AV-unprocessed.smi

> <i_m_source_file_index>
682

> <i_lp_mmshare_version>
43012

> <i_f3d_flags>
0

> <s_epik_input>
W0NIM11PW0NAQF0xKFtDSDNdKVtDSDJdW0NASF0oQzEoW0NIM10pW0NIM10pW05IXUMoPU8pW05IXWMyW2NIXW5uKFtDSDNdKVtjSF0y

> <s_epik_cmdline>
J2VwaWtfcHl0aG9uJywgJy1waCcsICc3LjAnLCAnLXRuJywgJzgnLCAnLW1hJywgJzIwMCcsICctbWV0YWxfYmluZGluZycsICctaW1hZScsICc8aW5maWxlLm1hZT4nLCAnLW9tYWUnLCAnPG91dGZpbGUubWFlPic=

> <r_lp_tautomer_probability>
1

> <r_epik_Ionization_Penalty>
0.000192302

> <r_epik_Ionization_Penalty_Charging>
0

> <r_epik_Ionization_Penalty_Neutral>
0.000192302

> <r_epik_State_Penalty>
-0

> <r_epik_Charging_Adjusted_Penalty>
0

> <i_epik_Tot_Q>
0

> <i_epik_Tot_abs_Q>
0

> <r_epik_Metal_State_Penalty>
-0

> <b_epik_Metal_Only>
0

> <s_lp_Force_Field>
OPLS_2005

> <r_lp_Energy>
26.143

> <b_lp_Chiralities_Consistent>
1

> <s_lp_Variant>
AV-unprocessed.smi:682-1

> <Gold.Version>
5.8.1

> <Gold.Id.Protein>
6NUR|6NUR_protein|mol2

> <Gold.PLP.Fitness>
36.0915

> <Gold.PLP.PLP>
-29.7971

> <Gold.PLP.part.hbond>
-2.0000

> <Gold.PLP.part.metal>
0.0000

> <Gold.PLP.part.buried>
-0.0756

> <Gold.PLP.part.nonpolar>
-26.4403

> <Gold.PLP.part.repulsive>
0.3087

> <Gold.PLP.ligand.clash>
0.0000

> <Gold.PLP.ligand.torsion>
0.4374

> <Gold.PLP.Chemscore.Hbond>
1.9920

> <Gold.PLP.Chemscore.CHOScore>
0.2695

> <Gold.PLP.Chemscore.Metal>
0.0000

> <Gold.Chemscore.Hbonds>
donor molecule, donor type, donor heavy atom, donor atom, acceptor molecule, acceptor atom, score
      L1  H    10    30       P1  7948  0.95
      P1  H  7989  7998       L1     2  1.00
      L1  C    12    31       P1  7948  0.16

> <Gold.PLP.Chemscore.Internal.Correction>
0.3846

> <Gold.Rescore>
     Score         DG    S(hbond)    S(metal)    S(lipo)     H(rot)  DE(clash)    DE(int)     intcor
     12.11     -14.04       1.25        0.00      64.55       1.23       0.12       1.82       ----

> <Gold.Chemscore.Fitness>
12.1088

> <Gold.Chemscore.DG>
-14.0450

> <Gold.Chemscore.ZeroCoef>
-5.4800

> <Gold.Chemscore.Hbond>
1.2488

> <Gold.Chemscore.Metal>
0.0000

> <Gold.Chemscore.Lipo>
64.5483

> <Gold.Chemscore.Internal_Hbond>
0.0000

> <Gold.Chemscore.DEClash>
0.1192

> <Gold.Chemscore.DEInternal>
1.8170

> <Gold.Chemscore.Rot>
1.2336

> <Gold.Chemscore.Internal.Correction>
   9.000000E+99

> <Gold.Chemscore.Hbonds>
donor molecule, donor type, donor heavy atom, donor atom, acceptor molecule, acceptor atom, score
      L1  H    10    30       P1  7948  0.21
      P1  H  7989  7998       L1     2  0.23

> <Gold.Chemscore.Hbond.Weighted>
-4.1709

> <Gold.Chemscore.Metal.Weighted>
-0.0000

> <Gold.Chemscore.Lipo.Weighted>
-7.5522

> <Gold.Chemscore.Internal_Hbond.Weighted>
0.0000

> <Gold.Chemscore.DEClash.Weighted>
0.1192

> <Gold.Chemscore.DEInternal.Weighted>
1.8170

> <Gold.Chemscore.Rot.Weighted>
3.1581

> <Gold.Chemscore.Internal.Correction.Weighted>
   9.000000E+99

> <Gold.Protein.RotatedTorsions>
[ 6907 6896 6895 6894 ] final  143.03 input  -60.11 | X-H torsion
[ 7974 7965 7964 7962 ] final   11.42 input  175.53 | X-H torsion
[ 8008 7997 7996 7995 ] final  -94.99 input   59.86 | X-H torsion
[ 10167 10162 10161 10158 ] final   -6.08 input  -65.29 | X-H torsion
[ 10718 10713 10712 10709 ] final   53.03 input   66.30 | X-H torsion
[ 10763 10752 10751 10750 ] final  -98.36 input  -60.55 | X-H torsion
[ 11005 11000 10999 10996 ] final  102.35 input  -57.11 | X-H torsion

> <Gold.Protein.ActiveResidues>
 VAL166  LYS551  ARG553  GLY616  TRP617  ASP618  TYR619  PRO620  LYS621  CYS622 
 ASP623  PHE694  ASN695  SER759  ASP760  ASP761  ALA762  ILE779  LEU786  VAL792 
 PHE793  MET794  SER795  GLU796  ALA797  LYS798  CYS799  TRP800  GLU811  SER814 

> <Gold.Protein.RotatedAtoms>
  152.2114  133.4914  159.5111 H   0  0  0  0  0  0  0  0  0  0  0  0  # atno 6907 bound_to 6896
  150.6991  134.1462  159.4132 H   0  0  0  0  0  0  0  0  0  0  0  0  # atno 6908 bound_to 6896
  151.9382  135.0225  160.0584 H   0  0  0  0  0  0  0  0  0  0  0  0  # atno 6909 bound_to 6896
  146.2371  139.9488  142.8473 H   0  0  0  0  0  0  0  0  0  0  0  0  # atno 7974 bound_to 7965
  154.7555  140.0484  157.0929 H   0  0  0  0  0  0  0  0  0  0  0  0  # atno 8008 bound_to 7997
  155.0003  140.3124  155.4850 H   0  0  0  0  0  0  0  0  0  0  0  0  # atno 8009 bound_to 7997
  156.2894  140.2202  156.5113 H   0  0  0  0  0  0  0  0  0  0  0  0  # atno 8010 bound_to 7997
  140.6985  143.6235  150.8590 H   0  0  0  0  0  0  0  0  0  0  0  0  # atno 10167 bound_to 10162
  157.5130  130.8513  149.8459 H   0  0  0  0  0  0  0  0  0  0  0  0  # atno 10718 bound_to 10713
  154.7407  135.5012  153.9118 H   0  0  0  0  0  0  0  0  0  0  0  0  # atno 10763 bound_to 10752
  153.1040  135.6692  153.9628 H   0  0  0  0  0  0  0  0  0  0  0  0  # atno 10764 bound_to 10752
  153.9406  135.3068  155.3422 H   0  0  0  0  0  0  0  0  0  0  0  0  # atno 10765 bound_to 10752
  139.8777  134.9220  156.5045 H   0  0  0  0  0  0  0  0  0  0  0  0  # atno 11005 bound_to 11000
  145.1882  140.9799  143.4227 LP  0  0  0  0  0  0  0  0  0  0  0  0  # atno 17320 bound_to 7965
  144.9881  139.3716  143.6228 LP  0  0  0  0  0  0  0  0  0  0  0  0  # atno 17321 bound_to 7965
  139.9955  143.5800  152.2895 LP  0  0  0  0  0  0  0  0  0  0  0  0  # atno 17342 bound_to 10162
  139.6471  144.7659  151.2222 LP  0  0  0  0  0  0  0  0  0  0  0  0  # atno 17343 bound_to 10162
  156.0301  130.3767  150.1711 LP  0  0  0  0  0  0  0  0  0  0  0  0  # atno 17370 bound_to 10713
  156.9900  130.9890  151.3417 LP  0  0  0  0  0  0  0  0  0  0  0  0  # atno 17371 bound_to 10713
  140.8565  133.8092  155.9221 LP  0  0  0  0  0  0  0  0  0  0  0  0  # atno 17394 bound_to 11000
  140.9092  134.2281  157.4996 LP  0  0  0  0  0  0  0  0  0  0  0  0  # atno 17395 bound_to 11000

$$$$
