AV-unprocessed.smi:609|AV-procd|sdf|3049|dock5
  -GOLD-   2262023573D 1   1.00000     0.00000
 Structure written by MMmdl.
 44 46  0  0  0  0  0  0  0  0  3 V2000
  145.3491  129.6369  152.2926 C   0  0  0  0  0  0  0  0  0  0  0  0
  145.3482  131.1382  152.0593 C   0  0  0  0  0  0  0  0  0  0  0  0
  144.3208  131.6969  151.2659 C   0  0  0  0  0  0  0  0  0  0  0  0
  144.3452  133.0732  151.0740 C   0  0  0  0  0  0  0  0  0  0  0  0
  143.4857  133.9143  150.3637 N   0  3  0  0  0  0  0  0  0  0  0  0
  143.9194  135.2011  150.4689 C   0  0  0  0  0  0  0  0  0  0  0  0
  145.0501  135.1917  151.2265 N   0  0  0  0  0  0  0  0  0  0  0  0
  145.9153  136.3007  151.6487 C   0  0  0  0  0  0  0  0  0  0  0  0
  145.6308  137.6188  150.8991 C   0  0  2  0  0  0  0  0  0  0  0  0
  145.8289  137.3816  149.5209 O   0  0  0  0  0  0  0  0  0  0  0  0
  146.5209  138.7925  151.3476 C   0  0  0  0  0  0  0  0  0  0  0  0
  147.0700  138.6166  153.0689 S   0  0  0  0  0  0  0  0  0  0  0  0
  147.3331  140.2649  153.6445 C   0  0  0  0  0  0  0  0  0  0  0  0
  146.4264  141.2438  153.5880 N   0  3  0  0  0  0  0  0  0  0  0  0
  146.9496  142.3932  154.1162 C   0  0  0  0  0  0  0  0  0  0  0  0
  148.2275  142.0927  154.5164 C   0  0  0  0  0  0  0  0  0  0  0  0
  148.4365  140.7699  154.2181 N   0  0  0  0  0  0  0  0  0  0  0  0
  149.6570  140.0025  154.4770 C   0  0  0  0  0  0  0  0  0  0  0  0
  145.3475  133.8878  151.6354 C   0  0  0  0  0  0  0  0  0  0  0  0
  146.3665  133.3543  152.4200 C   0  0  0  0  0  0  0  0  0  0  0  0
  146.3571  131.9568  152.6304 C   0  0  0  0  0  0  0  0  0  0  0  0
  147.4539  131.3461  153.4860 C   0  0  0  0  0  0  0  0  0  0  0  0
  144.5243  129.1512  151.7704 H   0  0  0  0  0  0  0  0  0  0  0  0
  145.2470  129.4155  153.3552 H   0  0  0  0  0  0  0  0  0  0  0  0
  146.2778  129.1930  151.9332 H   0  0  0  0  0  0  0  0  0  0  0  0
  143.5479  131.0803  150.8308 H   0  0  0  0  0  0  0  0  0  0  0  0
  143.4525  136.0705  150.0288 H   0  0  0  0  0  0  0  0  0  0  0  0
  145.7640  136.4376  152.7206 H   0  0  0  0  0  0  0  0  0  0  0  0
  146.9540  135.9927  151.5192 H   0  0  0  0  0  0  0  0  0  0  0  0
  144.5853  137.8940  151.0404 H   0  0  0  0  0  0  0  0  0  0  0  0
  145.1349  137.8055  149.0391 H   0  0  0  0  0  0  0  0  0  0  0  0
  147.4085  138.8514  150.7201 H   0  0  0  0  0  0  0  0  0  0  0  0
  145.9911  139.7395  151.2377 H   0  0  0  0  0  0  0  0  0  0  0  0
  146.3880  143.3147  154.1685 H   0  0  0  0  0  0  0  0  0  0  0  0
  148.9834  142.7078  154.9835 H   0  0  0  0  0  0  0  0  0  0  0  0
  150.2113  140.4711  155.2907 H   0  0  0  0  0  0  0  0  0  0  0  0
  150.2740  139.9961  153.5785 H   0  0  0  0  0  0  0  0  0  0  0  0
  149.4042  138.9813  154.7635 H   0  0  0  0  0  0  0  0  0  0  0  0
  147.1331  133.9783  152.8555 H   0  0  0  0  0  0  0  0  0  0  0  0
  148.1227  132.1104  153.8831 H   0  0  0  0  0  0  0  0  0  0  0  0
  148.0534  130.6497  152.8993 H   0  0  0  0  0  0  0  0  0  0  0  0
  147.0261  130.8083  154.3324 H   0  0  0  0  0  0  0  0  0  0  0  0
  145.4931  141.1464  153.2081 H   0  0  0  0  0  0  0  0  0  0  0  0
  142.6591  133.6342  149.8512 H   0  0  0  0  0  0  0  0  0  0  0  0
  1  2  1  0  0  0  0
  1 23  1  0  0  0  0
  1 24  1  0  0  0  0
  1 25  1  0  0  0  0
  2 21  1  0  0  0  0
  2  3  2  0  0  0  0
  3  4  1  0  0  0  0
  3 26  1  0  0  0  0
  4 19  2  0  0  0  0
  4  5  1  0  0  0  0
  5  6  2  0  0  0  0
  5 44  1  0  0  0  0
  6  7  1  0  0  0  0
  6 27  1  0  0  0  0
  7  8  1  0  0  0  0
  7 19  1  0  0  0  0
  8  9  1  0  0  0  0
  8 28  1  0  0  0  0
  8 29  1  0  0  0  0
  9 10  1  0  0  0  0
  9 11  1  0  0  0  0
  9 30  1  0  0  0  0
 10 31  1  0  0  0  0
 11 12  1  0  0  0  0
 11 32  1  0  0  0  0
 11 33  1  0  0  0  0
 12 13  1  0  0  0  0
 13 17  1  0  0  0  0
 13 14  2  0  0  0  0
 14 15  1  0  0  0  0
 14 43  1  0  0  0  0
 15 16  2  0  0  0  0
 15 34  1  0  0  0  0
 16 17  1  0  0  0  0
 16 35  1  0  0  0  0
 17 18  1  0  0  0  0
 18 36  1  0  0  0  0
 18 37  1  0  0  0  0
 18 38  1  0  0  0  0
 19 20  1  0  0  0  0
 20 21  2  0  0  0  0
 20 39  1  0  0  0  0
 21 22  1  0  0  0  0
 22 40  1  0  0  0  0
 22 41  1  0  0  0  0
 22 42  1  0  0  0  0
M  CHG  1   5   1
M  CHG  1  14   1
M  END
> <s_m_source_file>
AV-unprocessed.smi

> <i_m_source_file_index>
609

> <i_lp_mmshare_version>
43012

> <i_f3d_flags>
0

> <s_epik_input>
W0NIM11jKFtjSF0xKWMoW0NIM10pW2NIXWMoYzEyKW4oW2NIXW4yKVtDSDJdW0NASF0oW09IXSlbQ0gyXVNjM25bY0hdW2NIXW4zW0NIM10=

> <s_epik_cmdline>
J2VwaWtfcHl0aG9uJywgJy1waCcsICc3LjAnLCAnLXRuJywgJzgnLCAnLW1hJywgJzIwMCcsICctbWV0YWxfYmluZGluZycsICctaW1hZScsICc8aW5maWxlLm1hZT4nLCAnLW9tYWUnLCAnPG91dGZpbGUubWFlPic=

> <r_lp_tautomer_probability>
1

> <r_epik_Ionization_Penalty>
1.19058

> <r_epik_Ionization_Penalty_Charging>
1.07615

> <r_epik_Ionization_Penalty_Neutral>
0.114429

> <r_epik_State_Penalty>
1.23473

> <r_epik_Charging_Adjusted_Penalty>
2.31088

> <i_epik_Tot_Q>
2

> <i_epik_Tot_abs_Q>
2

> <r_epik_Metal_State_Penalty>
4.63867

> <b_epik_Metal_Only>
0

> <s_lp_Force_Field>
OPLS_2005

> <r_lp_Energy>
20.2349

> <b_lp_Chiralities_Consistent>
1

> <s_lp_Variant>
AV-unprocessed.smi:609-5

> <Gold.Version>
5.8.1

> <Gold.Id.Protein>
6NUR|6NUR_protein|mol2

> <Gold.PLP.Fitness>
61.5635

> <Gold.PLP.PLP>
-46.1481

> <Gold.PLP.part.hbond>
-3.9770

> <Gold.PLP.part.metal>
0.0000

> <Gold.PLP.part.buried>
7.4025

> <Gold.PLP.part.nonpolar>
-49.9558

> <Gold.PLP.part.repulsive>
0.0569

> <Gold.PLP.ligand.clash>
0.0000

> <Gold.PLP.ligand.torsion>
0.7494

> <Gold.PLP.Chemscore.Hbond>
3.6252

> <Gold.PLP.Chemscore.CHOScore>
2.0000

> <Gold.PLP.Chemscore.Metal>
0.0000

> <Gold.Chemscore.Hbonds>
donor molecule, donor type, donor heavy atom, donor atom, acceptor molecule, acceptor atom, score
      L1  H     5    44       P1 10186  1.34
      L1  H    10    31       P1 10171  0.48
      L1  H    14    43       P1 10175  1.89
      P1  H  7954  7966       L1    10  0.02
      L1  C     6    27       P1 10171  1.00
      L1  C    16    35       P1  8028  0.99

> <Gold.PLP.Chemscore.Internal.Correction>
0.0387

> <Gold.Rescore>
     Score         DG    S(hbond)    S(metal)    S(lipo)     H(rot)  DE(clash)    DE(int)     intcor
     15.20     -17.94       2.20        0.00     100.35       2.59       1.91       0.83       ----

> <Gold.Chemscore.Fitness>
15.1964

> <Gold.Chemscore.DG>
-17.9350

> <Gold.Chemscore.ZeroCoef>
-5.4800

> <Gold.Chemscore.Hbond>
2.1960

> <Gold.Chemscore.Metal>
0.0000

> <Gold.Chemscore.Lipo>
100.3539

> <Gold.Chemscore.Internal_Hbond>
0.0000

> <Gold.Chemscore.DEClash>
1.9053

> <Gold.Chemscore.DEInternal>
0.8334

> <Gold.Chemscore.Rot>
2.5863

> <Gold.Chemscore.Internal.Correction>
   9.000000E+99

> <Gold.Chemscore.Hbonds>
donor molecule, donor type, donor heavy atom, donor atom, acceptor molecule, acceptor atom, score
      L1  H     5    44       P1 10186  0.68
      L1  H    10    31       P1 10171  0.48
      L1  H    14    43       P1 10175  0.27

> <Gold.Chemscore.Hbond.Weighted>
-7.3346

> <Gold.Chemscore.Metal.Weighted>
-0.0000

> <Gold.Chemscore.Lipo.Weighted>
-11.7414

> <Gold.Chemscore.Internal_Hbond.Weighted>
0.0000

> <Gold.Chemscore.DEClash.Weighted>
1.9053

> <Gold.Chemscore.DEInternal.Weighted>
0.8334

> <Gold.Chemscore.Rot.Weighted>
6.6210

> <Gold.Chemscore.Internal.Correction.Weighted>
   9.000000E+99

> <Gold.Protein.RotatedTorsions>
[ 6907 6896 6895 6894 ] final  104.91 input  -60.11 | X-H torsion
[ 7974 7965 7964 7962 ] final  -13.53 input  175.53 | X-H torsion
[ 8008 7997 7996 7995 ] final  127.27 input   59.86 | X-H torsion
[ 10167 10162 10161 10158 ] final  -16.77 input  -65.29 | X-H torsion
[ 10718 10713 10712 10709 ] final  -60.49 input   66.30 | X-H torsion
[ 10763 10752 10751 10750 ] final   34.29 input  -60.55 | X-H torsion
[ 11005 11000 10999 10996 ] final  101.02 input  -57.11 | X-H torsion

> <Gold.Protein.ActiveResidues>
 VAL166  LYS551  ARG553  GLY616  TRP617  ASP618  TYR619  PRO620  LYS621  CYS622 
 ASP623  PHE694  ASN695  SER759  ASP760  ASP761  ALA762  ILE779  LEU786  VAL792 
 PHE793  MET794  SER795  GLU796  ALA797  LYS798  CYS799  TRP800  GLU811  SER814 

> <Gold.Protein.RotatedAtoms>
  152.5248  133.9606  159.7714 H   0  0  0  0  0  0  0  0  0  0  0  0  # atno 6907 bound_to 6896
  150.9897  133.6153  159.2717 H   0  0  0  0  0  0  0  0  0  0  0  0  # atno 6908 bound_to 6896
  151.3301  135.0845  159.9389 H   0  0  0  0  0  0  0  0  0  0  0  0  # atno 6909 bound_to 6896
  146.2110  140.3216  142.8391 H   0  0  0  0  0  0  0  0  0  0  0  0  # atno 7974 bound_to 7965
  156.2886  140.2673  156.2246 H   0  0  0  0  0  0  0  0  0  0  0  0  # atno 8008 bound_to 7997
  155.0134  140.0387  157.2426 H   0  0  0  0  0  0  0  0  0  0  0  0  # atno 8009 bound_to 7997
  154.7498  140.2741  155.6307 H   0  0  0  0  0  0  0  0  0  0  0  0  # atno 8010 bound_to 7997
  140.7238  143.5082  150.9782 H   0  0  0  0  0  0  0  0  0  0  0  0  # atno 10167 bound_to 10162
  156.0987  130.4189  150.0862 H   0  0  0  0  0  0  0  0  0  0  0  0  # atno 10718 bound_to 10713
  153.0171  135.6364  154.1645 H   0  0  0  0  0  0  0  0  0  0  0  0  # atno 10763 bound_to 10752
  154.1383  135.2836  155.3169 H   0  0  0  0  0  0  0  0  0  0  0  0  # atno 10764 bound_to 10752
  154.6143  135.5546  153.7568 H   0  0  0  0  0  0  0  0  0  0  0  0  # atno 10765 bound_to 10752
  139.8772  134.9165  156.4844 H   0  0  0  0  0  0  0  0  0  0  0  0  # atno 11005 bound_to 11000
  144.8916  140.7530  143.5923 LP  0  0  0  0  0  0  0  0  0  0  0  0  # atno 17320 bound_to 7965
  145.3139  139.1810  143.4624 LP  0  0  0  0  0  0  0  0  0  0  0  0  # atno 17321 bound_to 7965
  139.8795  143.7090  152.3158 LP  0  0  0  0  0  0  0  0  0  0  0  0  # atno 17342 bound_to 10162
  139.7367  144.7569  151.0716 LP  0  0  0  0  0  0  0  0  0  0  0  0  # atno 17343 bound_to 10162
  156.8855  130.9571  151.3594 LP  0  0  0  0  0  0  0  0  0  0  0  0  # atno 17370 bound_to 10713
  157.6153  130.8613  149.9018 LP  0  0  0  0  0  0  0  0  0  0  0  0  # atno 17371 bound_to 10713
  140.8704  133.7993  155.9358 LP  0  0  0  0  0  0  0  0  0  0  0  0  # atno 17394 bound_to 11000
  140.8959  134.2438  157.5069 LP  0  0  0  0  0  0  0  0  0  0  0  0  # atno 17395 bound_to 11000

$$$$
