AV-unprocessed.smi:2032|AV-procd|sdf|8253|dock2
  -GOLD-   2272010523D 1   1.00000     0.00000
 Structure written by MMmdl.
 42 43  0  0  0  0  0  0  0  0  3 V2000
  144.7556  135.9502  154.4225 C   0  0  0  0  0  0  0  0  0  0  0  0
  145.9583  136.7161  153.8601 C   0  0  2  0  0  0  0  0  0  0  0  0
  147.2211  136.5147  154.7185 C   0  0  0  0  0  0  0  0  0  0  0  0
  148.3466  137.3434  154.2099 N   0  3  2  0  0  0  0  0  0  0  0  0
  149.6631  137.1672  154.9034 C   0  0  1  0  0  0  0  0  0  0  0  0
  150.8503  137.8433  154.1758 C   0  0  0  0  0  0  0  0  0  0  0  0
  149.5601  137.6853  156.3619 C   0  0  0  0  0  0  0  0  0  0  0  0
  149.4239  136.6109  157.3400 N   0  0  0  0  0  0  0  0  0  0  0  0
  149.0222  136.7592  158.6101 C   0  0  0  0  0  0  0  0  0  0  0  0
  148.7524  137.8826  159.0416 O   0  0  0  0  0  0  0  0  0  0  0  0
  148.9505  135.5967  159.2958 N   0  5  0  0  0  0  0  0  0  0  0  0
  148.2750  135.5419  160.4551 C   0  0  0  0  0  0  0  0  0  0  0  0
  148.2437  136.5530  161.3307 N   0  0  0  0  0  0  0  0  0  0  0  0
  147.4860  136.2768  162.4703 C   0  0  0  0  0  0  0  0  0  0  0  0
  146.9346  135.0229  162.4661 C   0  0  0  0  0  0  0  0  0  0  0  0
  147.3539  134.1460  161.0222 S   0  0  0  0  0  0  0  0  0  0  0  0
  147.9236  138.7686  154.1570 C   0  0  0  0  0  0  0  0  0  0  0  0
  146.6431  138.9494  153.3212 C   0  0  1  0  0  0  0  0  0  0  0  0
  146.8677  138.7837  151.8074 C   0  0  0  0  0  0  0  0  0  0  0  0
  145.6141  138.0967  153.8181 O   0  0  0  0  0  0  0  0  0  0  0  0
  144.9561  134.8795  154.4643 H   0  0  0  0  0  0  0  0  0  0  0  0
  143.8731  136.0979  153.7993 H   0  0  0  0  0  0  0  0  0  0  0  0
  144.5103  136.2844  155.4311 H   0  0  0  0  0  0  0  0  0  0  0  0
  146.1436  136.3535  152.8488 H   0  0  0  0  0  0  0  0  0  0  0  0
  147.0215  136.7696  155.7609 H   0  0  0  0  0  0  0  0  0  0  0  0
  147.4719  135.4549  154.6815 H   0  0  0  0  0  0  0  0  0  0  0  0
  149.8816  136.0982  154.9206 H   0  0  0  0  0  0  0  0  0  0  0  0
  151.7852  137.7051  154.7190 H   0  0  0  0  0  0  0  0  0  0  0  0
  150.6935  138.9168  154.0661 H   0  0  0  0  0  0  0  0  0  0  0  0
  151.0197  137.4166  153.1872 H   0  0  0  0  0  0  0  0  0  0  0  0
  150.4572  138.2517  156.6139 H   0  0  0  0  0  0  0  0  0  0  0  0
  148.7256  138.3730  156.4945 H   0  0  0  0  0  0  0  0  0  0  0  0
  149.6405  135.6750  157.0286 H   0  0  0  0  0  0  0  0  0  0  0  0
  147.3940  137.0317  163.2369 H   0  0  0  0  0  0  0  0  0  0  0  0
  146.3129  134.5630  163.2194 H   0  0  0  0  0  0  0  0  0  0  0  0
  147.7429  139.1207  155.1742 H   0  0  0  0  0  0  0  0  0  0  0  0
  148.7084  139.4039  153.7493 H   0  0  0  0  0  0  0  0  0  0  0  0
  146.2879  139.9687  153.4764 H   0  0  0  0  0  0  0  0  0  0  0  0
  147.5567  139.5420  151.4350 H   0  0  0  0  0  0  0  0  0  0  0  0
  145.9309  138.8941  151.2608 H   0  0  0  0  0  0  0  0  0  0  0  0
  147.2912  137.8119  151.5540 H   0  0  0  0  0  0  0  0  0  0  0  0
  148.4961  137.0452  153.2566 H   0  0  0  0  0  0  0  0  0  0  0  0
  1  2  1  0  0  0  0
  1 21  1  0  0  0  0
  1 22  1  0  0  0  0
  1 23  1  0  0  0  0
  2 20  1  0  0  0  0
  2  3  1  0  0  0  0
  2 24  1  0  0  0  0
  3  4  1  0  0  0  0
  3 25  1  0  0  0  0
  3 26  1  0  0  0  0
  4  5  1  0  0  0  0
  4 17  1  0  0  0  0
  4 42  1  0  0  0  0
  5  6  1  0  0  0  0
  5  7  1  0  0  0  0
  5 27  1  0  0  0  0
  6 28  1  0  0  0  0
  6 29  1  0  0  0  0
  6 30  1  0  0  0  0
  7  8  1  0  0  0  0
  7 31  1  0  0  0  0
  7 32  1  0  0  0  0
  8  9  1  0  0  0  0
  8 33  1  0  0  0  0
  9 10  2  0  0  0  0
  9 11  1  0  0  0  0
 11 12  1  0  0  0  0
 12 16  1  0  0  0  0
 12 13  2  0  0  0  0
 13 14  1  0  0  0  0
 14 15  2  0  0  0  0
 14 34  1  0  0  0  0
 15 16  1  0  0  0  0
 15 35  1  0  0  0  0
 17 18  1  0  0  0  0
 17 36  1  0  0  0  0
 17 37  1  0  0  0  0
 18 19  1  0  0  0  0
 18 20  1  0  0  0  0
 18 38  1  0  0  0  0
 19 39  1  0  0  0  0
 19 40  1  0  0  0  0
 19 41  1  0  0  0  0
M  CHG  1   4   1
M  CHG  1  11  -1
M  END
> <s_m_source_file>
AV-unprocessed.smi

> <i_m_source_file_index>
2032

> <i_lp_mmshare_version>
43012

> <i_f3d_flags>
0

> <s_epik_input>
W0NIM11bQ0BASF0xW0NIMl1OKFtDSDJdW0NASF0oTzEpW0NIM10pW0NASF0oW0NIM10pW0NIMl1bTkhdQyg9TylbTkhdYzJuW2NIXVtjSF1zMg==

> <s_epik_cmdline>
J2VwaWtfcHl0aG9uJywgJy1waCcsICc3LjAnLCAnLXRuJywgJzgnLCAnLW1hJywgJzIwMCcsICctbWV0YWxfYmluZGluZycsICctaW1hZScsICc8aW5maWxlLm1hZT4nLCAnLW9tYWUnLCAnPG91dGZpbGUubWFlPic=

> <r_lp_tautomer_probability>
0.999

> <r_epik_Ionization_Penalty>
6.71699

> <r_epik_Ionization_Penalty_Charging>
5.88592

> <r_epik_Ionization_Penalty_Neutral>
0.831074

> <r_epik_State_Penalty>
6.08365

> <r_epik_Charging_Adjusted_Penalty>
11.9696

> <i_epik_Tot_Q>
0

> <i_epik_Tot_abs_Q>
2

> <r_epik_Metal_State_Penalty>
2.0947

> <b_epik_Metal_Only>
1

> <s_lp_Force_Field>
OPLS_2005

> <r_lp_Energy>
13.0518

> <b_lp_Chiralities_Consistent>
1

> <s_lp_Variant>
AV-unprocessed.smi:2032-23

> <Gold.Version>
5.8.1

> <Gold.Id.Protein>
6NUR|6NUR_protein|mol2

> <Gold.PLP.Fitness>
43.1242

> <Gold.PLP.PLP>
-30.2213

> <Gold.PLP.part.hbond>
-4.6160

> <Gold.PLP.part.metal>
0.0000

> <Gold.PLP.part.buried>
-3.4744

> <Gold.PLP.part.nonpolar>
-22.7857

> <Gold.PLP.part.repulsive>
0.1873

> <Gold.PLP.ligand.clash>
0.0000

> <Gold.PLP.ligand.torsion>
1.0870

> <Gold.PLP.Chemscore.Hbond>
5.0000

> <Gold.PLP.Chemscore.CHOScore>
0.0000

> <Gold.PLP.Chemscore.Metal>
0.0000

> <Gold.Chemscore.Hbonds>
donor molecule, donor type, donor heavy atom, donor atom, acceptor molecule, acceptor atom, score
      L1  H     4    42       P1  7948  2.00
      P1  H  6896  6909       L1    11  2.00
      P1  H  6931  6943       L1    13  0.95

> <Gold.PLP.Chemscore.Internal.Correction>
0.0770

> <Gold.Rescore>
     Score         DG    S(hbond)    S(metal)    S(lipo)     H(rot)  DE(clash)    DE(int)     intcor
     14.77     -17.51       2.66        0.00      61.37       1.58       0.10       2.64       ----

> <Gold.Chemscore.Fitness>
14.7704

> <Gold.Chemscore.DG>
-17.5080

> <Gold.Chemscore.ZeroCoef>
-5.4800

> <Gold.Chemscore.Hbond>
2.6618

> <Gold.Chemscore.Metal>
0.0000

> <Gold.Chemscore.Lipo>
61.3680

> <Gold.Chemscore.Internal_Hbond>
0.0000

> <Gold.Chemscore.DEClash>
0.0963

> <Gold.Chemscore.DEInternal>
2.6413

> <Gold.Chemscore.Rot>
1.5791

> <Gold.Chemscore.Internal.Correction>
   9.000000E+99

> <Gold.Chemscore.Hbonds>
donor molecule, donor type, donor heavy atom, donor atom, acceptor molecule, acceptor atom, score
      L1  H     4    42       P1  7948  1.00
      P1  H  6896  6909       L1    11  0.48
      P1  H  6931  6943       L1    13  0.21

> <Gold.Chemscore.Hbond.Weighted>
-8.8905

> <Gold.Chemscore.Metal.Weighted>
-0.0000

> <Gold.Chemscore.Lipo.Weighted>
-7.1801

> <Gold.Chemscore.Internal_Hbond.Weighted>
0.0000

> <Gold.Chemscore.DEClash.Weighted>
0.0963

> <Gold.Chemscore.DEInternal.Weighted>
2.6413

> <Gold.Chemscore.Rot.Weighted>
4.0425

> <Gold.Chemscore.Internal.Correction.Weighted>
   9.000000E+99

> <Gold.Protein.RotatedTorsions>
[ 6907 6896 6895 6894 ] final   59.30 input  -60.11 | X-H torsion
[ 7974 7965 7964 7962 ] final   67.43 input  175.53 | X-H torsion
[ 8008 7997 7996 7995 ] final   27.89 input   59.86 | X-H torsion
[ 10167 10162 10161 10158 ] final  151.36 input  -65.29 | X-H torsion
[ 10718 10713 10712 10709 ] final  -96.70 input   66.30 | X-H torsion
[ 10763 10752 10751 10750 ] final  102.29 input  -60.55 | X-H torsion
[ 11005 11000 10999 10996 ] final    8.63 input  -57.11 | X-H torsion

> <Gold.Protein.ActiveResidues>
 VAL166  LYS551  ARG553  GLY616  TRP617  ASP618  TYR619  PRO620  LYS621  CYS622 
 ASP623  PHE694  ASN695  SER759  ASP760  ASP761  ALA762  ILE779  LEU786  VAL792 
 PHE793  MET794  SER795  GLU796  ALA797  LYS798  CYS799  TRP800  GLU811  SER814 

> <Gold.Protein.RotatedAtoms>
  152.3902  134.6454  160.0110 H   0  0  0  0  0  0  0  0  0  0  0  0  # atno 6907 bound_to 6896
  151.6690  133.3309  159.3200 H   0  0  0  0  0  0  0  0  0  0  0  0  # atno 6908 bound_to 6896
  150.7819  134.6816  159.6491 H   0  0  0  0  0  0  0  0  0  0  0  0  # atno 6909 bound_to 6896
  145.8147  139.3051  143.1078 H   0  0  0  0  0  0  0  0  0  0  0  0  # atno 7974 bound_to 7965
  155.0501  140.3179  155.4695 H   0  0  0  0  0  0  0  0  0  0  0  0  # atno 8008 bound_to 7997
  156.2836  140.2147  156.5570 H   0  0  0  0  0  0  0  0  0  0  0  0  # atno 8009 bound_to 7997
  154.7218  140.0489  157.0634 H   0  0  0  0  0  0  0  0  0  0  0  0  # atno 8010 bound_to 7997
  139.4841  144.5447  151.7504 H   0  0  0  0  0  0  0  0  0  0  0  0  # atno 10167 bound_to 10162
  156.0067  130.5162  150.6264 H   0  0  0  0  0  0  0  0  0  0  0  0  # atno 10718 bound_to 10713
  153.3376  135.4015  155.1546 H   0  0  0  0  0  0  0  0  0  0  0  0  # atno 10763 bound_to 10752
  154.8637  135.3626  154.5388 H   0  0  0  0  0  0  0  0  0  0  0  0  # atno 10764 bound_to 10752
  153.5830  135.7076  153.5514 H   0  0  0  0  0  0  0  0  0  0  0  0  # atno 10765 bound_to 10752
  140.5349  134.0431  155.7885 H   0  0  0  0  0  0  0  0  0  0  0  0  # atno 11005 bound_to 11000
  145.9739  140.8737  143.0148 LP  0  0  0  0  0  0  0  0  0  0  0  0  # atno 17320 bound_to 7965
  144.6753  140.1985  143.7389 LP  0  0  0  0  0  0  0  0  0  0  0  0  # atno 17321 bound_to 7965
  140.4992  144.1194  150.5967 LP  0  0  0  0  0  0  0  0  0  0  0  0  # atno 17342 bound_to 10162
  140.4082  143.2670  151.9865 LP  0  0  0  0  0  0  0  0  0  0  0  0  # atno 17343 bound_to 10162
  157.4070  131.0818  151.1256 LP  0  0  0  0  0  0  0  0  0  0  0  0  # atno 17370 bound_to 10713
  157.1899  130.6347  149.5701 LP  0  0  0  0  0  0  0  0  0  0  0  0  # atno 17371 bound_to 10713
  141.1261  133.9381  157.2633 LP  0  0  0  0  0  0  0  0  0  0  0  0  # atno 17394 bound_to 11000
  139.9535  135.0170  156.9061 LP  0  0  0  0  0  0  0  0  0  0  0  0  # atno 17395 bound_to 11000

$$$$
