AV-unprocessed.smi:229|AV-procd|sdf|1755|dock1
  -GOLD-   2262020283D 1   1.00000     0.00000
 Structure written by MMmdl.
 58 62  0  0  0  0  0  0  0  0  1 V2000
  147.3341  134.2826  159.5903 C   0  0  0  0  0  0  0  0  0  0  0  0
  147.4004  133.7007  158.1719 C   0  0  0  0  0  0  0  0  0  0  0  0
  148.7877  133.8175  157.5195 C   0  0  2  0  0  0  0  0  0  0  0  0
  149.0573  135.2121  156.9262 C   0  0  0  0  0  0  0  0  0  0  0  0
  150.3352  135.2158  156.2261 N   0  0  0  0  0  0  0  0  0  0  0  0
  150.8423  136.4451  155.9537 C   0  0  0  0  0  0  0  0  0  0  0  0
  151.3961  136.6972  154.7370 N   0  0  0  0  0  0  0  0  0  0  0  0
  151.8917  137.9062  154.4566 C   0  0  0  0  0  0  0  0  0  0  0  0
  151.9397  138.9893  155.2343 N   0  0  0  0  0  0  0  0  0  0  0  0
  151.3947  138.7406  156.4592 C   0  0  0  0  0  0  0  0  0  0  0  0
  150.8290  137.5104  156.8987 C   0  0  0  0  0  0  0  0  0  0  0  0
  150.3872  137.6376  158.2112 N   0  0  0  0  0  0  0  0  0  0  0  0
  150.6672  138.8733  158.5252 C   0  0  0  0  0  0  0  0  0  0  0  0
  151.2754  139.6054  157.5314 N   0  0  0  0  0  0  0  0  0  0  0  0
  151.7021  140.9916  157.6031 C   0  0  0  0  0  0  0  0  0  0  0  0
  150.5164  141.9760  157.5140 C   0  0  2  0  0  0  0  0  0  0  0  0
  150.3544  142.3453  156.1581 O   0  0  0  0  0  0  0  0  0  0  0  0
  150.7385  143.2654  158.3288 C   0  0  2  0  0  0  0  0  0  0  0  0
  151.5991  144.3220  157.6321 C   0  0  0  0  0  0  0  0  0  0  0  0
  152.1753  145.1323  158.7813 C   0  0  0  0  0  0  0  0  0  0  0  0
  151.9936  144.2226  159.9983 C   0  0  0  0  0  0  0  0  0  0  0  0
  151.5333  142.9857  159.4720 O   0  0  0  0  0  0  0  0  0  0  0  0
  150.4227  134.1879  155.1932 C   0  0  0  0  0  0  0  0  0  0  0  0
  150.0982  132.7930  155.7736 C   0  0  2  0  0  0  0  0  0  0  0  0
  151.2118  132.2208  156.6591 C   0  0  0  0  0  0  0  0  0  0  0  0
  151.8786  131.1736  155.7781 C   0  0  0  0  0  0  0  0  0  0  0  0
  150.7811  130.6416  155.0608 O   0  0  0  0  0  0  0  0  0  0  0  0
  149.9788  131.7409  154.6545 C   0  0  0  0  0  0  0  0  0  0  0  0
  148.8503  132.8480  156.4722 O   0  0  0  0  0  0  0  0  0  0  0  0
  146.3496  134.1174  160.0283 H   0  0  0  0  0  0  0  0  0  0  0  0
  147.5171  135.3570  159.5927 H   0  0  0  0  0  0  0  0  0  0  0  0
  148.0705  133.8137  160.2433 H   0  0  0  0  0  0  0  0  0  0  0  0
  147.1231  132.6472  158.2201 H   0  0  0  0  0  0  0  0  0  0  0  0
  146.6523  134.1823  157.5413 H   0  0  0  0  0  0  0  0  0  0  0  0
  149.5440  133.5900  158.2719 H   0  0  0  0  0  0  0  0  0  0  0  0
  148.2687  135.4807  156.2219 H   0  0  0  0  0  0  0  0  0  0  0  0
  149.0400  135.9590  157.7178 H   0  0  0  0  0  0  0  0  0  0  0  0
  152.3108  138.0215  153.4681 H   0  0  0  0  0  0  0  0  0  0  0  0
  150.4427  139.2851  159.4985 H   0  0  0  0  0  0  0  0  0  0  0  0
  152.2435  141.1219  158.5403 H   0  0  0  0  0  0  0  0  0  0  0  0
  152.4174  141.1805  156.8012 H   0  0  0  0  0  0  0  0  0  0  0  0
  149.6066  141.4799  157.8549 H   0  0  0  0  0  0  0  0  0  0  0  0
  149.8565  143.1483  156.1272 H   0  0  0  0  0  0  0  0  0  0  0  0
  149.7880  143.7069  158.6361 H   0  0  0  0  0  0  0  0  0  0  0  0
  152.4110  143.8419  157.0835 H   0  0  0  0  0  0  0  0  0  0  0  0
  151.0328  144.9333  156.9287 H   0  0  0  0  0  0  0  0  0  0  0  0
  153.2238  145.3749  158.6051 H   0  0  0  0  0  0  0  0  0  0  0  0
  151.6309  146.0671  158.9191 H   0  0  0  0  0  0  0  0  0  0  0  0
  152.9175  144.0863  160.5610 H   0  0  0  0  0  0  0  0  0  0  0  0
  151.2399  144.6302  160.6735 H   0  0  0  0  0  0  0  0  0  0  0  0
  149.7149  134.4303  154.3987 H   0  0  0  0  0  0  0  0  0  0  0  0
  151.4184  134.1821  154.7471 H   0  0  0  0  0  0  0  0  0  0  0  0
  151.9138  132.9722  157.0221 H   0  0  0  0  0  0  0  0  0  0  0  0
  150.7832  131.7201  157.5281 H   0  0  0  0  0  0  0  0  0  0  0  0
  152.5880  131.6323  155.0874 H   0  0  0  0  0  0  0  0  0  0  0  0
  152.3975  130.4063  156.3527 H   0  0  0  0  0  0  0  0  0  0  0  0
  148.9504  131.4263  154.4751 H   0  0  0  0  0  0  0  0  0  0  0  0
  150.3749  132.1210  153.7115 H   0  0  0  0  0  0  0  0  0  0  0  0
  1  2  1  0  0  0  0
  1 30  1  0  0  0  0
  1 31  1  0  0  0  0
  1 32  1  0  0  0  0
  2  3  1  0  0  0  0
  2 33  1  0  0  0  0
  2 34  1  0  0  0  0
  3 29  1  0  0  0  0
  3  4  1  0  0  0  0
  3 35  1  0  0  0  0
  4  5  1  0  0  0  0
  4 36  1  0  0  0  0
  4 37  1  0  0  0  0
  5  6  1  0  0  0  0
  5 23  1  0  0  0  0
  6 11  1  0  0  0  0
  6  7  2  0  0  0  0
  7  8  1  0  0  0  0
  8  9  2  0  0  0  0
  8 38  1  0  0  0  0
  9 10  1  0  0  0  0
 10 14  1  0  0  0  0
 10 11  2  0  0  0  0
 11 12  1  0  0  0  0
 12 13  2  0  0  0  0
 13 14  1  0  0  0  0
 13 39  1  0  0  0  0
 14 15  1  0  0  0  0
 15 16  1  0  0  0  0
 15 40  1  0  0  0  0
 15 41  1  0  0  0  0
 16 17  1  0  0  0  0
 16 18  1  0  0  0  0
 16 42  1  0  0  0  0
 17 43  1  0  0  0  0
 18 22  1  0  0  0  0
 18 19  1  0  0  0  0
 18 44  1  0  0  0  0
 19 20  1  0  0  0  0
 19 45  1  0  0  0  0
 19 46  1  0  0  0  0
 20 21  1  0  0  0  0
 20 47  1  0  0  0  0
 20 48  1  0  0  0  0
 21 22  1  0  0  0  0
 21 49  1  0  0  0  0
 21 50  1  0  0  0  0
 23 24  1  0  0  0  0
 23 51  1  0  0  0  0
 23 52  1  0  0  0  0
 24 28  1  0  0  0  0
 24 25  1  0  0  0  0
 24 29  1  0  0  0  0
 25 26  1  0  0  0  0
 25 53  1  0  0  0  0
 25 54  1  0  0  0  0
 26 27  1  0  0  0  0
 26 55  1  0  0  0  0
 26 56  1  0  0  0  0
 27 28  1  0  0  0  0
 28 57  1  0  0  0  0
 28 58  1  0  0  0  0
M  END
> <s_m_source_file>
AV-unprocessed.smi

> <i_m_source_file_index>
229

> <i_lp_mmshare_version>
43012

> <i_f3d_flags>
0

> <s_epik_input>
W0NIMl0xT1tDSDJdW0NIMl1bQ0BdMTJbQ0gyXU4oW0NIMl1bQ0BIXShPMilbQ0gyXVtDSDNdKWMobltjSF1uMyljKGMzNCluW2NIXW40W0NIMl1bQ0BIXShbT0hdKVtDQEBIXTVbQ0gyXVtDSDJdW0NIMl1PNQ==

> <s_epik_cmdline>
J2VwaWtfcHl0aG9uJywgJy1waCcsICc3LjAnLCAnLXRuJywgJzgnLCAnLW1hJywgJzIwMCcsICctbWV0YWxfYmluZGluZycsICctaW1hZScsICc8aW5maWxlLm1hZT4nLCAnLW9tYWUnLCAnPG91dGZpbGUubWFlPic=

> <r_lp_tautomer_probability>
1

> <r_epik_Ionization_Penalty>
0.00318402

> <r_epik_Ionization_Penalty_Charging>
0

> <r_epik_Ionization_Penalty_Neutral>
0.00318402

> <r_epik_State_Penalty>
0.00215642

> <r_epik_Charging_Adjusted_Penalty>
0.00215642

> <i_epik_Tot_Q>
0

> <i_epik_Tot_abs_Q>
0

> <r_epik_Metal_State_Penalty>
-0

> <b_epik_Metal_Only>
0

> <s_lp_Force_Field>
OPLS_2005

> <r_lp_Energy>
54.5162

> <b_lp_Chiralities_Consistent>
1

> <s_lp_Variant>
AV-unprocessed.smi:229-9

> <Gold.Version>
5.8.1

> <Gold.Id.Protein>
6NUR|6NUR_protein|mol2

> <Gold.PLP.Fitness>
47.0023

> <Gold.PLP.PLP>
-43.7653

> <Gold.PLP.part.hbond>
-2.0000

> <Gold.PLP.part.metal>
0.0000

> <Gold.PLP.part.buried>
-9.2018

> <Gold.PLP.part.nonpolar>
-33.3364

> <Gold.PLP.part.repulsive>
0.2046

> <Gold.PLP.ligand.clash>
0.0000

> <Gold.PLP.ligand.torsion>
1.6077

> <Gold.PLP.Chemscore.Hbond>
2.0000

> <Gold.PLP.Chemscore.CHOScore>
0.0000

> <Gold.PLP.Chemscore.Metal>
0.0000

> <Gold.Chemscore.Hbonds>
donor molecule, donor type, donor heavy atom, donor atom, acceptor molecule, acceptor atom, score
      L1  H    17    43       P1  8028  1.00
      P1  H 10752 10764       L1     7  1.00

> <Gold.PLP.Chemscore.Internal.Correction>
0.4525

> <Gold.Rescore>
     Score         DG    S(hbond)    S(metal)    S(lipo)     H(rot)  DE(clash)    DE(int)     intcor
     14.93     -16.60       1.76        0.00      98.55       2.46       0.18       1.50       ----

> <Gold.Chemscore.Fitness>
14.9272

> <Gold.Chemscore.DG>
-16.6026

> <Gold.Chemscore.ZeroCoef>
-5.4800

> <Gold.Chemscore.Hbond>
1.7628

> <Gold.Chemscore.Metal>
0.0000

> <Gold.Chemscore.Lipo>
98.5470

> <Gold.Chemscore.Internal_Hbond>
0.0000

> <Gold.Chemscore.DEClash>
0.1768

> <Gold.Chemscore.DEInternal>
1.4986

> <Gold.Chemscore.Rot>
2.4591

> <Gold.Chemscore.Internal.Correction>
   9.000000E+99

> <Gold.Chemscore.Hbonds>
donor molecule, donor type, donor heavy atom, donor atom, acceptor molecule, acceptor atom, score
      L1  H    17    43       P1  8028  1.00
      P1  H 10752 10764       L1     7  0.19

> <Gold.Chemscore.Hbond.Weighted>
-5.8879

> <Gold.Chemscore.Metal.Weighted>
-0.0000

> <Gold.Chemscore.Lipo.Weighted>
-11.5300

> <Gold.Chemscore.Internal_Hbond.Weighted>
0.0000

> <Gold.Chemscore.DEClash.Weighted>
0.1768

> <Gold.Chemscore.DEInternal.Weighted>
1.4986

> <Gold.Chemscore.Rot.Weighted>
6.2953

> <Gold.Chemscore.Internal.Correction.Weighted>
   9.000000E+99

> <Gold.Protein.RotatedTorsions>
[ 6907 6896 6895 6894 ] final -176.20 input  -60.11 | X-H torsion
[ 7974 7965 7964 7962 ] final   55.35 input  175.53 | X-H torsion
[ 8008 7997 7996 7995 ] final  -76.41 input   59.86 | X-H torsion
[ 10167 10162 10161 10158 ] final  -35.13 input  -65.29 | X-H torsion
[ 10718 10713 10712 10709 ] final -136.25 input   66.30 | X-H torsion
[ 10763 10752 10751 10750 ] final  -56.85 input  -60.55 | X-H torsion
[ 11005 11000 10999 10996 ] final  113.93 input  -57.11 | X-H torsion

> <Gold.Protein.ActiveResidues>
 VAL166  LYS551  ARG553  GLY616  TRP617  ASP618  TYR619  PRO620  LYS621  CYS622 
 ASP623  PHE694  ASN695  SER759  ASP760  ASP761  ALA762  ILE779  LEU786  VAL792 
 PHE793  MET794  SER795  GLU796  ALA797  LYS798  CYS799  TRP800  GLU811  SER814 

> <Gold.Protein.RotatedAtoms>
  151.6010  133.3356  159.3047 H   0  0  0  0  0  0  0  0  0  0  0  0  # atno 6907 bound_to 6896
  150.8208  134.7418  159.6782 H   0  0  0  0  0  0  0  0  0  0  0  0  # atno 6908 bound_to 6896
  152.4301  134.5799  159.9996 H   0  0  0  0  0  0  0  0  0  0  0  0  # atno 6909 bound_to 6896
  145.9514  139.3975  143.0304 H   0  0  0  0  0  0  0  0  0  0  0  0  # atno 7974 bound_to 7965
  154.5503  140.0727  156.8656 H   0  0  0  0  0  0  0  0  0  0  0  0  # atno 8008 bound_to 7997
  155.3007  140.3384  155.4229 H   0  0  0  0  0  0  0  0  0  0  0  0  # atno 8009 bound_to 7997
  156.1955  140.1702  156.7993 H   0  0  0  0  0  0  0  0  0  0  0  0  # atno 8010 bound_to 7997
  140.7171  143.3499  151.2178 H   0  0  0  0  0  0  0  0  0  0  0  0  # atno 10167 bound_to 10162
  156.2750  130.7287  151.1266 H   0  0  0  0  0  0  0  0  0  0  0  0  # atno 10718 bound_to 10713
  154.2132  135.6391  153.5122 H   0  0  0  0  0  0  0  0  0  0  0  0  # atno 10763 bound_to 10752
  152.9985  135.5479  154.6193 H   0  0  0  0  0  0  0  0  0  0  0  0  # atno 10764 bound_to 10752
  154.5634  135.2911  155.0870 H   0  0  0  0  0  0  0  0  0  0  0  0  # atno 10765 bound_to 10752
  139.8966  134.9559  156.6814 H   0  0  0  0  0  0  0  0  0  0  0  0  # atno 11005 bound_to 11000
  145.8166  140.9699  143.0920 LP  0  0  0  0  0  0  0  0  0  0  0  0  # atno 17320 bound_to 7965
  144.6796  139.9989  143.7484 LP  0  0  0  0  0  0  0  0  0  0  0  0  # atno 17321 bound_to 7965
  139.7027  143.9506  152.2913 LP  0  0  0  0  0  0  0  0  0  0  0  0  # atno 17342 bound_to 10162
  139.9204  144.6803  150.8467 LP  0  0  0  0  0  0  0  0  0  0  0  0  # atno 17343 bound_to 10162
  157.7296  131.0623  150.5765 LP  0  0  0  0  0  0  0  0  0  0  0  0  # atno 17370 bound_to 10713
  156.5865  130.4318  149.5954 LP  0  0  0  0  0  0  0  0  0  0  0  0  # atno 17371 bound_to 10713
  140.7296  133.9070  155.8202 LP  0  0  0  0  0  0  0  0  0  0  0  0  # atno 17394 bound_to 11000
  141.0163  134.0950  157.4168 LP  0  0  0  0  0  0  0  0  0  0  0  0  # atno 17395 bound_to 11000

$$$$
