AV-unprocessed.smi:3133|AV-procd|sdf|11940|dock2
  -GOLD-   2272017333D 1   1.00000     0.00000
 Structure written by MMmdl.
 32 33  0  0  0  0  0  0  0  0  1 V2000
  148.4813  141.5900  155.9589 C   0  0  0  0  0  0  0  0  0  0  0  0
  149.9563  141.3667  155.5677 C   0  0  1  0  0  0  0  0  0  0  0  0
  150.9306  141.9332  156.6116 C   0  0  0  0  0  0  0  0  0  0  0  0
  151.7237  141.1934  157.1952 O   0  0  0  0  0  0  0  0  0  0  0  0
  150.8631  143.2554  156.8329 N   0  0  0  0  0  0  0  0  0  0  0  0
  151.7024  143.9941  157.7691 C   0  0  0  0  0  0  0  0  0  0  0  0
  151.5872  143.4387  159.1984 C   0  0  1  0  0  0  0  0  0  0  0  0
  152.7598  142.5540  159.6109 C   0  0  0  0  0  0  0  0  0  0  0  0
  152.6576  142.6047  161.1189 C   0  0  0  0  0  0  0  0  0  0  0  0
  152.2037  144.0428  161.3687 C   0  0  0  0  0  0  0  0  0  0  0  0
  151.6027  144.4926  160.1557 O   0  0  0  0  0  0  0  0  0  0  0  0
  150.2579  139.9633  155.3120 N   0  0  0  0  0  0  0  0  0  0  0  0
  150.2524  138.9209  156.1460 C   0  0  0  0  0  0  0  0  0  0  0  0
  150.5305  137.7627  155.5639 N   0  0  0  0  0  0  0  0  0  0  0  0
  150.6957  138.1888  154.2767 C   0  0  0  0  0  0  0  0  0  0  0  0
  150.5322  139.4950  154.0685 N   0  0  0  0  0  0  0  0  0  0  0  0
  148.2679  142.6509  156.0949 H   0  0  0  0  0  0  0  0  0  0  0  0
  148.2193  141.0807  156.8872 H   0  0  0  0  0  0  0  0  0  0  0  0
  147.8134  141.2203  155.1805 H   0  0  0  0  0  0  0  0  0  0  0  0
  150.1234  141.9032  154.6319 H   0  0  0  0  0  0  0  0  0  0  0  0
  150.1790  143.7899  156.3176 H   0  0  0  0  0  0  0  0  0  0  0  0
  152.7406  143.9639  157.4342 H   0  0  0  0  0  0  0  0  0  0  0  0
  151.4014  145.0419  157.7480 H   0  0  0  0  0  0  0  0  0  0  0  0
  150.6591  142.8777  159.3212 H   0  0  0  0  0  0  0  0  0  0  0  0
  152.6925  141.5420  159.2102 H   0  0  0  0  0  0  0  0  0  0  0  0
  153.7055  142.9905  159.2859 H   0  0  0  0  0  0  0  0  0  0  0  0
  151.8935  141.9057  161.4624 H   0  0  0  0  0  0  0  0  0  0  0  0
  153.5936  142.3596  161.6211 H   0  0  0  0  0  0  0  0  0  0  0  0
  151.5031  144.1079  162.2015 H   0  0  0  0  0  0  0  0  0  0  0  0
  153.0559  144.6847  161.5933 H   0  0  0  0  0  0  0  0  0  0  0  0
  150.0361  139.0107  157.2004 H   0  0  0  0  0  0  0  0  0  0  0  0
  150.9370  137.5151  153.4676 H   0  0  0  0  0  0  0  0  0  0  0  0
  1  2  1  0  0  0  0
  1 17  1  0  0  0  0
  1 18  1  0  0  0  0
  1 19  1  0  0  0  0
  2  3  1  0  0  0  0
  2 12  1  0  0  0  0
  2 20  1  0  0  0  0
  3  4  2  0  0  0  0
  3  5  1  0  0  0  0
  5  6  1  0  0  0  0
  5 21  1  0  0  0  0
  6  7  1  0  0  0  0
  6 22  1  0  0  0  0
  6 23  1  0  0  0  0
  7 11  1  0  0  0  0
  7  8  1  0  0  0  0
  7 24  1  0  0  0  0
  8  9  1  0  0  0  0
  8 25  1  0  0  0  0
  8 26  1  0  0  0  0
  9 10  1  0  0  0  0
  9 27  1  0  0  0  0
  9 28  1  0  0  0  0
 10 11  1  0  0  0  0
 10 29  1  0  0  0  0
 10 30  1  0  0  0  0
 12 16  1  0  0  0  0
 12 13  1  0  0  0  0
 13 14  2  0  0  0  0
 13 31  1  0  0  0  0
 14 15  1  0  0  0  0
 15 16  2  0  0  0  0
 15 32  1  0  0  0  0
M  END
> <s_m_source_file>
AV-unprocessed.smi

> <i_m_source_file_index>
3133

> <i_lp_mmshare_version>
43012

> <i_f3d_flags>
0

> <s_epik_input>
bjFbY0hdbltjSF1uMVtDQEhdKFtDSDNdKUMoPU8pW05IXVtDSDJdW0NAQEhdMltDSDJdW0NIMl1bQ0gyXU8y

> <s_epik_cmdline>
J2VwaWtfcHl0aG9uJywgJy1waCcsICc3LjAnLCAnLXRuJywgJzgnLCAnLW1hJywgJzIwMCcsICctbWV0YWxfYmluZGluZycsICctaW1hZScsICc8aW5maWxlLm1hZT4nLCAnLW9tYWUnLCAnPG91dGZpbGUubWFlPic=

> <r_lp_tautomer_probability>
1

> <r_epik_Ionization_Penalty>
1.2027e-05

> <r_epik_Ionization_Penalty_Charging>
0

> <r_epik_Ionization_Penalty_Neutral>
1.2027e-05

> <r_epik_State_Penalty>
-0

> <r_epik_Charging_Adjusted_Penalty>
0

> <i_epik_Tot_Q>
0

> <i_epik_Tot_abs_Q>
0

> <r_epik_Metal_State_Penalty>
-0

> <b_epik_Metal_Only>
0

> <s_lp_Force_Field>
OPLS_2005

> <r_lp_Energy>
22.8462

> <b_lp_Chiralities_Consistent>
1

> <s_lp_Variant>
AV-unprocessed.smi:3133-4

> <Gold.Version>
5.8.1

> <Gold.Id.Protein>
6NUR|6NUR_protein|mol2

> <Gold.PLP.Fitness>
41.9047

> <Gold.PLP.PLP>
-33.9150

> <Gold.PLP.part.hbond>
-2.0000

> <Gold.PLP.part.metal>
0.0000

> <Gold.PLP.part.buried>
-3.6483

> <Gold.PLP.part.nonpolar>
-28.7441

> <Gold.PLP.part.repulsive>
0.5709

> <Gold.PLP.ligand.clash>
0.0000

> <Gold.PLP.ligand.torsion>
0.6810

> <Gold.PLP.Chemscore.Hbond>
2.0000

> <Gold.PLP.Chemscore.CHOScore>
1.0808

> <Gold.PLP.Chemscore.Metal>
0.0000

> <Gold.Chemscore.Hbonds>
donor molecule, donor type, donor heavy atom, donor atom, acceptor molecule, acceptor atom, score
      L1  H     5    21       P1  8028  1.00
      P1  H  7989  7998       L1    16  0.95
      L1  C    15    32       P1  7948  0.10
      L1  C    15    32       P1  7949  1.00

> <Gold.PLP.Chemscore.Internal.Correction>
0.1092

> <Gold.Rescore>
     Score         DG    S(hbond)    S(metal)    S(lipo)     H(rot)  DE(clash)    DE(int)     intcor
     11.88     -14.57       1.98        0.00      70.46       2.26       0.06       2.62       ----

> <Gold.Chemscore.Fitness>
11.8816

> <Gold.Chemscore.DG>
-14.5669

> <Gold.Chemscore.ZeroCoef>
-5.4800

> <Gold.Chemscore.Hbond>
1.9813

> <Gold.Chemscore.Metal>
0.0000

> <Gold.Chemscore.Lipo>
70.4634

> <Gold.Chemscore.Internal_Hbond>
0.0000

> <Gold.Chemscore.DEClash>
0.0649

> <Gold.Chemscore.DEInternal>
2.6204

> <Gold.Chemscore.Rot>
2.2558

> <Gold.Chemscore.Internal.Correction>
   9.000000E+99

> <Gold.Chemscore.Hbonds>
donor molecule, donor type, donor heavy atom, donor atom, acceptor molecule, acceptor atom, score
      L1  H     5    21       P1  8028  1.00
      P1  H  7989  7998       L1    16  0.21

> <Gold.Chemscore.Hbond.Weighted>
-6.6174

> <Gold.Chemscore.Metal.Weighted>
-0.0000

> <Gold.Chemscore.Lipo.Weighted>
-8.2442

> <Gold.Chemscore.Internal_Hbond.Weighted>
0.0000

> <Gold.Chemscore.DEClash.Weighted>
0.0649

> <Gold.Chemscore.DEInternal.Weighted>
2.6204

> <Gold.Chemscore.Rot.Weighted>
5.7747

> <Gold.Chemscore.Internal.Correction.Weighted>
   9.000000E+99

> <Gold.Protein.RotatedTorsions>
[ 6907 6896 6895 6894 ] final  176.32 input  -60.11 | X-H torsion
[ 7974 7965 7964 7962 ] final   18.92 input  175.53 | X-H torsion
[ 8008 7997 7996 7995 ] final  161.20 input   59.86 | X-H torsion
[ 10167 10162 10161 10158 ] final  -46.29 input  -65.29 | X-H torsion
[ 10718 10713 10712 10709 ] final   21.39 input   66.30 | X-H torsion
[ 10763 10752 10751 10750 ] final  -11.10 input  -60.55 | X-H torsion
[ 11005 11000 10999 10996 ] final  107.50 input  -57.11 | X-H torsion

> <Gold.Protein.ActiveResidues>
 VAL166  LYS551  ARG553  GLY616  TRP617  ASP618  TYR619  PRO620  LYS621  CYS622 
 ASP623  PHE694  ASN695  SER759  ASP760  ASP761  ALA762  ILE779  LEU786  VAL792 
 PHE793  MET794  SER795  GLU796  ALA797  LYS798  CYS799  TRP800  GLU811  SER814 

> <Gold.Protein.RotatedAtoms>
  151.7220  133.3315  159.3317 H   0  0  0  0  0  0  0  0  0  0  0  0  # atno 6907 bound_to 6896
  150.7649  134.6440  159.6261 H   0  0  0  0  0  0  0  0  0  0  0  0  # atno 6908 bound_to 6896
  152.3646  134.6825  160.0248 H   0  0  0  0  0  0  0  0  0  0  0  0  # atno 6909 bound_to 6896
  146.2168  139.8387  142.8645 H   0  0  0  0  0  0  0  0  0  0  0  0  # atno 7974 bound_to 7965
  156.2119  140.1783  156.7675 H   0  0  0  0  0  0  0  0  0  0  0  0  # atno 8008 bound_to 7997
  154.5735  140.0678  156.9029 H   0  0  0  0  0  0  0  0  0  0  0  0  # atno 8009 bound_to 7997
  155.2630  140.3337  155.4274 H   0  0  0  0  0  0  0  0  0  0  0  0  # atno 8010 bound_to 7997
  140.6823  143.2838  151.3762 H   0  0  0  0  0  0  0  0  0  0  0  0  # atno 10167 bound_to 10162
  157.1377  130.6619  149.5971 H   0  0  0  0  0  0  0  0  0  0  0  0  # atno 10718 bound_to 10713
  153.4789  135.7017  153.5949 H   0  0  0  0  0  0  0  0  0  0  0  0  # atno 10763 bound_to 10752
  153.4171  135.3834  155.2088 H   0  0  0  0  0  0  0  0  0  0  0  0  # atno 10764 bound_to 10752
  154.8722  135.3919  154.4236 H   0  0  0  0  0  0  0  0  0  0  0  0  # atno 10765 bound_to 10752
  139.8829  134.9403  156.5829 H   0  0  0  0  0  0  0  0  0  0  0  0  # atno 11005 bound_to 11000
  145.2921  141.0170  143.3657 LP  0  0  0  0  0  0  0  0  0  0  0  0  # atno 17320 bound_to 7965
  144.9069  139.4578  143.6605 LP  0  0  0  0  0  0  0  0  0  0  0  0  # atno 17321 bound_to 7965
  139.6155  144.1012  152.2341 LP  0  0  0  0  0  0  0  0  0  0  0  0  # atno 17342 bound_to 10162
  140.0440  144.5985  150.7389 LP  0  0  0  0  0  0  0  0  0  0  0  0  # atno 17343 bound_to 10162
  155.9795  130.4788  150.6717 LP  0  0  0  0  0  0  0  0  0  0  0  0  # atno 17370 bound_to 10713
  157.4335  131.0852  151.1015 LP  0  0  0  0  0  0  0  0  0  0  0  0  # atno 17371 bound_to 10713
  140.8013  133.8503  155.8729 LP  0  0  0  0  0  0  0  0  0  0  0  0  # atno 17394 bound_to 11000
  140.9590  134.1680  157.4669 LP  0  0  0  0  0  0  0  0  0  0  0  0  # atno 17395 bound_to 11000

$$$$
