AV-unprocessed.smi:3315|AV-procd|sdf|12751|dock10
  -GOLD-   2272019 93D 1   1.00000     0.00000
 Structure written by MMmdl.
 37 38  0  0  0  0  0  0  0  0  1 V2000
  150.0784  138.8627  154.2650 C   0  0  0  0  0  0  0  0  0  0  0  0
  148.8953  139.1678  154.9935 O   0  0  0  0  0  0  0  0  0  0  0  0
  147.9618  140.0722  154.3865 C   0  0  1  0  0  0  0  0  0  0  0  0
  148.6304  141.4231  154.1022 C   0  0  0  0  0  0  0  0  0  0  0  0
  147.1855  139.3625  153.2604 C   0  0  0  0  0  0  0  0  0  0  0  0
  146.2565  138.8185  154.3435 C   0  0  2  0  0  0  0  0  0  0  0  0
  144.8625  138.7691  153.9147 N   0  0  0  0  0  0  0  0  0  0  0  0
  143.9893  137.8240  154.2889 C   0  0  0  0  0  0  0  0  0  0  0  0
  144.2787  136.8912  155.0386 O   0  0  0  0  0  0  0  0  0  0  0  0
  142.7784  138.0347  153.7455 N   0  0  0  0  0  0  0  0  0  0  0  0
  141.6038  137.2610  153.9267 C   0  0  0  0  0  0  0  0  0  0  0  0
  140.3469  137.7221  153.4523 C   0  0  0  0  0  0  0  0  0  0  0  0
  139.4978  136.7162  153.8170 C   0  0  0  0  0  0  0  0  0  0  0  0
  140.1729  135.7260  154.4589 O   0  0  0  0  0  0  0  0  0  0  0  0
  141.5254  136.0820  154.5261 N   0  0  0  0  0  0  0  0  0  0  0  0
  146.6350  140.0442  155.2149 C   0  0  0  0  0  0  0  0  0  0  0  0
  146.7714  139.7800  156.7187 C   0  0  0  0  0  0  0  0  0  0  0  0
  145.7343  141.2877  155.0897 C   0  0  0  0  0  0  0  0  0  0  0  0
  150.6145  138.0648  154.7782 H   0  0  0  0  0  0  0  0  0  0  0  0
  150.7513  139.7182  154.2121 H   0  0  0  0  0  0  0  0  0  0  0  0
  149.8675  138.5192  153.2530 H   0  0  0  0  0  0  0  0  0  0  0  0
  147.9157  142.1614  153.7407 H   0  0  0  0  0  0  0  0  0  0  0  0
  149.3977  141.3449  153.3323 H   0  0  0  0  0  0  0  0  0  0  0  0
  149.0959  141.8311  154.9995 H   0  0  0  0  0  0  0  0  0  0  0  0
  146.6991  140.0614  152.5775 H   0  0  0  0  0  0  0  0  0  0  0  0
  147.7273  138.5937  152.7109 H   0  0  0  0  0  0  0  0  0  0  0  0
  146.6264  137.8755  154.7533 H   0  0  0  0  0  0  0  0  0  0  0  0
  144.5466  139.5008  153.2952 H   0  0  0  0  0  0  0  0  0  0  0  0
  142.6852  138.8379  153.1416 H   0  0  0  0  0  0  0  0  0  0  0  0
  140.1049  138.6365  152.9313 H   0  0  0  0  0  0  0  0  0  0  0  0
  138.4352  136.5638  153.6981 H   0  0  0  0  0  0  0  0  0  0  0  0
  145.7974  139.7056  157.2036 H   0  0  0  0  0  0  0  0  0  0  0  0
  147.3270  140.5766  157.2141 H   0  0  0  0  0  0  0  0  0  0  0  0
  147.2924  138.8448  156.9236 H   0  0  0  0  0  0  0  0  0  0  0  0
  144.7559  141.1238  155.5424 H   0  0  0  0  0  0  0  0  0  0  0  0
  145.5604  141.5682  154.0508 H   0  0  0  0  0  0  0  0  0  0  0  0
  146.1762  142.1519  155.5867 H   0  0  0  0  0  0  0  0  0  0  0  0
  1  2  1  0  0  0  0
  1 19  1  0  0  0  0
  1 20  1  0  0  0  0
  1 21  1  0  0  0  0
  2  3  1  0  0  0  0
  3 16  1  0  0  0  0
  3  4  1  0  0  0  0
  3  5  1  0  0  0  0
  4 22  1  0  0  0  0
  4 23  1  0  0  0  0
  4 24  1  0  0  0  0
  5  6  1  0  0  0  0
  5 25  1  0  0  0  0
  5 26  1  0  0  0  0
  6  7  1  0  0  0  0
  6 16  1  0  0  0  0
  6 27  1  0  0  0  0
  7  8  1  0  0  0  0
  7 28  1  0  0  0  0
  8  9  2  0  0  0  0
  8 10  1  0  0  0  0
 10 11  1  0  0  0  0
 10 29  1  0  0  0  0
 11 15  2  0  0  0  0
 11 12  1  0  0  0  0
 12 13  2  0  0  0  0
 12 30  1  0  0  0  0
 13 14  1  0  0  0  0
 13 31  1  0  0  0  0
 14 15  1  0  0  0  0
 16 17  1  0  0  0  0
 16 18  1  0  0  0  0
 17 32  1  0  0  0  0
 17 33  1  0  0  0  0
 17 34  1  0  0  0  0
 18 35  1  0  0  0  0
 18 36  1  0  0  0  0
 18 37  1  0  0  0  0
M  END
> <s_m_source_file>
AV-unprocessed.smi

> <i_m_source_file_index>
3315

> <i_lp_mmshare_version>
43012

> <i_f3d_flags>
0

> <s_epik_input>
W0NIM11PW0NAQF0xKFtDSDNdKVtDSDJdW0NASF0oQzEoW0NIM10pW0NIM10pW05IXUMoPU8pW05IXWMyW2NIXVtjSF1vbjI=

> <s_epik_cmdline>
J2VwaWtfcHl0aG9uJywgJy1waCcsICc3LjAnLCAnLXRuJywgJzgnLCAnLW1hJywgJzIwMCcsICctbWV0YWxfYmluZGluZycsICctaW1hZScsICc8aW5maWxlLm1hZT4nLCAnLW9tYWUnLCAnPG91dGZpbGUubWFlPic=

> <r_lp_tautomer_probability>
1

> <r_epik_Ionization_Penalty>
2.28875e-05

> <r_epik_Ionization_Penalty_Charging>
0

> <r_epik_Ionization_Penalty_Neutral>
2.28875e-05

> <r_epik_State_Penalty>
-0

> <r_epik_Charging_Adjusted_Penalty>
0

> <i_epik_Tot_Q>
0

> <i_epik_Tot_abs_Q>
0

> <r_epik_Metal_State_Penalty>
-0

> <b_epik_Metal_Only>
0

> <s_lp_Force_Field>
OPLS_2005

> <r_lp_Energy>
22.1239

> <b_lp_Chiralities_Consistent>
1

> <s_lp_Variant>
AV-unprocessed.smi:3315-3

> <Gold.Version>
5.8.1

> <Gold.Id.Protein>
6NUR|6NUR_protein|mol2

> <Gold.PLP.Fitness>
32.9453

> <Gold.PLP.PLP>
-24.4776

> <Gold.PLP.part.hbond>
-3.8965

> <Gold.PLP.part.metal>
0.0000

> <Gold.PLP.part.buried>
-3.1973

> <Gold.PLP.part.nonpolar>
-17.1635

> <Gold.PLP.part.repulsive>
0.2912

> <Gold.PLP.ligand.clash>
0.0000

> <Gold.PLP.ligand.torsion>
0.2962

> <Gold.PLP.Chemscore.Hbond>
2.8960

> <Gold.PLP.Chemscore.CHOScore>
0.0000

> <Gold.PLP.Chemscore.Metal>
0.0000

> <Gold.Chemscore.Hbonds>
donor molecule, donor type, donor heavy atom, donor atom, acceptor molecule, acceptor atom, score
      L1  H     7    28       P1 10175  1.00
      L1  H    10    29       P1 10175  0.90
      P1  H 11000 11005       L1    14  0.95

> <Gold.PLP.Chemscore.Internal.Correction>
0.3721

> <Gold.Rescore>
     Score         DG    S(hbond)    S(metal)    S(lipo)     H(rot)  DE(clash)    DE(int)     intcor
     15.27     -16.82       2.71        0.00      48.20       1.30       0.02       1.52       ----

> <Gold.Chemscore.Fitness>
15.2711

> <Gold.Chemscore.DG>
-16.8171

> <Gold.Chemscore.ZeroCoef>
-5.4800

> <Gold.Chemscore.Hbond>
2.7053

> <Gold.Chemscore.Metal>
0.0000

> <Gold.Chemscore.Lipo>
48.1979

> <Gold.Chemscore.Internal_Hbond>
0.0000

> <Gold.Chemscore.DEClash>
0.0234

> <Gold.Chemscore.DEInternal>
1.5226

> <Gold.Chemscore.Rot>
1.3038

> <Gold.Chemscore.Internal.Correction>
   9.000000E+99

> <Gold.Chemscore.Hbonds>
donor molecule, donor type, donor heavy atom, donor atom, acceptor molecule, acceptor atom, score
      L1  H     7    28       P1 10175  0.93
      L1  H    10    29       P1 10175  0.85
      P1  H 11000 11005       L1    14  0.21

> <Gold.Chemscore.Hbond.Weighted>
-9.0357

> <Gold.Chemscore.Metal.Weighted>
-0.0000

> <Gold.Chemscore.Lipo.Weighted>
-5.6392

> <Gold.Chemscore.Internal_Hbond.Weighted>
0.0000

> <Gold.Chemscore.DEClash.Weighted>
0.0234

> <Gold.Chemscore.DEInternal.Weighted>
1.5226

> <Gold.Chemscore.Rot.Weighted>
3.3377

> <Gold.Chemscore.Internal.Correction.Weighted>
   9.000000E+99

> <Gold.Protein.RotatedTorsions>
[ 6907 6896 6895 6894 ] final  130.33 input  -60.11 | X-H torsion
[ 7974 7965 7964 7962 ] final   49.37 input  175.53 | X-H torsion
[ 8008 7997 7996 7995 ] final -106.40 input   59.86 | X-H torsion
[ 10167 10162 10161 10158 ] final   72.11 input  -65.29 | X-H torsion
[ 10718 10713 10712 10709 ] final  -41.23 input   66.30 | X-H torsion
[ 10763 10752 10751 10750 ] final  141.39 input  -60.55 | X-H torsion
[ 11005 11000 10999 10996 ] final   47.87 input  -57.11 | X-H torsion

> <Gold.Protein.ActiveResidues>
 VAL166  LYS551  ARG553  GLY616  TRP617  ASP618  TYR619  PRO620  LYS621  CYS622 
 ASP623  PHE694  ASN695  SER759  ASP760  ASP761  ALA762  ILE779  LEU786  VAL792 
 PHE793  MET794  SER795  GLU796  ALA797  LYS798  CYS799  TRP800  GLU811  SER814 

> <Gold.Protein.RotatedAtoms>
  152.3537  133.6211  159.5963 H   0  0  0  0  0  0  0  0  0  0  0  0  # atno 6907 bound_to 6896
  150.7554  133.9534  159.3501 H   0  0  0  0  0  0  0  0  0  0  0  0  # atno 6908 bound_to 6896
  151.7382  135.0861  160.0362 H   0  0  0  0  0  0  0  0  0  0  0  0  # atno 6909 bound_to 6896
  146.0115  139.4549  142.9953 H   0  0  0  0  0  0  0  0  0  0  0  0  # atno 7974 bound_to 7965
  154.9140  140.0409  157.1962 H   0  0  0  0  0  0  0  0  0  0  0  0  # atno 8008 bound_to 7997
  154.8320  140.2900  155.5695 H   0  0  0  0  0  0  0  0  0  0  0  0  # atno 8009 bound_to 7997
  156.2987  140.2499  156.3246 H   0  0  0  0  0  0  0  0  0  0  0  0  # atno 8010 bound_to 7997
  140.0389  144.5406  150.7449 H   0  0  0  0  0  0  0  0  0  0  0  0  # atno 10167 bound_to 10162
  156.2726  130.4208  149.8421 H   0  0  0  0  0  0  0  0  0  0  0  0  # atno 10718 bound_to 10713
  153.9384  135.2982  155.3443 H   0  0  0  0  0  0  0  0  0  0  0  0  # atno 10763 bound_to 10752
  154.7490  135.4989  153.9258 H   0  0  0  0  0  0  0  0  0  0  0  0  # atno 10764 bound_to 10752
  153.1055  135.6745  153.9700 H   0  0  0  0  0  0  0  0  0  0  0  0  # atno 10765 bound_to 10752
  140.1241  134.4791  155.8573 H   0  0  0  0  0  0  0  0  0  0  0  0  # atno 11005 bound_to 11000
  145.7334  141.0034  143.1339 LP  0  0  0  0  0  0  0  0  0  0  0  0  # atno 17320 bound_to 7965
  144.6955  139.9012  143.7458 LP  0  0  0  0  0  0  0  0  0  0  0  0  # atno 17321 bound_to 7965
  140.7269  143.2646  151.4089 LP  0  0  0  0  0  0  0  0  0  0  0  0  # atno 17342 bound_to 10162
  139.6027  144.1262  152.2215 LP  0  0  0  0  0  0  0  0  0  0  0  0  # atno 17343 bound_to 10162
  156.5897  130.8501  151.3405 LP  0  0  0  0  0  0  0  0  0  0  0  0  # atno 17370 bound_to 10713
  157.7289  130.9663  150.1762 LP  0  0  0  0  0  0  0  0  0  0  0  0  # atno 17371 bound_to 10713
  141.2157  133.6771  156.6945 LP  0  0  0  0  0  0  0  0  0  0  0  0  # atno 17394 bound_to 11000
  140.2927  134.8228  157.4030 LP  0  0  0  0  0  0  0  0  0  0  0  0  # atno 17395 bound_to 11000

$$$$
