AV-unprocessed.smi:308|AV-procd|sdf|2287|dock10
  -GOLD-   2262022183D 1   1.00000     0.00000
 Structure written by MMmdl.
 50 51  0  0  0  0  0  0  0  0  2 V2000
  144.6573  135.9208  151.7892 C   0  0  0  0  0  0  0  0  0  0  0  0
  145.3623  137.1786  152.3152 C   0  0  2  0  0  0  0  0  0  0  0  0
  146.2099  137.8565  151.2259 C   0  0  0  0  0  0  0  0  0  0  0  0
  146.9329  139.0987  151.7737 C   0  0  0  0  0  0  0  0  0  0  0  0
  147.7755  138.7580  152.9487 N   0  3  1  0  0  0  0  0  0  0  0  0
  148.5809  139.9155  153.4164 C   0  0  0  0  0  0  0  0  0  0  0  0
  147.7314  141.0359  154.0549 C   0  0  0  0  0  0  0  0  0  0  0  0
  148.4963  141.8916  154.9588 N   0  0  0  0  0  0  0  0  0  0  0  0
  149.3074  141.4517  155.9313 C   0  0  0  0  0  0  0  0  0  0  0  0
  149.4748  140.2585  156.1787 O   0  0  0  0  0  0  0  0  0  0  0  0
  149.8922  142.4773  156.5736 N   0  0  0  0  0  0  0  0  0  0  0  0
  150.8190  142.4570  157.6526 C   0  0  0  0  0  0  0  0  0  0  0  0
  151.4449  143.5968  158.2099 C   0  0  0  0  0  0  0  0  0  0  0  0
  152.3478  143.4284  159.2775 C   0  0  0  0  0  0  0  0  0  0  0  0
  152.6138  142.1252  159.7660 C   0  0  0  0  0  0  0  0  0  0  0  0
  153.5112  141.9065  160.8363 N   0  0  0  0  0  0  0  0  0  0  0  0
  154.5737  140.9150  160.7026 C   0  0  0  0  0  0  0  0  0  0  0  0
  153.3120  142.5879  162.1093 C   0  0  0  0  0  0  0  0  0  0  0  0
  152.0183  141.0368  159.2208 N   0  0  0  0  0  0  0  0  0  0  0  0
  151.1524  141.2027  158.2003 C   0  0  0  0  0  0  0  0  0  0  0  0
  146.9765  138.1262  154.0314 C   0  0  0  0  0  0  0  0  0  0  0  0
  146.2554  136.8651  153.5267 C   0  0  0  0  0  0  0  0  0  0  0  0
  145.3760  135.1727  151.4535 H   0  0  0  0  0  0  0  0  0  0  0  0
  144.0064  136.1583  150.9474 H   0  0  0  0  0  0  0  0  0  0  0  0
  144.0397  135.4651  152.5637 H   0  0  0  0  0  0  0  0  0  0  0  0
  144.5908  137.8819  152.6332 H   0  0  0  0  0  0  0  0  0  0  0  0
  146.9442  137.1511  150.8337 H   0  0  0  0  0  0  0  0  0  0  0  0
  145.5780  138.1427  150.3843 H   0  0  0  0  0  0  0  0  0  0  0  0
  147.5558  139.5239  150.9856 H   0  0  0  0  0  0  0  0  0  0  0  0
  146.2077  139.8643  152.0542 H   0  0  0  0  0  0  0  0  0  0  0  0
  149.2936  139.5666  154.1648 H   0  0  0  0  0  0  0  0  0  0  0  0
  149.1794  140.3112  152.5947 H   0  0  0  0  0  0  0  0  0  0  0  0
  147.2696  141.6436  153.2752 H   0  0  0  0  0  0  0  0  0  0  0  0
  146.9068  140.6055  154.6225 H   0  0  0  0  0  0  0  0  0  0  0  0
  148.4247  142.8886  154.8147 H   0  0  0  0  0  0  0  0  0  0  0  0
  149.6719  143.3976  156.2219 H   0  0  0  0  0  0  0  0  0  0  0  0
  151.2646  144.5953  157.8463 H   0  0  0  0  0  0  0  0  0  0  0  0
  152.8215  144.3031  159.6966 H   0  0  0  0  0  0  0  0  0  0  0  0
  154.1522  139.9177  160.5736 H   0  0  0  0  0  0  0  0  0  0  0  0
  155.2140  140.8972  161.5845 H   0  0  0  0  0  0  0  0  0  0  0  0
  155.2035  141.1399  159.8412 H   0  0  0  0  0  0  0  0  0  0  0  0
  153.4327  143.6649  161.9901 H   0  0  0  0  0  0  0  0  0  0  0  0
  154.0323  142.2524  162.8558 H   0  0  0  0  0  0  0  0  0  0  0  0
  152.3135  142.3886  162.4998 H   0  0  0  0  0  0  0  0  0  0  0  0
  150.7093  140.2985  157.8090 H   0  0  0  0  0  0  0  0  0  0  0  0
  147.6229  137.8514  154.8644 H   0  0  0  0  0  0  0  0  0  0  0  0
  146.2510  138.8442  154.4175 H   0  0  0  0  0  0  0  0  0  0  0  0
  145.6561  136.4385  154.3320 H   0  0  0  0  0  0  0  0  0  0  0  0
  146.9934  136.1078  153.2571 H   0  0  0  0  0  0  0  0  0  0  0  0
  148.4371  138.0653  152.6281 H   0  0  0  0  0  0  0  0  0  0  0  0
  1  2  1  0  0  0  0
  1 23  1  0  0  0  0
  1 24  1  0  0  0  0
  1 25  1  0  0  0  0
  2 22  1  0  0  0  0
  2  3  1  0  0  0  0
  2 26  1  0  0  0  0
  3  4  1  0  0  0  0
  3 27  1  0  0  0  0
  3 28  1  0  0  0  0
  4  5  1  0  0  0  0
  4 29  1  0  0  0  0
  4 30  1  0  0  0  0
  5  6  1  0  0  0  0
  5 21  1  0  0  0  0
  5 50  1  0  0  0  0
  6  7  1  0  0  0  0
  6 31  1  0  0  0  0
  6 32  1  0  0  0  0
  7  8  1  0  0  0  0
  7 33  1  0  0  0  0
  7 34  1  0  0  0  0
  8  9  1  0  0  0  0
  8 35  1  0  0  0  0
  9 10  2  0  0  0  0
  9 11  1  0  0  0  0
 11 12  1  0  0  0  0
 11 36  1  0  0  0  0
 12 20  1  0  0  0  0
 12 13  2  0  0  0  0
 13 14  1  0  0  0  0
 13 37  1  0  0  0  0
 14 15  2  0  0  0  0
 14 38  1  0  0  0  0
 15 16  1  0  0  0  0
 15 19  1  0  0  0  0
 16 17  1  0  0  0  0
 16 18  1  0  0  0  0
 17 39  1  0  0  0  0
 17 40  1  0  0  0  0
 17 41  1  0  0  0  0
 18 42  1  0  0  0  0
 18 43  1  0  0  0  0
 18 44  1  0  0  0  0
 19 20  2  0  0  0  0
 20 45  1  0  0  0  0
 21 22  1  0  0  0  0
 21 46  1  0  0  0  0
 21 47  1  0  0  0  0
 22 48  1  0  0  0  0
 22 49  1  0  0  0  0
M  CHG  1   5   1
M  END
> <s_m_source_file>
AV-unprocessed.smi

> <i_m_source_file_index>
308

> <i_lp_mmshare_version>
43012

> <i_f3d_flags>
0

> <s_epik_input>
W0NIM11bQ0hdMVtDSDJdW0NIMl1OKFtDSDJdW0NIMl0xKVtDSDJdW0NIMl1bTkhdQyg9TylbTkhdYzJbY0hdW2NIXWMoTihbQ0gzXSlbQ0gzXSluW2NIXTI=

> <s_epik_cmdline>
J2VwaWtfcHl0aG9uJywgJy1waCcsICc3LjAnLCAnLXRuJywgJzgnLCAnLW1hJywgJzIwMCcsICctbWV0YWxfYmluZGluZycsICctaW1hZScsICc8aW5maWxlLm1hZT4nLCAnLW9tYWUnLCAnPG91dGZpbGUubWFlPic=

> <r_lp_tautomer_probability>
1

> <r_epik_Ionization_Penalty>
0.536661

> <r_epik_Ionization_Penalty_Charging>
0.00139388

> <r_epik_Ionization_Penalty_Neutral>
0.535267

> <r_epik_State_Penalty>
0.543381

> <r_epik_Charging_Adjusted_Penalty>
0.544775

> <i_epik_Tot_Q>
1

> <i_epik_Tot_abs_Q>
1

> <r_epik_Metal_State_Penalty>
0.284523

> <b_epik_Metal_Only>
0

> <s_lp_Force_Field>
OPLS_2005

> <r_lp_Energy>
27.2838

> <b_lp_Chiralities_Consistent>
1

> <s_lp_Variant>
AV-unprocessed.smi:308-3

> <Gold.Version>
5.8.1

> <Gold.Id.Protein>
6NUR|6NUR_protein|mol2

> <Gold.PLP.Fitness>
53.2511

> <Gold.PLP.PLP>
-43.9527

> <Gold.PLP.part.hbond>
-4.0000

> <Gold.PLP.part.metal>
0.0000

> <Gold.PLP.part.buried>
4.3968

> <Gold.PLP.part.nonpolar>
-45.0834

> <Gold.PLP.part.repulsive>
0.2904

> <Gold.PLP.ligand.clash>
0.0000

> <Gold.PLP.ligand.torsion>
1.1543

> <Gold.PLP.Chemscore.Hbond>
3.8561

> <Gold.PLP.Chemscore.CHOScore>
0.0000

> <Gold.PLP.Chemscore.Metal>
0.0000

> <Gold.Chemscore.Hbonds>
donor molecule, donor type, donor heavy atom, donor atom, acceptor molecule, acceptor atom, score
      L1  H     5    50       P1  7948  2.00
      L1  H     8    35       P1  8028  0.86
      L1  H    11    36       P1  8028  1.00

> <Gold.PLP.Chemscore.Internal.Correction>
0.0388

> <Gold.Rescore>
     Score         DG    S(hbond)    S(metal)    S(lipo)     H(rot)  DE(clash)    DE(int)     intcor
     16.78     -22.62       2.68        0.00     101.07       1.42       1.88       3.96       ----

> <Gold.Chemscore.Fitness>
16.7787

> <Gold.Chemscore.DG>
-22.6189

> <Gold.Chemscore.ZeroCoef>
-5.4800

> <Gold.Chemscore.Hbond>
2.6824

> <Gold.Chemscore.Metal>
0.0000

> <Gold.Chemscore.Lipo>
101.0717

> <Gold.Chemscore.Internal_Hbond>
0.0000

> <Gold.Chemscore.DEClash>
1.8795

> <Gold.Chemscore.DEInternal>
3.9608

> <Gold.Chemscore.Rot>
1.4241

> <Gold.Chemscore.Internal.Correction>
   9.000000E+99

> <Gold.Chemscore.Hbonds>
donor molecule, donor type, donor heavy atom, donor atom, acceptor molecule, acceptor atom, score
      L1  H     5    50       P1  7948  0.92
      L1  H     8    35       P1  8028  0.80
      L1  H    11    36       P1  8028  0.99

> <Gold.Chemscore.Hbond.Weighted>
-8.9592

> <Gold.Chemscore.Metal.Weighted>
-0.0000

> <Gold.Chemscore.Lipo.Weighted>
-11.8254

> <Gold.Chemscore.Internal_Hbond.Weighted>
0.0000

> <Gold.Chemscore.DEClash.Weighted>
1.8795

> <Gold.Chemscore.DEInternal.Weighted>
3.9608

> <Gold.Chemscore.Rot.Weighted>
3.6456

> <Gold.Chemscore.Internal.Correction.Weighted>
   9.000000E+99

> <Gold.Protein.RotatedTorsions>
[ 6907 6896 6895 6894 ] final  136.99 input  -60.11 | X-H torsion
[ 7974 7965 7964 7962 ] final  -81.63 input  175.53 | X-H torsion
[ 8008 7997 7996 7995 ] final  -83.54 input   59.86 | X-H torsion
[ 10167 10162 10161 10158 ] final   -4.17 input  -65.29 | X-H torsion
[ 10718 10713 10712 10709 ] final   34.99 input   66.30 | X-H torsion
[ 10763 10752 10751 10750 ] final  -21.93 input  -60.55 | X-H torsion
[ 11005 11000 10999 10996 ] final  130.59 input  -57.11 | X-H torsion

> <Gold.Protein.ActiveResidues>
 VAL166  LYS551  ARG553  GLY616  TRP617  ASP618  TYR619  PRO620  LYS621  CYS622 
 ASP623  PHE694  ASN695  SER759  ASP760  ASP761  ALA762  ILE779  LEU786  VAL792 
 PHE793  MET794  SER795  GLU796  ALA797  LYS798  CYS799  TRP800  GLU811  SER814 

> <Gold.Protein.RotatedAtoms>
  152.2831  133.5489  159.5510 H   0  0  0  0  0  0  0  0  0  0  0  0  # atno 6907 bound_to 6896
  150.7204  134.0535  159.3815 H   0  0  0  0  0  0  0  0  0  0  0  0  # atno 6908 bound_to 6896
  151.8445  135.0579  160.0503 H   0  0  0  0  0  0  0  0  0  0  0  0  # atno 6909 bound_to 6896
  145.5441  140.9506  143.1535 H   0  0  0  0  0  0  0  0  0  0  0  0  # atno 7974 bound_to 7965
  154.6202  140.0617  156.9605 H   0  0  0  0  0  0  0  0  0  0  0  0  # atno 8008 bound_to 7997
  155.1830  140.3301  155.4353 H   0  0  0  0  0  0  0  0  0  0  0  0  # atno 8009 bound_to 7997
  156.2427  140.1894  156.6925 H   0  0  0  0  0  0  0  0  0  0  0  0  # atno 8010 bound_to 7997
  140.6918  143.6454  150.8397 H   0  0  0  0  0  0  0  0  0  0  0  0  # atno 10167 bound_to 10162
  157.3171  130.7429  149.6761 H   0  0  0  0  0  0  0  0  0  0  0  0  # atno 10718 bound_to 10713
  153.6438  135.6984  153.5232 H   0  0  0  0  0  0  0  0  0  0  0  0  # atno 10763 bound_to 10752
  153.2761  135.4200  155.1033 H   0  0  0  0  0  0  0  0  0  0  0  0  # atno 10764 bound_to 10752
  154.8493  135.3590  154.5983 H   0  0  0  0  0  0  0  0  0  0  0  0  # atno 10765 bound_to 10752
  139.9681  134.9585  156.9316 H   0  0  0  0  0  0  0  0  0  0  0  0  # atno 11005 bound_to 11000
  144.7562  139.7068  143.7253 LP  0  0  0  0  0  0  0  0  0  0  0  0  # atno 17320 bound_to 7965
  146.1961  139.5229  142.9773 LP  0  0  0  0  0  0  0  0  0  0  0  0  # atno 17321 bound_to 7965
  140.0168  143.5584  152.2817 LP  0  0  0  0  0  0  0  0  0  0  0  0  # atno 17342 bound_to 10162
  139.6328  144.7646  151.2500 LP  0  0  0  0  0  0  0  0  0  0  0  0  # atno 17343 bound_to 10162
  155.9682  130.4234  150.4560 LP  0  0  0  0  0  0  0  0  0  0  0  0  # atno 17370 bound_to 10713
  157.2569  131.0558  151.2344 LP  0  0  0  0  0  0  0  0  0  0  0  0  # atno 17371 bound_to 10713
  140.5352  134.0774  155.7326 LP  0  0  0  0  0  0  0  0  0  0  0  0  # atno 17394 bound_to 11000
  141.1361  133.9219  157.2431 LP  0  0  0  0  0  0  0  0  0  0  0  0  # atno 17395 bound_to 11000

$$$$
