AV-unprocessed.smi:705|AV-procd|sdf|3449|dock2
  -GOLD-   22720 0433D 1   1.00000     0.00000
 Structure written by MMmdl.
 29 30  0  0  0  0  0  0  0  0  2 V2000
  144.3839  133.1862  156.4826 N   0  0  0  0  0  0  0  0  0  0  0  0
  145.3870  134.0560  156.3368 C   0  0  0  0  0  0  0  0  0  0  0  0
  145.9359  134.6053  157.2905 O   0  0  0  0  0  0  0  0  0  0  0  0
  145.8062  134.3297  154.9223 C   0  0  0  0  0  0  0  0  0  0  0  0
  145.1349  133.7020  153.8301 C   0  0  0  0  0  0  0  0  0  0  0  0
  145.7746  134.1777  152.7191 C   0  0  0  0  0  0  0  0  0  0  0  0
  145.5521  133.9155  151.2628 C   0  0  1  0  0  0  0  0  0  0  0  0
  145.7701  132.4325  150.9038 C   0  0  0  0  0  0  0  0  0  0  0  0
  145.5111  132.1890  149.4091 C   0  0  0  0  0  0  0  0  0  0  0  0
  144.1121  132.6829  149.0083 C   0  0  0  0  0  0  0  0  0  0  0  0
  143.9404  134.1072  149.3674 N   0  3  0  0  0  0  0  0  0  0  0  0
  144.1485  134.3683  150.8090 C   0  0  0  0  0  0  0  0  0  0  0  0
  146.7508  135.0340  153.1768 N   0  0  0  0  0  0  0  0  0  0  0  0
  146.7816  135.1343  154.5187 N   0  0  0  0  0  0  0  0  0  0  0  0
  147.3983  135.5459  152.5940 H   0  0  0  0  0  0  0  0  0  0  0  0
  144.0484  132.9546  157.4062 H   0  0  0  0  0  0  0  0  0  0  0  0
  143.9659  132.7656  155.6653 H   0  0  0  0  0  0  0  0  0  0  0  0
  144.3084  133.0071  153.8578 H   0  0  0  0  0  0  0  0  0  0  0  0
  146.2826  134.4986  150.6994 H   0  0  0  0  0  0  0  0  0  0  0  0
  146.7866  132.1296  151.1575 H   0  0  0  0  0  0  0  0  0  0  0  0
  145.1021  131.8032  151.4936 H   0  0  0  0  0  0  0  0  0  0  0  0
  146.2671  132.7054  148.8161 H   0  0  0  0  0  0  0  0  0  0  0  0
  145.6119  131.1272  149.1821 H   0  0  0  0  0  0  0  0  0  0  0  0
  143.9610  132.5641  147.9352 H   0  0  0  0  0  0  0  0  0  0  0  0
  143.3433  132.0912  149.5073 H   0  0  0  0  0  0  0  0  0  0  0  0
  144.6069  134.6540  148.8414 H   0  0  0  0  0  0  0  0  0  0  0  0
  143.3757  133.8503  151.3790 H   0  0  0  0  0  0  0  0  0  0  0  0
  144.0169  135.4350  150.9933 H   0  0  0  0  0  0  0  0  0  0  0  0
  143.0071  134.3993  149.1136 H   0  0  0  0  0  0  0  0  0  0  0  0
  1  2  1  0  0  0  0
  1 16  1  0  0  0  0
  1 17  1  0  0  0  0
  2  3  2  0  0  0  0
  2  4  1  0  0  0  0
  4 14  2  0  0  0  0
  4  5  1  0  0  0  0
  5  6  2  0  0  0  0
  5 18  1  0  0  0  0
  6  7  1  0  0  0  0
  6 13  1  0  0  0  0
  7 12  1  0  0  0  0
  7  8  1  0  0  0  0
  7 19  1  0  0  0  0
  8  9  1  0  0  0  0
  8 20  1  0  0  0  0
  8 21  1  0  0  0  0
  9 10  1  0  0  0  0
  9 22  1  0  0  0  0
  9 23  1  0  0  0  0
 10 11  1  0  0  0  0
 10 24  1  0  0  0  0
 10 25  1  0  0  0  0
 11 12  1  0  0  0  0
 11 26  1  0  0  0  0
 11 29  1  0  0  0  0
 12 27  1  0  0  0  0
 12 28  1  0  0  0  0
 13 15  1  0  0  0  0
 13 14  1  0  0  0  0
M  CHG  1  11   1
M  END
> <s_m_source_file>
AV-unprocessed.smi

> <i_m_source_file_index>
705

> <i_lp_mmshare_version>
43012

> <i_f3d_flags>
0

> <s_epik_input>
W05IMl1DKD1PKWMxW2NIXWMoW25IXW4xKVtDQEBIXTJbQ0gyXVtDSDJdW0NIMl1bTkhdW0NIMl0y

> <s_epik_cmdline>
J2VwaWtfcHl0aG9uJywgJy1waCcsICc3LjAnLCAnLXRuJywgJzgnLCAnLW1hJywgJzIwMCcsICctbWV0YWxfYmluZGluZycsICctaW1hZScsICc8aW5maWxlLm1hZT4nLCAnLW9tYWUnLCAnPG91dGZpbGUubWFlPic=

> <r_lp_tautomer_probability>
0.5

> <r_epik_Ionization_Penalty>
0.000245231

> <r_epik_Ionization_Penalty_Charging>
0.000226378

> <r_epik_Ionization_Penalty_Neutral>
1.88531e-05

> <r_epik_State_Penalty>
0.41068

> <r_epik_Charging_Adjusted_Penalty>
0.410906

> <i_epik_Tot_Q>
1

> <i_epik_Tot_abs_Q>
1

> <r_epik_Metal_State_Penalty>
0.446108

> <b_epik_Metal_Only>
0

> <s_lp_Force_Field>
OPLS_2005

> <r_lp_Energy>
15.347

> <b_lp_Chiralities_Consistent>
1

> <s_lp_Variant>
AV-unprocessed.smi:705-4

> <Gold.Version>
5.8.1

> <Gold.Id.Protein>
6NUR|6NUR_protein|mol2

> <Gold.PLP.Fitness>
35.5861

> <Gold.PLP.PLP>
-20.5876

> <Gold.PLP.part.hbond>
-4.0000

> <Gold.PLP.part.metal>
0.0000

> <Gold.PLP.part.buried>
-3.0619

> <Gold.PLP.part.nonpolar>
-14.2092

> <Gold.PLP.part.repulsive>
0.1717

> <Gold.PLP.ligand.clash>
0.0000

> <Gold.PLP.ligand.torsion>
0.0091

> <Gold.PLP.Chemscore.Hbond>
5.0000

> <Gold.PLP.Chemscore.CHOScore>
0.0000

> <Gold.PLP.Chemscore.Metal>
0.0000

> <Gold.Chemscore.Hbonds>
donor molecule, donor type, donor heavy atom, donor atom, acceptor molecule, acceptor atom, score
      L1  H     1    17       P1 10957  1.00
      L1  H    11    26       P1  7921  1.00
      L1  H    11    29       P1 10186  1.97
      L1  H    13    15       P1  7948  1.00

> <Gold.PLP.Chemscore.Internal.Correction>
0.0166

> <Gold.Rescore>
     Score         DG    S(hbond)    S(metal)    S(lipo)     H(rot)  DE(clash)    DE(int)     intcor
     22.06     -22.13       3.84        0.00      54.66       1.00       0.05       0.02       ----

> <Gold.Chemscore.Fitness>
22.0574

> <Gold.Chemscore.DG>
-22.1311

> <Gold.Chemscore.ZeroCoef>
-5.4800

> <Gold.Chemscore.Hbond>
3.8369

> <Gold.Chemscore.Metal>
0.0000

> <Gold.Chemscore.Lipo>
54.6638

> <Gold.Chemscore.Internal_Hbond>
0.0000

> <Gold.Chemscore.DEClash>
0.0533

> <Gold.Chemscore.DEInternal>
0.0204

> <Gold.Chemscore.Rot>
1.0000

> <Gold.Chemscore.Internal.Correction>
   9.000000E+99

> <Gold.Chemscore.Hbonds>
donor molecule, donor type, donor heavy atom, donor atom, acceptor molecule, acceptor atom, score
      L1  H     1    17       P1 10957  0.96
      L1  H    11    26       P1  7921  0.95
      L1  H    11    29       P1 10186  0.86
      L1  H    13    15       P1  7948  1.00

> <Gold.Chemscore.Hbond.Weighted>
-12.8154

> <Gold.Chemscore.Metal.Weighted>
-0.0000

> <Gold.Chemscore.Lipo.Weighted>
-6.3957

> <Gold.Chemscore.Internal_Hbond.Weighted>
0.0000

> <Gold.Chemscore.DEClash.Weighted>
0.0533

> <Gold.Chemscore.DEInternal.Weighted>
0.0204

> <Gold.Chemscore.Rot.Weighted>
2.5600

> <Gold.Chemscore.Internal.Correction.Weighted>
   9.000000E+99

> <Gold.Protein.RotatedTorsions>
[ 6907 6896 6895 6894 ] final  -58.94 input  -60.11 | X-H torsion
[ 7974 7965 7964 7962 ] final  -61.74 input  175.53 | X-H torsion
[ 8008 7997 7996 7995 ] final -132.82 input   59.86 | X-H torsion
[ 10167 10162 10161 10158 ] final   67.51 input  -65.29 | X-H torsion
[ 10718 10713 10712 10709 ] final  157.93 input   66.30 | X-H torsion
[ 10763 10752 10751 10750 ] final  -45.82 input  -60.55 | X-H torsion
[ 11005 11000 10999 10996 ] final   41.03 input  -57.11 | X-H torsion

> <Gold.Protein.ActiveResidues>
 VAL166  LYS551  ARG553  GLY616  TRP617  ASP618  TYR619  PRO620  LYS621  CYS622 
 ASP623  PHE694  ASN695  SER759  ASP760  ASP761  ALA762  ILE779  LEU786  VAL792 
 PHE793  MET794  SER795  GLU796  ALA797  LYS798  CYS799  TRP800  GLU811  SER814 

> <Gold.Protein.RotatedAtoms>
  150.7968  134.7033  159.6561 H   0  0  0  0  0  0  0  0  0  0  0  0  # atno 6907 bound_to 6896
  152.4081  134.6169  160.0050 H   0  0  0  0  0  0  0  0  0  0  0  0  # atno 6908 bound_to 6896
  151.6420  133.3288  159.3168 H   0  0  0  0  0  0  0  0  0  0  0  0  # atno 6909 bound_to 6896
  145.7998  140.8662  143.0237 H   0  0  0  0  0  0  0  0  0  0  0  0  # atno 7974 bound_to 7965
  155.3353  140.0469  157.3043 H   0  0  0  0  0  0  0  0  0  0  0  0  # atno 8008 bound_to 7997
  154.5306  140.2256  155.8776 H   0  0  0  0  0  0  0  0  0  0  0  0  # atno 8009 bound_to 7997
  156.1785  140.3079  155.9110 H   0  0  0  0  0  0  0  0  0  0  0  0  # atno 8010 bound_to 7997
  140.0888  144.5006  150.7112 H   0  0  0  0  0  0  0  0  0  0  0  0  # atno 10167 bound_to 10162
  157.1848  131.0641  151.2112 H   0  0  0  0  0  0  0  0  0  0  0  0  # atno 10718 bound_to 10713
  154.0348  135.6652  153.4784 H   0  0  0  0  0  0  0  0  0  0  0  0  # atno 10763 bound_to 10752
  153.0525  135.5076  154.7898 H   0  0  0  0  0  0  0  0  0  0  0  0  # atno 10764 bound_to 10752
  154.6855  135.3052  154.9519 H   0  0  0  0  0  0  0  0  0  0  0  0  # atno 10765 bound_to 10752
  140.1874  134.4029  155.8165 H   0  0  0  0  0  0  0  0  0  0  0  0  # atno 11005 bound_to 11000
  144.6770  140.0243  143.7483 LP  0  0  0  0  0  0  0  0  0  0  0  0  # atno 17320 bound_to 7965
  145.9890  139.3000  143.0996 LP  0  0  0  0  0  0  0  0  0  0  0  0  # atno 17321 bound_to 7965
  140.7039  143.2454  151.4783 LP  0  0  0  0  0  0  0  0  0  0  0  0  # atno 17342 bound_to 10162
  139.5737  144.1869  152.1872 LP  0  0  0  0  0  0  0  0  0  0  0  0  # atno 17343 bound_to 10162
  157.3917  130.7286  149.6702 LP  0  0  0  0  0  0  0  0  0  0  0  0  # atno 17370 bound_to 10713
  155.9719  130.4144  150.4133 LP  0  0  0  0  0  0  0  0  0  0  0  0  # atno 17371 bound_to 10713
  141.2225  133.7029  156.8036 LP  0  0  0  0  0  0  0  0  0  0  0  0  # atno 17394 bound_to 11000
  140.2198  134.8765  157.3365 LP  0  0  0  0  0  0  0  0  0  0  0  0  # atno 17395 bound_to 11000

$$$$
