AV-unprocessed.smi:1208|AV-procd|sdf|5061|dock6
  -GOLD-   22720 4103D 1   1.00000     0.00000
 Structure written by MMmdl.
 35 36  0  0  0  0  0  0  0  0  2 V2000
  152.7209  139.0055  158.5959 C   0  0  0  0  0  0  0  0  0  0  0  0
  151.4654  139.7814  159.0237 C   0  0  2  0  0  0  0  0  0  0  0  0
  150.2961  138.9336  158.8005 N   0  0  0  0  0  0  0  0  0  0  0  0
  150.1510  137.6623  159.2063 C   0  0  0  0  0  0  0  0  0  0  0  0
  151.0183  137.0483  159.8304 O   0  0  0  0  0  0  0  0  0  0  0  0
  148.8116  137.0033  158.8385 C   0  0  0  0  0  0  0  0  0  0  0  0
  148.1823  136.2525  159.9352 N   0  0  0  0  0  0  0  0  0  0  0  0
  147.5705  137.1005  160.9551 N   0  5  0  0  0  0  0  0  0  0  0  0
  146.9472  136.5184  162.0137 C   0  0  0  0  0  0  0  0  0  0  0  0
  146.4000  137.1658  162.9035 O   0  0  0  0  0  0  0  0  0  0  0  0
  146.9371  135.0668  162.0884 C   0  0  0  0  0  0  0  0  0  0  0  0
  147.5283  134.3094  161.1436 C   0  0  0  0  0  0  0  0  0  0  0  0
  148.2072  134.8901  159.9914 C   0  0  0  0  0  0  0  0  0  0  0  0
  148.7599  134.2046  159.1308 O   0  0  0  0  0  0  0  0  0  0  0  0
  151.3001  141.1056  158.2506 C   0  0  2  0  0  0  0  0  0  0  0  0
  152.2196  142.2359  158.7197 C   0  0  0  0  0  0  0  0  0  0  0  0
  151.4456  143.4615  158.2942 C   0  0  0  0  0  0  0  0  0  0  0  0
  150.0133  143.0362  158.5970 C   0  0  0  0  0  0  0  0  0  0  0  0
  149.9802  141.6234  158.4151 O   0  0  0  0  0  0  0  0  0  0  0  0
  153.6282  139.5790  158.7856 H   0  0  0  0  0  0  0  0  0  0  0  0
  152.6957  138.7639  157.5328 H   0  0  0  0  0  0  0  0  0  0  0  0
  152.8089  138.0693  159.1481 H   0  0  0  0  0  0  0  0  0  0  0  0
  151.5649  140.0129  160.0856 H   0  0  0  0  0  0  0  0  0  0  0  0
  149.5266  139.3504  158.2976 H   0  0  0  0  0  0  0  0  0  0  0  0
  148.1276  137.7755  158.4824 H   0  0  0  0  0  0  0  0  0  0  0  0
  148.9791  136.3464  157.9826 H   0  0  0  0  0  0  0  0  0  0  0  0
  146.4462  134.5853  162.9213 H   0  0  0  0  0  0  0  0  0  0  0  0
  147.4974  133.2343  161.2402 H   0  0  0  0  0  0  0  0  0  0  0  0
  151.4563  140.9412  157.1831 H   0  0  0  0  0  0  0  0  0  0  0  0
  152.3256  142.2223  159.8055 H   0  0  0  0  0  0  0  0  0  0  0  0
  153.2151  142.1870  158.2778 H   0  0  0  0  0  0  0  0  0  0  0  0
  151.7444  144.3660  158.8243 H   0  0  0  0  0  0  0  0  0  0  0  0
  151.5711  143.6315  157.2240 H   0  0  0  0  0  0  0  0  0  0  0  0
  149.7629  143.2558  159.6355 H   0  0  0  0  0  0  0  0  0  0  0  0
  149.2857  143.5382  157.9591 H   0  0  0  0  0  0  0  0  0  0  0  0
  1  2  1  0  0  0  0
  1 20  1  0  0  0  0
  1 21  1  0  0  0  0
  1 22  1  0  0  0  0
  2  3  1  0  0  0  0
  2 15  1  0  0  0  0
  2 23  1  0  0  0  0
  3  4  1  0  0  0  0
  3 24  1  0  0  0  0
  4  5  2  0  0  0  0
  4  6  1  0  0  0  0
  6 25  1  0  0  0  0
  6 26  1  0  0  0  0
  6  7  1  0  0  0  0
  7  8  1  0  0  0  0
  7 13  1  0  0  0  0
  8  9  1  0  0  0  0
  9 10  2  0  0  0  0
  9 11  1  0  0  0  0
 11 27  1  0  0  0  0
 11 12  2  0  0  0  0
 12 28  1  0  0  0  0
 12 13  1  0  0  0  0
 13 14  2  0  0  0  0
 15 19  1  0  0  0  0
 15 16  1  0  0  0  0
 15 29  1  0  0  0  0
 16 17  1  0  0  0  0
 16 30  1  0  0  0  0
 16 31  1  0  0  0  0
 17 18  1  0  0  0  0
 17 32  1  0  0  0  0
 17 33  1  0  0  0  0
 18 19  1  0  0  0  0
 18 34  1  0  0  0  0
 18 35  1  0  0  0  0
M  CHG  1   8  -1
M  END
> <s_m_source_file>
AV-unprocessed.smi

> <i_m_source_file_index>
1208

> <i_lp_mmshare_version>
43012

> <i_f3d_flags>
0

> <s_epik_input>
TzFbQ0gyXVtDSDJdW0NIMl1bQ0BIXTFbQ0BIXShbQ0gzXSlbTkhdQyg9TylbQ0gyXW4yW25IXWMoPU8pW2NIXVtjSF1jMj1P

> <s_epik_cmdline>
J2VwaWtfcHl0aG9uJywgJy1waCcsICc3LjAnLCAnLXRuJywgJzgnLCAnLW1hJywgJzIwMCcsICctbWV0YWxfYmluZGluZycsICctaW1hZScsICc8aW5maWxlLm1hZT4nLCAnLW9tYWUnLCAnPG91dGZpbGUubWFlPic=

> <r_lp_tautomer_probability>
1

> <r_epik_Ionization_Penalty>
0.0975494

> <r_epik_Ionization_Penalty_Charging>
0.0975494

> <r_epik_Ionization_Penalty_Neutral>
2.30132e-08

> <r_epik_State_Penalty>
0.034345

> <r_epik_Charging_Adjusted_Penalty>
0.131894

> <i_epik_Tot_Q>
-1

> <i_epik_Tot_abs_Q>
1

> <r_epik_Metal_State_Penalty>
0.034345

> <b_epik_Metal_Only>
0

> <s_lp_Force_Field>
OPLS_2005

> <r_lp_Energy>
34.668

> <b_lp_Chiralities_Consistent>
1

> <s_lp_Variant>
AV-unprocessed.smi:1208-1

> <Gold.Version>
5.8.1

> <Gold.Id.Protein>
6NUR|6NUR_protein|mol2

> <Gold.PLP.Fitness>
44.5457

> <Gold.PLP.PLP>
-29.6912

> <Gold.PLP.part.hbond>
-4.0000

> <Gold.PLP.part.metal>
0.0000

> <Gold.PLP.part.buried>
-4.6639

> <Gold.PLP.part.nonpolar>
-22.5658

> <Gold.PLP.part.repulsive>
0.2160

> <Gold.PLP.ligand.clash>
0.0000

> <Gold.PLP.ligand.torsion>
0.7072

> <Gold.PLP.Chemscore.Hbond>
5.4192

> <Gold.PLP.Chemscore.CHOScore>
0.0000

> <Gold.PLP.Chemscore.Metal>
0.0000

> <Gold.Chemscore.Hbonds>
donor molecule, donor type, donor heavy atom, donor atom, acceptor molecule, acceptor atom, score
      P1  H  6896  6907       L1     5  1.00
      P1  H  6896  6909       L1    14  0.83
      P1  H  6931  6943       L1     8  1.54
      P1  H  6934  6947       L1     8  1.95

> <Gold.PLP.Chemscore.Internal.Correction>
0.0112

> <Gold.Rescore>
     Score         DG    S(hbond)    S(metal)    S(lipo)     H(rot)  DE(clash)    DE(int)     intcor
     13.94     -16.62       2.71        0.00      61.52       1.99       0.41       2.27       ----

> <Gold.Chemscore.Fitness>
13.9437

> <Gold.Chemscore.DG>
-16.6227

> <Gold.Chemscore.ZeroCoef>
-5.4800

> <Gold.Chemscore.Hbond>
2.7096

> <Gold.Chemscore.Metal>
0.0000

> <Gold.Chemscore.Lipo>
61.5156

> <Gold.Chemscore.Internal_Hbond>
0.0000

> <Gold.Chemscore.DEClash>
0.4096

> <Gold.Chemscore.DEInternal>
2.2694

> <Gold.Chemscore.Rot>
1.9940

> <Gold.Chemscore.Internal.Correction>
   9.000000E+99

> <Gold.Chemscore.Hbonds>
donor molecule, donor type, donor heavy atom, donor atom, acceptor molecule, acceptor atom, score
      P1  H  6896  6907       L1     5  0.92
      P1  H  6896  6909       L1    14  0.75
      P1  H  6931  6943       L1     8  0.19
      P1  H  6934  6947       L1     8  0.69

> <Gold.Chemscore.Hbond.Weighted>
-9.0500

> <Gold.Chemscore.Metal.Weighted>
-0.0000

> <Gold.Chemscore.Lipo.Weighted>
-7.1973

> <Gold.Chemscore.Internal_Hbond.Weighted>
0.0000

> <Gold.Chemscore.DEClash.Weighted>
0.4096

> <Gold.Chemscore.DEInternal.Weighted>
2.2694

> <Gold.Chemscore.Rot.Weighted>
5.1047

> <Gold.Chemscore.Internal.Correction.Weighted>
   9.000000E+99

> <Gold.Protein.RotatedTorsions>
[ 6907 6896 6895 6894 ] final    7.13 input  -60.11 | X-H torsion
[ 7974 7965 7964 7962 ] final  173.34 input  175.53 | X-H torsion
[ 8008 7997 7996 7995 ] final  -22.25 input   59.86 | X-H torsion
[ 10167 10162 10161 10158 ] final -160.23 input  -65.29 | X-H torsion
[ 10718 10713 10712 10709 ] final  110.08 input   66.30 | X-H torsion
[ 10763 10752 10751 10750 ] final -146.07 input  -60.55 | X-H torsion
[ 11005 11000 10999 10996 ] final -103.74 input  -57.11 | X-H torsion

> <Gold.Protein.ActiveResidues>
 VAL166  LYS551  ARG553  GLY616  TRP617  ASP618  TYR619  PRO620  LYS621  CYS622 
 ASP623  PHE694  ASN695  SER759  ASP760  ASP761  ALA762  ILE779  LEU786  VAL792 
 PHE793  MET794  SER795  GLU796  ALA797  LYS798  CYS799  TRP800  GLU811  SER814 

> <Gold.Protein.RotatedAtoms>
  151.6849  135.0956  160.0222 H   0  0  0  0  0  0  0  0  0  0  0  0  # atno 6907 bound_to 6896
  152.3813  133.6546  159.6172 H   0  0  0  0  0  0  0  0  0  0  0  0  # atno 6908 bound_to 6896
  150.7749  133.9025  159.3387 H   0  0  0  0  0  0  0  0  0  0  0  0  # atno 6909 bound_to 6896
  144.7246  139.9632  143.6435 H   0  0  0  0  0  0  0  0  0  0  0  0  # atno 7974 bound_to 7965
  154.4656  140.2013  156.0129 H   0  0  0  0  0  0  0  0  0  0  0  0  # atno 8008 bound_to 7997
  156.0920  140.3256  155.7799 H   0  0  0  0  0  0  0  0  0  0  0  0  # atno 8009 bound_to 7997
  155.4941  140.0548  157.2940 H   0  0  0  0  0  0  0  0  0  0  0  0  # atno 8010 bound_to 7997
  139.6555  144.0007  152.2191 H   0  0  0  0  0  0  0  0  0  0  0  0  # atno 10167 bound_to 10162
  157.6511  131.0926  150.6549 H   0  0  0  0  0  0  0  0  0  0  0  0  # atno 10718 bound_to 10713
  154.8354  135.3396  154.6604 H   0  0  0  0  0  0  0  0  0  0  0  0  # atno 10763 bound_to 10752
  153.7219  135.6957  153.5015 H   0  0  0  0  0  0  0  0  0  0  0  0  # atno 10764 bound_to 10752
  153.2375  135.4395  155.0615 H   0  0  0  0  0  0  0  0  0  0  0  0  # atno 10765 bound_to 10752
  141.1132  133.8665  157.1524 H   0  0  0  0  0  0  0  0  0  0  0  0  # atno 11005 bound_to 11000
  146.0621  139.3613  143.0575 LP  0  0  0  0  0  0  0  0  0  0  0  0  # atno 17320 bound_to 7965
  145.8079  140.9740  143.0964 LP  0  0  0  0  0  0  0  0  0  0  0  0  # atno 17321 bound_to 7965
  139.9732  144.6479  150.7969 LP  0  0  0  0  0  0  0  0  0  0  0  0  # atno 17342 bound_to 10162
  140.7557  143.3051  151.2982 LP  0  0  0  0  0  0  0  0  0  0  0  0  # atno 17343 bound_to 10162
  156.6861  130.4581  149.5613 LP  0  0  0  0  0  0  0  0  0  0  0  0  # atno 17370 bound_to 10713
  156.1895  130.6550  151.1045 LP  0  0  0  0  0  0  0  0  0  0  0  0  # atno 17371 bound_to 10713
  140.0038  135.0017  157.0248 LP  0  0  0  0  0  0  0  0  0  0  0  0  # atno 17394 bound_to 11000
  140.4718  134.1379  155.7204 LP  0  0  0  0  0  0  0  0  0  0  0  0  # atno 17395 bound_to 11000

$$$$
