AV-unprocessed.smi:53|AV-procd|sdf|526|dock3
  -GOLD-   2262016403D 1   1.00000     0.00000
 Structure written by MMmdl.
 30 31  0  0  0  0  0  0  0  0  1 V2000
  152.9799  142.7321  159.4328 N   0  0  0  0  0  0  0  0  0  0  0  0
  152.1368  142.0772  158.6217 C   0  0  0  0  0  0  0  0  0  0  0  0
  151.0663  142.7852  157.9571 C   0  0  0  0  0  0  0  0  0  0  0  0
  150.2567  142.0577  157.1561 C   0  0  0  0  0  0  0  0  0  0  0  0
  150.4323  140.6920  156.9706 N   0  0  0  0  0  0  0  0  0  0  0  0
  149.5188  139.8700  156.0776 C   0  0  1  0  0  0  0  0  0  0  0  0
  148.4562  140.6611  155.6303 O   0  0  0  0  0  0  0  0  0  0  0  0
  148.6195  140.9671  154.2489 C   0  0  2  0  0  0  0  0  0  0  0  0
  147.2779  141.3482  153.5997 C   0  0  0  0  0  0  0  0  0  0  0  0
  146.3756  140.2655  153.6812 O   0  0  0  0  0  0  0  0  0  0  0  0
  149.2885  139.7028  153.6970 C   0  0  2  0  0  0  0  0  0  0  0  0
  148.3368  138.6800  153.4625 O   0  0  0  0  0  0  0  0  0  0  0  0
  150.2334  139.3057  154.8235 C   0  0  1  0  0  0  0  0  0  0  0  0
  151.5126  139.8703  154.5886 O   0  0  0  0  0  0  0  0  0  0  0  0
  151.4919  140.0284  157.6346 C   0  0  0  0  0  0  0  0  0  0  0  0
  151.6907  138.8228  157.4881 O   0  0  0  0  0  0  0  0  0  0  0  0
  152.3017  140.7812  158.4422 N   0  0  0  0  0  0  0  0  0  0  0  0
  149.0963  139.0947  156.7199 H   0  0  0  0  0  0  0  0  0  0  0  0
  149.3290  141.7903  154.1466 H   0  0  0  0  0  0  0  0  0  0  0  0
  149.8111  139.8958  152.7589 H   0  0  0  0  0  0  0  0  0  0  0  0
  150.3454  138.2245  154.9155 H   0  0  0  0  0  0  0  0  0  0  0  0
  153.7268  142.2347  159.8954 H   0  0  0  0  0  0  0  0  0  0  0  0
  152.8661  143.7249  159.5783 H   0  0  0  0  0  0  0  0  0  0  0  0
  150.8926  143.8454  158.0741 H   0  0  0  0  0  0  0  0  0  0  0  0
  149.4556  142.5828  156.6591 H   0  0  0  0  0  0  0  0  0  0  0  0
  146.8286  142.1868  154.1323 H   0  0  0  0  0  0  0  0  0  0  0  0
  147.4093  141.6524  152.5607 H   0  0  0  0  0  0  0  0  0  0  0  0
  145.5434  140.5397  153.3269 H   0  0  0  0  0  0  0  0  0  0  0  0
  148.7406  138.0084  152.9346 H   0  0  0  0  0  0  0  0  0  0  0  0
  152.0745  139.1939  154.2412 H   0  0  0  0  0  0  0  0  0  0  0  0
  1  2  1  0  0  0  0
  1 22  1  0  0  0  0
  1 23  1  0  0  0  0
  2 17  2  0  0  0  0
  2  3  1  0  0  0  0
  3  4  2  0  0  0  0
  3 24  1  0  0  0  0
  4  5  1  0  0  0  0
  4 25  1  0  0  0  0
  5  6  1  0  0  0  0
  5 15  1  0  0  0  0
  6 18  1  0  0  0  0
  6 13  1  0  0  0  0
  6  7  1  0  0  0  0
  7  8  1  0  0  0  0
  8 19  1  0  0  0  0
  8  9  1  0  0  0  0
  8 11  1  0  0  0  0
  9 10  1  0  0  0  0
  9 26  1  0  0  0  0
  9 27  1  0  0  0  0
 10 28  1  0  0  0  0
 11 20  1  0  0  0  0
 11 12  1  0  0  0  0
 11 13  1  0  0  0  0
 12 29  1  0  0  0  0
 13 21  1  0  0  0  0
 13 14  1  0  0  0  0
 14 30  1  0  0  0  0
 15 16  2  0  0  0  0
 15 17  1  0  0  0  0
M  END
> <s_m_source_file>
AV-unprocessed.smi

> <i_m_source_file_index>
53

> <i_lp_mmshare_version>
43012

> <i_f3d_flags>
0

> <s_epik_input>
W05IMl1jMVtjSF1bY0hdbihjKD1PKW4xKVtDQEBIXTJPW0NASF0oW0NIMl1bT0hdKVtDQEBIXShbT0hdKVtDQEBIXTJbT0hd

> <s_epik_cmdline>
J2VwaWtfcHl0aG9uJywgJy1waCcsICc3LjAnLCAnLXRuJywgJzgnLCAnLW1hJywgJzIwMCcsICctbWV0YWxfYmluZGluZycsICctaW1hZScsICc8aW5maWxlLm1hZT4nLCAnLW9tYWUnLCAnPG91dGZpbGUubWFlPic=

> <r_lp_tautomer_probability>
0.99996

> <r_epik_Ionization_Penalty>
0.00069087

> <r_epik_Ionization_Penalty_Charging>
2.61959e-08

> <r_epik_Ionization_Penalty_Neutral>
0.000690844

> <r_epik_State_Penalty>
1.15523e-05

> <r_epik_Charging_Adjusted_Penalty>
1.15785e-05

> <i_epik_Tot_Q>
0

> <i_epik_Tot_abs_Q>
0

> <r_epik_Metal_State_Penalty>
-0

> <b_epik_Metal_Only>
0

> <s_epik_Chemistry_Notes>
This compound contains an acetal/aminal-like group ( X-CH(R)-Y where X, Y are N, S, or O) that may be acid/base labile, releasing an aldehyde.

> <s_lp_Force_Field>
OPLS_2005

> <r_lp_Energy>
36.7572

> <b_lp_Chiralities_Consistent>
1

> <s_lp_Variant>
AV-unprocessed.smi:53-14

> <Gold.Version>
5.8.1

> <Gold.Id.Protein>
6NUR|6NUR_protein|mol2

> <Gold.PLP.Fitness>
36.1124

> <Gold.PLP.PLP>
-24.3219

> <Gold.PLP.part.hbond>
-4.0000

> <Gold.PLP.part.metal>
0.0000

> <Gold.PLP.part.buried>
-2.6325

> <Gold.PLP.part.nonpolar>
-18.8501

> <Gold.PLP.part.repulsive>
0.1129

> <Gold.PLP.ligand.clash>
0.0000

> <Gold.PLP.ligand.torsion>
0.0846

> <Gold.PLP.Chemscore.Hbond>
2.9663

> <Gold.PLP.Chemscore.CHOScore>
1.0000

> <Gold.PLP.Chemscore.Metal>
0.0000

> <Gold.Chemscore.Hbonds>
donor molecule, donor type, donor heavy atom, donor atom, acceptor molecule, acceptor atom, score
      L1  H    10    28       P1 10175  0.98
      L1  H    12    29       P1  7948  0.93
      P1  H  7989  7998       L1    14  0.82
      L1  C     4    25       P1  8028  1.00

> <Gold.PLP.Chemscore.Internal.Correction>
0.0610

> <Gold.Rescore>
     Score         DG    S(hbond)    S(metal)    S(lipo)     H(rot)  DE(clash)    DE(int)     intcor
      9.41     -10.47       2.79        0.00      44.20       3.71       0.78       0.28       ----

> <Gold.Chemscore.Fitness>
9.4106

> <Gold.Chemscore.DG>
-10.4715

> <Gold.Chemscore.ZeroCoef>
-5.4800

> <Gold.Chemscore.Hbond>
2.7894

> <Gold.Chemscore.Metal>
0.0000

> <Gold.Chemscore.Lipo>
44.1987

> <Gold.Chemscore.Internal_Hbond>
0.0000

> <Gold.Chemscore.DEClash>
0.7807

> <Gold.Chemscore.DEInternal>
0.2802

> <Gold.Chemscore.Rot>
3.7095

> <Gold.Chemscore.Internal.Correction>
   9.000000E+99

> <Gold.Chemscore.Hbonds>
donor molecule, donor type, donor heavy atom, donor atom, acceptor molecule, acceptor atom, score
      L1  H    10    28       P1 10175  0.84
      L1  H    12    29       P1  7948  0.88
      P1  H  7989  7998       L1    14  0.17

> <Gold.Chemscore.Hbond.Weighted>
-9.3167

> <Gold.Chemscore.Metal.Weighted>
-0.0000

> <Gold.Chemscore.Lipo.Weighted>
-5.1712

> <Gold.Chemscore.Internal_Hbond.Weighted>
0.0000

> <Gold.Chemscore.DEClash.Weighted>
0.7807

> <Gold.Chemscore.DEInternal.Weighted>
0.2802

> <Gold.Chemscore.Rot.Weighted>
9.4964

> <Gold.Chemscore.Internal.Correction.Weighted>
   9.000000E+99

> <Gold.Protein.RotatedTorsions>
[ 6907 6896 6895 6894 ] final  141.07 input  -60.11 | X-H torsion
[ 7974 7965 7964 7962 ] final -100.25 input  175.53 | X-H torsion
[ 8008 7997 7996 7995 ] final  -48.34 input   59.86 | X-H torsion
[ 10167 10162 10161 10158 ] final   71.79 input  -65.29 | X-H torsion
[ 10718 10713 10712 10709 ] final   45.68 input   66.30 | X-H torsion
[ 10763 10752 10751 10750 ] final  112.43 input  -60.55 | X-H torsion
[ 11005 11000 10999 10996 ] final   -6.86 input  -57.11 | X-H torsion

> <Gold.Protein.ActiveResidues>
 VAL166  LYS551  ARG553  GLY616  TRP617  ASP618  TYR619  PRO620  LYS621  CYS622 
 ASP623  PHE694  ASN695  SER759  ASP760  ASP761  ALA762  ILE779  LEU786  VAL792 
 PHE793  MET794  SER795  GLU796  ALA797  LYS798  CYS799  TRP800  GLU811  SER814 

> <Gold.Protein.RotatedAtoms>
  152.2354  133.5092  159.5239 H   0  0  0  0  0  0  0  0  0  0  0  0  # atno 6907 bound_to 6896
  150.7049  134.1160  159.4026 H   0  0  0  0  0  0  0  0  0  0  0  0  # atno 6908 bound_to 6896
  151.9081  135.0350  160.0563 H   0  0  0  0  0  0  0  0  0  0  0  0  # atno 6909 bound_to 6896
  145.2970  140.9367  143.2845 H   0  0  0  0  0  0  0  0  0  0  0  0  # atno 7974 bound_to 7965
  154.4028  140.1324  156.4323 H   0  0  0  0  0  0  0  0  0  0  0  0  # atno 8008 bound_to 7997
  155.7539  140.3487  155.5144 H   0  0  0  0  0  0  0  0  0  0  0  0  # atno 8009 bound_to 7997
  155.8923  140.1005  157.1400 H   0  0  0  0  0  0  0  0  0  0  0  0  # atno 8010 bound_to 7997
  140.0423  144.5380  150.7425 H   0  0  0  0  0  0  0  0  0  0  0  0  # atno 10167 bound_to 10162
  157.4401  130.8076  149.7686 H   0  0  0  0  0  0  0  0  0  0  0  0  # atno 10718 bound_to 10713
  153.4778  135.3686  155.2426 H   0  0  0  0  0  0  0  0  0  0  0  0  # atno 10763 bound_to 10752
  154.8756  135.3947  154.3736 H   0  0  0  0  0  0  0  0  0  0  0  0  # atno 10764 bound_to 10752
  153.4335  135.7083  153.6280 H   0  0  0  0  0  0  0  0  0  0  0  0  # atno 10765 bound_to 10752
  140.7065  133.8945  155.8720 H   0  0  0  0  0  0  0  0  0  0  0  0  # atno 11005 bound_to 11000
  144.9125  139.4511  143.6580 LP  0  0  0  0  0  0  0  0  0  0  0  0  # atno 17320 bound_to 7965
  146.3165  139.7941  142.8979 LP  0  0  0  0  0  0  0  0  0  0  0  0  # atno 17321 bound_to 7965
  140.7255  143.2631  151.4136 LP  0  0  0  0  0  0  0  0  0  0  0  0  # atno 17342 bound_to 10162
  139.6006  144.1303  152.2194 LP  0  0  0  0  0  0  0  0  0  0  0  0  # atno 17343 bound_to 10162
  155.9945  130.3917  150.2855 LP  0  0  0  0  0  0  0  0  0  0  0  0  # atno 17370 bound_to 10713
  157.1019  131.0198  151.3082 LP  0  0  0  0  0  0  0  0  0  0  0  0  # atno 17371 bound_to 10713
  141.0120  134.1007  157.4211 LP  0  0  0  0  0  0  0  0  0  0  0  0  # atno 17394 bound_to 11000
  139.8883  135.0096  156.6610 LP  0  0  0  0  0  0  0  0  0  0  0  0  # atno 17395 bound_to 11000

$$$$
