AV-unprocessed.smi:714|AV-procd|sdf|3482|dock1
  -GOLD-   22720 0473D 1   1.00000     0.00000
 Structure written by MMmdl.
 38 39  0  0  0  0  0  0  0  0  1 V2000
  153.3265  132.2484  163.9668 C   0  0  0  0  0  0  0  0  0  0  0  0
  153.7865  132.8948  163.0384 C   0  0  0  0  0  0  0  0  0  0  0  0
  154.3538  133.6835  161.9317 C   0  0  0  0  0  0  0  0  0  0  0  0
  154.6340  135.0625  162.3151 N   0  0  0  0  0  0  0  0  0  0  0  0
  154.1530  136.1613  161.7059 C   0  0  0  0  0  0  0  0  0  0  0  0
  153.3860  136.0876  160.7444 O   0  0  0  0  0  0  0  0  0  0  0  0
  154.6330  137.4164  162.2901 C   0  0  0  0  0  0  0  0  0  0  0  0
  155.3455  137.4810  163.5555 C   0  0  0  0  0  0  0  0  0  0  0  0
  155.7881  138.6601  164.0301 C   0  0  0  0  0  0  0  0  0  0  0  0
  155.5731  139.9164  163.3074 C   0  0  0  0  0  0  0  0  0  0  0  0
  156.0077  140.9840  163.7408 O   0  0  0  0  0  0  0  0  0  0  0  0
  154.8705  139.8233  162.1296 N   0  0  0  0  0  0  0  0  0  0  0  0
  154.5476  140.9998  161.2822 C   0  0  2  0  0  0  0  0  0  0  0  0
  153.7337  142.0770  162.0276 C   0  0  0  0  0  0  0  0  0  0  0  0
  152.5701  142.4492  161.0963 C   0  0  0  0  0  0  0  0  0  0  0  0
  152.6222  141.4934  160.0019 N   0  0  0  0  0  0  0  0  0  0  0  0
  151.5805  141.4815  158.9770 C   0  0  0  0  0  0  0  0  0  0  0  0
  151.3099  142.8824  158.3972 C   0  0  0  0  0  0  0  0  0  0  0  0
  150.4450  143.5172  159.1873 F   0  0  0  0  0  0  0  0  0  0  0  0
  152.4282  143.6043  158.3308 F   0  0  0  0  0  0  0  0  0  0  0  0
  150.7787  142.7851  157.1784 F   0  0  0  0  0  0  0  0  0  0  0  0
  153.6896  140.6893  160.0564 C   0  0  0  0  0  0  0  0  0  0  0  0
  153.9816  139.8154  159.2407 O   0  0  0  0  0  0  0  0  0  0  0  0
  154.4272  138.5769  161.6369 C   0  0  0  0  0  0  0  0  0  0  0  0
  152.9272  131.6864  164.7811 H   0  0  0  0  0  0  0  0  0  0  0  0
  155.2493  133.1800  161.5643 H   0  0  0  0  0  0  0  0  0  0  0  0
  153.6303  133.6857  161.1166 H   0  0  0  0  0  0  0  0  0  0  0  0
  155.2550  135.1961  163.0996 H   0  0  0  0  0  0  0  0  0  0  0  0
  155.5378  136.5934  164.1402 H   0  0  0  0  0  0  0  0  0  0  0  0
  156.3170  138.6829  164.9717 H   0  0  0  0  0  0  0  0  0  0  0  0
  155.4521  141.4654  160.8886 H   0  0  0  0  0  0  0  0  0  0  0  0
  153.3452  141.7192  162.9815 H   0  0  0  0  0  0  0  0  0  0  0  0
  154.3510  142.9477  162.2518 H   0  0  0  0  0  0  0  0  0  0  0  0
  151.6120  142.3945  161.6143 H   0  0  0  0  0  0  0  0  0  0  0  0
  152.6892  143.4607  160.7058 H   0  0  0  0  0  0  0  0  0  0  0  0
  151.8808  140.8059  158.1750 H   0  0  0  0  0  0  0  0  0  0  0  0
  150.6624  141.0661  159.3952 H   0  0  0  0  0  0  0  0  0  0  0  0
  153.9121  138.6249  160.6880 H   0  0  0  0  0  0  0  0  0  0  0  0
  1  2  3  0  0  0  0
  1 25  1  0  0  0  0
  2  3  1  0  0  0  0
  3  4  1  0  0  0  0
  3 26  1  0  0  0  0
  3 27  1  0  0  0  0
  4  5  1  0  0  0  0
  4 28  1  0  0  0  0
  5  6  2  0  0  0  0
  5  7  1  0  0  0  0
  7 24  2  0  0  0  0
  7  8  1  0  0  0  0
  8  9  2  0  0  0  0
  8 29  1  0  0  0  0
  9 10  1  0  0  0  0
  9 30  1  0  0  0  0
 10 11  2  0  0  0  0
 10 12  1  0  0  0  0
 12 13  1  0  0  0  0
 12 24  1  0  0  0  0
 13 22  1  0  0  0  0
 13 14  1  0  0  0  0
 13 31  1  0  0  0  0
 14 15  1  0  0  0  0
 14 32  1  0  0  0  0
 14 33  1  0  0  0  0
 15 16  1  0  0  0  0
 15 34  1  0  0  0  0
 15 35  1  0  0  0  0
 16 17  1  0  0  0  0
 16 22  1  0  0  0  0
 17 18  1  0  0  0  0
 17 36  1  0  0  0  0
 17 37  1  0  0  0  0
 18 19  1  0  0  0  0
 18 20  1  0  0  0  0
 18 21  1  0  0  0  0
 22 23  2  0  0  0  0
 24 38  1  0  0  0  0
M  END
> <s_m_source_file>
AV-unprocessed.smi

> <i_m_source_file_index>
714

> <i_lp_mmshare_version>
43012

> <i_f3d_flags>
0

> <s_epik_input>
W0NIXSNDW0NIMl1bTkhdQyg9TyljMVtjSF1bY0hdYyg9TyluKFtjSF0xKVtDQEBIXTJbQ0gyXVtDSDJdTihDMj1PKVtDSDJdQyhGKShGKUY=

> <s_epik_cmdline>
J2VwaWtfcHl0aG9uJywgJy1waCcsICc3LjAnLCAnLXRuJywgJzgnLCAnLW1hJywgJzIwMCcsICctbWV0YWxfYmluZGluZycsICctaW1hZScsICc8aW5maWxlLm1hZT4nLCAnLW9tYWUnLCAnPG91dGZpbGUubWFlPic=

> <r_lp_tautomer_probability>
1

> <r_epik_Ionization_Penalty>
2.95503e-06

> <r_epik_Ionization_Penalty_Charging>
5.74209e-08

> <r_epik_Ionization_Penalty_Neutral>
2.89761e-06

> <r_epik_State_Penalty>
-0

> <r_epik_Charging_Adjusted_Penalty>
5.74209e-08

> <i_epik_Tot_Q>
0

> <i_epik_Tot_abs_Q>
0

> <r_epik_Metal_State_Penalty>
-0

> <b_epik_Metal_Only>
0

> <s_lp_Force_Field>
OPLS_2005

> <r_lp_Energy>
34.0974

> <b_lp_Chiralities_Consistent>
1

> <s_lp_Variant>
AV-unprocessed.smi:714-1

> <Gold.Version>
5.8.1

> <Gold.Id.Protein>
6NUR|6NUR_protein|mol2

> <Gold.PLP.Fitness>
49.7884

> <Gold.PLP.PLP>
-45.6266

> <Gold.PLP.part.hbond>
-3.0000

> <Gold.PLP.part.metal>
0.0000

> <Gold.PLP.part.buried>
-3.9741

> <Gold.PLP.part.nonpolar>
-38.1991

> <Gold.PLP.part.repulsive>
0.0409

> <Gold.PLP.ligand.clash>
0.9681

> <Gold.PLP.ligand.torsion>
0.5859

> <Gold.PLP.Chemscore.Hbond>
2.0000

> <Gold.PLP.Chemscore.CHOScore>
0.0000

> <Gold.PLP.Chemscore.Metal>
0.0000

> <Gold.Chemscore.Hbonds>
donor molecule, donor type, donor heavy atom, donor atom, acceptor molecule, acceptor atom, score
      P1  H  6896  6908       L1     6  1.00
      P1  H  7997  8010       L1    23  0.59

> <Gold.PLP.Chemscore.Internal.Correction>
0.3016

> <Gold.Rescore>
     Score         DG    S(hbond)    S(metal)    S(lipo)     H(rot)  DE(clash)    DE(int)     intcor
     13.18     -17.45       1.92        0.00      82.74       1.61       0.14       4.13       ----

> <Gold.Chemscore.Fitness>
13.1766

> <Gold.Chemscore.DG>
-17.4469

> <Gold.Chemscore.ZeroCoef>
-5.4800

> <Gold.Chemscore.Hbond>
1.9214

> <Gold.Chemscore.Metal>
0.0000

> <Gold.Chemscore.Lipo>
82.7356

> <Gold.Chemscore.Internal_Hbond>
0.0000

> <Gold.Chemscore.DEClash>
0.1381

> <Gold.Chemscore.DEInternal>
4.1322

> <Gold.Chemscore.Rot>
1.6136

> <Gold.Chemscore.Internal.Correction>
   9.000000E+99

> <Gold.Chemscore.Hbonds>
donor molecule, donor type, donor heavy atom, donor atom, acceptor molecule, acceptor atom, score
      P1  H  6896  6908       L1     6  0.96
      P1  H  7997  8010       L1    23  0.57

> <Gold.Chemscore.Hbond.Weighted>
-6.4176

> <Gold.Chemscore.Metal.Weighted>
-0.0000

> <Gold.Chemscore.Lipo.Weighted>
-9.6801

> <Gold.Chemscore.Internal_Hbond.Weighted>
0.0000

> <Gold.Chemscore.DEClash.Weighted>
0.1381

> <Gold.Chemscore.DEInternal.Weighted>
4.1322

> <Gold.Chemscore.Rot.Weighted>
4.1308

> <Gold.Chemscore.Internal.Correction.Weighted>
   9.000000E+99

> <Gold.Protein.RotatedTorsions>
[ 6907 6896 6895 6894 ] final  -62.70 input  -60.11 | X-H torsion
[ 7974 7965 7964 7962 ] final  155.41 input  175.53 | X-H torsion
[ 8008 7997 7996 7995 ] final    5.32 input   59.86 | X-H torsion
[ 10167 10162 10161 10158 ] final  -47.59 input  -65.29 | X-H torsion
[ 10718 10713 10712 10709 ] final  -27.05 input   66.30 | X-H torsion
[ 10763 10752 10751 10750 ] final  177.40 input  -60.55 | X-H torsion
[ 11005 11000 10999 10996 ] final -103.65 input  -57.11 | X-H torsion

> <Gold.Protein.ActiveResidues>
 VAL166  LYS551  ARG553  GLY616  TRP617  ASP618  TYR619  PRO620  LYS621  CYS622 
 ASP623  PHE694  ASN695  SER759  ASP760  ASP761  ALA762  ILE779  LEU786  VAL792 
 PHE793  MET794  SER795  GLU796  ALA797  LYS798  CYS799  TRP800  GLU811  SER814 

> <Gold.Protein.RotatedAtoms>
  150.7698  134.6535  159.6300 H   0  0  0  0  0  0  0  0  0  0  0  0  # atno 6907 bound_to 6896
  152.3746  134.6680  160.0173 H   0  0  0  0  0  0  0  0  0  0  0  0  # atno 6908 bound_to 6896
  151.7029  133.3275  159.3307 H   0  0  0  0  0  0  0  0  0  0  0  0  # atno 6909 bound_to 6896
  144.8027  139.7064  143.6175 H   0  0  0  0  0  0  0  0  0  0  0  0  # atno 7974 bound_to 7965
  154.7269  140.2723  155.6491 H   0  0  0  0  0  0  0  0  0  0  0  0  # atno 8008 bound_to 7997
  156.2839  140.2723  156.1882 H   0  0  0  0  0  0  0  0  0  0  0  0  # atno 8009 bound_to 7997
  155.0433  140.0371  157.2507 H   0  0  0  0  0  0  0  0  0  0  0  0  # atno 8010 bound_to 7997
  140.6768  143.2777  151.3949 H   0  0  0  0  0  0  0  0  0  0  0  0  # atno 10167 bound_to 10162
  156.4432  130.4468  149.7039 H   0  0  0  0  0  0  0  0  0  0  0  0  # atno 10718 bound_to 10713
  154.4940  135.2780  155.1474 H   0  0  0  0  0  0  0  0  0  0  0  0  # atno 10763 bound_to 10752
  154.3134  135.6224  153.5479 H   0  0  0  0  0  0  0  0  0  0  0  0  # atno 10764 bound_to 10752
  152.9892  135.5725  154.5368 H   0  0  0  0  0  0  0  0  0  0  0  0  # atno 10765 bound_to 10752
  141.1136  133.8658  157.1513 H   0  0  0  0  0  0  0  0  0  0  0  0  # atno 11005 bound_to 11000
  146.2312  139.5817  142.9554 LP  0  0  0  0  0  0  0  0  0  0  0  0  # atno 17320 bound_to 7965
  145.5514  141.0413  143.2276 LP  0  0  0  0  0  0  0  0  0  0  0  0  # atno 17321 bound_to 7965
  139.6065  144.1185  152.2255 LP  0  0  0  0  0  0  0  0  0  0  0  0  # atno 17342 bound_to 10162
  140.0586  144.5875  150.7280 LP  0  0  0  0  0  0  0  0  0  0  0  0  # atno 17343 bound_to 10162
  156.3895  130.7620  151.2620 LP  0  0  0  0  0  0  0  0  0  0  0  0  # atno 17370 bound_to 10713
  157.7505  131.0272  150.3994 LP  0  0  0  0  0  0  0  0  0  0  0  0  # atno 17371 bound_to 10713
  140.0044  135.0014  157.0261 LP  0  0  0  0  0  0  0  0  0  0  0  0  # atno 17394 bound_to 11000
  140.4708  134.1389  155.7203 LP  0  0  0  0  0  0  0  0  0  0  0  0  # atno 17395 bound_to 11000

$$$$
