AV-unprocessed.smi:1830|AV-procd|sdf|7453|dock3
  -GOLD-   22720 9143D 1   1.00000     0.00000
 Structure written by MMmdl.
 53 56  0  0  0  0  0  0  0  0  2 V2000
  150.2109  134.1924  155.5936 O   0  0  0  0  0  0  0  0  0  0  0  0
  149.6022  134.7492  154.6803 C   0  0  0  0  0  0  0  0  0  0  0  0
  149.5656  136.0772  154.5061 N   0  0  0  0  0  0  0  0  0  0  0  0
  150.2766  137.0549  155.3232 C   0  0  0  0  0  0  0  0  0  0  0  0
  150.2133  138.4611  154.6912 C   0  0  1  0  0  0  0  0  0  0  0  0
  148.8666  139.1769  154.9520 C   0  0  0  0  0  0  0  0  0  0  0  0
  148.8011  139.6706  156.3144 N   0  0  0  0  0  0  0  0  0  0  0  0
  147.6341  140.4442  156.6693 C   0  0  0  0  0  0  0  0  0  0  0  0
  148.0306  141.1532  157.9754 C   0  0  0  0  0  0  0  0  0  0  0  0
  149.5748  141.1259  157.9740 C   0  0  0  0  0  0  0  0  0  0  0  0
  149.9038  140.5481  156.5959 C   0  0  1  0  0  0  0  0  0  0  0  0
  151.2371  139.8064  156.4430 C   0  0  0  0  0  0  0  0  0  0  0  0
  151.3142  139.2834  155.1125 O   0  0  0  0  0  0  0  0  0  0  0  0
  148.9128  134.1132  153.7196 N   0  0  0  0  0  0  0  0  0  0  0  0
  148.8041  132.7081  153.5268 C   0  0  0  0  0  0  0  0  0  0  0  0
  149.7098  131.8055  154.1393 C   0  0  0  0  0  0  0  0  0  0  0  0
  149.5427  130.4188  153.9613 C   0  0  0  0  0  0  0  0  0  0  0  0
  148.4670  129.9565  153.1826 C   0  0  0  0  0  0  0  0  0  0  0  0
  147.6155  130.8419  152.6238 N   0  3  0  0  0  0  0  0  0  0  0  0
  147.7261  132.1867  152.7601 C   0  0  0  0  0  0  0  0  0  0  0  0
  146.7919  133.0198  152.1068 N   0  0  0  0  0  0  0  0  0  0  0  0
  146.8426  132.9540  150.6477 C   0  0  0  0  0  0  0  0  0  0  0  0
  145.3966  133.0548  150.1562 C   0  0  0  0  0  0  0  0  0  0  0  0
  144.5900  132.5235  151.3346 C   0  0  0  0  0  0  0  0  0  0  0  0
  145.3933  133.0235  152.5330 C   0  0  0  0  0  0  0  0  0  0  0  0
  149.0348  136.4414  153.7287 H   0  0  0  0  0  0  0  0  0  0  0  0
  149.7925  137.0752  156.2998 H   0  0  0  0  0  0  0  0  0  0  0  0
  151.3067  136.7465  155.5073 H   0  0  0  0  0  0  0  0  0  0  0  0
  150.3141  138.3358  153.6127 H   0  0  0  0  0  0  0  0  0  0  0  0
  148.7649  140.0118  154.2570 H   0  0  0  0  0  0  0  0  0  0  0  0
  148.0312  138.5043  154.7546 H   0  0  0  0  0  0  0  0  0  0  0  0
  147.4234  141.1844  155.8956 H   0  0  0  0  0  0  0  0  0  0  0  0
  146.7521  139.8134  156.7838 H   0  0  0  0  0  0  0  0  0  0  0  0
  147.6385  142.1702  158.0052 H   0  0  0  0  0  0  0  0  0  0  0  0
  147.6431  140.6186  158.8434 H   0  0  0  0  0  0  0  0  0  0  0  0
  150.0137  142.1130  158.1216 H   0  0  0  0  0  0  0  0  0  0  0  0
  149.9392  140.4697  158.7657 H   0  0  0  0  0  0  0  0  0  0  0  0
  149.8910  141.3721  155.8794 H   0  0  0  0  0  0  0  0  0  0  0  0
  152.0756  140.4820  156.6106 H   0  0  0  0  0  0  0  0  0  0  0  0
  151.3216  139.0033  157.1751 H   0  0  0  0  0  0  0  0  0  0  0  0
  148.5422  134.6896  152.9782 H   0  0  0  0  0  0  0  0  0  0  0  0
  150.5224  132.1586  154.7566 H   0  0  0  0  0  0  0  0  0  0  0  0
  150.2266  129.7206  154.4214 H   0  0  0  0  0  0  0  0  0  0  0  0
  148.2610  128.9130  152.9927 H   0  0  0  0  0  0  0  0  0  0  0  0
  147.4537  133.7583  150.2375 H   0  0  0  0  0  0  0  0  0  0  0  0
  147.2796  132.0063  150.3285 H   0  0  0  0  0  0  0  0  0  0  0  0
  145.1386  134.0993  149.9764 H   0  0  0  0  0  0  0  0  0  0  0  0
  145.2220  132.5010  149.2335 H   0  0  0  0  0  0  0  0  0  0  0  0
  143.5573  132.8730  151.3394 H   0  0  0  0  0  0  0  0  0  0  0  0
  144.5813  131.4327  151.3193 H   0  0  0  0  0  0  0  0  0  0  0  0
  145.1858  132.4404  153.4297 H   0  0  0  0  0  0  0  0  0  0  0  0
  145.1185  134.0544  152.7577 H   0  0  0  0  0  0  0  0  0  0  0  0
  146.8460  130.4772  152.0621 H   0  0  0  0  0  0  0  0  0  0  0  0
  1  2  2  0  0  0  0
  2  3  1  0  0  0  0
  2 14  1  0  0  0  0
  3  4  1  0  0  0  0
  3 26  1  0  0  0  0
  4  5  1  0  0  0  0
  4 27  1  0  0  0  0
  4 28  1  0  0  0  0
  5 13  1  0  0  0  0
  5  6  1  0  0  0  0
  5 29  1  0  0  0  0
  6  7  1  0  0  0  0
  6 30  1  0  0  0  0
  6 31  1  0  0  0  0
  7 11  1  0  0  0  0
  7  8  1  0  0  0  0
  8  9  1  0  0  0  0
  8 32  1  0  0  0  0
  8 33  1  0  0  0  0
  9 10  1  0  0  0  0
  9 34  1  0  0  0  0
  9 35  1  0  0  0  0
 10 11  1  0  0  0  0
 10 36  1  0  0  0  0
 10 37  1  0  0  0  0
 11 12  1  0  0  0  0
 11 38  1  0  0  0  0
 12 13  1  0  0  0  0
 12 39  1  0  0  0  0
 12 40  1  0  0  0  0
 14 15  1  0  0  0  0
 14 41  1  0  0  0  0
 15 20  1  0  0  0  0
 15 16  2  0  0  0  0
 16 17  1  0  0  0  0
 16 42  1  0  0  0  0
 17 18  2  0  0  0  0
 17 43  1  0  0  0  0
 18 19  1  0  0  0  0
 18 44  1  0  0  0  0
 19 20  2  0  0  0  0
 19 53  1  0  0  0  0
 20 21  1  0  0  0  0
 21 25  1  0  0  0  0
 21 22  1  0  0  0  0
 22 23  1  0  0  0  0
 22 45  1  0  0  0  0
 22 46  1  0  0  0  0
 23 24  1  0  0  0  0
 23 47  1  0  0  0  0
 23 48  1  0  0  0  0
 24 25  1  0  0  0  0
 24 49  1  0  0  0  0
 24 50  1  0  0  0  0
 25 51  1  0  0  0  0
 25 52  1  0  0  0  0
M  CHG  1  19   1
M  END
> <s_m_source_file>
AV-unprocessed.smi

> <i_m_source_file_index>
1830

> <i_lp_mmshare_version>
43012

> <i_f3d_flags>
0

> <s_epik_input>
W0NIMl0xW0NIMl1bQ0gyXVtDQEhdKE4xMilbQ0gyXU9bQ0BASF0oW0NIMl0yKVtDSDJdW05IXUMoPU8pW05IXWMzW2NIXVtjSF1bY0hdbmMzTjRbQ0gyXVtDSDJdW0NIMl1bQ0gyXTQ=

> <s_epik_cmdline>
J2VwaWtfcHl0aG9uJywgJy1waCcsICc3LjAnLCAnLXRuJywgJzgnLCAnLW1hJywgJzIwMCcsICctbWV0YWxfYmluZGluZycsICctaW1hZScsICc8aW5maWxlLm1hZT4nLCAnLW9tYWUnLCAnPG91dGZpbGUubWFlPic=

> <r_epik_Ionization_Penalty>
2.19264

> <r_epik_Ionization_Penalty_Charging>
1.12452

> <r_epik_Ionization_Penalty_Neutral>
1.06812

> <r_epik_State_Penalty>
2.334

> <r_epik_Charging_Adjusted_Penalty>
3.45852

> <i_epik_Tot_Q>
1

> <i_epik_Tot_abs_Q>
1

> <r_epik_Metal_State_Penalty>
2.41144

> <b_epik_Metal_Only>
0

> <s_lp_Force_Field>
OPLS_2005

> <r_lp_Energy>
84.2953

> <b_lp_Chiralities_Consistent>
1

> <s_lp_Variant>
AV-unprocessed.smi:1830-22

> <Gold.Version>
5.8.1

> <Gold.Id.Protein>
6NUR|6NUR_protein|mol2

> <Gold.PLP.Fitness>
49.6360

> <Gold.PLP.PLP>
-41.9099

> <Gold.PLP.part.hbond>
-4.2218

> <Gold.PLP.part.metal>
0.0000

> <Gold.PLP.part.buried>
-4.5345

> <Gold.PLP.part.nonpolar>
-33.8925

> <Gold.PLP.part.repulsive>
0.3190

> <Gold.PLP.ligand.clash>
0.0000

> <Gold.PLP.ligand.torsion>
0.4238

> <Gold.PLP.Chemscore.Hbond>
2.8000

> <Gold.PLP.Chemscore.CHOScore>
0.0000

> <Gold.PLP.Chemscore.Metal>
0.0000

> <Gold.Chemscore.Hbonds>
donor molecule, donor type, donor heavy atom, donor atom, acceptor molecule, acceptor atom, score
      L1  H     3    26       P1  7948  0.74
      L1  H    14    41       P1  7948  0.85
      P1  H  7989  7998       L1    13  0.37

> <Gold.PLP.Chemscore.Internal.Correction>
0.1738

> <Gold.Rescore>
     Score         DG    S(hbond)    S(metal)    S(lipo)     H(rot)  DE(clash)    DE(int)     intcor
     15.61     -17.36       1.74        0.00      82.31       1.40       0.08       1.67       ----

> <Gold.Chemscore.Fitness>
15.6061

> <Gold.Chemscore.DG>
-17.3568

> <Gold.Chemscore.ZeroCoef>
-5.4800

> <Gold.Chemscore.Hbond>
1.7425

> <Gold.Chemscore.Metal>
0.0000

> <Gold.Chemscore.Lipo>
82.3106

> <Gold.Chemscore.Internal_Hbond>
0.0000

> <Gold.Chemscore.DEClash>
0.0842

> <Gold.Chemscore.DEInternal>
1.6665

> <Gold.Chemscore.Rot>
1.3959

> <Gold.Chemscore.Internal.Correction>
   9.000000E+99

> <Gold.Chemscore.Hbonds>
donor molecule, donor type, donor heavy atom, donor atom, acceptor molecule, acceptor atom, score
      L1  H     3    26       P1  7948  0.73
      L1  H    14    41       P1  7948  0.29
      P1  H  7989  7998       L1    13  0.22

> <Gold.Chemscore.Hbond.Weighted>
-5.8201

> <Gold.Chemscore.Metal.Weighted>
-0.0000

> <Gold.Chemscore.Lipo.Weighted>
-9.6303

> <Gold.Chemscore.Internal_Hbond.Weighted>
0.0000

> <Gold.Chemscore.DEClash.Weighted>
0.0842

> <Gold.Chemscore.DEInternal.Weighted>
1.6665

> <Gold.Chemscore.Rot.Weighted>
3.5736

> <Gold.Chemscore.Internal.Correction.Weighted>
   9.000000E+99

> <Gold.Protein.RotatedTorsions>
[ 6907 6896 6895 6894 ] final  -96.62 input  -60.11 | X-H torsion
[ 7974 7965 7964 7962 ] final  -61.70 input  175.53 | X-H torsion
[ 8008 7997 7996 7995 ] final   60.21 input   59.86 | X-H torsion
[ 10167 10162 10161 10158 ] final   43.30 input  -65.29 | X-H torsion
[ 10718 10713 10712 10709 ] final -156.08 input   66.30 | X-H torsion
[ 10763 10752 10751 10750 ] final  153.47 input  -60.55 | X-H torsion
[ 11005 11000 10999 10996 ] final   -2.12 input  -57.11 | X-H torsion

> <Gold.Protein.ActiveResidues>
 VAL166  LYS551  ARG553  GLY616  TRP617  ASP618  TYR619  PRO620  LYS621  CYS622 
 ASP623  PHE694  ASN695  SER759  ASP760  ASP761  ALA762  ILE779  LEU786  VAL792 
 PHE793  MET794  SER795  GLU796  ALA797  LYS798  CYS799  TRP800  GLU811  SER814 

> <Gold.Protein.RotatedAtoms>
  150.6993  134.1475  159.4127 H   0  0  0  0  0  0  0  0  0  0  0  0  # atno 6907 bound_to 6896
  151.9459  135.0189  160.0548 H   0  0  0  0  0  0  0  0  0  0  0  0  # atno 6908 bound_to 6896
  152.2053  133.4836  159.5117 H   0  0  0  0  0  0  0  0  0  0  0  0  # atno 6909 bound_to 6896
  145.8003  140.8659  143.0235 H   0  0  0  0  0  0  0  0  0  0  0  0  # atno 7974 bound_to 7965
  155.5787  140.3491  155.4534 H   0  0  0  0  0  0  0  0  0  0  0  0  # atno 8008 bound_to 7997
  156.0389  140.1291  157.0202 H   0  0  0  0  0  0  0  0  0  0  0  0  # atno 8009 bound_to 7997
  154.4383  140.1028  156.6194 H   0  0  0  0  0  0  0  0  0  0  0  0  # atno 8010 bound_to 7997
  140.3458  144.2413  150.6150 H   0  0  0  0  0  0  0  0  0  0  0  0  # atno 10167 bound_to 10162
  156.5216  130.8481  151.2684 H   0  0  0  0  0  0  0  0  0  0  0  0  # atno 10718 bound_to 10713
  154.1367  135.2823  155.3171 H   0  0  0  0  0  0  0  0  0  0  0  0  # atno 10763 bound_to 10752
  154.6316  135.5433  153.7691 H   0  0  0  0  0  0  0  0  0  0  0  0  # atno 10764 bound_to 10752
  153.0263  135.6464  154.1516 H   0  0  0  0  0  0  0  0  0  0  0  0  # atno 10765 bound_to 10752
  140.6548  133.9372  155.8401 H   0  0  0  0  0  0  0  0  0  0  0  0  # atno 11005 bound_to 11000
  144.6769  140.0249  143.7483 LP  0  0  0  0  0  0  0  0  0  0  0  0  # atno 17320 bound_to 7965
  145.9885  139.2996  143.0999 LP  0  0  0  0  0  0  0  0  0  0  0  0  # atno 17321 bound_to 7965
  140.5266  143.2253  151.8305 LP  0  0  0  0  0  0  0  0  0  0  0  0  # atno 17342 bound_to 10162
  139.4833  144.4772  151.9352 LP  0  0  0  0  0  0  0  0  0  0  0  0  # atno 17343 bound_to 10162
  157.7436  130.9915  150.2604 LP  0  0  0  0  0  0  0  0  0  0  0  0  # atno 17370 bound_to 10713
  156.3143  130.3776  149.7632 LP  0  0  0  0  0  0  0  0  0  0  0  0  # atno 17371 bound_to 10713
  141.0509  134.0486  157.3784 LP  0  0  0  0  0  0  0  0  0  0  0  0  # atno 17394 bound_to 11000
  139.9033  135.0172  156.7371 LP  0  0  0  0  0  0  0  0  0  0  0  0  # atno 17395 bound_to 11000

$$$$
