#       Name:                AV-unprocessed.smi:1165
#       Creating user name   scv26
#       Creation time:       Fri Mar 27 03:51:02 2020


#       File generated by GOLD software.
#

@<TRIPOS>MOLECULE
AV-unprocessed.smi:1165
    46    47     1
SMALL
NO_CHARGES


@<TRIPOS>ATOM
      1 ****        -0.8271   2.2978  -3.2793 C.3            1 S1                 0.0000
      2 ****        -1.3067   1.5217  -2.0482 C.3            1 S1                 0.0000
      3 ****        -1.1734   0.0013  -2.2396 C.3            1 S1                 0.0000
      4 ****        -1.7616  -0.7178  -1.0992 N.3            1 S1                 0.0000
      5 ****        -1.3582  -2.3894  -0.8938 S.o2           1 S1                 0.0000
      6 ****        -1.9681  -2.8712   0.3551 O.2            1 S1                 0.0000
      7 ****        -1.5854  -3.0792  -2.1726 O.2            1 S1                 0.0000
      8 ****         0.3426  -2.2435  -0.6408 N.3            1 S1                 0.0000
      9 ****         0.8389  -1.4933   0.5122 C.3            1 S1                 0.0000
     10 ****         2.3718  -1.4997   0.5320 C.3            1 S1                 0.0000
     11 ****         2.9255  -0.7119   1.7024 C.ar           1 S1                 0.0000
     12 ****         3.2490  -1.3497   2.9177 C.ar           1 S1                 0.0000
     13 ****         3.7538  -0.5722   3.9778 C.ar           1 S1                 0.0000
     14 ****         3.9127   0.8137   3.7771 C.ar           1 S1                 0.0000
     15 ****         3.6051   1.4352   2.6182 N.ar           1 S1                 0.0000
     16 ****         3.1223   0.6823   1.6064 C.ar           1 S1                 0.0000
     17 ****        -3.1438  -0.3092  -0.8101 C.3            1 S1                 0.0000
     18 ****        -3.2595   1.2226  -0.6884 C.3            1 S1                 0.0000
     19 ****        -2.7097   1.7690   0.6419 C.3            1 S1                 0.0000
     20 ****        -2.6694   1.8626  -1.8179 O.3            1 S1                 0.0000
     21 ****         0.2196   2.0831  -3.4964 H              1 S1                 0.0000
     22 ****        -0.9200   3.3725  -3.1218 H              1 S1                 0.0000
     23 ****        -1.4125   2.0389  -4.1620 H              1 S1                 0.0000
     24 ****        -0.6991   1.8351  -1.1990 H              1 S1                 0.0000
     25 ****        -1.6789  -0.3153  -3.1530 H              1 S1                 0.0000
     26 ****        -0.1225  -0.2652  -2.3500 H              1 S1                 0.0000
     27 ****         0.8601  -2.0746  -1.5030 H              1 S1                 0.0000
     28 ****         0.4698  -0.4685   0.4610 H              1 S1                 0.0000
     29 ****         0.4413  -1.9361   1.4261 H              1 S1                 0.0000
     30 ****         2.7426  -2.5246   0.5822 H              1 S1                 0.0000
     31 ****         2.7611  -1.0750  -0.3943 H              1 S1                 0.0000
     32 ****         3.1115  -2.4144   3.0379 H              1 S1                 0.0000
     33 ****         4.0120  -1.0267   4.9229 H              1 S1                 0.0000
     34 ****         4.2968   1.4398   4.5688 H              1 S1                 0.0000
     35 ****         2.8827   1.2088   0.6941 H              1 S1                 0.0000
     36 ****        -3.7857  -0.6686  -1.6153 H              1 S1                 0.0000
     37 ****        -3.4924  -0.7847   0.1068 H              1 S1                 0.0000
     38 ****        -4.3192   1.4773  -0.7179 H              1 S1                 0.0000
     39 ****        -3.2787   1.3762   1.4847 H              1 S1                 0.0000
     40 ****        -2.7803   2.8564   0.6751 H              1 S1                 0.0000
     41 ****        -1.6673   1.4947   0.8028 H              1 S1                 0.0000
     42 ****        -1.2386  -0.3802  -0.3166 LP             1 S1                 0.0000
     43 ****         0.5582  -3.1671  -0.3241 LP             1 S1                 0.0000
     44 ****         3.7309   2.4217   2.5127 LP             1 S1                 0.0000
     45 ****        -3.1956   1.6096  -2.6298 LP             1 S1                 0.0000
     46 ****        -2.7244   2.8516  -1.6799 LP             1 S1                 0.0000
@<TRIPOS>BOND
    1    1    2 1     
    2    1   21 1     
    3    1   22 1     
    4    1   23 1     
    5    2   20 1     
    6    2    3 1     
    7    2   24 1     
    8    3    4 1     
    9    3   25 1     
   10    3   26 1     
   11    4    5 1     
   12    4   17 1     
   13    5    6 2     
   14    5    7 2     
   15    5    8 1     
   16    8    9 1     
   17    8   27 1     
   18    9   10 1     
   19    9   28 1     
   20    9   29 1     
   21   10   11 1     
   22   10   30 1     
   23   10   31 1     
   24   11   16 ar    
   25   11   12 ar    
   26   12   13 ar    
   27   12   32 1     
   28   13   14 ar    
   29   13   33 1     
   30   14   15 ar    
   31   14   34 1     
   32   15   16 ar    
   33   16   35 1     
   34   17   18 1     
   35   17   36 1     
   36   17   37 1     
   37   18   19 1     
   38   18   20 1     
   39   18   38 1     
   40   19   39 1     
   41   19   40 1     
   42   19   41 1     
   43    4   42 1     
   44    8   43 1     
   45   15   44 1     
   46   20   45 1     
   47   20   46 1     
@<TRIPOS>SUBSTRUCTURE
      1 S1             1
@<TRIPOS>SET
LONE_PAIRS      STATIC     ATOMS    <user>   **** ""
7 42 6 7 43 44 45 46
DONOR_HYDROGENS      STATIC     ATOMS    <user>   **** ""
1 27
ATOM$BLUE        STATIC     ATOMS    COLORGROUP SYSTEM
7 42 6 7 43 44 45 46
ATOM$RED        STATIC     ATOMS    COLORGROUP SYSTEM
1 27
