#       Name:                AV-unprocessed.smi:1447
#       Creating user name   scv26
#       Creation time:       Fri Mar 27 05:57:45 2020


#       File generated by GOLD software.
#

@<TRIPOS>MOLECULE
AV-unprocessed.smi:1447
    55    57     1
SMALL
NO_CHARGES


@<TRIPOS>ATOM
      1 ****        -2.7755  -0.3757  -2.8749 C.3            1 S1                 0.0000
      2 ****        -2.2588  -1.6870  -3.0147 O.3            1 S1                 0.0000
      3 ****        -2.7729  -2.5826  -2.0411 C.3            1 S1                 0.0000
      4 ****        -2.0924  -3.9604  -2.1897 C.3            1 S1                 0.0000
      5 ****        -0.6458  -3.9999  -1.8979 N.am           1 S1                 0.0000
      6 ****        -0.1039  -2.8604  -1.3218 N.2            1 S1                 0.0000
      7 ****         1.1577  -2.7993  -1.0458 C.2            1 S1                 0.0000
      8 ****         1.7672  -1.5793  -0.4488 C.2            1 S1                 0.0000
      9 ****         2.9675  -1.5159  -0.1774 O.2            1 S1                 0.0000
     10 ****         0.9138  -0.5613  -0.2348 N.am           1 S1                 0.0000
     11 ****         1.2667   0.7421   0.3168 C.3            1 S1                 0.0000
     12 ****         1.3671   0.6847   1.8514 C.3            1 S1                 0.0000
     13 ****         1.5863   2.0887   2.4417 C.3            1 S1                 0.0000
     14 ****         0.4950   2.9808   2.0491 N.3            1 S1                 0.0000
     15 ****         0.7131   4.2829   2.6578 C.3            1 S1                 0.0000
     16 ****         0.1893   4.4959   4.0598 C.3            1 S1                 0.0000
     17 ****        -0.4972   5.1585   2.8902 C.3            1 S1                 0.0000
     18 ****         0.4783   3.1348   0.5941 C.3            1 S1                 0.0000
     19 ****         0.2046   1.7793  -0.0808 C.3            1 S1                 0.0000
     20 ****         2.0318  -3.9272  -1.3153 C.2            1 S1                 0.0000
     21 ****         1.4912  -5.0391  -1.8604 C.2            1 S1                 0.0000
     22 ****         0.0661  -5.1314  -2.1847 C.2            1 S1                 0.0000
     23 ****        -0.4477  -6.1388  -2.6704 O.2            1 S1                 0.0000
     24 ****        -2.3630   0.2650  -3.6542 H              1 S1                 0.0000
     25 ****        -2.5028   0.0529  -1.9093 H              1 S1                 0.0000
     26 ****        -3.8621  -0.3665  -2.9700 H              1 S1                 0.0000
     27 ****        -2.6401  -2.1881  -1.0320 H              1 S1                 0.0000
     28 ****        -3.8475  -2.6935  -2.1935 H              1 S1                 0.0000
     29 ****        -2.5887  -4.6669  -1.5225 H              1 S1                 0.0000
     30 ****        -2.2685  -4.3204  -3.2050 H              1 S1                 0.0000
     31 ****        -0.0547  -0.7015  -0.4851 H              1 S1                 0.0000
     32 ****         2.2277   1.0584  -0.0935 H              1 S1                 0.0000
     33 ****         0.4570   0.2530   2.2709 H              1 S1                 0.0000
     34 ****         2.1865   0.0305   2.1513 H              1 S1                 0.0000
     35 ****         1.6287   2.0222   3.5296 H              1 S1                 0.0000
     36 ****         2.5433   2.4938   2.1084 H              1 S1                 0.0000
     37 ****         1.6317   4.8179   2.4215 H              1 S1                 0.0000
     38 ****        -0.3300   3.6698   4.5422 H              1 S1                 0.0000
     39 ****         0.7752   5.1287   4.7233 H              1 S1                 0.0000
     40 ****        -0.3680   6.2325   2.7728 H              1 S1                 0.0000
     41 ****        -1.4715   4.7719   2.5972 H              1 S1                 0.0000
     42 ****        -0.3007   3.8441   0.3120 H              1 S1                 0.0000
     43 ****         1.4273   3.5467   0.2466 H              1 S1                 0.0000
     44 ****         0.1897   1.9034  -1.1641 H              1 S1                 0.0000
     45 ****        -0.7887   1.4280   0.2041 H              1 S1                 0.0000
     46 ****         3.0870  -3.8861  -1.0871 H              1 S1                 0.0000
     47 ****         2.1285  -5.8867  -2.0652 H              1 S1                 0.0000
     48 ****        -1.2636  -1.6506  -2.9228 LP             1 S1                 0.0000
     49 ****        -2.4973  -2.0301  -3.9232 LP             1 S1                 0.0000
     50 ****        -0.6941  -2.0793  -1.1182 LP             1 S1                 0.0000
     51 ****         3.5630  -2.2988  -0.3576 LP             1 S1                 0.0000
     52 ****         3.3462  -0.6815   0.2230 LP             1 S1                 0.0000
     53 ****        -0.3765   2.5953   2.3520 LP             1 S1                 0.0000
     54 ****        -1.4270  -6.1528  -2.8723 LP             1 S1                 0.0000
     55 ****         0.1142  -6.9433  -2.8632 LP             1 S1                 0.0000
@<TRIPOS>BOND
    1    1    2 1     
    2    1   24 1     
    3    1   25 1     
    4    1   26 1     
    5    2    3 1     
    6    3    4 1     
    7    3   27 1     
    8    3   28 1     
    9    4    5 1     
   10    4   29 1     
   11    4   30 1     
   12    5   22 am    
   13    5    6 1     
   14    6    7 2     
   15    7    8 1     
   16    7   20 1     
   17    8    9 2     
   18    8   10 am    
   19   10   11 1     
   20   10   31 1     
   21   11   19 1     
   22   11   12 1     
   23   11   32 1     
   24   12   13 1     
   25   12   33 1     
   26   12   34 1     
   27   13   14 1     
   28   13   35 1     
   29   13   36 1     
   30   14   15 1     
   31   14   18 1     
   32   15   17 1     
   33   15   16 1     
   34   15   37 1     
   35   16   17 1     
   36   16   38 1     
   37   16   39 1     
   38   17   40 1     
   39   17   41 1     
   40   18   19 1     
   41   18   42 1     
   42   18   43 1     
   43   19   44 1     
   44   19   45 1     
   45   20   21 2     
   46   20   46 1     
   47   21   22 1     
   48   21   47 1     
   49   22   23 2     
   50    2   48 1     
   51    2   49 1     
   52    6   50 1     
   53    9   51 1     
   54    9   52 1     
   55   14   53 1     
   56   23   54 1     
   57   23   55 1     
@<TRIPOS>SUBSTRUCTURE
      1 S1             1
@<TRIPOS>SET
LONE_PAIRS      STATIC     ATOMS    <user>   **** ""
8 48 49 50 51 52 53 54 55
DONOR_HYDROGENS      STATIC     ATOMS    <user>   **** ""
1 31
ATOM$BLUE        STATIC     ATOMS    COLORGROUP SYSTEM
8 48 49 50 51 52 53 54 55
ATOM$RED        STATIC     ATOMS    COLORGROUP SYSTEM
1 31
