AV-unprocessed.smi:2390|AV-procd|sdf|9474|dock8
  -GOLD-   2272013103D 1   1.00000     0.00000
 Structure written by MMmdl.
 45 46  0  0  0  0  0  0  0  0  1 V2000
  153.5054  141.2547  160.5440 C   0  0  0  0  0  0  0  0  0  0  0  0
  152.7666  142.4188  159.9182 C   0  0  0  0  0  0  0  0  0  0  0  0
  152.7762  143.6924  160.5201 C   0  0  0  0  0  0  0  0  0  0  0  0
  152.0716  144.7306  159.8851 C   0  0  0  0  0  0  0  0  0  0  0  0
  151.3916  144.4551  158.6829 C   0  0  0  0  0  0  0  0  0  0  0  0
  151.4323  143.1490  158.1452 C   0  0  0  0  0  0  0  0  0  0  0  0
  150.7142  142.9725  156.9327 N   0  0  0  0  0  0  0  0  0  0  0  0
  150.1980  141.8359  156.4326 C   0  0  0  0  0  0  0  0  0  0  0  0
  150.2753  140.7257  156.9603 O   0  0  0  0  0  0  0  0  0  0  0  0
  149.5786  142.0559  155.2632 N   0  0  0  0  0  0  0  0  0  0  0  0
  148.9171  141.0324  154.4539 C   0  0  1  0  0  0  0  0  0  0  0  0
  149.7962  139.7695  154.4249 C   0  0  0  0  0  0  0  0  0  0  0  0
  147.4555  140.7630  154.9414 C   0  0  2  0  0  0  0  0  0  0  0  0
  146.7938  139.6790  154.0509 C   0  0  0  0  0  0  0  0  0  0  0  0
  146.6274  141.9846  155.0798 N   0  0  0  0  0  0  0  0  0  0  0  0
  145.4102  141.7590  155.8685 C   0  0  0  0  0  0  0  0  0  0  0  0
  144.5269  143.0138  155.9794 C   0  0  0  0  0  0  0  0  0  0  0  0
  144.1903  143.4818  154.6809 O   0  0  0  0  0  0  0  0  0  0  0  0
  145.3435  143.7905  153.9107 C   0  0  0  0  0  0  0  0  0  0  0  0
  146.2286  142.5393  153.7811 C   0  0  0  0  0  0  0  0  0  0  0  0
  152.1151  142.1546  158.7656 N   0  0  0  0  0  0  0  0  0  0  0  0
  153.8872  141.5135  161.5319 H   0  0  0  0  0  0  0  0  0  0  0  0
  154.3487  140.9626  159.9175 H   0  0  0  0  0  0  0  0  0  0  0  0
  152.8428  140.3953  160.6509 H   0  0  0  0  0  0  0  0  0  0  0  0
  153.3083  143.8714  161.4426 H   0  0  0  0  0  0  0  0  0  0  0  0
  152.0524  145.7223  160.3119 H   0  0  0  0  0  0  0  0  0  0  0  0
  150.8463  145.2419  158.1820 H   0  0  0  0  0  0  0  0  0  0  0  0
  150.5767  143.8081  156.3840 H   0  0  0  0  0  0  0  0  0  0  0  0
  149.5642  142.9984  154.9022 H   0  0  0  0  0  0  0  0  0  0  0  0
  148.9046  141.4346  153.4420 H   0  0  0  0  0  0  0  0  0  0  0  0
  149.3548  138.9942  153.7985 H   0  0  0  0  0  0  0  0  0  0  0  0
  149.9404  139.3511  155.4210 H   0  0  0  0  0  0  0  0  0  0  0  0
  150.7830  139.9917  154.0177 H   0  0  0  0  0  0  0  0  0  0  0  0
  147.5401  140.3226  155.9362 H   0  0  0  0  0  0  0  0  0  0  0  0
  147.4492  138.8273  153.8734 H   0  0  0  0  0  0  0  0  0  0  0  0
  146.5073  140.0810  153.0787 H   0  0  0  0  0  0  0  0  0  0  0  0
  145.9003  139.2627  154.5145 H   0  0  0  0  0  0  0  0  0  0  0  0
  144.8305  140.9452  155.4303 H   0  0  0  0  0  0  0  0  0  0  0  0
  145.6584  141.4610  156.8849 H   0  0  0  0  0  0  0  0  0  0  0  0
  143.6104  142.7837  156.5228 H   0  0  0  0  0  0  0  0  0  0  0  0
  145.0402  143.7993  156.5364 H   0  0  0  0  0  0  0  0  0  0  0  0
  145.0307  144.1357  152.9253 H   0  0  0  0  0  0  0  0  0  0  0  0
  145.8951  144.6088  154.3765 H   0  0  0  0  0  0  0  0  0  0  0  0
  147.1046  142.8254  153.2015 H   0  0  0  0  0  0  0  0  0  0  0  0
  145.6992  141.7809  153.2022 H   0  0  0  0  0  0  0  0  0  0  0  0
  1  2  1  0  0  0  0
  1 22  1  0  0  0  0
  1 23  1  0  0  0  0
  1 24  1  0  0  0  0
  2 21  1  0  0  0  0
  2  3  2  0  0  0  0
  3  4  1  0  0  0  0
  3 25  1  0  0  0  0
  4  5  2  0  0  0  0
  4 26  1  0  0  0  0
  5  6  1  0  0  0  0
  5 27  1  0  0  0  0
  6  7  1  0  0  0  0
  6 21  2  0  0  0  0
  7  8  1  0  0  0  0
  7 28  1  0  0  0  0
  8  9  2  0  0  0  0
  8 10  1  0  0  0  0
 10 11  1  0  0  0  0
 10 29  1  0  0  0  0
 11 12  1  0  0  0  0
 11 13  1  0  0  0  0
 11 30  1  0  0  0  0
 12 31  1  0  0  0  0
 12 32  1  0  0  0  0
 12 33  1  0  0  0  0
 13 14  1  0  0  0  0
 13 15  1  0  0  0  0
 13 34  1  0  0  0  0
 14 35  1  0  0  0  0
 14 36  1  0  0  0  0
 14 37  1  0  0  0  0
 15 20  1  0  0  0  0
 15 16  1  0  0  0  0
 16 17  1  0  0  0  0
 16 38  1  0  0  0  0
 16 39  1  0  0  0  0
 17 18  1  0  0  0  0
 17 40  1  0  0  0  0
 17 41  1  0  0  0  0
 18 19  1  0  0  0  0
 19 20  1  0  0  0  0
 19 42  1  0  0  0  0
 19 43  1  0  0  0  0
 20 44  1  0  0  0  0
 20 45  1  0  0  0  0
M  END
> <s_m_source_file>
AV-unprocessed.smi

> <i_m_source_file_index>
2390

> <i_lp_mmshare_version>
43012

> <i_f3d_flags>
0

> <s_epik_input>
W0NIM11jMVtjSF1bY0hdW2NIXWMobjEpW05IXUMoPU8pW05IXVtDQEhdKFtDSDNdKVtDQEhdKFtDSDNdKU4yW0NIMl1bQ0gyXU9bQ0gyXVtDSDJdMg==

> <s_epik_cmdline>
J2VwaWtfcHl0aG9uJywgJy1waCcsICc3LjAnLCAnLXRuJywgJzgnLCAnLW1hJywgJzIwMCcsICctbWV0YWxfYmluZGluZycsICctaW1hZScsICc8aW5maWxlLm1hZT4nLCAnLW9tYWUnLCAnPG91dGZpbGUubWFlPic=

> <r_epik_Ionization_Penalty>
0.266074

> <r_epik_Ionization_Penalty_Charging>
0

> <r_epik_Ionization_Penalty_Neutral>
0.266074

> <r_epik_State_Penalty>
0.257924

> <r_epik_Charging_Adjusted_Penalty>
0.257924

> <i_epik_Tot_Q>
0

> <i_epik_Tot_abs_Q>
0

> <r_epik_Metal_State_Penalty>
0.257919

> <b_epik_Metal_Only>
0

> <s_lp_Force_Field>
OPLS_2005

> <r_lp_Energy>
32.9653

> <b_lp_Chiralities_Consistent>
1

> <s_lp_Variant>
AV-unprocessed.smi:2390-2

> <Gold.Version>
5.8.1

> <Gold.Id.Protein>
6NUR|6NUR_protein|mol2

> <Gold.PLP.Fitness>
47.4819

> <Gold.PLP.PLP>
-44.5016

> <Gold.PLP.part.hbond>
-2.0000

> <Gold.PLP.part.metal>
0.0000

> <Gold.PLP.part.buried>
-7.4615

> <Gold.PLP.part.nonpolar>
-36.1306

> <Gold.PLP.part.repulsive>
0.5600

> <Gold.PLP.ligand.clash>
0.0000

> <Gold.PLP.ligand.torsion>
0.5744

> <Gold.PLP.Chemscore.Hbond>
1.3440

> <Gold.PLP.Chemscore.CHOScore>
0.0000

> <Gold.PLP.Chemscore.Metal>
0.0000

> <Gold.Chemscore.Hbonds>
donor molecule, donor type, donor heavy atom, donor atom, acceptor molecule, acceptor atom, score
      L1  H     7    28       P1  8028  0.67
      L1  H    10    29       P1  8028  0.67

> <Gold.PLP.Chemscore.Internal.Correction>
0.0970

> <Gold.Rescore>
     Score         DG    S(hbond)    S(metal)    S(lipo)     H(rot)  DE(clash)    DE(int)     intcor
     15.72     -19.04       1.76        0.00      97.18       1.44       0.12       3.19       ----

> <Gold.Chemscore.Fitness>
15.7227

> <Gold.Chemscore.DG>
-19.0352

> <Gold.Chemscore.ZeroCoef>
-5.4800

> <Gold.Chemscore.Hbond>
1.7576

> <Gold.Chemscore.Metal>
0.0000

> <Gold.Chemscore.Lipo>
97.1833

> <Gold.Chemscore.Internal_Hbond>
0.0000

> <Gold.Chemscore.DEClash>
0.1176

> <Gold.Chemscore.DEInternal>
3.1950

> <Gold.Chemscore.Rot>
1.4396

> <Gold.Chemscore.Internal.Correction>
   9.000000E+99

> <Gold.Chemscore.Hbonds>
donor molecule, donor type, donor heavy atom, donor atom, acceptor molecule, acceptor atom, score
      L1  H     7    28       P1  8028  0.61
      L1  H    10    29       P1  8028  0.64

> <Gold.Chemscore.Hbond.Weighted>
-5.8703

> <Gold.Chemscore.Metal.Weighted>
-0.0000

> <Gold.Chemscore.Lipo.Weighted>
-11.3704

> <Gold.Chemscore.Internal_Hbond.Weighted>
0.0000

> <Gold.Chemscore.DEClash.Weighted>
0.1176

> <Gold.Chemscore.DEInternal.Weighted>
3.1950

> <Gold.Chemscore.Rot.Weighted>
3.6855

> <Gold.Chemscore.Internal.Correction.Weighted>
   9.000000E+99

> <Gold.Protein.RotatedTorsions>
[ 6907 6896 6895 6894 ] final   -2.99 input  -60.11 | X-H torsion
[ 7974 7965 7964 7962 ] final  168.23 input  175.53 | X-H torsion
[ 8008 7997 7996 7995 ] final  151.56 input   59.86 | X-H torsion
[ 10167 10162 10161 10158 ] final  -71.27 input  -65.29 | X-H torsion
[ 10718 10713 10712 10709 ] final  179.53 input   66.30 | X-H torsion
[ 10763 10752 10751 10750 ] final -114.33 input  -60.55 | X-H torsion
[ 11005 11000 10999 10996 ] final  -79.28 input  -57.11 | X-H torsion

> <Gold.Protein.ActiveResidues>
 VAL166  LYS551  ARG553  GLY616  TRP617  ASP618  TYR619  PRO620  LYS621  CYS622 
 ASP623  PHE694  ASN695  SER759  ASP760  ASP761  ALA762  ILE779  LEU786  VAL792 
 PHE793  MET794  SER795  GLU796  ALA797  LYS798  CYS799  TRP800  GLU811  SER814 

> <Gold.Protein.RotatedAtoms>
  151.5209  135.1067  159.9878 H   0  0  0  0  0  0  0  0  0  0  0  0  # atno 6907 bound_to 6896
  152.4621  133.7839  159.6876 H   0  0  0  0  0  0  0  0  0  0  0  0  # atno 6908 bound_to 6896
  150.8587  133.7611  159.3025 H   0  0  0  0  0  0  0  0  0  0  0  0  # atno 6909 bound_to 6896
  144.7396  139.8877  143.6401 H   0  0  0  0  0  0  0  0  0  0  0  0  # atno 7974 bound_to 7965
  156.2668  140.2044  156.6194 H   0  0  0  0  0  0  0  0  0  0  0  0  # atno 8008 bound_to 7997
  154.6768  140.0544  157.0248 H   0  0  0  0  0  0  0  0  0  0  0  0  # atno 8009 bound_to 7997
  155.1057  140.3210  155.4538 H   0  0  0  0  0  0  0  0  0  0  0  0  # atno 8010 bound_to 7997
  140.5286  143.2324  151.7302 H   0  0  0  0  0  0  0  0  0  0  0  0  # atno 10167 bound_to 10162
  156.8743  130.9794  151.3069 H   0  0  0  0  0  0  0  0  0  0  0  0  # atno 10718 bound_to 10713
  154.8435  135.4422  154.1489 H   0  0  0  0  0  0  0  0  0  0  0  0  # atno 10763 bound_to 10752
  153.2655  135.6940  153.7540 H   0  0  0  0  0  0  0  0  0  0  0  0  # atno 10764 bound_to 10752
  153.6801  135.3404  155.3151 H   0  0  0  0  0  0  0  0  0  0  0  0  # atno 10765 bound_to 10752
  141.1667  133.7099  156.8098 H   0  0  0  0  0  0  0  0  0  0  0  0  # atno 11005 bound_to 11000
  146.1165  139.4177  143.0255 LP  0  0  0  0  0  0  0  0  0  0  0  0  # atno 17320 bound_to 7965
  145.7367  141.0023  143.1323 LP  0  0  0  0  0  0  0  0  0  0  0  0  # atno 17321 bound_to 7965
  139.4947  144.4147  152.0042 LP  0  0  0  0  0  0  0  0  0  0  0  0  # atno 17342 bound_to 10162
  140.3248  144.3385  150.6001 LP  0  0  0  0  0  0  0  0  0  0  0  0  # atno 17343 bound_to 10162
  157.6177  130.8631  149.9056 LP  0  0  0  0  0  0  0  0  0  0  0  0  # atno 17370 bound_to 10713
  156.0710  130.3685  150.0776 LP  0  0  0  0  0  0  0  0  0  0  0  0  # atno 17371 bound_to 10713
  140.2195  134.8767  157.3362 LP  0  0  0  0  0  0  0  0  0  0  0  0  # atno 17394 bound_to 11000
  140.2002  134.4264  155.7667 LP  0  0  0  0  0  0  0  0  0  0  0  0  # atno 17395 bound_to 11000

$$$$
