AV-unprocessed.smi:2069|AV-procd|sdf|8435|dock2
  -GOLD-   2272011133D 1   1.00000     0.00000
 Structure written by MMmdl.
 37 38  0  0  0  0  0  0  0  0  2 V2000
  146.5663  134.3178  162.7067 C   0  0  0  0  0  0  0  0  0  0  0  0
  147.3314  135.2255  161.8059 C   0  0  0  0  0  0  0  0  0  0  0  0
  147.7746  136.4232  162.1953 N   0  0  0  0  0  0  0  0  0  0  0  0
  148.4550  137.0836  161.1824 N   0  0  0  0  0  0  0  0  0  0  0  0
  148.5081  136.3830  160.0408 C   0  0  0  0  0  0  0  0  0  0  0  0
  149.1251  136.8454  158.9408 N   0  5  0  0  0  0  0  0  0  0  0  0
  150.3064  137.4947  159.0502 C   0  0  0  0  0  0  0  0  0  0  0  0
  151.2814  137.1315  159.7124 O   0  0  0  0  0  0  0  0  0  0  0  0
  150.3597  138.6388  158.3531 N   0  0  0  0  0  0  0  0  0  0  0  0
  151.4961  139.5558  158.2967 C   0  0  0  0  0  0  0  0  0  0  0  0
  151.1287  140.9674  157.7520 C   0  0  2  0  0  0  0  0  0  0  0  0
  151.0985  140.9139  156.2031 C   0  0  0  0  0  0  0  0  0  0  0  0
  152.0058  142.0444  158.2691 N   0  0  0  0  0  0  0  0  0  0  0  0
  152.0433  142.0918  159.7354 C   0  0  0  0  0  0  0  0  0  0  0  0
  152.9235  143.2327  160.2744 C   0  0  0  0  0  0  0  0  0  0  0  0
  152.4693  144.4761  159.7581 O   0  0  0  0  0  0  0  0  0  0  0  0
  152.4916  144.5018  158.3378 C   0  0  0  0  0  0  0  0  0  0  0  0
  151.6071  143.3711  157.7847 C   0  0  0  0  0  0  0  0  0  0  0  0
  147.7193  134.8090  160.1453 S   0  0  0  0  0  0  0  0  0  0  0  0
  145.5304  134.6502  162.7767 H   0  0  0  0  0  0  0  0  0  0  0  0
  147.0045  134.3188  163.7051 H   0  0  0  0  0  0  0  0  0  0  0  0
  146.5825  133.2985  162.3205 H   0  0  0  0  0  0  0  0  0  0  0  0
  149.5398  138.8966  157.8239 H   0  0  0  0  0  0  0  0  0  0  0  0
  151.9109  139.5993  159.3028 H   0  0  0  0  0  0  0  0  0  0  0  0
  152.2629  139.1038  157.6672 H   0  0  0  0  0  0  0  0  0  0  0  0
  150.1107  141.1823  158.0806 H   0  0  0  0  0  0  0  0  0  0  0  0
  150.4923  140.0908  155.8268 H   0  0  0  0  0  0  0  0  0  0  0  0
  152.1022  140.7947  155.7939 H   0  0  0  0  0  0  0  0  0  0  0  0
  150.6598  141.8094  155.7660 H   0  0  0  0  0  0  0  0  0  0  0  0
  151.0310  142.1966  160.1289 H   0  0  0  0  0  0  0  0  0  0  0  0
  152.4477  141.1668  160.1405 H   0  0  0  0  0  0  0  0  0  0  0  0
  152.8793  143.2620  161.3631 H   0  0  0  0  0  0  0  0  0  0  0  0
  153.9683  143.0761  160.0013 H   0  0  0  0  0  0  0  0  0  0  0  0
  152.1267  145.4698  157.9945 H   0  0  0  0  0  0  0  0  0  0  0  0
  153.5173  144.4009  157.9794 H   0  0  0  0  0  0  0  0  0  0  0  0
  151.6711  143.4192  156.6992 H   0  0  0  0  0  0  0  0  0  0  0  0
  150.5666  143.5641  158.0502 H   0  0  0  0  0  0  0  0  0  0  0  0
  1  2  1  0  0  0  0
  1 20  1  0  0  0  0
  1 21  1  0  0  0  0
  1 22  1  0  0  0  0
  2 19  1  0  0  0  0
  2  3  2  0  0  0  0
  3  4  1  0  0  0  0
  4  5  2  0  0  0  0
  5  6  1  0  0  0  0
  5 19  1  0  0  0  0
  6  7  1  0  0  0  0
  7  8  2  0  0  0  0
  7  9  1  0  0  0  0
  9 10  1  0  0  0  0
  9 23  1  0  0  0  0
 10 11  1  0  0  0  0
 10 24  1  0  0  0  0
 10 25  1  0  0  0  0
 11 12  1  0  0  0  0
 11 13  1  0  0  0  0
 11 26  1  0  0  0  0
 12 27  1  0  0  0  0
 12 28  1  0  0  0  0
 12 29  1  0  0  0  0
 13 18  1  0  0  0  0
 13 14  1  0  0  0  0
 14 15  1  0  0  0  0
 14 30  1  0  0  0  0
 14 31  1  0  0  0  0
 15 16  1  0  0  0  0
 15 32  1  0  0  0  0
 15 33  1  0  0  0  0
 16 17  1  0  0  0  0
 17 18  1  0  0  0  0
 17 34  1  0  0  0  0
 17 35  1  0  0  0  0
 18 36  1  0  0  0  0
 18 37  1  0  0  0  0
M  CHG  1   6  -1
M  END
> <s_m_source_file>
AV-unprocessed.smi

> <i_m_source_file_index>
2069

> <i_lp_mmshare_version>
43012

> <i_f3d_flags>
0

> <s_epik_input>
W0NIM11jMW5uYyhzMSlbTkhdQyg9TylbTkhdW0NIMl1bQ0BIXShbQ0gzXSlOMltDSDJdW0NIMl1PW0NIMl1bQ0gyXTI=

> <s_epik_cmdline>
J2VwaWtfcHl0aG9uJywgJy1waCcsICc3LjAnLCAnLXRuJywgJzgnLCAnLW1hJywgJzIwMCcsICctbWV0YWxfYmluZGluZycsICctaW1hZScsICc8aW5maWxlLm1hZT4nLCAnLW9tYWUnLCAnPG91dGZpbGUubWFlPic=

> <r_lp_tautomer_probability>
1

> <r_epik_Ionization_Penalty>
3.82002

> <r_epik_Ionization_Penalty_Charging>
3.36369

> <r_epik_Ionization_Penalty_Neutral>
0.456339

> <r_epik_State_Penalty>
3.571

> <r_epik_Charging_Adjusted_Penalty>
6.93469

> <i_epik_Tot_Q>
-1

> <i_epik_Tot_abs_Q>
1

> <r_epik_Metal_State_Penalty>
0.710436

> <b_epik_Metal_Only>
1

> <s_lp_Force_Field>
OPLS_2005

> <r_lp_Energy>
26.0796

> <b_lp_Chiralities_Consistent>
1

> <s_lp_Variant>
AV-unprocessed.smi:2069-5

> <Gold.Version>
5.8.1

> <Gold.Id.Protein>
6NUR|6NUR_protein|mol2

> <Gold.PLP.Fitness>
41.9598

> <Gold.PLP.PLP>
-38.0766

> <Gold.PLP.part.hbond>
-2.3843

> <Gold.PLP.part.metal>
0.0000

> <Gold.PLP.part.buried>
-6.4758

> <Gold.PLP.part.nonpolar>
-30.5342

> <Gold.PLP.part.repulsive>
0.1368

> <Gold.PLP.ligand.clash>
0.0000

> <Gold.PLP.ligand.torsion>
1.1226

> <Gold.PLP.Chemscore.Hbond>
2.0000

> <Gold.PLP.Chemscore.CHOScore>
0.0000

> <Gold.PLP.Chemscore.Metal>
0.0000

> <Gold.Chemscore.Hbonds>
donor molecule, donor type, donor heavy atom, donor atom, acceptor molecule, acceptor atom, score
      P1  H  6896  6908       L1     8  0.98
      P1  H  6931  6943       L1     4  0.89
      P1  H  6934  6947       L1     4  0.15

> <Gold.PLP.Chemscore.Internal.Correction>
0.1284

> <Gold.Rescore>
     Score         DG    S(hbond)    S(metal)    S(lipo)     H(rot)  DE(clash)    DE(int)     intcor
     16.12     -17.42       1.95        0.00      80.96       1.57       0.17       1.13       ----

> <Gold.Chemscore.Fitness>
16.1239

> <Gold.Chemscore.DG>
-17.4220

> <Gold.Chemscore.ZeroCoef>
-5.4800

> <Gold.Chemscore.Hbond>
1.9451

> <Gold.Chemscore.Metal>
0.0000

> <Gold.Chemscore.Lipo>
80.9647

> <Gold.Chemscore.Internal_Hbond>
0.0000

> <Gold.Chemscore.DEClash>
0.1677

> <Gold.Chemscore.DEInternal>
1.1305

> <Gold.Chemscore.Rot>
1.5732

> <Gold.Chemscore.Internal.Correction>
   9.000000E+99

> <Gold.Chemscore.Hbonds>
donor molecule, donor type, donor heavy atom, donor atom, acceptor molecule, acceptor atom, score
      P1  H  6896  6908       L1     8  0.54
      P1  H  6931  6943       L1     4  0.33
      P1  H  6934  6947       L1     4  0.04

> <Gold.Chemscore.Hbond.Weighted>
-6.4966

> <Gold.Chemscore.Metal.Weighted>
-0.0000

> <Gold.Chemscore.Lipo.Weighted>
-9.4729

> <Gold.Chemscore.Internal_Hbond.Weighted>
0.0000

> <Gold.Chemscore.DEClash.Weighted>
0.1677

> <Gold.Chemscore.DEInternal.Weighted>
1.1305

> <Gold.Chemscore.Rot.Weighted>
4.0274

> <Gold.Chemscore.Internal.Correction.Weighted>
   9.000000E+99

> <Gold.Protein.RotatedTorsions>
[ 6907 6896 6895 6894 ] final -146.50 input  -60.11 | X-H torsion
[ 7974 7965 7964 7962 ] final -172.76 input  175.53 | X-H torsion
[ 8008 7997 7996 7995 ] final  -98.46 input   59.86 | X-H torsion
[ 10167 10162 10161 10158 ] final  -55.47 input  -65.29 | X-H torsion
[ 10718 10713 10712 10709 ] final -141.08 input   66.30 | X-H torsion
[ 10763 10752 10751 10750 ] final -177.70 input  -60.55 | X-H torsion
[ 11005 11000 10999 10996 ] final   33.88 input  -57.11 | X-H torsion

> <Gold.Protein.ActiveResidues>
 VAL166  LYS551  ARG553  GLY616  TRP617  ASP618  TYR619  PRO620  LYS621  CYS622 
 ASP623  PHE694  ASN695  SER759  ASP760  ASP761  ALA762  ILE779  LEU786  VAL792 
 PHE793  MET794  SER795  GLU796  ALA797  LYS798  CYS799  TRP800  GLU811  SER814 

> <Gold.Protein.RotatedAtoms>
  151.1425  133.4962  159.2596 H   0  0  0  0  0  0  0  0  0  0  0  0  # atno 6907 bound_to 6896
  151.1640  135.0286  159.8732 H   0  0  0  0  0  0  0  0  0  0  0  0  # atno 6908 bound_to 6896
  152.5462  134.1296  159.8486 H   0  0  0  0  0  0  0  0  0  0  0  0  # atno 6909 bound_to 6896
  144.7143  140.1724  143.6366 H   0  0  0  0  0  0  0  0  0  0  0  0  # atno 7974 bound_to 7965
  154.8015  140.0455  157.1276 H   0  0  0  0  0  0  0  0  0  0  0  0  # atno 8008 bound_to 7997
  154.9473  140.3060  155.5072 H   0  0  0  0  0  0  0  0  0  0  0  0  # atno 8009 bound_to 7997
  156.2962  140.2294  156.4548 H   0  0  0  0  0  0  0  0  0  0  0  0  # atno 8010 bound_to 7997
  140.6373  143.2488  151.5085 H   0  0  0  0  0  0  0  0  0  0  0  0  # atno 10167 bound_to 10162
  156.3299  130.7580  151.1696 H   0  0  0  0  0  0  0  0  0  0  0  0  # atno 10718 bound_to 10713
  154.5569  135.2817  155.0956 H   0  0  0  0  0  0  0  0  0  0  0  0  # atno 10763 bound_to 10752
  154.2380  135.6362  153.5201 H   0  0  0  0  0  0  0  0  0  0  0  0  # atno 10764 bound_to 10752
  153.0018  135.5553  154.6152 H   0  0  0  0  0  0  0  0  0  0  0  0  # atno 10765 bound_to 10752
  140.2586  134.3219  155.7865 H   0  0  0  0  0  0  0  0  0  0  0  0  # atno 11005 bound_to 11000
  145.8931  139.2387  143.1537 LP  0  0  0  0  0  0  0  0  0  0  0  0  # atno 17320 bound_to 7965
  145.9884  140.8624  143.0079 LP  0  0  0  0  0  0  0  0  0  0  0  0  # atno 17321 bound_to 7965
  139.5582  144.2221  152.1648 LP  0  0  0  0  0  0  0  0  0  0  0  0  # atno 17342 bound_to 10162
  140.1481  144.5140  150.6703 LP  0  0  0  0  0  0  0  0  0  0  0  0  # atno 17343 bound_to 10162
  157.7428  131.0484  150.4994 LP  0  0  0  0  0  0  0  0  0  0  0  0  # atno 17370 bound_to 10713
  156.5159  130.4150  149.6276 LP  0  0  0  0  0  0  0  0  0  0  0  0  # atno 17371 bound_to 10713
  141.2193  133.7396  156.9150 LP  0  0  0  0  0  0  0  0  0  0  0  0  # atno 17394 bound_to 11000
  140.1487  134.9245  157.2564 LP  0  0  0  0  0  0  0  0  0  0  0  0  # atno 17395 bound_to 11000

$$$$
