#       Name:                AV-unprocessed.smi:793
#       Creating user name   scv26
#       Creation time:       Fri Mar 27 01:18:42 2020


#       File generated by GOLD software.
#

@<TRIPOS>MOLECULE
AV-unprocessed.smi:793
    43    44     1
SMALL
NO_CHARGES


@<TRIPOS>ATOM
      1 ****        -3.7431   1.8122  -0.1355 C.3            1 S1                 0.0000
      2 ****        -3.1871   0.3900  -0.2788 C.3            1 S1                 0.0000
      3 ****        -1.6598   0.3267  -0.0876 C.3            1 S1                 0.0000
      4 ****        -1.0538   1.0055  -1.1895 O.3            1 S1                 0.0000
      5 ****         0.3491   1.2531  -1.1101 C.3            1 S1                 0.0000
      6 ****         0.7403   2.2243   0.0078 C.3            1 S1                 0.0000
      7 ****         2.0755   2.8275  -0.4421 C.3            1 S1                 0.0000
      8 ****         2.1361   2.6518  -1.9679 C.3            1 S1                 0.0000
      9 ****         0.8253   1.9687  -2.3727 C.3            1 S1                 0.0000
     10 ****        -1.1574  -1.1250  -0.0083 C.2            1 S1                 0.0000
     11 ****        -1.5756  -1.9643  -0.8063 O.2            1 S1                 0.0000
     12 ****        -0.2428  -1.3665   0.9480 N.am           1 S1                 0.0000
     13 ****         0.4428  -2.5767   1.2409 C.ar           1 S1                 0.0000
     14 ****        -0.0806  -3.8617   0.9523 C.ar           1 S1                 0.0000
     15 ****         0.5613  -5.0126   1.2483 N.ar           1 S1                 0.0000
     16 ****         1.7630  -4.9268   1.8565 C.ar           1 S1                 0.0000
     17 ****         2.3697  -3.7042   2.2036 C.ar           1 S1                 0.0000
     18 ****         1.6955  -2.5070   1.8949 C.ar           1 S1                 0.0000
     19 ****         2.2630  -1.3070   2.2259 O.co2          1 S1                -1.0000
     20 ****        -4.8249   1.8211  -0.2698 H              1 S1                 0.0000
     21 ****        -3.3101   2.4825  -0.8784 H              1 S1                 0.0000
     22 ****        -3.5271   2.2217   0.8516 H              1 S1                 0.0000
     23 ****        -3.6778  -0.2505   0.4555 H              1 S1                 0.0000
     24 ****        -3.4571  -0.0045  -1.2593 H              1 S1                 0.0000
     25 ****        -1.4163   0.8386   0.8447 H              1 S1                 0.0000
     26 ****         0.9156   0.3263  -1.0098 H              1 S1                 0.0000
     27 ****        -0.0078   3.0145   0.0850 H              1 S1                 0.0000
     28 ****         0.8130   1.7383   0.9812 H              1 S1                 0.0000
     29 ****         2.1566   3.8744  -0.1480 H              1 S1                 0.0000
     30 ****         2.9043   2.2927   0.0235 H              1 S1                 0.0000
     31 ****         2.2656   3.6033  -2.4844 H              1 S1                 0.0000
     32 ****         2.9846   2.0193  -2.2312 H              1 S1                 0.0000
     33 ****         0.9475   1.2907  -3.2177 H              1 S1                 0.0000
     34 ****         0.0965   2.7275  -2.6609 H              1 S1                 0.0000
     35 ****         0.0772  -0.5624   1.4688 H              1 S1                 0.0000
     36 ****        -1.0481  -3.9911   0.4928 H              1 S1                 0.0000
     37 ****         2.2544  -5.8623   2.0793 H              1 S1                 0.0000
     38 ****         3.3309  -3.6888   2.6965 H              1 S1                 0.0000
     39 ****        -1.5105   1.8899  -1.2862 LP             1 S1                 0.0000
     40 ****        -1.2164   0.4551  -2.0083 LP             1 S1                 0.0000
     41 ****        -2.2411  -1.7019  -1.5050 LP             1 S1                 0.0000
     42 ****        -1.2496  -2.9083  -0.7557 LP             1 S1                 0.0000
     43 ****         0.1589  -5.9001   1.0239 LP             1 S1                 0.0000
@<TRIPOS>BOND
    1    1    2 1     
    2    1   20 1     
    3    1   21 1     
    4    1   22 1     
    5    2    3 1     
    6    2   23 1     
    7    2   24 1     
    8    3    4 1     
    9    3   10 1     
   10    3   25 1     
   11    4    5 1     
   12    5    9 1     
   13    5    6 1     
   14    5   26 1     
   15    6    7 1     
   16    6   27 1     
   17    6   28 1     
   18    7    8 1     
   19    7   29 1     
   20    7   30 1     
   21    8    9 1     
   22    8   31 1     
   23    8   32 1     
   24    9   33 1     
   25    9   34 1     
   26   10   11 2     
   27   10   12 am    
   28   12   35 1     
   29   12   13 1     
   30   13   18 ar    
   31   13   14 ar    
   32   14   36 1     
   33   14   15 ar    
   34   15   16 ar    
   35   16   37 1     
   36   16   17 ar    
   37   17   18 ar    
   38   17   38 1     
   39   18   19 ar    
   40    4   39 1     
   41    4   40 1     
   42   11   41 1     
   43   11   42 1     
   44   15   43 1     
@<TRIPOS>SUBSTRUCTURE
      1 S1             1
@<TRIPOS>SET
LONE_PAIRS      STATIC     ATOMS    <user>   **** ""
6 39 40 41 42 43 19
DONOR_HYDROGENS      STATIC     ATOMS    <user>   **** ""
1 35
ATOM$BLUE        STATIC     ATOMS    COLORGROUP SYSTEM
6 39 40 41 42 43 19
ATOM$RED        STATIC     ATOMS    COLORGROUP SYSTEM
1 35
