AV-unprocessed.smi:12|AV-procd|sdf|67|dock10
  -GOLD-   2262015193D 1   1.00000     0.00000
 Structure written by MMmdl.
 41 44  0  0  0  0  0  0  0  0  1 V2000
  153.2338  142.1534  161.9759 C   0  0  0  0  0  0  0  0  0  0  0  0
  153.1267  141.4379  160.6414 C   0  0  0  0  0  0  0  0  0  0  0  0
  152.0482  141.5888  159.8367 C   0  0  0  0  0  0  0  0  0  0  0  0
  151.9993  140.9167  158.6475 N   0  0  0  0  0  0  0  0  0  0  0  0
  153.0735  140.0865  158.2692 C   0  0  0  0  0  0  0  0  0  0  0  0
  154.1386  139.8883  158.9817 N   0  0  0  0  0  0  0  0  0  0  0  0
  154.2394  140.5494  160.2209 C   0  0  0  0  0  0  0  0  0  0  0  0
  155.2297  140.3923  160.9338 O   0  0  0  0  0  0  0  0  0  0  0  0
  152.8011  139.5502  157.0494 O   0  0  0  0  0  0  0  0  0  0  0  0
  151.5591  140.0684  156.5412 C   0  0  1  0  0  0  0  0  0  0  0  0
  150.5042  138.9833  156.3733 C   0  0  1  0  0  0  0  0  0  0  0  0
  151.0483  137.7879  155.8508 O   0  0  0  0  0  0  0  0  0  0  0  0
  149.9114  138.8672  157.7773 C   0  0  2  0  0  0  0  0  0  0  0  0
  148.5143  138.2361  157.8308 C   0  0  0  0  0  0  0  0  0  0  0  0
  148.3229  137.6164  159.0923 O   0  0  0  0  0  0  0  0  0  0  0  0
  148.6332  136.3165  159.2615 C   0  0  0  0  0  0  0  0  0  0  0  0
  149.4117  135.7003  158.5311 O   0  0  0  0  0  0  0  0  0  0  0  0
  147.9350  135.7012  160.4274 C   0  0  0  0  0  0  0  0  0  0  0  0
  147.3594  136.5390  161.4114 C   0  0  0  0  0  0  0  0  0  0  0  0
  146.6937  135.9873  162.5231 C   0  0  0  0  0  0  0  0  0  0  0  0
  146.5948  134.5910  162.6643 C   0  0  0  0  0  0  0  0  0  0  0  0
  147.1627  133.7468  161.6925 C   0  0  0  0  0  0  0  0  0  0  0  0
  147.8293  134.2964  160.5800 C   0  0  0  0  0  0  0  0  0  0  0  0
  149.8327  140.2370  158.1618 O   0  0  0  0  0  0  0  0  0  0  0  0
  150.9280  140.9418  157.6484 C   0  0  1  0  0  0  0  0  0  0  0  0
  152.3574  142.7738  162.1656 H   0  0  0  0  0  0  0  0  0  0  0  0
  154.1130  142.7982  161.9936 H   0  0  0  0  0  0  0  0  0  0  0  0
  153.3189  141.4314  162.7888 H   0  0  0  0  0  0  0  0  0  0  0  0
  151.2248  142.2272  160.1222 H   0  0  0  0  0  0  0  0  0  0  0  0
  151.7243  140.6477  155.6320 H   0  0  0  0  0  0  0  0  0  0  0  0
  149.7345  139.3412  155.6876 H   0  0  0  0  0  0  0  0  0  0  0  0
  150.9716  137.1112  156.5062 H   0  0  0  0  0  0  0  0  0  0  0  0
  150.5953  138.3479  158.4511 H   0  0  0  0  0  0  0  0  0  0  0  0
  147.7546  139.0061  157.6906 H   0  0  0  0  0  0  0  0  0  0  0  0
  148.3952  137.5075  157.0276 H   0  0  0  0  0  0  0  0  0  0  0  0
  147.4226  137.6141  161.3246 H   0  0  0  0  0  0  0  0  0  0  0  0
  146.2586  136.6368  163.2683 H   0  0  0  0  0  0  0  0  0  0  0  0
  146.0839  134.1684  163.5170 H   0  0  0  0  0  0  0  0  0  0  0  0
  147.0873  132.6748  161.8000 H   0  0  0  0  0  0  0  0  0  0  0  0
  148.2535  133.6191  159.8531 H   0  0  0  0  0  0  0  0  0  0  0  0
  150.7499  141.9908  157.4100 H   0  0  0  0  0  0  0  0  0  0  0  0
  1  2  1  0  0  0  0
  1 26  1  0  0  0  0
  1 27  1  0  0  0  0
  1 28  1  0  0  0  0
  2  7  1  0  0  0  0
  2  3  2  0  0  0  0
  3  4  1  0  0  0  0
  3 29  1  0  0  0  0
  4 25  1  0  0  0  0
  4  5  1  0  0  0  0
  5  6  2  0  0  0  0
  5  9  1  0  0  0  0
  6  7  1  0  0  0  0
  7  8  2  0  0  0  0
  9 10  1  0  0  0  0
 10 25  1  0  0  0  0
 10 11  1  0  0  0  0
 10 30  1  0  0  0  0
 11 12  1  0  0  0  0
 11 13  1  0  0  0  0
 11 31  1  0  0  0  0
 12 32  1  0  0  0  0
 13 14  1  0  0  0  0
 13 24  1  0  0  0  0
 13 33  1  0  0  0  0
 14 15  1  0  0  0  0
 14 34  1  0  0  0  0
 14 35  1  0  0  0  0
 15 16  1  0  0  0  0
 16 17  2  0  0  0  0
 16 18  1  0  0  0  0
 18 23  1  0  0  0  0
 18 19  2  0  0  0  0
 19 20  1  0  0  0  0
 19 36  1  0  0  0  0
 20 21  2  0  0  0  0
 20 37  1  0  0  0  0
 21 22  1  0  0  0  0
 21 38  1  0  0  0  0
 22 23  2  0  0  0  0
 22 39  1  0  0  0  0
 23 40  1  0  0  0  0
 24 25  1  0  0  0  0
 25 41  1  0  0  0  0
M  END
> <s_m_source_file>
AV-unprocessed.smi

> <i_m_source_file_index>
12

> <i_lp_mmshare_version>
43012

> <i_f3d_flags>
0

> <s_epik_input>
W0NIM11jKFtjSF0xKWMoPU8pbmMobjEyKU9bQ0BIXTNbQ0BASF0yT1tDQEBIXShbQ0BASF0zW09IXSlbQ0gyXU9DKD1PKWM0W2NIXVtjSF1bY0hdW2NIXVtjSF00

> <s_epik_cmdline>
J2VwaWtfcHl0aG9uJywgJy1waCcsICc3LjAnLCAnLXRuJywgJzgnLCAnLW1hJywgJzIwMCcsICctbWV0YWxfYmluZGluZycsICctaW1hZScsICc8aW5maWxlLm1hZT4nLCAnLW9tYWUnLCAnPG91dGZpbGUubWFlPic=

> <r_lp_tautomer_probability>
0.933681

> <r_epik_Ionization_Penalty>
0.00399549

> <r_epik_Ionization_Penalty_Charging>
3.09373e-09

> <r_epik_Ionization_Penalty_Neutral>
0.00399549

> <r_epik_State_Penalty>
0.00284953

> <r_epik_Charging_Adjusted_Penalty>
0.00284953

> <i_epik_Tot_Q>
0

> <i_epik_Tot_abs_Q>
0

> <r_epik_Metal_State_Penalty>
-0

> <b_epik_Metal_Only>
0

> <s_epik_Chemistry_Notes>
This compound has an ester and may undergo hydrolysis at high or low pH. This compound contains an acetal/aminal-like group ( X-CH(R)-Y where X, Y are N, S, or O) that may be acid/base labile, releasing an aldehyde.

> <s_lp_Force_Field>
OPLS_2005

> <r_lp_Energy>
46.3609

> <b_lp_Chiralities_Consistent>
1

> <s_lp_Variant>
AV-unprocessed.smi:12-7

> <Gold.Version>
5.8.1

> <Gold.Id.Protein>
6NUR|6NUR_protein|mol2

> <Gold.PLP.Fitness>
47.1912

> <Gold.PLP.PLP>
-43.3542

> <Gold.PLP.part.hbond>
-4.7728

> <Gold.PLP.part.metal>
0.0000

> <Gold.PLP.part.buried>
-1.5490

> <Gold.PLP.part.nonpolar>
-36.0280

> <Gold.PLP.part.repulsive>
0.0000

> <Gold.PLP.ligand.clash>
0.0000

> <Gold.PLP.ligand.torsion>
1.0180

> <Gold.PLP.Chemscore.Hbond>
1.9520

> <Gold.PLP.Chemscore.CHOScore>
0.0000

> <Gold.PLP.Chemscore.Metal>
0.0000

> <Gold.Chemscore.Hbonds>
donor molecule, donor type, donor heavy atom, donor atom, acceptor molecule, acceptor atom, score
      P1  H  6896  6907       L1    17  1.00
      P1  H  7997  8008       L1     6  0.23
      P1  H  7997  8009       L1     9  0.59

> <Gold.PLP.Chemscore.Internal.Correction>
0.0172

> <Gold.Rescore>
     Score         DG    S(hbond)    S(metal)    S(lipo)     H(rot)  DE(clash)    DE(int)     intcor
     11.60     -14.44       1.13        0.00      92.14       2.18       2.00       0.84       ----

> <Gold.Chemscore.Fitness>
11.5992

> <Gold.Chemscore.DG>
-14.4383

> <Gold.Chemscore.ZeroCoef>
-5.4800

> <Gold.Chemscore.Hbond>
1.1254

> <Gold.Chemscore.Metal>
0.0000

> <Gold.Chemscore.Lipo>
92.1375

> <Gold.Chemscore.Internal_Hbond>
0.0000

> <Gold.Chemscore.DEClash>
1.9965

> <Gold.Chemscore.DEInternal>
0.8426

> <Gold.Chemscore.Rot>
2.1800

> <Gold.Chemscore.Internal.Correction>
   9.000000E+99

> <Gold.Chemscore.Hbonds>
donor molecule, donor type, donor heavy atom, donor atom, acceptor molecule, acceptor atom, score
      P1  H  6896  6907       L1    17  0.86
      P1  H  7997  8008       L1     6  0.03
      P1  H  7997  8009       L1     9  0.11

> <Gold.Chemscore.Hbond.Weighted>
-3.7589

> <Gold.Chemscore.Metal.Weighted>
-0.0000

> <Gold.Chemscore.Lipo.Weighted>
-10.7801

> <Gold.Chemscore.Internal_Hbond.Weighted>
0.0000

> <Gold.Chemscore.DEClash.Weighted>
1.9965

> <Gold.Chemscore.DEInternal.Weighted>
0.8426

> <Gold.Chemscore.Rot.Weighted>
5.5807

> <Gold.Chemscore.Internal.Correction.Weighted>
   9.000000E+99

> <Gold.Protein.RotatedTorsions>
[ 6907 6896 6895 6894 ] final  -74.61 input  -60.11 | X-H torsion
[ 7974 7965 7964 7962 ] final   -2.03 input  175.53 | X-H torsion
[ 8008 7997 7996 7995 ] final -147.03 input   59.86 | X-H torsion
[ 10167 10162 10161 10158 ] final  -12.90 input  -65.29 | X-H torsion
[ 10718 10713 10712 10709 ] final   45.86 input   66.30 | X-H torsion
[ 10763 10752 10751 10750 ] final  160.96 input  -60.55 | X-H torsion
[ 11005 11000 10999 10996 ] final  125.11 input  -57.11 | X-H torsion

> <Gold.Protein.ActiveResidues>
 VAL166  LYS551  ARG553  GLY616  TRP617  ASP618  TYR619  PRO620  LYS621  CYS622 
 ASP623  PHE694  ASN695  SER759  ASP760  ASP761  ALA762  ILE779  LEU786  VAL792 
 PHE793  MET794  SER795  GLU796  ALA797  LYS798  CYS799  TRP800  GLU811  SER814 

> <Gold.Protein.RotatedAtoms>
  150.7087  134.4844  159.5485 H   0  0  0  0  0  0  0  0  0  0  0  0  # atno 6907 bound_to 6896
  152.2474  134.8164  160.0460 H   0  0  0  0  0  0  0  0  0  0  0  0  # atno 6908 bound_to 6896
  151.8924  133.3484  159.3839 H   0  0  0  0  0  0  0  0  0  0  0  0  # atno 6909 bound_to 6896
  146.2410  140.1509  142.8334 H   0  0  0  0  0  0  0  0  0  0  0  0  # atno 7974 bound_to 7965
  155.5689  140.0632  157.2811 H   0  0  0  0  0  0  0  0  0  0  0  0  # atno 8008 bound_to 7997
  154.4367  140.1872  156.0905 H   0  0  0  0  0  0  0  0  0  0  0  0  # atno 8009 bound_to 7997
  156.0391  140.3297  155.7227 H   0  0  0  0  0  0  0  0  0  0  0  0  # atno 8010 bound_to 7997
  140.7171  143.5483  150.9330 H   0  0  0  0  0  0  0  0  0  0  0  0  # atno 10167 bound_to 10162
  157.4420  130.8087  149.7703 H   0  0  0  0  0  0  0  0  0  0  0  0  # atno 10718 bound_to 10713
  154.2555  135.2770  155.2799 H   0  0  0  0  0  0  0  0  0  0  0  0  # atno 10763 bound_to 10752
  154.5429  135.5697  153.6858 H   0  0  0  0  0  0  0  0  0  0  0  0  # atno 10764 bound_to 10752
  152.9972  135.6255  154.2703 H   0  0  0  0  0  0  0  0  0  0  0  0  # atno 10765 bound_to 10752
  139.9391  134.9637  156.8509 H   0  0  0  0  0  0  0  0  0  0  0  0  # atno 11005 bound_to 11000
  145.0168  140.8761  143.5190 LP  0  0  0  0  0  0  0  0  0  0  0  0  # atno 17320 bound_to 7965
  145.1551  139.2491  143.5420 LP  0  0  0  0  0  0  0  0  0  0  0  0  # atno 17321 bound_to 7965
  139.9207  143.6610  152.3097 LP  0  0  0  0  0  0  0  0  0  0  0  0  # atno 17342 bound_to 10162
  139.7025  144.7633  151.1248 LP  0  0  0  0  0  0  0  0  0  0  0  0  # atno 17343 bound_to 10162
  155.9952  130.3913  150.2827 LP  0  0  0  0  0  0  0  0  0  0  0  0  # atno 17370 bound_to 10713
  157.0992  131.0191  151.3092 LP  0  0  0  0  0  0  0  0  0  0  0  0  # atno 17371 bound_to 10713
  140.5999  134.0181  155.7533 LP  0  0  0  0  0  0  0  0  0  0  0  0  # atno 17394 bound_to 11000
  141.1017  133.9757  157.3067 LP  0  0  0  0  0  0  0  0  0  0  0  0  # atno 17395 bound_to 11000

$$$$
