#       Name:                AV-unprocessed.smi:895
#       Creating user name   scv26
#       Creation time:       Fri Mar 27 01:56:15 2020


#       File generated by GOLD software.
#

@<TRIPOS>MOLECULE
AV-unprocessed.smi:895
    49    50     1
SMALL
NO_CHARGES


@<TRIPOS>ATOM
      1 ****        -3.5538   2.3082  -0.9341 C.3            1 S1                 0.0000
      2 ****        -3.2195   2.9239   0.4381 C.3            1 S1                 0.0000
      3 ****        -3.5697   4.4214   0.4488 C.3            1 S1                 0.0000
      4 ****        -4.0496   2.3178   1.4095 O.3            1 S1                 0.0000
      5 ****        -1.7481   2.7224   0.8749 C.3            1 S1                 0.0000
      6 ****        -1.2977   1.3356   0.7691 N.am           1 S1                 0.0000
      7 ****        -0.5468   0.8329  -0.2206 C.2            1 S1                 0.0000
      8 ****        -0.1473   1.4838  -1.1862 O.2            1 S1                 0.0000
      9 ****        -0.2799  -0.4661  -0.0289 N.am           1 S1                 0.0000
     10 ****         0.5355  -1.2995  -0.9108 C.3            1 S1                 0.0000
     11 ****         0.1766  -2.7853  -0.7081 C.3            1 S1                 0.0000
     12 ****         1.0156  -3.6914  -1.6221 C.3            1 S1                 0.0000
     13 ****         2.5204  -3.4708  -1.4070 C.3            1 S1                 0.0000
     14 ****         2.9050  -1.9909  -1.5912 C.3            1 S1                 0.0000
     15 ****         2.0560  -1.0140  -0.7440 C.3            1 S1                 0.0000
     16 ****         2.4985  -0.9405   0.6501 N.pl3          1 S1                 0.0000
     17 ****         2.9736   0.1711   1.3178 C.2            1 S1                 0.0000
     18 ****         3.2561  -0.2033   2.5998 C.2            1 S1                 0.0000
     19 ****         2.9166  -1.5836   2.6285 C.2            1 S1                 0.0000
     20 ****         2.4635  -2.0191   1.4654 N.2            1 S1                 0.0000
     21 ****        -2.9088   2.7155  -1.7133 H              1 S1                 0.0000
     22 ****        -4.5855   2.5159  -1.2198 H              1 S1                 0.0000
     23 ****        -3.4332   1.2245  -0.9369 H              1 S1                 0.0000
     24 ****        -2.9733   4.9701  -0.2809 H              1 S1                 0.0000
     25 ****        -3.3841   4.8673   1.4269 H              1 S1                 0.0000
     26 ****        -4.6200   4.5881   0.2057 H              1 S1                 0.0000
     27 ****        -3.8650   1.3912   1.4239 H              1 S1                 0.0000
     28 ****        -1.0986   3.3683   0.2812 H              1 S1                 0.0000
     29 ****        -1.6144   3.0449   1.9082 H              1 S1                 0.0000
     30 ****        -1.5698   0.7152   1.5175 H              1 S1                 0.0000
     31 ****        -0.6507  -0.9111   0.7980 H              1 S1                 0.0000
     32 ****         0.2666  -1.0536  -1.9402 H              1 S1                 0.0000
     33 ****         0.3180  -3.0794   0.3317 H              1 S1                 0.0000
     34 ****        -0.8816  -2.9404  -0.9214 H              1 S1                 0.0000
     35 ****         0.7641  -4.7367  -1.4403 H              1 S1                 0.0000
     36 ****         0.7636  -3.4904  -2.6640 H              1 S1                 0.0000
     37 ****         2.8059  -3.8195  -0.4152 H              1 S1                 0.0000
     38 ****         3.0839  -4.0838  -2.1110 H              1 S1                 0.0000
     39 ****         3.9654  -1.8504  -1.3784 H              1 S1                 0.0000
     40 ****         2.7764  -1.7344  -2.6435 H              1 S1                 0.0000
     41 ****         2.2384  -0.0209  -1.1578 H              1 S1                 0.0000
     42 ****         3.0681   1.1303   0.8298 H              1 S1                 0.0000
     43 ****         3.6444   0.4150   3.3954 H              1 S1                 0.0000
     44 ****         2.9836  -2.2769   3.4539 H              1 S1                 0.0000
     45 ****        -5.0098   2.4671   1.1737 LP             1 S1                 0.0000
     46 ****        -3.8617   2.7135   2.3085 LP             1 S1                 0.0000
     47 ****        -0.3807   2.4528  -1.2670 LP             1 S1                 0.0000
     48 ****         0.4107   1.0435  -1.8896 LP             1 S1                 0.0000
     49 ****         2.1608  -2.9447   1.2379 LP             1 S1                 0.0000
@<TRIPOS>BOND
    1    1    2 1     
    2    1   21 1     
    3    1   22 1     
    4    1   23 1     
    5    2    3 1     
    6    2    4 1     
    7    2    5 1     
    8    3   24 1     
    9    3   25 1     
   10    3   26 1     
   11    4   27 1     
   12    5    6 1     
   13    5   28 1     
   14    5   29 1     
   15    6    7 am    
   16    6   30 1     
   17    7    8 2     
   18    7    9 am    
   19    9   10 1     
   20    9   31 1     
   21   10   15 1     
   22   10   11 1     
   23   10   32 1     
   24   11   12 1     
   25   11   33 1     
   26   11   34 1     
   27   12   13 1     
   28   12   35 1     
   29   12   36 1     
   30   13   14 1     
   31   13   37 1     
   32   13   38 1     
   33   14   15 1     
   34   14   39 1     
   35   14   40 1     
   36   15   16 1     
   37   15   41 1     
   38   16   20 1     
   39   16   17 1     
   40   17   18 2     
   41   17   42 1     
   42   18   19 1     
   43   18   43 1     
   44   19   20 2     
   45   19   44 1     
   46    4   45 1     
   47    4   46 1     
   48    8   47 1     
   49    8   48 1     
   50   20   49 1     
@<TRIPOS>SUBSTRUCTURE
      1 S1             1
@<TRIPOS>SET
LONE_PAIRS      STATIC     ATOMS    <user>   **** ""
5 45 46 47 48 49
DONOR_HYDROGENS      STATIC     ATOMS    <user>   **** ""
3 27 30 31
ATOM$BLUE        STATIC     ATOMS    COLORGROUP SYSTEM
5 45 46 47 48 49
ATOM$RED        STATIC     ATOMS    COLORGROUP SYSTEM
3 27 30 31
