#       Name:                AV-unprocessed.smi:3039
#       Creating user name   scv26
#       Creation time:       Fri Mar 27 16:57:01 2020


#       File generated by GOLD software.
#

@<TRIPOS>MOLECULE
AV-unprocessed.smi:3039
    45    46     1
SMALL
NO_CHARGES


@<TRIPOS>ATOM
      1 ****        -0.6826   3.0962  -0.4384 O.2            1 S1                 0.0000
      2 ****        -1.2676   2.0622  -0.1165 C.2            1 S1                 0.0000
      3 ****        -2.7925   1.9866  -0.1963 C.3            1 S1                 0.0000
      4 ****        -3.2133   1.2883  -1.4625 C.2            1 S1                 0.0000
      5 ****        -3.1552  -0.1007  -1.7700 C.2            1 S1                 0.0000
      6 ****        -3.6598  -0.1690  -3.0365 C.2            1 S1                 0.0000
      7 ****        -4.0072   1.0665  -3.4769 O.3            1 S1                 0.0000
      8 ****        -3.7203   1.9897  -2.4651 N.2            1 S1                 0.0000
      9 ****        -0.6394   0.9570   0.3145 N.am           1 S1                 0.0000
     10 ****         0.8050   0.7899   0.4630 C.3            1 S1                 0.0000
     11 ****         1.4157   0.4959  -0.9277 C.3            1 S1                 0.0000
     12 ****         2.8397  -0.0825  -0.9302 C.3            1 S1                 0.0000
     13 ****         2.8514  -1.6179  -0.8303 C.3            1 S1                 0.0000
     14 ****         2.4960  -2.1802   0.5542 C.3            1 S1                 0.0000
     15 ****         1.1424  -1.7149   1.1231 C.3            1 S1                 0.0000
     16 ****         1.1509  -0.2376   1.5802 C.3            1 S1                 0.0000
     17 ****         0.3647  -0.0248   2.8979 C.3            1 S1                 0.0000
     18 ****        -0.9616  -0.5139   2.8362 O.3            1 S1                 0.0000
     19 ****        -3.1755   1.4553   0.6759 H              1 S1                 0.0000
     20 ****        -3.2063   2.9952  -0.1490 H              1 S1                 0.0000
     21 ****        -2.7951  -0.9161  -1.1600 H              1 S1                 0.0000
     22 ****        -3.8289  -0.9837  -3.7251 H              1 S1                 0.0000
     23 ****        -1.2091   0.1626   0.5688 H              1 S1                 0.0000
     24 ****         1.2122   1.7442   0.8035 H              1 S1                 0.0000
     25 ****         0.7615  -0.1709  -1.4919 H              1 S1                 0.0000
     26 ****         1.4229   1.4283  -1.4940 H              1 S1                 0.0000
     27 ****         3.3087   0.1878  -1.8769 H              1 S1                 0.0000
     28 ****         3.4553   0.3734  -0.1541 H              1 S1                 0.0000
     29 ****         2.1796  -2.0396  -1.5788 H              1 S1                 0.0000
     30 ****         3.8465  -1.9763  -1.0963 H              1 S1                 0.0000
     31 ****         2.4860  -3.2684   0.4834 H              1 S1                 0.0000
     32 ****         3.2926  -1.9432   1.2605 H              1 S1                 0.0000
     33 ****         0.3340  -1.9000   0.4149 H              1 S1                 0.0000
     34 ****         0.9290  -2.3504   1.9833 H              1 S1                 0.0000
     35 ****         2.1801  -0.0125   1.8630 H              1 S1                 0.0000
     36 ****         0.8695  -0.5406   3.7154 H              1 S1                 0.0000
     37 ****         0.3441   1.0326   3.1639 H              1 S1                 0.0000
     38 ****        -1.3746  -0.3673   3.6737 H              1 S1                 0.0000
     39 ****        -1.2048   3.8889  -0.7528 LP             1 S1                 0.0000
     40 ****         0.3149   3.1435  -0.3854 LP             1 S1                 0.0000
     41 ****        -4.9845   1.0881  -3.6873 LP             1 S1                 0.0000
     42 ****        -3.4842   1.2920  -4.2988 LP             1 S1                 0.0000
     43 ****        -3.8681   2.9783  -2.4933 LP             1 S1                 0.0000
     44 ****        -0.9510  -1.4928   2.6321 LP             1 S1                 0.0000
     45 ****        -1.4667  -0.0299   2.1217 LP             1 S1                 0.0000
@<TRIPOS>BOND
    1    1    2 2     
    2    2    3 1     
    3    2    9 am    
    4    3    4 1     
    5    3   19 1     
    6    3   20 1     
    7    4    8 2     
    8    4    5 1     
    9    5    6 2     
   10    5   21 1     
   11    6    7 1     
   12    6   22 1     
   13    7    8 1     
   14    9   10 1     
   15    9   23 1     
   16   10   16 1     
   17   10   11 1     
   18   10   24 1     
   19   11   12 1     
   20   11   25 1     
   21   11   26 1     
   22   12   13 1     
   23   12   27 1     
   24   12   28 1     
   25   13   14 1     
   26   13   29 1     
   27   13   30 1     
   28   14   15 1     
   29   14   31 1     
   30   14   32 1     
   31   15   16 1     
   32   15   33 1     
   33   15   34 1     
   34   16   17 1     
   35   16   35 1     
   36   17   18 1     
   37   17   36 1     
   38   17   37 1     
   39   18   38 1     
   40    1   39 1     
   41    1   40 1     
   42    7   41 1     
   43    7   42 1     
   44    8   43 1     
   45   18   44 1     
   46   18   45 1     
@<TRIPOS>SUBSTRUCTURE
      1 S1             1
@<TRIPOS>SET
LONE_PAIRS      STATIC     ATOMS    <user>   **** ""
7 39 40 41 42 43 44 45
DONOR_HYDROGENS      STATIC     ATOMS    <user>   **** ""
2 23 38
ATOM$BLUE        STATIC     ATOMS    COLORGROUP SYSTEM
7 39 40 41 42 43 44 45
ATOM$RED        STATIC     ATOMS    COLORGROUP SYSTEM
2 23 38
