AV-unprocessed.smi:2439|AV-procd|sdf|9610|dock8
  -GOLD-   2272013243D 1   1.00000     0.00000
 Structure written by MMmdl.
 41 43  0  0  0  0  0  0  0  0  2 V2000
  146.6501  138.2196  151.2102 N   0  0  0  0  0  0  0  0  0  0  0  0
  145.9215  137.5131  151.7656 C   0  0  0  0  0  0  0  0  0  0  0  0
  145.0022  136.6232  152.4648 C   0  0  0  0  0  0  0  0  0  0  0  0
  143.6519  137.0073  152.6024 C   0  0  0  0  0  0  0  0  0  0  0  0
  142.7619  136.1542  153.2797 C   0  0  0  0  0  0  0  0  0  0  0  0
  143.2609  134.9438  153.7935 C   0  0  0  0  0  0  0  0  0  0  0  0
  144.5498  134.5642  153.6693 N   0  0  0  0  0  0  0  0  0  0  0  0
  145.4144  135.3809  153.0180 C   0  0  0  0  0  0  0  0  0  0  0  0
  146.7517  134.9578  152.9005 N   0  0  0  0  0  0  0  0  0  0  0  0
  147.2695  133.8104  153.6364 C   0  0  0  0  0  0  0  0  0  0  0  0
  147.3837  132.5522  152.7593 C   0  0  1  0  0  0  0  0  0  0  0  0
  148.0119  131.3790  153.5324 C   0  0  0  0  0  0  0  0  0  0  0  0
  148.0476  130.1613  152.6901 N   0  3  1  0  0  0  0  0  0  0  0  0
  148.6879  129.0137  153.3811 C   0  0  0  0  0  0  0  0  0  0  0  0
  148.7945  127.7967  152.4483 C   0  0  0  0  0  0  0  0  0  0  0  0
  147.4164  127.4099  151.8967 C   0  0  0  0  0  0  0  0  0  0  0  0
  146.7652  128.6195  151.2127 C   0  0  0  0  0  0  0  0  0  0  0  0
  146.6949  129.8299  152.1650 C   0  0  2  0  0  0  0  0  0  0  0  0
  146.0881  131.0609  151.4632 C   0  0  0  0  0  0  0  0  0  0  0  0
  146.0737  132.1683  152.3550 O   0  0  0  0  0  0  0  0  0  0  0  0
  143.2970  137.9438  152.1958 H   0  0  0  0  0  0  0  0  0  0  0  0
  141.7225  136.4208  153.4016 H   0  0  0  0  0  0  0  0  0  0  0  0
  142.6089  134.2624  154.3195 H   0  0  0  0  0  0  0  0  0  0  0  0
  147.4036  135.5234  152.3753 H   0  0  0  0  0  0  0  0  0  0  0  0
  148.2391  134.0648  154.0662 H   0  0  0  0  0  0  0  0  0  0  0  0
  146.6079  133.6143  154.4804 H   0  0  0  0  0  0  0  0  0  0  0  0
  147.9923  132.7687  151.8798 H   0  0  0  0  0  0  0  0  0  0  0  0
  149.0262  131.6385  153.8387 H   0  0  0  0  0  0  0  0  0  0  0  0
  147.4427  131.1788  154.4418 H   0  0  0  0  0  0  0  0  0  0  0  0
  149.6840  129.3019  153.7196 H   0  0  0  0  0  0  0  0  0  0  0  0
  148.1125  128.7548  154.2715 H   0  0  0  0  0  0  0  0  0  0  0  0
  149.4704  128.0247  151.6230 H   0  0  0  0  0  0  0  0  0  0  0  0
  149.2319  126.9537  152.9838 H   0  0  0  0  0  0  0  0  0  0  0  0
  147.5111  126.5838  151.1913 H   0  0  0  0  0  0  0  0  0  0  0  0
  146.7790  127.0571  152.7085 H   0  0  0  0  0  0  0  0  0  0  0  0
  147.3364  128.8827  150.3211 H   0  0  0  0  0  0  0  0  0  0  0  0
  145.7646  128.3534  150.8704 H   0  0  0  0  0  0  0  0  0  0  0  0
  146.0576  129.5705  153.0125 H   0  0  0  0  0  0  0  0  0  0  0  0
  146.6464  131.3162  150.5609 H   0  0  0  0  0  0  0  0  0  0  0  0
  145.0642  130.8511  151.1531 H   0  0  0  0  0  0  0  0  0  0  0  0
  148.6245  130.3783  151.8899 H   0  0  0  0  0  0  0  0  0  0  0  0
  1  2  3  0  0  0  0
  2  3  1  0  0  0  0
  3  8  1  0  0  0  0
  3  4  2  0  0  0  0
  4  5  1  0  0  0  0
  4 21  1  0  0  0  0
  5  6  2  0  0  0  0
  5 22  1  0  0  0  0
  6  7  1  0  0  0  0
  6 23  1  0  0  0  0
  7  8  2  0  0  0  0
  8  9  1  0  0  0  0
  9 10  1  0  0  0  0
  9 24  1  0  0  0  0
 10 11  1  0  0  0  0
 10 25  1  0  0  0  0
 10 26  1  0  0  0  0
 11 20  1  0  0  0  0
 11 12  1  0  0  0  0
 11 27  1  0  0  0  0
 12 13  1  0  0  0  0
 12 28  1  0  0  0  0
 12 29  1  0  0  0  0
 13 18  1  0  0  0  0
 13 14  1  0  0  0  0
 13 41  1  0  0  0  0
 14 15  1  0  0  0  0
 14 30  1  0  0  0  0
 14 31  1  0  0  0  0
 15 16  1  0  0  0  0
 15 32  1  0  0  0  0
 15 33  1  0  0  0  0
 16 17  1  0  0  0  0
 16 34  1  0  0  0  0
 16 35  1  0  0  0  0
 17 18  1  0  0  0  0
 17 36  1  0  0  0  0
 17 37  1  0  0  0  0
 18 19  1  0  0  0  0
 18 38  1  0  0  0  0
 19 20  1  0  0  0  0
 19 39  1  0  0  0  0
 19 40  1  0  0  0  0
M  CHG  1  13   1
M  END
> <s_m_source_file>
AV-unprocessed.smi

> <i_m_source_file_index>
2439

> <i_lp_mmshare_version>
43012

> <i_f3d_flags>
0

> <s_epik_input>
TiNDYzFbY0hdW2NIXVtjSF1uYzFbTkhdW0NIMl1bQ0BIXShbQ0gyXTIpT1tDSDJdW0NAQEhdKE4yMylbQ0gyXVtDSDJdW0NIMl1bQ0gyXTM=

> <s_epik_cmdline>
J2VwaWtfcHl0aG9uJywgJy1waCcsICc3LjAnLCAnLXRuJywgJzgnLCAnLW1hJywgJzIwMCcsICctbWV0YWxfYmluZGluZycsICctaW1hZScsICc8aW5maWxlLm1hZT4nLCAnLW9tYWUnLCAnPG91dGZpbGUubWFlPic=

> <r_epik_Ionization_Penalty>
0.0803594

> <r_epik_Ionization_Penalty_Charging>
0.0803403

> <r_epik_Ionization_Penalty_Neutral>
1.90988e-05

> <r_epik_State_Penalty>
0.0711481

> <r_epik_Charging_Adjusted_Penalty>
0.151488

> <i_epik_Tot_Q>
1

> <i_epik_Tot_abs_Q>
1

> <r_epik_Metal_State_Penalty>
0.0711482

> <b_epik_Metal_Only>
0

> <s_lp_Force_Field>
OPLS_2005

> <r_lp_Energy>
27.3027

> <b_lp_Chiralities_Consistent>
1

> <s_lp_Variant>
AV-unprocessed.smi:2439-8

> <Gold.Version>
5.8.1

> <Gold.Id.Protein>
6NUR|6NUR_protein|mol2

> <Gold.PLP.Fitness>
41.7655

> <Gold.PLP.PLP>
-30.1307

> <Gold.PLP.part.hbond>
-3.0000

> <Gold.PLP.part.metal>
0.0000

> <Gold.PLP.part.buried>
-1.1107

> <Gold.PLP.part.nonpolar>
-28.3616

> <Gold.PLP.part.repulsive>
0.9979

> <Gold.PLP.ligand.clash>
0.0000

> <Gold.PLP.ligand.torsion>
0.1565

> <Gold.PLP.Chemscore.Hbond>
2.9913

> <Gold.PLP.Chemscore.CHOScore>
0.9910

> <Gold.PLP.Chemscore.Metal>
0.0000

> <Gold.Chemscore.Hbonds>
donor molecule, donor type, donor heavy atom, donor atom, acceptor molecule, acceptor atom, score
      L1  H     9    24       P1  7948  1.00
      L1  H    13    41       P1 10747  1.00
      P1  H  7954  7966       L1     1  0.99
      L1  C     6    23       P1 10957  0.99

> <Gold.PLP.Chemscore.Internal.Correction>
0.0010

> <Gold.Rescore>
     Score         DG    S(hbond)    S(metal)    S(lipo)     H(rot)  DE(clash)    DE(int)     intcor
     20.12     -21.57       2.90        0.00      82.32       1.27       1.32       0.13       ----

> <Gold.Chemscore.Fitness>
20.1176

> <Gold.Chemscore.DG>
-21.5669

> <Gold.Chemscore.ZeroCoef>
-5.4800

> <Gold.Chemscore.Hbond>
2.9030

> <Gold.Chemscore.Metal>
0.0000

> <Gold.Chemscore.Lipo>
82.3229

> <Gold.Chemscore.Internal_Hbond>
0.0000

> <Gold.Chemscore.DEClash>
1.3204

> <Gold.Chemscore.DEInternal>
0.1290

> <Gold.Chemscore.Rot>
1.2659

> <Gold.Chemscore.Internal.Correction>
   9.000000E+99

> <Gold.Chemscore.Hbonds>
donor molecule, donor type, donor heavy atom, donor atom, acceptor molecule, acceptor atom, score
      L1  H     9    24       P1  7948  0.99
      L1  H    13    41       P1 10747  0.65
      P1  H  7954  7966       L1     1  0.92

> <Gold.Chemscore.Hbond.Weighted>
-9.6959

> <Gold.Chemscore.Metal.Weighted>
-0.0000

> <Gold.Chemscore.Lipo.Weighted>
-9.6318

> <Gold.Chemscore.Internal_Hbond.Weighted>
0.0000

> <Gold.Chemscore.DEClash.Weighted>
1.3204

> <Gold.Chemscore.DEInternal.Weighted>
0.1290

> <Gold.Chemscore.Rot.Weighted>
3.2408

> <Gold.Chemscore.Internal.Correction.Weighted>
   9.000000E+99

> <Gold.Protein.RotatedTorsions>
[ 6907 6896 6895 6894 ] final   72.63 input  -60.11 | X-H torsion
[ 7974 7965 7964 7962 ] final -120.78 input  175.53 | X-H torsion
[ 8008 7997 7996 7995 ] final  -21.73 input   59.86 | X-H torsion
[ 10167 10162 10161 10158 ] final   46.65 input  -65.29 | X-H torsion
[ 10718 10713 10712 10709 ] final   87.06 input   66.30 | X-H torsion
[ 10763 10752 10751 10750 ] final   73.44 input  -60.55 | X-H torsion
[ 11005 11000 10999 10996 ] final   94.89 input  -57.11 | X-H torsion

> <Gold.Protein.ActiveResidues>
 VAL166  LYS551  ARG553  GLY616  TRP617  ASP618  TYR619  PRO620  LYS621  CYS622 
 ASP623  PHE694  ASN695  SER759  ASP760  ASP761  ALA762  ILE779  LEU786  VAL792 
 PHE793  MET794  SER795  GLU796  ALA797  LYS798  CYS799  TRP800  GLU811  SER814 

> <Gold.Protein.RotatedAtoms>
  152.4878  134.4543  159.9584 H   0  0  0  0  0  0  0  0  0  0  0  0  # atno 6907 bound_to 6896
  151.4536  133.3605  159.2806 H   0  0  0  0  0  0  0  0  0  0  0  0  # atno 6908 bound_to 6896
  150.9004  134.8441  159.7417 H   0  0  0  0  0  0  0  0  0  0  0  0  # atno 6909 bound_to 6896
  145.0476  140.8193  143.4229 H   0  0  0  0  0  0  0  0  0  0  0  0  # atno 7974 bound_to 7965
  154.4688  140.2027  156.0049 H   0  0  0  0  0  0  0  0  0  0  0  0  # atno 8008 bound_to 7997
  156.0974  140.3249  155.7866 H   0  0  0  0  0  0  0  0  0  0  0  0  # atno 8009 bound_to 7997
  155.4855  140.0542  157.2952 H   0  0  0  0  0  0  0  0  0  0  0  0  # atno 8010 bound_to 7997
  140.3118  144.2811  150.6198 H   0  0  0  0  0  0  0  0  0  0  0  0  # atno 10167 bound_to 10162
  157.6936  131.0240  150.3066 H   0  0  0  0  0  0  0  0  0  0  0  0  # atno 10718 bound_to 10713
  153.0521  135.5063  154.7894 H   0  0  0  0  0  0  0  0  0  0  0  0  # atno 10763 bound_to 10752
  154.6747  135.2958  154.9696 H   0  0  0  0  0  0  0  0  0  0  0  0  # atno 10764 bound_to 10752
  154.0503  135.6705  153.4852 H   0  0  0  0  0  0  0  0  0  0  0  0  # atno 10765 bound_to 10752
  139.8794  134.8869  156.3930 H   0  0  0  0  0  0  0  0  0  0  0  0  # atno 11005 bound_to 11000
  145.1568  139.2482  143.5412 LP  0  0  0  0  0  0  0  0  0  0  0  0  # atno 17320 bound_to 7965
  146.3515  140.1285  142.8598 LP  0  0  0  0  0  0  0  0  0  0  0  0  # atno 17321 bound_to 7965
  140.5562  143.2199  151.7844 LP  0  0  0  0  0  0  0  0  0  0  0  0  # atno 17342 bound_to 10162
  139.4892  144.4411  151.9763 LP  0  0  0  0  0  0  0  0  0  0  0  0  # atno 17343 bound_to 10162
  156.3573  130.3841  149.7279 LP  0  0  0  0  0  0  0  0  0  0  0  0  # atno 17370 bound_to 10713
  156.4737  130.8008  151.3025 LP  0  0  0  0  0  0  0  0  0  0  0  0  # atno 17371 bound_to 10713
  140.9320  133.7573  156.0036 LP  0  0  0  0  0  0  0  0  0  0  0  0  # atno 17394 bound_to 11000
  140.8320  134.3167  157.5345 LP  0  0  0  0  0  0  0  0  0  0  0  0  # atno 17395 bound_to 11000

$$$$
