#       Name:                AV-unprocessed.smi:753
#       Creating user name   scv26
#       Creation time:       Fri Mar 27 01:00:00 2020


#       File generated by GOLD software.
#

@<TRIPOS>MOLECULE
AV-unprocessed.smi:753
    46    48     1
SMALL
NO_CHARGES


@<TRIPOS>ATOM
      1 ****        -4.0293   3.4239  -2.1878 C.3            1 S1                 0.0000
      2 ****        -3.4750   2.0173  -2.1085 C.ar           1 S1                 0.0000
      3 ****        -3.6119   1.2186  -0.9531 C.ar           1 S1                 0.0000
      4 ****        -3.0652  -0.0812  -0.9457 C.ar           1 S1                 0.0000
      5 ****        -2.3941  -0.5571  -2.0939 C.ar           1 S1                 0.0000
      6 ****        -1.7617  -1.9379  -2.1090 C.3            1 S1                 0.0000
      7 ****        -0.2231  -1.9141  -2.0223 C.3            1 S1                 0.0000
      8 ****         0.2602  -1.2551  -0.8112 N.am           1 S1                 0.0000
      9 ****         0.6306   0.0340  -0.7141 C.2            1 S1                 0.0000
     10 ****         0.5910   0.8250  -1.6547 O.2            1 S1                 0.0000
     11 ****         1.0399   0.4093   0.5101 N.am           1 S1                 0.0000
     12 ****         1.5025   1.7325   0.9368 C.3            1 S1                 0.0000
     13 ****         2.1237   1.6765   2.3503 C.3            1 S1                 0.0000
     14 ****         1.2693   2.6790   3.1478 C.3            1 S1                 0.0000
     15 ****        -0.1358   2.0910   3.3792 C.3            1 S1                 0.0000
     16 ****        -0.7828   2.1951   1.9853 C.3            1 S1                 0.0000
     17 ****         0.3633   2.7685   1.1237 C.3            1 S1                 0.0000
     18 ****         0.9964   3.7520   2.1022 C.3            1 S1                 0.0000
     19 ****        -2.2967   0.2831  -3.2235 C.ar           1 S1                 0.0000
     20 ****        -2.8311   1.5231  -3.1897 N.pl3          1 S1                 1.0000
     21 ****        -4.2077   3.8294  -1.1914 H              1 S1                 0.0000
     22 ****        -4.9729   3.4275  -2.7336 H              1 S1                 0.0000
     23 ****        -3.3313   4.0858  -2.7016 H              1 S1                 0.0000
     24 ****        -4.1239   1.5968  -0.0803 H              1 S1                 0.0000
     25 ****        -3.1518  -0.6987  -0.0635 H              1 S1                 0.0000
     26 ****        -2.1657  -2.5287  -1.2857 H              1 S1                 0.0000
     27 ****        -2.0668  -2.4470  -3.0239 H              1 S1                 0.0000
     28 ****         0.1546  -2.9368  -2.0201 H              1 S1                 0.0000
     29 ****         0.1986  -1.4391  -2.9098 H              1 S1                 0.0000
     30 ****         0.3288  -1.8264   0.0185 H              1 S1                 0.0000
     31 ****         1.0032  -0.2949   1.2329 H              1 S1                 0.0000
     32 ****         2.2492   2.1116   0.2365 H              1 S1                 0.0000
     33 ****         2.1028   0.6803   2.7948 H              1 S1                 0.0000
     34 ****         3.1652   1.9991   2.3199 H              1 S1                 0.0000
     35 ****         1.7508   3.0342   4.0593 H              1 S1                 0.0000
     36 ****        -0.0970   1.0637   3.7431 H              1 S1                 0.0000
     37 ****        -0.6940   2.6827   4.1059 H              1 S1                 0.0000
     38 ****        -1.1668   1.2402   1.6265 H              1 S1                 0.0000
     39 ****        -1.6228   2.8904   2.0108 H              1 S1                 0.0000
     40 ****         0.0207   3.2156   0.1899 H              1 S1                 0.0000
     41 ****         0.3093   4.5273   2.4460 H              1 S1                 0.0000
     42 ****         1.9031   4.2227   1.7178 H              1 S1                 0.0000
     43 ****        -1.7963   0.0089  -4.1406 H              1 S1                 0.0000
     44 ****        -2.7396   2.1148  -4.0157 H              1 S1                 0.0000
     45 ****         0.2702   0.5199  -2.5514 LP             1 S1                 0.0000
     46 ****         0.8795   1.7733  -1.5229 LP             1 S1                 0.0000
@<TRIPOS>BOND
    1    1    2 1     
    2    1   21 1     
    3    1   22 1     
    4    1   23 1     
    5    2   20 ar    
    6    2    3 ar    
    7    3    4 ar    
    8    3   24 1     
    9    4    5 ar    
   10    4   25 1     
   11    5    6 1     
   12    5   19 ar    
   13    6    7 1     
   14    6   26 1     
   15    6   27 1     
   16    7    8 1     
   17    7   28 1     
   18    7   29 1     
   19    8    9 am    
   20    8   30 1     
   21    9   10 2     
   22    9   11 am    
   23   11   12 1     
   24   11   31 1     
   25   12   17 1     
   26   12   13 1     
   27   12   32 1     
   28   13   14 1     
   29   13   33 1     
   30   13   34 1     
   31   14   18 1     
   32   14   15 1     
   33   14   35 1     
   34   15   16 1     
   35   15   36 1     
   36   15   37 1     
   37   16   17 1     
   38   16   38 1     
   39   16   39 1     
   40   17   18 1     
   41   17   40 1     
   42   18   41 1     
   43   18   42 1     
   44   19   20 ar    
   45   19   43 1     
   46   20   44 1     
   47   10   45 1     
   48   10   46 1     
@<TRIPOS>SUBSTRUCTURE
      1 S1             1
@<TRIPOS>SET
LONE_PAIRS      STATIC     ATOMS    <user>   **** ""
2 45 46
DONOR_HYDROGENS      STATIC     ATOMS    <user>   **** ""
3 30 31 44
ATOM$BLUE        STATIC     ATOMS    COLORGROUP SYSTEM
2 45 46
ATOM$RED        STATIC     ATOMS    COLORGROUP SYSTEM
3 30 31 44
