AV-unprocessed.smi:811|AV-procd|sdf|3812|dock1
  -GOLD-   22720 1253D 1   1.00000     0.00000
 Structure written by MMmdl.
 46 48  0  0  0  0  0  0  0  0  2 V2000
  147.0355  130.5643  153.1864 C   0  0  0  0  0  0  0  0  0  0  0  0
  148.3122  131.2851  152.9916 N   0  3  2  0  0  0  0  0  0  0  0  0
  149.3229  131.0106  154.0439 C   0  0  0  0  0  0  0  0  0  0  0  0
  149.8957  132.3675  154.4674 C   0  0  0  0  0  0  0  0  0  0  0  0
  148.7363  133.3187  154.1857 C   0  0  1  0  0  0  0  0  0  0  0  0
  149.1200  134.7199  154.0525 N   0  0  0  0  0  0  0  0  0  0  0  0
  149.6028  135.4734  155.0502 C   0  0  0  0  0  0  0  0  0  0  0  0
  149.7751  135.0506  156.1931 O   0  0  0  0  0  0  0  0  0  0  0  0
  149.8857  136.7182  154.6297 N   0  0  0  0  0  0  0  0  0  0  0  0
  150.3826  137.8140  155.3863 C   0  0  0  0  0  0  0  0  0  0  0  0
  150.5310  139.0551  154.7377 C   0  0  0  0  0  0  0  0  0  0  0  0
  151.0018  140.1626  155.4677 C   0  0  0  0  0  0  0  0  0  0  0  0
  151.3076  140.0051  156.8402 C   0  0  0  0  0  0  0  0  0  0  0  0
  151.7819  141.1011  157.5935 N   0  0  0  0  0  0  0  0  0  0  0  0
  152.3853  140.7722  158.8828 C   0  0  0  0  0  0  0  0  0  0  0  0
  153.1336  141.9911  159.4502 C   0  0  0  0  0  0  0  0  0  0  0  0
  152.2548  143.1091  159.5192 O   0  0  0  0  0  0  0  0  0  0  0  0
  151.7681  143.4799  158.2338 C   0  0  0  0  0  0  0  0  0  0  0  0
  150.9676  142.3148  157.6277 C   0  0  0  0  0  0  0  0  0  0  0  0
  151.1447  138.8152  157.4688 N   0  0  0  0  0  0  0  0  0  0  0  0
  150.6962  137.7547  156.7649 C   0  0  0  0  0  0  0  0  0  0  0  0
  148.1633  132.7541  152.8864 C   0  0  0  0  0  0  0  0  0  0  0  0
  146.5411  130.8832  154.1052 H   0  0  0  0  0  0  0  0  0  0  0  0
  147.2090  129.4891  153.2440 H   0  0  0  0  0  0  0  0  0  0  0  0
  146.3601  130.7502  152.3510 H   0  0  0  0  0  0  0  0  0  0  0  0
  148.8524  130.5334  154.9055 H   0  0  0  0  0  0  0  0  0  0  0  0
  150.0974  130.3359  153.6782 H   0  0  0  0  0  0  0  0  0  0  0  0
  150.2174  132.3831  155.5095 H   0  0  0  0  0  0  0  0  0  0  0  0
  150.7548  132.6207  153.8439 H   0  0  0  0  0  0  0  0  0  0  0  0
  147.9860  133.2174  154.9730 H   0  0  0  0  0  0  0  0  0  0  0  0
  149.0125  135.1435  153.1421 H   0  0  0  0  0  0  0  0  0  0  0  0
  149.7752  136.8914  153.6413 H   0  0  0  0  0  0  0  0  0  0  0  0
  150.2878  139.1621  153.6907 H   0  0  0  0  0  0  0  0  0  0  0  0
  151.1062  141.1167  154.9735 H   0  0  0  0  0  0  0  0  0  0  0  0
  151.5966  140.4656  159.5714 H   0  0  0  0  0  0  0  0  0  0  0  0
  153.0786  139.9363  158.8039 H   0  0  0  0  0  0  0  0  0  0  0  0
  153.5055  141.7703  160.4508 H   0  0  0  0  0  0  0  0  0  0  0  0
  154.0012  142.2348  158.8349 H   0  0  0  0  0  0  0  0  0  0  0  0
  151.1324  144.3597  158.3342 H   0  0  0  0  0  0  0  0  0  0  0  0
  152.5994  143.7602  157.5846 H   0  0  0  0  0  0  0  0  0  0  0  0
  150.6460  142.5838  156.6206 H   0  0  0  0  0  0  0  0  0  0  0  0
  150.0700  142.1312  158.2196 H   0  0  0  0  0  0  0  0  0  0  0  0
  150.5714  136.8523  157.3426 H   0  0  0  0  0  0  0  0  0  0  0  0
  148.7534  133.0900  152.0322 H   0  0  0  0  0  0  0  0  0  0  0  0
  147.1321  133.0679  152.7164 H   0  0  0  0  0  0  0  0  0  0  0  0
  148.6954  130.9680  152.1122 H   0  0  0  0  0  0  0  0  0  0  0  0
  1  2  1  0  0  0  0
  1 23  1  0  0  0  0
  1 24  1  0  0  0  0
  1 25  1  0  0  0  0
  2 22  1  0  0  0  0
  2  3  1  0  0  0  0
  2 46  1  0  0  0  0
  3  4  1  0  0  0  0
  3 26  1  0  0  0  0
  3 27  1  0  0  0  0
  4  5  1  0  0  0  0
  4 28  1  0  0  0  0
  4 29  1  0  0  0  0
  5  6  1  0  0  0  0
  5 22  1  0  0  0  0
  5 30  1  0  0  0  0
  6  7  1  0  0  0  0
  6 31  1  0  0  0  0
  7  8  2  0  0  0  0
  7  9  1  0  0  0  0
  9 10  1  0  0  0  0
  9 32  1  0  0  0  0
 10 21  1  0  0  0  0
 10 11  2  0  0  0  0
 11 12  1  0  0  0  0
 11 33  1  0  0  0  0
 12 13  2  0  0  0  0
 12 34  1  0  0  0  0
 13 14  1  0  0  0  0
 13 20  1  0  0  0  0
 14 19  1  0  0  0  0
 14 15  1  0  0  0  0
 15 16  1  0  0  0  0
 15 35  1  0  0  0  0
 15 36  1  0  0  0  0
 16 17  1  0  0  0  0
 16 37  1  0  0  0  0
 16 38  1  0  0  0  0
 17 18  1  0  0  0  0
 18 19  1  0  0  0  0
 18 39  1  0  0  0  0
 18 40  1  0  0  0  0
 19 41  1  0  0  0  0
 19 42  1  0  0  0  0
 20 21  2  0  0  0  0
 21 43  1  0  0  0  0
 22 44  1  0  0  0  0
 22 45  1  0  0  0  0
M  CHG  1   2   1
M  END
> <s_m_source_file>
AV-unprocessed.smi

> <i_m_source_file_index>
811

> <i_lp_mmshare_version>
43012

> <i_f3d_flags>
0

> <s_epik_input>
W0NIM11OMVtDSDJdW0NIMl1bQ0BIXShbQ0gyXTEpW05IXUMoPU8pW05IXWMyW2NIXVtjSF1jKG5bY0hdMilOM1tDSDJdW0NIMl1PW0NIMl1bQ0gyXTM=

> <s_epik_cmdline>
J2VwaWtfcHl0aG9uJywgJy1waCcsICc3LjAnLCAnLXRuJywgJzgnLCAnLW1hJywgJzIwMCcsICctbWV0YWxfYmluZGluZycsICctaW1hZScsICc8aW5maWxlLm1hZT4nLCAnLW9tYWUnLCAnPG91dGZpbGUubWFlPic=

> <r_lp_tautomer_probability>
1

> <r_epik_Ionization_Penalty>
0.00503422

> <r_epik_Ionization_Penalty_Charging>
0.00366104

> <r_epik_Ionization_Penalty_Neutral>
0.00137318

> <r_epik_State_Penalty>
-0

> <r_epik_Charging_Adjusted_Penalty>
0.00366104

> <i_epik_Tot_Q>
1

> <i_epik_Tot_abs_Q>
1

> <r_epik_Metal_State_Penalty>
-0

> <b_epik_Metal_Only>
0

> <s_lp_Force_Field>
OPLS_2005

> <r_lp_Energy>
43.7099

> <b_lp_Chiralities_Consistent>
1

> <s_lp_Variant>
AV-unprocessed.smi:811-2

> <Gold.Version>
5.8.1

> <Gold.Id.Protein>
6NUR|6NUR_protein|mol2

> <Gold.PLP.Fitness>
45.6765

> <Gold.PLP.PLP>
-36.9848

> <Gold.PLP.part.hbond>
-3.0000

> <Gold.PLP.part.metal>
0.0000

> <Gold.PLP.part.buried>
-4.7151

> <Gold.PLP.part.nonpolar>
-30.1995

> <Gold.PLP.part.repulsive>
0.0680

> <Gold.PLP.ligand.clash>
0.0000

> <Gold.PLP.ligand.torsion>
0.2347

> <Gold.PLP.Chemscore.Hbond>
2.9357

> <Gold.PLP.Chemscore.CHOScore>
0.0000

> <Gold.PLP.Chemscore.Metal>
0.0000

> <Gold.Chemscore.Hbonds>
donor molecule, donor type, donor heavy atom, donor atom, acceptor molecule, acceptor atom, score
      L1  H     2    46       P1 10747  1.00
      L1  H     6    31       P1  7948  1.00
      L1  H     9    32       P1  7948  0.94

> <Gold.PLP.Chemscore.Internal.Correction>
0.3538

> <Gold.Rescore>
     Score         DG    S(hbond)    S(metal)    S(lipo)     H(rot)  DE(clash)    DE(int)     intcor
     19.83     -21.48       2.69        0.00      86.87       1.23       0.12       1.53       ----

> <Gold.Chemscore.Fitness>
19.8329

> <Gold.Chemscore.DG>
-21.4807

> <Gold.Chemscore.ZeroCoef>
-5.4800

> <Gold.Chemscore.Hbond>
2.6898

> <Gold.Chemscore.Metal>
0.0000

> <Gold.Chemscore.Lipo>
86.8731

> <Gold.Chemscore.Internal_Hbond>
0.0000

> <Gold.Chemscore.DEClash>
0.1159

> <Gold.Chemscore.DEInternal>
1.5319

> <Gold.Chemscore.Rot>
1.2295

> <Gold.Chemscore.Internal.Correction>
   9.000000E+99

> <Gold.Chemscore.Hbonds>
donor molecule, donor type, donor heavy atom, donor atom, acceptor molecule, acceptor atom, score
      L1  H     2    46       P1 10747  0.85
      L1  H     6    31       P1  7948  0.25
      L1  H     9    32       P1  7948  0.46

> <Gold.Chemscore.Hbond.Weighted>
-8.9840

> <Gold.Chemscore.Metal.Weighted>
-0.0000

> <Gold.Chemscore.Lipo.Weighted>
-10.1642

> <Gold.Chemscore.Internal_Hbond.Weighted>
0.0000

> <Gold.Chemscore.DEClash.Weighted>
0.1159

> <Gold.Chemscore.DEInternal.Weighted>
1.5319

> <Gold.Chemscore.Rot.Weighted>
3.1474

> <Gold.Chemscore.Internal.Correction.Weighted>
   9.000000E+99

> <Gold.Protein.RotatedTorsions>
[ 6907 6896 6895 6894 ] final -103.58 input  -60.11 | X-H torsion
[ 7974 7965 7964 7962 ] final  -45.25 input  175.53 | X-H torsion
[ 8008 7997 7996 7995 ] final   88.44 input   59.86 | X-H torsion
[ 10167 10162 10161 10158 ] final  157.01 input  -65.29 | X-H torsion
[ 10718 10713 10712 10709 ] final   17.53 input   66.30 | X-H torsion
[ 10763 10752 10751 10750 ] final   76.26 input  -60.55 | X-H torsion
[ 11005 11000 10999 10996 ] final   18.18 input  -57.11 | X-H torsion

> <Gold.Protein.ActiveResidues>
 VAL166  LYS551  ARG553  GLY616  TRP617  ASP618  TYR619  PRO620  LYS621  CYS622 
 ASP623  PHE694  ASN695  SER759  ASP760  ASP761  ALA762  ILE779  LEU786  VAL792 
 PHE793  MET794  SER795  GLU796  ALA797  LYS798  CYS799  TRP800  GLU811  SER814 

> <Gold.Protein.RotatedAtoms>
  150.7247  134.0408  159.3764 H   0  0  0  0  0  0  0  0  0  0  0  0  # atno 6907 bound_to 6896
  151.8381  135.0597  160.0454 H   0  0  0  0  0  0  0  0  0  0  0  0  # atno 6908 bound_to 6896
  152.2883  133.5500  159.5577 H   0  0  0  0  0  0  0  0  0  0  0  0  # atno 6909 bound_to 6896
  145.9840  140.7253  142.9350 H   0  0  0  0  0  0  0  0  0  0  0  0  # atno 7974 bound_to 7965
  155.9878  140.3371  155.6723 H   0  0  0  0  0  0  0  0  0  0  0  0  # atno 8008 bound_to 7997
  155.6462  140.0700  157.2620 H   0  0  0  0  0  0  0  0  0  0  0  0  # atno 8009 bound_to 7997
  154.4210  140.1734  156.1613 H   0  0  0  0  0  0  0  0  0  0  0  0  # atno 8010 bound_to 7997
  139.4822  144.4956  151.8244 H   0  0  0  0  0  0  0  0  0  0  0  0  # atno 10167 bound_to 10162
  157.0834  130.6397  149.5832 H   0  0  0  0  0  0  0  0  0  0  0  0  # atno 10718 bound_to 10713
  153.0713  135.4958  154.8310 H   0  0  0  0  0  0  0  0  0  0  0  0  # atno 10763 bound_to 10752
  154.7026  135.3004  154.9320 H   0  0  0  0  0  0  0  0  0  0  0  0  # atno 10764 bound_to 10752
  154.0039  135.6763  153.4814 H   0  0  0  0  0  0  0  0  0  0  0  0  # atno 10765 bound_to 10752
  140.4277  134.1452  155.7678 H   0  0  0  0  0  0  0  0  0  0  0  0  # atno 11005 bound_to 11000
  144.6869  140.2956  143.7271 LP  0  0  0  0  0  0  0  0  0  0  0  0  # atno 17320 bound_to 7965
  145.7728  139.1863  143.2202 LP  0  0  0  0  0  0  0  0  0  0  0  0  # atno 17321 bound_to 7965
  140.4444  144.1941  150.5893 LP  0  0  0  0  0  0  0  0  0  0  0  0  # atno 17342 bound_to 10162
  140.4649  143.2434  151.9169 LP  0  0  0  0  0  0  0  0  0  0  0  0  # atno 17343 bound_to 10162
  155.9917  130.4973  150.7311 LP  0  0  0  0  0  0  0  0  0  0  0  0  # atno 17370 bound_to 10713
  157.4781  131.0900  151.0567 LP  0  0  0  0  0  0  0  0  0  0  0  0  # atno 17371 bound_to 10713
  141.1758  133.8516  157.1425 LP  0  0  0  0  0  0  0  0  0  0  0  0  # atno 17394 bound_to 11000
  140.0156  134.9969  157.0486 LP  0  0  0  0  0  0  0  0  0  0  0  0  # atno 17395 bound_to 11000

$$$$
