AV-unprocessed.smi:1441|AV-procd|sdf|5875|dock5
  -GOLD-   22720 5553D 1   1.00000     0.00000
 Structure written by MMmdl.
 45 46  0  0  0  0  0  0  0  0  1 V2000
  153.5734  141.2237  161.2507 C   0  0  0  0  0  0  0  0  0  0  0  0
  152.7981  142.3277  160.5941 C   0  0  0  0  0  0  0  0  0  0  0  0
  152.6623  143.6798  161.0155 C   0  0  0  0  0  0  0  0  0  0  0  0
  151.8601  144.2498  160.0675 C   0  0  0  0  0  0  0  0  0  0  0  0
  151.3556  145.6502  159.9479 C   0  0  0  0  0  0  0  0  0  0  0  0
  151.5562  143.2590  159.1505 N   0  0  0  0  0  0  0  0  0  0  0  0
  150.7437  143.3395  157.9450 C   0  0  0  0  0  0  0  0  0  0  0  0
  149.4585  142.5102  158.0510 C   0  0  0  0  0  0  0  0  0  0  0  0
  149.5048  141.2819  158.1355 O   0  0  0  0  0  0  0  0  0  0  0  0
  148.3085  143.2012  158.0404 N   0  0  0  0  0  0  0  0  0  0  0  0
  146.9796  142.6118  158.1461 C   0  0  0  0  0  0  0  0  0  0  0  0
  145.8892  143.6977  158.2056 C   0  0  0  0  0  0  0  0  0  0  0  0
  144.9507  143.4568  159.3122 N   0  0  0  0  0  0  0  0  0  0  0  0
  143.5225  143.5689  158.9763 C   0  0  0  0  0  0  0  0  0  0  0  0
  142.8279  144.7317  159.7109 C   0  0  0  0  0  0  0  0  0  0  0  0
  142.4135  144.4011  161.1525 C   0  0  0  0  0  0  0  0  0  0  0  0
  143.5864  144.0908  162.0933 C   0  0  0  0  0  0  0  0  0  0  0  0
  144.3942  142.8533  161.6679 C   0  0  0  0  0  0  0  0  0  0  0  0
  145.4037  143.1589  160.5537 C   0  0  0  0  0  0  0  0  0  0  0  0
  146.6035  143.1059  160.8273 O   0  0  0  0  0  0  0  0  0  0  0  0
  152.1323  142.0815  159.4780 N   0  0  0  0  0  0  0  0  0  0  0  0
  154.0547  141.5704  162.1654 H   0  0  0  0  0  0  0  0  0  0  0  0
  154.3526  140.8441  160.5896 H   0  0  0  0  0  0  0  0  0  0  0  0
  152.9222  140.3899  161.5141 H   0  0  0  0  0  0  0  0  0  0  0  0
  153.0914  144.1595  161.8827 H   0  0  0  0  0  0  0  0  0  0  0  0
  151.7829  146.2853  160.7241 H   0  0  0  0  0  0  0  0  0  0  0  0
  150.2707  145.6814  160.0480 H   0  0  0  0  0  0  0  0  0  0  0  0
  151.6208  146.0790  158.9814 H   0  0  0  0  0  0  0  0  0  0  0  0
  150.5011  144.3864  157.7535 H   0  0  0  0  0  0  0  0  0  0  0  0
  151.3293  142.9904  157.0942 H   0  0  0  0  0  0  0  0  0  0  0  0
  148.3581  144.2071  157.9667 H   0  0  0  0  0  0  0  0  0  0  0  0
  146.8262  141.9668  157.2809 H   0  0  0  0  0  0  0  0  0  0  0  0
  146.9251  141.9663  159.0247 H   0  0  0  0  0  0  0  0  0  0  0  0
  146.3485  144.6825  158.2971 H   0  0  0  0  0  0  0  0  0  0  0  0
  145.3511  143.7332  157.2565 H   0  0  0  0  0  0  0  0  0  0  0  0
  143.3973  143.7356  157.9061 H   0  0  0  0  0  0  0  0  0  0  0  0
  143.0144  142.6247  159.1763 H   0  0  0  0  0  0  0  0  0  0  0  0
  143.4570  145.6225  159.6901 H   0  0  0  0  0  0  0  0  0  0  0  0
  141.9253  144.9940  159.1581 H   0  0  0  0  0  0  0  0  0  0  0  0
  141.8536  145.2442  161.5583 H   0  0  0  0  0  0  0  0  0  0  0  0
  141.7200  143.5593  161.1463 H   0  0  0  0  0  0  0  0  0  0  0  0
  144.2390  144.9617  162.1756 H   0  0  0  0  0  0  0  0  0  0  0  0
  143.1903  143.9222  163.0952 H   0  0  0  0  0  0  0  0  0  0  0  0
  144.9510  142.4885  162.5321 H   0  0  0  0  0  0  0  0  0  0  0  0
  143.7375  142.0342  161.3730 H   0  0  0  0  0  0  0  0  0  0  0  0
  1  2  1  0  0  0  0
  1 22  1  0  0  0  0
  1 23  1  0  0  0  0
  1 24  1  0  0  0  0
  2 21  2  0  0  0  0
  2  3  1  0  0  0  0
  3  4  2  0  0  0  0
  3 25  1  0  0  0  0
  4  5  1  0  0  0  0
  4  6  1  0  0  0  0
  5 26  1  0  0  0  0
  5 27  1  0  0  0  0
  5 28  1  0  0  0  0
  6  7  1  0  0  0  0
  6 21  1  0  0  0  0
  7  8  1  0  0  0  0
  7 29  1  0  0  0  0
  7 30  1  0  0  0  0
  8  9  2  0  0  0  0
  8 10  1  0  0  0  0
 10 11  1  0  0  0  0
 10 31  1  0  0  0  0
 11 12  1  0  0  0  0
 11 32  1  0  0  0  0
 11 33  1  0  0  0  0
 12 13  1  0  0  0  0
 12 34  1  0  0  0  0
 12 35  1  0  0  0  0
 13 19  1  0  0  0  0
 13 14  1  0  0  0  0
 14 15  1  0  0  0  0
 14 36  1  0  0  0  0
 14 37  1  0  0  0  0
 15 16  1  0  0  0  0
 15 38  1  0  0  0  0
 15 39  1  0  0  0  0
 16 17  1  0  0  0  0
 16 40  1  0  0  0  0
 16 41  1  0  0  0  0
 17 18  1  0  0  0  0
 17 42  1  0  0  0  0
 17 43  1  0  0  0  0
 18 19  1  0  0  0  0
 18 44  1  0  0  0  0
 18 45  1  0  0  0  0
 19 20  2  0  0  0  0
M  END
> <s_m_source_file>
AV-unprocessed.smi

> <i_m_source_file_index>
1441

> <i_lp_mmshare_version>
43012

> <i_f3d_flags>
0

> <s_epik_input>
W0NIM11jMVtjSF1jKFtDSDNdKW4objEpW0NIMl1DKD1PKVtOSF1bQ0gyXVtDSDJdTjJbQ0gyXVtDSDJdW0NIMl1bQ0gyXVtDSDJdQzI9Tw==

> <s_epik_cmdline>
J2VwaWtfcHl0aG9uJywgJy1waCcsICc3LjAnLCAnLXRuJywgJzgnLCAnLW1hJywgJzIwMCcsICctbWV0YWxfYmluZGluZycsICctaW1hZScsICc8aW5maWxlLm1hZT4nLCAnLW9tYWUnLCAnPG91dGZpbGUubWFlPic=

> <r_lp_tautomer_probability>
1

> <r_epik_Ionization_Penalty>
0.000341945

> <r_epik_Ionization_Penalty_Charging>
0

> <r_epik_Ionization_Penalty_Neutral>
0.000341945

> <r_epik_State_Penalty>
-0

> <r_epik_Charging_Adjusted_Penalty>
0

> <i_epik_Tot_Q>
0

> <i_epik_Tot_abs_Q>
0

> <r_epik_Metal_State_Penalty>
-0

> <b_epik_Metal_Only>
0

> <s_lp_Force_Field>
OPLS_2005

> <r_lp_Energy>
16.3244

> <b_lp_Chiralities_Consistent>
1

> <s_lp_Variant>
AV-unprocessed.smi:1441-1

> <Gold.Version>
5.8.1

> <Gold.Id.Protein>
6NUR|6NUR_protein|mol2

> <Gold.PLP.Fitness>
46.7990

> <Gold.PLP.PLP>
-40.4125

> <Gold.PLP.part.hbond>
-4.0000

> <Gold.PLP.part.metal>
0.0000

> <Gold.PLP.part.buried>
-2.7625

> <Gold.PLP.part.nonpolar>
-34.0754

> <Gold.PLP.part.repulsive>
0.1375

> <Gold.PLP.ligand.clash>
0.0000

> <Gold.PLP.ligand.torsion>
0.5770

> <Gold.PLP.Chemscore.Hbond>
2.5050

> <Gold.PLP.Chemscore.CHOScore>
0.0000

> <Gold.PLP.Chemscore.Metal>
0.0000

> <Gold.Chemscore.Hbonds>
donor molecule, donor type, donor heavy atom, donor atom, acceptor molecule, acceptor atom, score
      L1  H    10    31       P1  8029  0.75
      P1  H  6933  6944       L1    20  0.78
      P1  H  6934  6946       L1    20  0.39

> <Gold.PLP.Chemscore.Internal.Correction>
0.0255

> <Gold.Rescore>
     Score         DG    S(hbond)    S(metal)    S(lipo)     H(rot)  DE(clash)    DE(int)     intcor
     15.09     -17.52       1.43        0.00     100.81       1.77       0.56       1.87       ----

> <Gold.Chemscore.Fitness>
15.0922

> <Gold.Chemscore.DG>
-17.5181

> <Gold.Chemscore.ZeroCoef>
-5.4800

> <Gold.Chemscore.Hbond>
1.4308

> <Gold.Chemscore.Metal>
0.0000

> <Gold.Chemscore.Lipo>
100.8051

> <Gold.Chemscore.Internal_Hbond>
0.0000

> <Gold.Chemscore.DEClash>
0.5593

> <Gold.Chemscore.DEInternal>
1.8666

> <Gold.Chemscore.Rot>
1.7715

> <Gold.Chemscore.Internal.Correction>
   9.000000E+99

> <Gold.Chemscore.Hbonds>
donor molecule, donor type, donor heavy atom, donor atom, acceptor molecule, acceptor atom, score
      L1  H    10    31       P1  8029  0.09
      P1  H  6933  6944       L1    20  0.72
      P1  H  6934  6946       L1    20  0.10

> <Gold.Chemscore.Hbond.Weighted>
-4.7790

> <Gold.Chemscore.Metal.Weighted>
-0.0000

> <Gold.Chemscore.Lipo.Weighted>
-11.7942

> <Gold.Chemscore.Internal_Hbond.Weighted>
0.0000

> <Gold.Chemscore.DEClash.Weighted>
0.5593

> <Gold.Chemscore.DEInternal.Weighted>
1.8666

> <Gold.Chemscore.Rot.Weighted>
4.5351

> <Gold.Chemscore.Internal.Correction.Weighted>
   9.000000E+99

> <Gold.Protein.RotatedTorsions>
[ 6907 6896 6895 6894 ] final -172.47 input  -60.11 | X-H torsion
[ 7974 7965 7964 7962 ] final   15.42 input  175.53 | X-H torsion
[ 8008 7997 7996 7995 ] final   76.72 input   59.86 | X-H torsion
[ 10167 10162 10161 10158 ] final -167.72 input  -65.29 | X-H torsion
[ 10718 10713 10712 10709 ] final -123.93 input   66.30 | X-H torsion
[ 10763 10752 10751 10750 ] final -172.38 input  -60.55 | X-H torsion
[ 11005 11000 10999 10996 ] final   49.19 input  -57.11 | X-H torsion

> <Gold.Protein.ActiveResidues>
 VAL166  LYS551  ARG553  GLY616  TRP617  ASP618  TYR619  PRO620  LYS621  CYS622 
 ASP623  PHE694  ASN695  SER759  ASP760  ASP761  ALA762  ILE779  LEU786  VAL792 
 PHE793  MET794  SER795  GLU796  ALA797  LYS798  CYS799  TRP800  GLU811  SER814 

> <Gold.Protein.RotatedAtoms>
  151.5405  133.3433  159.2934 H   0  0  0  0  0  0  0  0  0  0  0  0  # atno 6907 bound_to 6896
  150.8538  134.7874  159.7041 H   0  0  0  0  0  0  0  0  0  0  0  0  # atno 6908 bound_to 6896
  152.4577  134.5262  159.9849 H   0  0  0  0  0  0  0  0  0  0  0  0  # atno 6909 bound_to 6896
  146.2279  139.8897  142.8557 H   0  0  0  0  0  0  0  0  0  0  0  0  # atno 7974 bound_to 7965
  155.8314  140.3466  155.5575 H   0  0  0  0  0  0  0  0  0  0  0  0  # atno 8008 bound_to 7997
  155.8238  140.0917  157.1853 H   0  0  0  0  0  0  0  0  0  0  0  0  # atno 8009 bound_to 7997
  154.4004  140.1425  156.3519 H   0  0  0  0  0  0  0  0  0  0  0  0  # atno 8010 bound_to 7997
  139.6031  144.0969  152.1764 H   0  0  0  0  0  0  0  0  0  0  0  0  # atno 10167 bound_to 10162
  156.1544  130.6558  150.9961 H   0  0  0  0  0  0  0  0  0  0  0  0  # atno 10718 bound_to 10713
  154.6199  135.2874  155.0337 H   0  0  0  0  0  0  0  0  0  0  0  0  # atno 10763 bound_to 10752
  154.1536  135.6499  153.4973 H   0  0  0  0  0  0  0  0  0  0  0  0  # atno 10764 bound_to 10752
  153.0231  135.5361  154.6985 H   0  0  0  0  0  0  0  0  0  0  0  0  # atno 10765 bound_to 10752
  140.1125  134.4936  155.8665 H   0  0  0  0  0  0  0  0  0  0  0  0  # atno 11005 bound_to 11000
  145.2430  141.0016  143.3925 LP  0  0  0  0  0  0  0  0  0  0  0  0  # atno 17320 bound_to 7965
  144.9437  139.4160  143.6436 LP  0  0  0  0  0  0  0  0  0  0  0  0  # atno 17321 bound_to 7965
  140.0569  144.5887  150.7292 LP  0  0  0  0  0  0  0  0  0  0  0  0  # atno 17342 bound_to 10162
  140.7265  143.2641  151.4103 LP  0  0  0  0  0  0  0  0  0  0  0  0  # atno 17343 bound_to 10162
  157.6683  131.0867  150.7674 LP  0  0  0  0  0  0  0  0  0  0  0  0  # atno 17370 bound_to 10713
  156.7740  130.4838  149.5413 LP  0  0  0  0  0  0  0  0  0  0  0  0  # atno 17371 bound_to 10713
  141.2133  133.6732  156.6732 LP  0  0  0  0  0  0  0  0  0  0  0  0  # atno 17394 bound_to 11000
  140.3072  134.8115  157.4147 LP  0  0  0  0  0  0  0  0  0  0  0  0  # atno 17395 bound_to 11000

$$$$
