AV-unprocessed.smi:287|AV-procd|sdf|2183|dock1
  -GOLD-   2262021553D 1   1.00000     0.00000
 Structure written by MMmdl.
 55 58  0  0  0  0  0  0  0  0  1 V2000
  147.4029  136.3782  163.2426 C   0  0  0  0  0  0  0  0  0  0  0  0
  146.9679  135.1531  162.5140 C   0  0  0  0  0  0  0  0  0  0  0  0
  147.5643  133.9580  162.2363 C   0  0  0  0  0  0  0  0  0  0  0  0
  146.6338  133.1813  161.4829 C   0  0  0  0  0  0  0  0  0  0  0  0
  146.8615  131.7732  160.9496 C   0  0  1  0  0  0  0  0  0  0  0  0
  148.0102  131.1054  161.7228 C   0  0  0  0  0  0  0  0  0  0  0  0
  145.7411  130.9299  161.1367 O   0  0  0  0  0  0  0  0  0  0  0  0
  147.1586  131.7529  159.4323 C   0  0  0  0  0  0  0  0  0  0  0  0
  148.2471  132.6462  159.0563 N   0  0  0  0  0  0  0  0  0  0  0  0
  148.5703  132.8401  157.7610 C   0  0  0  0  0  0  0  0  0  0  0  0
  149.7304  133.5046  157.5432 N   0  0  0  0  0  0  0  0  0  0  0  0
  150.1426  133.7475  156.2959 C   0  0  0  0  0  0  0  0  0  0  0  0
  149.5543  133.4194  155.1444 N   0  0  0  0  0  0  0  0  0  0  0  0
  148.3836  132.7515  155.3560 C   0  0  0  0  0  0  0  0  0  0  0  0
  147.8197  132.4226  156.6217 C   0  0  0  0  0  0  0  0  0  0  0  0
  146.6190  131.7480  156.4245 N   0  0  0  0  0  0  0  0  0  0  0  0
  146.4891  131.6868  155.1270 C   0  0  0  0  0  0  0  0  0  0  0  0
  147.5083  132.2710  154.4076 N   0  0  0  0  0  0  0  0  0  0  0  0
  147.6775  132.3817  152.9236 C   0  0  1  0  0  0  0  0  0  0  0  0
  146.9223  131.3634  152.3370 O   0  0  0  0  0  0  0  0  0  0  0  0
  145.9460  131.8991  151.4438 C   0  0  1  0  0  0  0  0  0  0  0  0
  144.6817  131.0221  151.4144 C   0  0  0  0  0  0  0  0  0  0  0  0
  143.8609  131.3938  150.3279 O   0  0  0  0  0  0  0  0  0  0  0  0
  145.7394  133.3472  151.9099 C   0  0  1  0  0  0  0  0  0  0  0  0
  144.7761  133.4253  152.9475 O   0  0  0  0  0  0  0  0  0  0  0  0
  147.1381  133.7186  152.3813 C   0  0  1  0  0  0  0  0  0  0  0  0
  147.1483  134.8056  153.2917 O   0  0  0  0  0  0  0  0  0  0  0  0
  145.5172  133.9760  161.3804 C   0  0  0  0  0  0  0  0  0  0  0  0
  144.1725  133.7992  160.7562 C   0  0  0  0  0  0  0  0  0  0  0  0
  145.7142  135.1749  161.9967 O   0  0  0  0  0  0  0  0  0  0  0  0
  148.7446  132.2348  152.7540 H   0  0  0  0  0  0  0  0  0  0  0  0
  146.3947  131.9368  150.4494 H   0  0  0  0  0  0  0  0  0  0  0  0
  145.4077  133.9897  151.0936 H   0  0  0  0  0  0  0  0  0  0  0  0
  147.7466  133.9816  151.5152 H   0  0  0  0  0  0  0  0  0  0  0  0
  148.4670  136.3347  163.4757 H   0  0  0  0  0  0  0  0  0  0  0  0
  146.8551  136.4853  164.1788 H   0  0  0  0  0  0  0  0  0  0  0  0
  147.2257  137.2703  162.6415 H   0  0  0  0  0  0  0  0  0  0  0  0
  148.5628  133.6734  162.5336 H   0  0  0  0  0  0  0  0  0  0  0  0
  148.9396  131.6651  161.6114 H   0  0  0  0  0  0  0  0  0  0  0  0
  148.1951  130.0907  161.3679 H   0  0  0  0  0  0  0  0  0  0  0  0
  147.7886  131.0474  162.7894 H   0  0  0  0  0  0  0  0  0  0  0  0
  145.0115  131.2911  160.6569 H   0  0  0  0  0  0  0  0  0  0  0  0
  147.4586  130.7421  159.1524 H   0  0  0  0  0  0  0  0  0  0  0  0
  146.2605  131.9873  158.8591 H   0  0  0  0  0  0  0  0  0  0  0  0
  148.7850  133.0236  159.8234 H   0  0  0  0  0  0  0  0  0  0  0  0
  151.0769  134.2821  156.2089 H   0  0  0  0  0  0  0  0  0  0  0  0
  145.6389  131.2120  154.6595 H   0  0  0  0  0  0  0  0  0  0  0  0
  144.9327  129.9627  151.3533 H   0  0  0  0  0  0  0  0  0  0  0  0
  144.1009  131.1679  152.3258 H   0  0  0  0  0  0  0  0  0  0  0  0
  144.0330  132.2988  150.1177 H   0  0  0  0  0  0  0  0  0  0  0  0
  145.2108  133.2494  153.7685 H   0  0  0  0  0  0  0  0  0  0  0  0
  147.8684  135.3760  153.0678 H   0  0  0  0  0  0  0  0  0  0  0  0
  143.7267  132.8520  161.0600 H   0  0  0  0  0  0  0  0  0  0  0  0
  144.2478  133.8058  159.6688 H   0  0  0  0  0  0  0  0  0  0  0  0
  143.4921  134.5983  161.0515 H   0  0  0  0  0  0  0  0  0  0  0  0
  1  2  1  0  0  0  0
  1 35  1  0  0  0  0
  1 36  1  0  0  0  0
  1 37  1  0  0  0  0
  2 30  1  0  0  0  0
  2  3  2  0  0  0  0
  3  4  1  0  0  0  0
  3 38  1  0  0  0  0
  4  5  1  0  0  0  0
  4 28  2  0  0  0  0
  5  6  1  0  0  0  0
  5  7  1  0  0  0  0
  5  8  1  0  0  0  0
  6 39  1  0  0  0  0
  6 40  1  0  0  0  0
  6 41  1  0  0  0  0
  7 42  1  0  0  0  0
  8  9  1  0  0  0  0
  8 43  1  0  0  0  0
  8 44  1  0  0  0  0
  9 10  1  0  0  0  0
  9 45  1  0  0  0  0
 10 15  1  0  0  0  0
 10 11  2  0  0  0  0
 11 12  1  0  0  0  0
 12 13  2  0  0  0  0
 12 46  1  0  0  0  0
 13 14  1  0  0  0  0
 14 18  1  0  0  0  0
 14 15  2  0  0  0  0
 15 16  1  0  0  0  0
 16 17  2  0  0  0  0
 17 18  1  0  0  0  0
 17 47  1  0  0  0  0
 18 19  1  0  0  0  0
 19 31  1  0  0  0  0
 19 26  1  0  0  0  0
 19 20  1  0  0  0  0
 20 21  1  0  0  0  0
 21 32  1  0  0  0  0
 21 22  1  0  0  0  0
 21 24  1  0  0  0  0
 22 23  1  0  0  0  0
 22 48  1  0  0  0  0
 22 49  1  0  0  0  0
 23 50  1  0  0  0  0
 24 33  1  0  0  0  0
 24 25  1  0  0  0  0
 24 26  1  0  0  0  0
 25 51  1  0  0  0  0
 26 34  1  0  0  0  0
 26 27  1  0  0  0  0
 27 52  1  0  0  0  0
 28 29  1  0  0  0  0
 28 30  1  0  0  0  0
 29 53  1  0  0  0  0
 29 54  1  0  0  0  0
 29 55  1  0  0  0  0
M  END
> <s_m_source_file>
AV-unprocessed.smi

> <i_m_source_file_index>
287

> <i_lp_mmshare_version>
43012

> <i_f3d_flags>
0

> <s_epik_input>
W0NIM11jMVtjSF1jKGMobzEpW0NIM10pW0NAQF0oW0NIM10pKFtPSF0pW0NIMl1bTkhdYyhuW2NIXW4yKWMoYzIzKW5bY0hdbjNbQ0BASF00T1tDQEhdKFtDSDJdW09IXSlbQ0BASF0oW09IXSlbQ0BIXTRbT0hd

> <s_epik_cmdline>
J2VwaWtfcHl0aG9uJywgJy1waCcsICc3LjAnLCAnLXRuJywgJzgnLCAnLW1hJywgJzIwMCcsICctbWV0YWxfYmluZGluZycsICctaW1hZScsICc8aW5maWxlLm1hZT4nLCAnLW9tYWUnLCAnPG91dGZpbGUubWFlPic=

> <r_lp_tautomer_probability>
1

> <r_epik_Ionization_Penalty>
0.000992612

> <r_epik_Ionization_Penalty_Charging>
0

> <r_epik_Ionization_Penalty_Neutral>
0.000992612

> <r_epik_State_Penalty>
-0

> <r_epik_Charging_Adjusted_Penalty>
0

> <i_epik_Tot_Q>
0

> <i_epik_Tot_abs_Q>
0

> <r_epik_Metal_State_Penalty>
-0

> <b_epik_Metal_Only>
0

> <s_epik_Chemistry_Notes>
This compound contains an acetal/aminal-like group ( X-CH(R)-Y where X, Y are N, S, or O) that may be acid/base labile, releasing an aldehyde.

> <s_lp_Force_Field>
OPLS_2005

> <r_lp_Energy>
47.3874

> <b_lp_Chiralities_Consistent>
1

> <s_lp_Variant>
AV-unprocessed.smi:287-7

> <Gold.Version>
5.8.1

> <Gold.Id.Protein>
6NUR|6NUR_protein|mol2

> <Gold.PLP.Fitness>
42.5754

> <Gold.PLP.PLP>
-37.4536

> <Gold.PLP.part.hbond>
-3.4685

> <Gold.PLP.part.metal>
0.0000

> <Gold.PLP.part.buried>
-6.2740

> <Gold.PLP.part.nonpolar>
-29.5690

> <Gold.PLP.part.repulsive>
1.5294

> <Gold.PLP.ligand.clash>
0.0000

> <Gold.PLP.ligand.torsion>
1.6010

> <Gold.PLP.Chemscore.Hbond>
2.4803

> <Gold.PLP.Chemscore.CHOScore>
0.0477

> <Gold.PLP.Chemscore.Metal>
0.0000

> <Gold.Chemscore.Hbonds>
donor molecule, donor type, donor heavy atom, donor atom, acceptor molecule, acceptor atom, score
      L1  H    27    52       P1  7948  1.00
      P1  H  6896  6908       L1    11  0.98
      P1  H 10785 10796       L1    23  0.56
      L1  C    17    47       P1 10956  0.07

> <Gold.PLP.Chemscore.Internal.Correction>
0.7398

> <Gold.Rescore>
     Score         DG    S(hbond)    S(metal)    S(lipo)     H(rot)  DE(clash)    DE(int)     intcor
      7.66      -9.80       2.35        0.00      85.06       5.27       0.38       1.76       ----

> <Gold.Chemscore.Fitness>
7.6619

> <Gold.Chemscore.DG>
-9.8048

> <Gold.Chemscore.ZeroCoef>
-5.4800

> <Gold.Chemscore.Hbond>
2.3522

> <Gold.Chemscore.Metal>
0.0000

> <Gold.Chemscore.Lipo>
85.0621

> <Gold.Chemscore.Internal_Hbond>
0.0000

> <Gold.Chemscore.DEClash>
0.3833

> <Gold.Chemscore.DEInternal>
1.7596

> <Gold.Chemscore.Rot>
5.2672

> <Gold.Chemscore.Internal.Correction>
   9.000000E+99

> <Gold.Chemscore.Hbonds>
donor molecule, donor type, donor heavy atom, donor atom, acceptor molecule, acceptor atom, score
      L1  H    27    52       P1  7948  0.96
      P1  H  6896  6908       L1    11  0.77
      P1  H 10785 10796       L1    23  0.54

> <Gold.Chemscore.Hbond.Weighted>
-7.8564

> <Gold.Chemscore.Metal.Weighted>
-0.0000

> <Gold.Chemscore.Lipo.Weighted>
-9.9523

> <Gold.Chemscore.Internal_Hbond.Weighted>
0.0000

> <Gold.Chemscore.DEClash.Weighted>
0.3833

> <Gold.Chemscore.DEInternal.Weighted>
1.7596

> <Gold.Chemscore.Rot.Weighted>
13.4839

> <Gold.Chemscore.Internal.Correction.Weighted>
   9.000000E+99

> <Gold.Protein.RotatedTorsions>
[ 6907 6896 6895 6894 ] final  113.47 input  -60.11 | X-H torsion
[ 7974 7965 7964 7962 ] final -122.53 input  175.53 | X-H torsion
[ 8008 7997 7996 7995 ] final   77.51 input   59.86 | X-H torsion
[ 10167 10162 10161 10158 ] final   43.57 input  -65.29 | X-H torsion
[ 10718 10713 10712 10709 ] final   25.06 input   66.30 | X-H torsion
[ 10763 10752 10751 10750 ] final -103.05 input  -60.55 | X-H torsion
[ 11005 11000 10999 10996 ] final  -14.51 input  -57.11 | X-H torsion

> <Gold.Protein.ActiveResidues>
 VAL166  LYS551  ARG553  GLY616  TRP617  ASP618  TYR619  PRO620  LYS621  CYS622 
 ASP623  PHE694  ASN695  SER759  ASP760  ASP761  ALA762  ILE779  LEU786  VAL792 
 PHE793  MET794  SER795  GLU796  ALA797  LYS798  CYS799  TRP800  GLU811  SER814 

> <Gold.Protein.RotatedAtoms>
  152.4859  133.8372  159.7133 H   0  0  0  0  0  0  0  0  0  0  0  0  # atno 6907 bound_to 6896
  150.8945  133.7189  159.2902 H   0  0  0  0  0  0  0  0  0  0  0  0  # atno 6908 bound_to 6896
  151.4651  135.1045  159.9788 H   0  0  0  0  0  0  0  0  0  0  0  0  # atno 6909 bound_to 6896
  145.0285  140.8048  143.4338 H   0  0  0  0  0  0  0  0  0  0  0  0  # atno 7974 bound_to 7965
  155.8426  140.3461  155.5642 H   0  0  0  0  0  0  0  0  0  0  0  0  # atno 8008 bound_to 7997
  155.8124  140.0901  157.1916 H   0  0  0  0  0  0  0  0  0  0  0  0  # atno 8009 bound_to 7997
  154.4005  140.1445  156.3390 H   0  0  0  0  0  0  0  0  0  0  0  0  # atno 8010 bound_to 7997
  140.3430  144.2446  150.6153 H   0  0  0  0  0  0  0  0  0  0  0  0  # atno 10167 bound_to 10162
  157.1882  130.6834  149.6139 H   0  0  0  0  0  0  0  0  0  0  0  0  # atno 10718 bound_to 10713
  154.7779  135.4838  153.9782 H   0  0  0  0  0  0  0  0  0  0  0  0  # atno 10763 bound_to 10752
  153.1453  135.6781  153.8971 H   0  0  0  0  0  0  0  0  0  0  0  0  # atno 10764 bound_to 10752
  153.8633  135.3152  155.3417 H   0  0  0  0  0  0  0  0  0  0  0  0  # atno 10765 bound_to 10752
  140.7871  133.8317  155.9345 H   0  0  0  0  0  0  0  0  0  0  0  0  # atno 11005 bound_to 11000
  145.1802  139.2356  143.5296 LP  0  0  0  0  0  0  0  0  0  0  0  0  # atno 17320 bound_to 7965
  146.3495  140.1574  142.8591 LP  0  0  0  0  0  0  0  0  0  0  0  0  # atno 17321 bound_to 7965
  140.5291  143.2247  151.8267 LP  0  0  0  0  0  0  0  0  0  0  0  0  # atno 17342 bound_to 10162
  139.4837  144.4743  151.9387 LP  0  0  0  0  0  0  0  0  0  0  0  0  # atno 17343 bound_to 10162
  155.9715  130.4623  150.6142 LP  0  0  0  0  0  0  0  0  0  0  0  0  # atno 17370 bound_to 10713
  157.3886  131.0792  151.1413 LP  0  0  0  0  0  0  0  0  0  0  0  0  # atno 17371 bound_to 10713
  140.9426  134.1882  157.4787 LP  0  0  0  0  0  0  0  0  0  0  0  0  # atno 17394 bound_to 11000
  139.8735  134.9878  156.5382 LP  0  0  0  0  0  0  0  0  0  0  0  0  # atno 17395 bound_to 11000

$$$$
