AV-unprocessed.smi:3039|AV-procd|sdf|11592|dock6
  -GOLD-   2272016563D 1   1.00000     0.00000
 Structure written by MMmdl.
 38 39  0  0  0  0  0  0  0  0  1 V2000
  151.0013  141.1738  157.9639 O   0  0  0  0  0  0  0  0  0  0  0  0
  150.5419  142.2405  157.5568 C   0  0  0  0  0  0  0  0  0  0  0  0
  151.3740  143.5200  157.6511 C   0  0  0  0  0  0  0  0  0  0  0  0
  151.6215  143.8746  159.0935 C   0  0  0  0  0  0  0  0  0  0  0  0
  152.2214  143.0777  160.1081 C   0  0  0  0  0  0  0  0  0  0  0  0
  152.1964  143.8875  161.2068 C   0  0  0  0  0  0  0  0  0  0  0  0
  151.6294  145.0827  160.9040 O   0  0  0  0  0  0  0  0  0  0  0  0
  151.2623  145.0644  159.5538 N   0  0  0  0  0  0  0  0  0  0  0  0
  149.3198  142.3653  157.0164 N   0  0  0  0  0  0  0  0  0  0  0  0
  148.3673  141.2796  156.7798 C   0  0  1  0  0  0  0  0  0  0  0  0
  147.0360  141.5262  157.5295 C   0  0  0  0  0  0  0  0  0  0  0  0
  146.3688  142.8871  157.2464 C   0  0  0  0  0  0  0  0  0  0  0  0
  145.4814  142.9461  155.9912 C   0  0  0  0  0  0  0  0  0  0  0  0
  145.9417  142.1197  154.7785 C   0  0  0  0  0  0  0  0  0  0  0  0
  147.4556  142.1205  154.5044 C   0  0  0  0  0  0  0  0  0  0  0  0
  148.2134  141.0028  155.2629 C   0  0  1  0  0  0  0  0  0  0  0  0
  149.5868  140.7136  154.6125 C   0  0  0  0  0  0  0  0  0  0  0  0
  149.5200  140.8343  153.2064 O   0  0  0  0  0  0  0  0  0  0  0  0
  152.3140  143.3783  157.1156 H   0  0  0  0  0  0  0  0  0  0  0  0
  150.8491  144.3319  157.1463 H   0  0  0  0  0  0  0  0  0  0  0  0
  152.6106  142.0726  160.0387 H   0  0  0  0  0  0  0  0  0  0  0  0
  152.5274  143.7640  162.2273 H   0  0  0  0  0  0  0  0  0  0  0  0
  149.0327  143.2865  156.7179 H   0  0  0  0  0  0  0  0  0  0  0  0
  148.7922  140.3677  157.2040 H   0  0  0  0  0  0  0  0  0  0  0  0
  146.3343  140.7132  157.3397 H   0  0  0  0  0  0  0  0  0  0  0  0
  147.2478  141.4784  158.5986 H   0  0  0  0  0  0  0  0  0  0  0  0
  145.7472  143.1540  158.1017 H   0  0  0  0  0  0  0  0  0  0  0  0
  147.1182  143.6764  157.1947 H   0  0  0  0  0  0  0  0  0  0  0  0
  144.4731  142.6238  156.2535 H   0  0  0  0  0  0  0  0  0  0  0  0
  145.3832  143.9911  155.6947 H   0  0  0  0  0  0  0  0  0  0  0  0
  145.5894  141.0927  154.8813 H   0  0  0  0  0  0  0  0  0  0  0  0
  145.4253  142.5080  153.8998 H   0  0  0  0  0  0  0  0  0  0  0  0
  147.5803  141.9573  153.4337 H   0  0  0  0  0  0  0  0  0  0  0  0
  147.8895  143.1017  154.6997 H   0  0  0  0  0  0  0  0  0  0  0  0
  147.6323  140.0836  155.1719 H   0  0  0  0  0  0  0  0  0  0  0  0
  150.3542  141.3892  154.9930 H   0  0  0  0  0  0  0  0  0  0  0  0
  149.9120  139.6984  154.8423 H   0  0  0  0  0  0  0  0  0  0  0  0
  149.8516  140.0379  152.8204 H   0  0  0  0  0  0  0  0  0  0  0  0
  1  2  2  0  0  0  0
  2  3  1  0  0  0  0
  2  9  1  0  0  0  0
  3  4  1  0  0  0  0
  3 19  1  0  0  0  0
  3 20  1  0  0  0  0
  4  8  2  0  0  0  0
  4  5  1  0  0  0  0
  5  6  2  0  0  0  0
  5 21  1  0  0  0  0
  6  7  1  0  0  0  0
  6 22  1  0  0  0  0
  7  8  1  0  0  0  0
  9 10  1  0  0  0  0
  9 23  1  0  0  0  0
 10 16  1  0  0  0  0
 10 11  1  0  0  0  0
 10 24  1  0  0  0  0
 11 12  1  0  0  0  0
 11 25  1  0  0  0  0
 11 26  1  0  0  0  0
 12 13  1  0  0  0  0
 12 27  1  0  0  0  0
 12 28  1  0  0  0  0
 13 14  1  0  0  0  0
 13 29  1  0  0  0  0
 13 30  1  0  0  0  0
 14 15  1  0  0  0  0
 14 31  1  0  0  0  0
 14 32  1  0  0  0  0
 15 16  1  0  0  0  0
 15 33  1  0  0  0  0
 15 34  1  0  0  0  0
 16 17  1  0  0  0  0
 16 35  1  0  0  0  0
 17 18  1  0  0  0  0
 17 36  1  0  0  0  0
 17 37  1  0  0  0  0
 18 38  1  0  0  0  0
M  END
> <s_m_source_file>
AV-unprocessed.smi

> <i_m_source_file_index>
3039

> <i_lp_mmshare_version>
43012

> <i_f3d_flags>
0

> <s_epik_input>
bjFvW2NIXVtjSF1jMVtDSDJdQyg9TylbTkhdW0NAQEhdMltDSDJdW0NIMl1bQ0gyXVtDSDJdW0NIMl1bQ0BIXTJbQ0gyXVtPSF0=

> <s_epik_cmdline>
J2VwaWtfcHl0aG9uJywgJy1waCcsICc3LjAnLCAnLXRuJywgJzgnLCAnLW1hJywgJzIwMCcsICctbWV0YWxfYmluZGluZycsICctaW1hZScsICc8aW5maWxlLm1hZT4nLCAnLW9tYWUnLCAnPG91dGZpbGUubWFlPic=

> <r_lp_tautomer_probability>
1

> <r_epik_Ionization_Penalty>
3.05817e-07

> <r_epik_Ionization_Penalty_Charging>
0

> <r_epik_Ionization_Penalty_Neutral>
3.05817e-07

> <r_epik_State_Penalty>
-0

> <r_epik_Charging_Adjusted_Penalty>
0

> <i_epik_Tot_Q>
0

> <i_epik_Tot_abs_Q>
0

> <r_epik_Metal_State_Penalty>
-0

> <b_epik_Metal_Only>
0

> <s_lp_Force_Field>
OPLS_2005

> <r_lp_Energy>
19.8887

> <b_lp_Chiralities_Consistent>
1

> <s_lp_Variant>
AV-unprocessed.smi:3039-2

> <Gold.Version>
5.8.1

> <Gold.Id.Protein>
6NUR|6NUR_protein|mol2

> <Gold.PLP.Fitness>
41.9013

> <Gold.PLP.PLP>
-34.5345

> <Gold.PLP.part.hbond>
-3.1712

> <Gold.PLP.part.metal>
0.0000

> <Gold.PLP.part.buried>
-5.0397

> <Gold.PLP.part.nonpolar>
-27.4067

> <Gold.PLP.part.repulsive>
0.3228

> <Gold.PLP.ligand.clash>
0.0000

> <Gold.PLP.ligand.torsion>
0.2808

> <Gold.PLP.Chemscore.Hbond>
2.6240

> <Gold.PLP.Chemscore.CHOScore>
0.0000

> <Gold.PLP.Chemscore.Metal>
0.0000

> <Gold.Chemscore.Hbonds>
donor molecule, donor type, donor heavy atom, donor atom, acceptor molecule, acceptor atom, score
      L1  H     9    23       P1  8028  1.00
      L1  H    18    38       P1  7957  0.22
      P1  H  8011  8017       L1    18  1.00

> <Gold.PLP.Chemscore.Internal.Correction>
0.0564

> <Gold.Rescore>
     Score         DG    S(hbond)    S(metal)    S(lipo)     H(rot)  DE(clash)    DE(int)     intcor
     16.65     -17.01       2.39        0.00      79.92       2.26       0.08       0.28       ----

> <Gold.Chemscore.Fitness>
16.6528

> <Gold.Chemscore.DG>
-17.0080

> <Gold.Chemscore.ZeroCoef>
-5.4800

> <Gold.Chemscore.Hbond>
2.3852

> <Gold.Chemscore.Metal>
0.0000

> <Gold.Chemscore.Lipo>
79.9241

> <Gold.Chemscore.Internal_Hbond>
0.0000

> <Gold.Chemscore.DEClash>
0.0754

> <Gold.Chemscore.DEInternal>
0.2798

> <Gold.Chemscore.Rot>
2.2616

> <Gold.Chemscore.Internal.Correction>
   9.000000E+99

> <Gold.Chemscore.Hbonds>
donor molecule, donor type, donor heavy atom, donor atom, acceptor molecule, acceptor atom, score
      L1  H     9    23       P1  8028  0.92
      L1  H    18    38       P1  7957  0.22
      P1  H  8011  8017       L1    18  0.95

> <Gold.Chemscore.Hbond.Weighted>
-7.9665

> <Gold.Chemscore.Metal.Weighted>
-0.0000

> <Gold.Chemscore.Lipo.Weighted>
-9.3511

> <Gold.Chemscore.Internal_Hbond.Weighted>
0.0000

> <Gold.Chemscore.DEClash.Weighted>
0.0754

> <Gold.Chemscore.DEInternal.Weighted>
0.2798

> <Gold.Chemscore.Rot.Weighted>
5.7896

> <Gold.Chemscore.Internal.Correction.Weighted>
   9.000000E+99

> <Gold.Protein.RotatedTorsions>
[ 6907 6896 6895 6894 ] final  166.63 input  -60.11 | X-H torsion
[ 7974 7965 7964 7962 ] final   87.01 input  175.53 | X-H torsion
[ 8008 7997 7996 7995 ] final -150.36 input   59.86 | X-H torsion
[ 10167 10162 10161 10158 ] final  148.04 input  -65.29 | X-H torsion
[ 10718 10713 10712 10709 ] final  -17.50 input   66.30 | X-H torsion
[ 10763 10752 10751 10750 ] final  -64.64 input  -60.55 | X-H torsion
[ 11005 11000 10999 10996 ] final   15.12 input  -57.11 | X-H torsion

> <Gold.Protein.ActiveResidues>
 VAL166  LYS551  ARG553  GLY616  TRP617  ASP618  TYR619  PRO620  LYS621  CYS622 
 ASP623  PHE694  ASN695  SER759  ASP760  ASP761  ALA762  ILE779  LEU786  VAL792 
 PHE793  MET794  SER795  GLU796  ALA797  LYS798  CYS799  TRP800  GLU811  SER814 

> <Gold.Protein.RotatedAtoms>
  151.8760  133.3485  159.3750 H   0  0  0  0  0  0  0  0  0  0  0  0  # atno 6907 bound_to 6896
  150.7140  134.5066  159.5596 H   0  0  0  0  0  0  0  0  0  0  0  0  # atno 6908 bound_to 6896
  152.2608  134.8036  160.0482 H   0  0  0  0  0  0  0  0  0  0  0  0  # atno 6909 bound_to 6896
  145.5646  139.2307  143.2440 H   0  0  0  0  0  0  0  0  0  0  0  0  # atno 7974 bound_to 7965
  155.6222  140.0682  157.2674 H   0  0  0  0  0  0  0  0  0  0  0  0  # atno 8008 bound_to 7997
  154.4226  140.1782  156.1433 H   0  0  0  0  0  0  0  0  0  0  0  0  # atno 8009 bound_to 7997
  156.0000  140.3337  155.6839 H   0  0  0  0  0  0  0  0  0  0  0  0  # atno 8010 bound_to 7997
  139.4881  144.5710  151.7055 H   0  0  0  0  0  0  0  0  0  0  0  0  # atno 10167 bound_to 10162
  156.5727  130.4754  149.6355 H   0  0  0  0  0  0  0  0  0  0  0  0  # atno 10718 bound_to 10713
  154.3331  135.6172  153.5561 H   0  0  0  0  0  0  0  0  0  0  0  0  # atno 10763 bound_to 10752
  152.9810  135.5751  154.4939 H   0  0  0  0  0  0  0  0  0  0  0  0  # atno 10764 bound_to 10752
  154.4629  135.2856  155.1677 H   0  0  0  0  0  0  0  0  0  0  0  0  # atno 10765 bound_to 10752
  140.4619  134.1119  155.7718 H   0  0  0  0  0  0  0  0  0  0  0  0  # atno 11005 bound_to 11000
  146.1827  140.6472  142.9182 LP  0  0  0  0  0  0  0  0  0  0  0  0  # atno 17320 bound_to 7965
  144.7466  140.5084  143.6831 LP  0  0  0  0  0  0  0  0  0  0  0  0  # atno 17321 bound_to 7965
  140.5297  144.0749  150.6049 LP  0  0  0  0  0  0  0  0  0  0  0  0  # atno 17342 bound_to 10162
  140.3735  143.2841  152.0251 LP  0  0  0  0  0  0  0  0  0  0  0  0  # atno 17343 bound_to 10162
  156.2700  130.7012  151.1806 LP  0  0  0  0  0  0  0  0  0  0  0  0  # atno 17370 bound_to 10713
  157.7344  131.0582  150.5523 LP  0  0  0  0  0  0  0  0  0  0  0  0  # atno 17371 bound_to 10713
  141.1617  133.8780  157.1829 LP  0  0  0  0  0  0  0  0  0  0  0  0  # atno 17394 bound_to 11000
  139.9940  135.0054  157.0040 LP  0  0  0  0  0  0  0  0  0  0  0  0  # atno 17395 bound_to 11000

$$$$
