#       Name:                AV-unprocessed.smi:2062
#       Creating user name   scv26
#       Creation time:       Fri Mar 27 11:08:52 2020


#       File generated by GOLD software.
#

@<TRIPOS>MOLECULE
AV-unprocessed.smi:2062
    48    49     1
SMALL
NO_CHARGES


@<TRIPOS>ATOM
      1 ****        -5.3034   2.0592  -1.3603 C.3            1 S1                 0.0000
      2 ****        -3.7803   2.0857  -1.1645 C.3            1 S1                 0.0000
      3 ****        -3.0937   2.7320  -2.3796 C.3            1 S1                 0.0000
      4 ****        -3.2458   0.6636  -0.8882 C.3            1 S1                 0.0000
      5 ****        -1.7994   0.6347  -0.5505 N.4            1 S1                 1.0000
      6 ****        -1.4997   1.1133   0.8219 C.3            1 S1                 0.0000
      7 ****         0.0135   1.0716   1.0868 C.3            1 S1                 0.0000
      8 ****         0.4917  -0.2478   0.8704 O.3            1 S1                 0.0000
      9 ****         0.3149  -0.6762  -0.4759 C.3            1 S1                 0.0000
     10 ****         0.9556  -2.0644  -0.6504 C.3            1 S1                 0.0000
     11 ****         2.4091  -2.0009  -0.5419 N.am           1 S1                 0.0000
     12 ****         3.1188  -2.0954   0.5912 C.2            1 S1                 0.0000
     13 ****         2.5431  -2.2813   1.6657 O.2            1 S1                 0.0000
     14 ****         4.4515  -1.9627   0.4082 N.pl3          1 S1                -1.0000
     15 ****         5.2823  -2.0184   1.4620 C.2            1 S1                 0.0000
     16 ****         5.7854  -0.9278   2.0517 N.2            1 S1                 0.0000
     17 ****         6.6294  -1.2168   3.1256 C.2            1 S1                 0.0000
     18 ****         6.7785  -2.5591   3.3541 C.2            1 S1                 0.0000
     19 ****         5.8588  -3.5059   2.2194 S.3            1 S1                 0.0000
     20 ****        -1.1963  -0.7007  -0.7765 C.3            1 S1                 0.0000
     21 ****        -5.5835   1.4524  -2.2221 H              1 S1                 0.0000
     22 ****        -5.6975   3.0636  -1.5185 H              1 S1                 0.0000
     23 ****        -5.8056   1.6454  -0.4853 H              1 S1                 0.0000
     24 ****        -3.5894   2.7163  -0.2970 H              1 S1                 0.0000
     25 ****        -3.2513   2.1436  -3.2841 H              1 S1                 0.0000
     26 ****        -2.0185   2.8283  -2.2272 H              1 S1                 0.0000
     27 ****        -3.4852   3.7329  -2.5635 H              1 S1                 0.0000
     28 ****        -3.8089   0.1917  -0.0816 H              1 S1                 0.0000
     29 ****        -3.4218   0.0545  -1.7764 H              1 S1                 0.0000
     30 ****        -1.8577   2.1325   0.9611 H              1 S1                 0.0000
     31 ****        -2.0197   0.4885   1.5498 H              1 S1                 0.0000
     32 ****         0.5446   1.7767   0.4454 H              1 S1                 0.0000
     33 ****         0.2224   1.3581   2.1176 H              1 S1                 0.0000
     34 ****         0.8083   0.0267  -1.1504 H              1 S1                 0.0000
     35 ****         0.5406  -2.7779   0.0634 H              1 S1                 0.0000
     36 ****         0.7239  -2.4532  -1.6423 H              1 S1                 0.0000
     37 ****         2.9254  -1.8560  -1.3972 H              1 S1                 0.0000
     38 ****         7.0831  -0.4035   3.6719 H              1 S1                 0.0000
     39 ****         7.3700  -3.0468   4.1141 H              1 S1                 0.0000
     40 ****        -1.6952  -1.4377  -0.1446 H              1 S1                 0.0000
     41 ****        -1.3575  -1.0040  -1.8119 H              1 S1                 0.0000
     42 ****        -1.3386   1.2644  -1.1920 H              1 S1                 0.0000
     43 ****        -0.0047  -0.8721   1.4737 LP             1 S1                 0.0000
     44 ****         1.4667  -0.2760   1.0908 LP             1 S1                 0.0000
     45 ****         1.5466  -2.3615   1.6918 LP             1 S1                 0.0000
     46 ****         3.0726  -2.3518   2.5111 LP             1 S1                 0.0000
     47 ****         4.8186  -1.8231  -0.5114 LP             1 S1                 0.0000
     48 ****         5.5772   0.0034   1.7525 LP             1 S1                 0.0000
@<TRIPOS>BOND
    1    1    2 1     
    2    1   21 1     
    3    1   22 1     
    4    1   23 1     
    5    2    3 1     
    6    2    4 1     
    7    2   24 1     
    8    3   25 1     
    9    3   26 1     
   10    3   27 1     
   11    4    5 1     
   12    4   28 1     
   13    4   29 1     
   14    5   20 1     
   15    5    6 1     
   16    5   42 1     
   17    6    7 1     
   18    6   30 1     
   19    6   31 1     
   20    7    8 1     
   21    7   32 1     
   22    7   33 1     
   23    8    9 1     
   24    9   10 1     
   25    9   20 1     
   26    9   34 1     
   27   10   11 1     
   28   10   35 1     
   29   10   36 1     
   30   11   12 am    
   31   11   37 1     
   32   12   13 2     
   33   12   14 1     
   34   14   15 1     
   35   15   19 1     
   36   15   16 2     
   37   16   17 1     
   38   17   18 2     
   39   17   38 1     
   40   18   19 1     
   41   18   39 1     
   42   20   40 1     
   43   20   41 1     
   44    8   43 1     
   45    8   44 1     
   46   13   45 1     
   47   13   46 1     
   48   14   47 1     
   49   16   48 1     
@<TRIPOS>SUBSTRUCTURE
      1 S1             1
@<TRIPOS>SET
LONE_PAIRS      STATIC     ATOMS    <user>   **** ""
6 43 44 45 46 47 48
DONOR_HYDROGENS      STATIC     ATOMS    <user>   **** ""
2 42 37
ATOM$BLUE        STATIC     ATOMS    COLORGROUP SYSTEM
6 43 44 45 46 47 48
ATOM$RED        STATIC     ATOMS    COLORGROUP SYSTEM
2 42 37
