#       Name:                AV-unprocessed.smi:1679
#       Creating user name   scv26
#       Creation time:       Fri Mar 27 07:47:37 2020


#       File generated by GOLD software.
#

@<TRIPOS>MOLECULE
AV-unprocessed.smi:1679
    53    54     1
SMALL
NO_CHARGES


@<TRIPOS>ATOM
      1 ****        -0.6283  -0.0332   3.2146 C.3            1 S1                 0.0000
      2 ****        -1.3613   0.7635   2.1240 C.3            1 S1                 0.0000
      3 ****        -0.3760   1.5463   1.2300 C.3            1 S1                 0.0000
      4 ****        -1.1140   2.3755   0.1662 C.3            1 S1                 0.0000
      5 ****        -2.0604   1.5027  -0.6724 C.3            1 S1                 0.0000
      6 ****        -3.0358   0.7225   0.2220 C.3            1 S1                 0.0000
      7 ****        -2.2860  -0.1320   1.2679 C.3            1 S1                 0.0000
      8 ****        -1.4636  -1.1247   0.6655 O.3            1 S1                 0.0000
      9 ****        -2.1248  -2.1488  -0.0613 C.3            1 S1                 0.0000
     10 ****        -1.1029  -3.2406  -0.4170 C.3            1 S1                 0.0000
     11 ****        -0.0312  -2.7214  -1.2626 N.am           1 S1                 0.0000
     12 ****         1.0949  -2.1483  -0.8077 C.2            1 S1                 0.0000
     13 ****         1.3640  -2.0487   0.3903 O.2            1 S1                 0.0000
     14 ****         2.0790  -1.6216  -1.8595 C.3            1 S1                 0.0000
     15 ****         2.5586  -0.2752  -1.5174 N.am           1 S1                 0.0000
     16 ****         3.7002  -0.1122  -0.7452 C.2            1 S1                 0.0000
     17 ****         4.1665   1.0959  -0.3493 C.2            1 S1                 0.0000
     18 ****         3.4659   2.3181  -0.7285 C.2            1 S1                 0.0000
     19 ****         3.8053   3.4570  -0.4151 O.2            1 S1                 0.0000
     20 ****         2.3256   2.1128  -1.5093 N.am           1 S1                 0.0000
     21 ****         1.8411   0.8710  -1.9222 C.2            1 S1                 0.0000
     22 ****         0.8220   0.8033  -2.6078 O.2            1 S1                 0.0000
     23 ****         1.8076   2.9307  -1.7958 H              1 S1                 0.0000
     24 ****         0.0518  -0.7689   2.7838 H              1 S1                 0.0000
     25 ****        -1.3334  -0.5650   3.8537 H              1 S1                 0.0000
     26 ****        -0.0390   0.6265   3.8516 H              1 S1                 0.0000
     27 ****        -1.9916   1.4927   2.6349 H              1 S1                 0.0000
     28 ****         0.2414   2.2057   1.8403 H              1 S1                 0.0000
     29 ****         0.3104   0.8541   0.7405 H              1 S1                 0.0000
     30 ****        -1.6856   3.1657   0.6541 H              1 S1                 0.0000
     31 ****        -0.3938   2.8727  -0.4836 H              1 S1                 0.0000
     32 ****        -2.6149   2.1250  -1.3750 H              1 S1                 0.0000
     33 ****        -1.4813   0.8010  -1.2723 H              1 S1                 0.0000
     34 ****        -3.6855   1.4291   0.7399 H              1 S1                 0.0000
     35 ****        -3.6991   0.1092  -0.3869 H              1 S1                 0.0000
     36 ****        -3.0103  -0.6235   1.9193 H              1 S1                 0.0000
     37 ****        -2.9271  -2.5781   0.5401 H              1 S1                 0.0000
     38 ****        -2.5704  -1.7495  -0.9724 H              1 S1                 0.0000
     39 ****        -0.6953  -3.6897   0.4903 H              1 S1                 0.0000
     40 ****        -1.6015  -4.0442  -0.9594 H              1 S1                 0.0000
     41 ****        -0.1712  -2.7697  -2.2614 H              1 S1                 0.0000
     42 ****         2.9201  -2.3141  -1.9162 H              1 S1                 0.0000
     43 ****         1.6272  -1.6378  -2.8536 H              1 S1                 0.0000
     44 ****         4.2448  -0.9920  -0.4328 H              1 S1                 0.0000
     45 ****         5.0597   1.1574   0.2556 H              1 S1                 0.0000
     46 ****        -0.9359  -1.5627   1.3933 LP             1 S1                 0.0000
     47 ****        -0.8411  -0.6603   0.0356 LP             1 S1                 0.0000
     48 ****         0.7293  -2.4040   1.0765 LP             1 S1                 0.0000
     49 ****         2.2171  -1.6125   0.6765 LP             1 S1                 0.0000
     50 ****         4.6219   3.5993   0.1443 LP             1 S1                 0.0000
     51 ****         3.2648   4.2414  -0.7195 LP             1 S1                 0.0000
     52 ****         0.4734  -0.0876  -2.8989 LP             1 S1                 0.0000
     53 ****         0.3420   1.6392  -2.8741 LP             1 S1                 0.0000
@<TRIPOS>BOND
    1    1    2 1     
    2    1   24 1     
    3    1   25 1     
    4    1   26 1     
    5    2    7 1     
    6    2    3 1     
    7    2   27 1     
    8    3    4 1     
    9    3   28 1     
   10    3   29 1     
   11    4    5 1     
   12    4   30 1     
   13    4   31 1     
   14    5    6 1     
   15    5   32 1     
   16    5   33 1     
   17    6    7 1     
   18    6   34 1     
   19    6   35 1     
   20    7    8 1     
   21    7   36 1     
   22    8    9 1     
   23    9   10 1     
   24    9   37 1     
   25    9   38 1     
   26   10   11 1     
   27   10   39 1     
   28   10   40 1     
   29   11   12 am    
   30   11   41 1     
   31   12   13 2     
   32   12   14 1     
   33   14   15 1     
   34   14   42 1     
   35   14   43 1     
   36   15   21 1     
   37   15   16 1     
   38   16   17 2     
   39   16   44 1     
   40   17   18 1     
   41   17   45 1     
   42   18   19 2     
   43   18   20 1     
   44   20   23 1     
   45   20   21 1     
   46   21   22 2     
   47    8   46 1     
   48    8   47 1     
   49   13   48 1     
   50   13   49 1     
   51   19   50 1     
   52   19   51 1     
   53   22   52 1     
   54   22   53 1     
@<TRIPOS>SUBSTRUCTURE
      1 S1             1
@<TRIPOS>SET
LONE_PAIRS      STATIC     ATOMS    <user>   **** ""
8 46 47 48 49 50 51 52 53
DONOR_HYDROGENS      STATIC     ATOMS    <user>   **** ""
2 41 23
ATOM$BLUE        STATIC     ATOMS    COLORGROUP SYSTEM
8 46 47 48 49 50 51 52 53
ATOM$RED        STATIC     ATOMS    COLORGROUP SYSTEM
2 41 23
