AV-unprocessed.smi:2809|AV-procd|sdf|10825|dock8
  -GOLD-   2272015263D 1   1.00000     0.00000
 Structure written by MMmdl.
 44 45  0  0  0  0  0  0  0  0  1 V2000
  151.5304  145.4129  160.3194 C   0  0  0  0  0  0  0  0  0  0  0  0
  151.6297  144.0910  161.0888 C   0  0  0  0  0  0  0  0  0  0  0  0
  151.9178  142.9149  160.1752 C   0  0  0  0  0  0  0  0  0  0  0  0
  152.8786  141.9502  160.5383 C   0  0  0  0  0  0  0  0  0  0  0  0
  153.1395  140.8583  159.6884 C   0  0  0  0  0  0  0  0  0  0  0  0
  152.4476  140.7100  158.4691 C   0  0  0  0  0  0  0  0  0  0  0  0
  152.7635  139.6101  157.7012 O   0  0  0  0  0  0  0  0  0  0  0  0
  152.0572  139.4118  156.4836 C   0  0  0  0  0  0  0  0  0  0  0  0
  152.5814  138.1338  155.8114 C   0  0  2  0  0  0  0  0  0  0  0  0
  153.9736  138.2991  155.6301 O   0  0  0  0  0  0  0  0  0  0  0  0
  151.9244  137.8904  154.4336 C   0  0  0  0  0  0  0  0  0  0  0  0
  150.4626  138.0588  154.4763 N   0  0  0  0  0  0  0  0  0  0  0  0
  149.7103  136.9029  154.7407 C   0  0  0  0  0  0  0  0  0  0  0  0
  148.4190  136.9315  154.7968 N   0  0  0  0  0  0  0  0  0  0  0  0
  147.7385  138.1355  154.5936 C   0  0  0  0  0  0  0  0  0  0  0  0
  146.2246  138.0557  154.6780 C   0  0  0  0  0  0  0  0  0  0  0  0
  148.4090  139.2924  154.3396 C   0  0  0  0  0  0  0  0  0  0  0  0
  147.7218  140.6338  154.1154 C   0  0  0  0  0  0  0  0  0  0  0  0
  149.8794  139.2761  154.2752 C   0  0  0  0  0  0  0  0  0  0  0  0
  150.5508  140.2868  154.0580 O   0  0  0  0  0  0  0  0  0  0  0  0
  151.4828  141.6843  158.1087 C   0  0  0  0  0  0  0  0  0  0  0  0
  151.2221  142.7775  158.9574 C   0  0  0  0  0  0  0  0  0  0  0  0
  151.3243  146.2416  160.9969 H   0  0  0  0  0  0  0  0  0  0  0  0
  150.7294  145.3795  159.5803 H   0  0  0  0  0  0  0  0  0  0  0  0
  152.4607  145.6353  159.7960 H   0  0  0  0  0  0  0  0  0  0  0  0
  152.4165  144.1587  161.8409 H   0  0  0  0  0  0  0  0  0  0  0  0
  150.7014  143.9092  161.6317 H   0  0  0  0  0  0  0  0  0  0  0  0
  153.4176  142.0431  161.4697 H   0  0  0  0  0  0  0  0  0  0  0  0
  153.8781  140.1244  159.9767 H   0  0  0  0  0  0  0  0  0  0  0  0
  150.9845  139.3262  156.6662 H   0  0  0  0  0  0  0  0  0  0  0  0
  152.2234  140.2687  155.8281 H   0  0  0  0  0  0  0  0  0  0  0  0
  152.4169  137.2908  156.4837 H   0  0  0  0  0  0  0  0  0  0  0  0
  154.3634  138.5051  156.4658 H   0  0  0  0  0  0  0  0  0  0  0  0
  152.3229  138.6017  153.7078 H   0  0  0  0  0  0  0  0  0  0  0  0
  152.2193  136.9170  154.0355 H   0  0  0  0  0  0  0  0  0  0  0  0
  150.2886  135.9906  154.8965 H   0  0  0  0  0  0  0  0  0  0  0  0
  145.7742  138.3439  153.7278 H   0  0  0  0  0  0  0  0  0  0  0  0
  145.8491  138.7190  155.4574 H   0  0  0  0  0  0  0  0  0  0  0  0
  145.8922  137.0437  154.9124 H   0  0  0  0  0  0  0  0  0  0  0  0
  148.0309  141.3459  154.8812 H   0  0  0  0  0  0  0  0  0  0  0  0
  146.6353  140.5703  154.1450 H   0  0  0  0  0  0  0  0  0  0  0  0
  147.9985  141.0413  153.1426 H   0  0  0  0  0  0  0  0  0  0  0  0
  150.9287  141.6166  157.1851 H   0  0  0  0  0  0  0  0  0  0  0  0
  150.4827  143.5110  158.6710 H   0  0  0  0  0  0  0  0  0  0  0  0
  1  2  1  0  0  0  0
  1 23  1  0  0  0  0
  1 24  1  0  0  0  0
  1 25  1  0  0  0  0
  2  3  1  0  0  0  0
  2 26  1  0  0  0  0
  2 27  1  0  0  0  0
  3 22  1  0  0  0  0
  3  4  2  0  0  0  0
  4  5  1  0  0  0  0
  4 28  1  0  0  0  0
  5  6  2  0  0  0  0
  5 29  1  0  0  0  0
  6  7  1  0  0  0  0
  6 21  1  0  0  0  0
  7  8  1  0  0  0  0
  8  9  1  0  0  0  0
  8 30  1  0  0  0  0
  8 31  1  0  0  0  0
  9 10  1  0  0  0  0
  9 11  1  0  0  0  0
  9 32  1  0  0  0  0
 10 33  1  0  0  0  0
 11 12  1  0  0  0  0
 11 34  1  0  0  0  0
 11 35  1  0  0  0  0
 12 19  1  0  0  0  0
 12 13  1  0  0  0  0
 13 14  2  0  0  0  0
 13 36  1  0  0  0  0
 14 15  1  0  0  0  0
 15 16  1  0  0  0  0
 15 17  2  0  0  0  0
 16 37  1  0  0  0  0
 16 38  1  0  0  0  0
 16 39  1  0  0  0  0
 17 18  1  0  0  0  0
 17 19  1  0  0  0  0
 18 40  1  0  0  0  0
 18 41  1  0  0  0  0
 18 42  1  0  0  0  0
 19 20  2  0  0  0  0
 21 22  2  0  0  0  0
 21 43  1  0  0  0  0
 22 44  1  0  0  0  0
M  END
> <s_m_source_file>
AV-unprocessed.smi

> <i_m_source_file_index>
2809

> <i_lp_mmshare_version>
43012

> <i_f3d_flags>
0

> <s_epik_input>
W0NIM11bQ0gyXWMxW2NIXVtjSF1jKFtjSF1bY0hdMSlPW0NIMl1bQ0BIXShbT0hdKVtDSDJdbjJbY0hdbmMoW0NIM10pYyhbQ0gzXSljMj1P

> <s_epik_cmdline>
J2VwaWtfcHl0aG9uJywgJy1waCcsICc3LjAnLCAnLXRuJywgJzgnLCAnLW1hJywgJzIwMCcsICctbWV0YWxfYmluZGluZycsICctaW1hZScsICc8aW5maWxlLm1hZT4nLCAnLW9tYWUnLCAnPG91dGZpbGUubWFlPic=

> <r_lp_tautomer_probability>
1

> <r_epik_Ionization_Penalty>
3.74127e-05

> <r_epik_Ionization_Penalty_Charging>
8.43242e-08

> <r_epik_Ionization_Penalty_Neutral>
3.73284e-05

> <r_epik_State_Penalty>
-0

> <r_epik_Charging_Adjusted_Penalty>
8.43242e-08

> <i_epik_Tot_Q>
0

> <i_epik_Tot_abs_Q>
0

> <r_epik_Metal_State_Penalty>
-0

> <b_epik_Metal_Only>
0

> <s_lp_Force_Field>
OPLS_2005

> <r_lp_Energy>
22.1893

> <b_lp_Chiralities_Consistent>
1

> <s_lp_Variant>
AV-unprocessed.smi:2809-1

> <Gold.Version>
5.8.1

> <Gold.Id.Protein>
6NUR|6NUR_protein|mol2

> <Gold.PLP.Fitness>
48.2215

> <Gold.PLP.PLP>
-43.4701

> <Gold.PLP.part.hbond>
-3.1062

> <Gold.PLP.part.metal>
0.0000

> <Gold.PLP.part.buried>
-6.9093

> <Gold.PLP.part.nonpolar>
-35.4424

> <Gold.PLP.part.repulsive>
0.8190

> <Gold.PLP.ligand.clash>
0.0000

> <Gold.PLP.ligand.torsion>
0.6814

> <Gold.PLP.Chemscore.Hbond>
2.0000

> <Gold.PLP.Chemscore.CHOScore>
0.0000

> <Gold.PLP.Chemscore.Metal>
0.0000

> <Gold.Chemscore.Hbonds>
donor molecule, donor type, donor heavy atom, donor atom, acceptor molecule, acceptor atom, score
      P1  H  7989  7998       L1    20  0.54
      P1  H  7997  8008       L1     7  0.75

> <Gold.PLP.Chemscore.Internal.Correction>
0.1143

> <Gold.Rescore>
     Score         DG    S(hbond)    S(metal)    S(lipo)     H(rot)  DE(clash)    DE(int)     intcor
     15.87     -16.84       1.49        0.00     108.45       2.47       0.19       0.79       ----

> <Gold.Chemscore.Fitness>
15.8674

> <Gold.Chemscore.DG>
-16.8446

> <Gold.Chemscore.ZeroCoef>
-5.4800

> <Gold.Chemscore.Hbond>
1.4935

> <Gold.Chemscore.Metal>
0.0000

> <Gold.Chemscore.Lipo>
108.4472

> <Gold.Chemscore.Internal_Hbond>
0.0000

> <Gold.Chemscore.DEClash>
0.1874

> <Gold.Chemscore.DEInternal>
0.7897

> <Gold.Chemscore.Rot>
2.4657

> <Gold.Chemscore.Internal.Correction>
   9.000000E+99

> <Gold.Chemscore.Hbonds>
donor molecule, donor type, donor heavy atom, donor atom, acceptor molecule, acceptor atom, score
      P1  H  7989  7998       L1    20  0.50
      P1  H  7997  8008       L1     7  0.05

> <Gold.Chemscore.Hbond.Weighted>
-4.9883

> <Gold.Chemscore.Metal.Weighted>
-0.0000

> <Gold.Chemscore.Lipo.Weighted>
-12.6883

> <Gold.Chemscore.Internal_Hbond.Weighted>
0.0000

> <Gold.Chemscore.DEClash.Weighted>
0.1874

> <Gold.Chemscore.DEInternal.Weighted>
0.7897

> <Gold.Chemscore.Rot.Weighted>
6.3121

> <Gold.Chemscore.Internal.Correction.Weighted>
   9.000000E+99

> <Gold.Protein.RotatedTorsions>
[ 6907 6896 6895 6894 ] final   36.49 input  -60.11 | X-H torsion
[ 7974 7965 7964 7962 ] final -163.65 input  175.53 | X-H torsion
[ 8008 7997 7996 7995 ] final  -71.95 input   59.86 | X-H torsion
[ 10167 10162 10161 10158 ] final  -88.23 input  -65.29 | X-H torsion
[ 10718 10713 10712 10709 ] final  -28.89 input   66.30 | X-H torsion
[ 10763 10752 10751 10750 ] final   95.52 input  -60.55 | X-H torsion
[ 11005 11000 10999 10996 ] final  -32.73 input  -57.11 | X-H torsion

> <Gold.Protein.ActiveResidues>
 VAL166  LYS551  ARG553  GLY616  TRP617  ASP618  TYR619  PRO620  LYS621  CYS622 
 ASP623  PHE694  ASN695  SER759  ASP760  ASP761  ALA762  ILE779  LEU786  VAL792 
 PHE793  MET794  SER795  GLU796  ALA797  LYS798  CYS799  TRP800  GLU811  SER814 

> <Gold.Protein.RotatedAtoms>
  152.1305  134.9138  160.0558 H   0  0  0  0  0  0  0  0  0  0  0  0  # atno 6907 bound_to 6896
  152.0245  133.3907  159.4280 H   0  0  0  0  0  0  0  0  0  0  0  0  # atno 6908 bound_to 6896
  150.6856  134.3511  159.4953 H   0  0  0  0  0  0  0  0  0  0  0  0  # atno 6909 bound_to 6896
  144.7320  140.3076  143.6193 H   0  0  0  0  0  0  0  0  0  0  0  0  # atno 7974 bound_to 7965
  154.5127  140.0806  156.8022 H   0  0  0  0  0  0  0  0  0  0  0  0  # atno 8008 bound_to 7997
  155.3748  140.3425  155.4226 H   0  0  0  0  0  0  0  0  0  0  0  0  # atno 8009 bound_to 7997
  156.1592  140.1583  156.8628 H   0  0  0  0  0  0  0  0  0  0  0  0  # atno 8010 bound_to 7997
  140.3767  143.2768  151.9434 H   0  0  0  0  0  0  0  0  0  0  0  0  # atno 10167 bound_to 10162
  156.4194  130.4423  149.7195 H   0  0  0  0  0  0  0  0  0  0  0  0  # atno 10718 bound_to 10713
  153.2541  135.4251  155.0828 H   0  0  0  0  0  0  0  0  0  0  0  0  # atno 10763 bound_to 10752
  154.8394  135.3433  154.6470 H   0  0  0  0  0  0  0  0  0  0  0  0  # atno 10764 bound_to 10752
  153.6891  135.7034  153.5152 H   0  0  0  0  0  0  0  0  0  0  0  0  # atno 10765 bound_to 10752
  140.9576  133.7183  156.1318 H   0  0  0  0  0  0  0  0  0  0  0  0  # atno 11005 bound_to 11000
  145.7697  139.1853  143.2219 LP  0  0  0  0  0  0  0  0  0  0  0  0  # atno 17320 bound_to 7965
  146.0920  140.7644  142.9590 LP  0  0  0  0  0  0  0  0  0  0  0  0  # atno 17321 bound_to 7965
  139.4799  144.5856  151.7858 LP  0  0  0  0  0  0  0  0  0  0  0  0  # atno 17342 bound_to 10162
  140.4979  144.1213  150.5964 LP  0  0  0  0  0  0  0  0  0  0  0  0  # atno 17343 bound_to 10162
  156.4142  130.7737  151.2751 LP  0  0  0  0  0  0  0  0  0  0  0  0  # atno 17370 bound_to 10713
  157.7508  131.0202  150.3700 LP  0  0  0  0  0  0  0  0  0  0  0  0  # atno 17371 bound_to 10713
  140.7513  134.4041  157.5541 LP  0  0  0  0  0  0  0  0  0  0  0  0  # atno 17394 bound_to 11000
  139.8867  134.8902  156.2568 LP  0  0  0  0  0  0  0  0  0  0  0  0  # atno 17395 bound_to 11000

$$$$
