AV-unprocessed.smi:100|AV-procd|sdf|912|dock4
  -GOLD-   2262017413D 1   1.00000     0.00000
 Structure written by MMmdl.
 31 33  0  0  0  0  0  0  0  0  1 V2000
  147.1216  142.6065  154.6512 N   0  0  0  0  0  0  0  0  0  0  0  0
  147.8373  141.4859  154.4815 C   0  0  0  0  0  0  0  0  0  0  0  0
  147.2768  140.4635  153.7952 N   0  0  0  0  0  0  0  0  0  0  0  0
  147.9675  139.3329  153.6197 C   0  0  0  0  0  0  0  0  0  0  0  0
  149.2006  139.0346  154.0365 N   0  0  0  0  0  0  0  0  0  0  0  0
  149.7722  140.0691  154.7228 C   0  0  0  0  0  0  0  0  0  0  0  0
  149.1505  141.3213  154.9912 C   0  0  0  0  0  0  0  0  0  0  0  0
  150.0047  142.1271  155.7293 N   0  0  0  0  0  0  0  0  0  0  0  0
  151.0678  141.3874  155.8919 C   0  0  0  0  0  0  0  0  0  0  0  0
  151.0316  140.1443  155.2934 N   0  0  0  0  0  0  0  0  0  0  0  0
  152.0942  139.0786  155.3465 C   0  0  1  0  0  0  0  0  0  0  0  0
  152.5673  138.9616  156.6542 O   0  0  0  0  0  0  0  0  0  0  0  0
  151.8101  137.9710  157.3329 C   0  0  2  0  0  0  0  0  0  0  0  0
  152.5376  137.5402  158.6148 C   0  0  0  0  0  0  0  0  0  0  0  0
  151.7463  136.6340  159.3533 O   0  0  0  0  0  0  0  0  0  0  0  0
  151.7033  136.8931  156.2567 C   0  0  1  0  0  0  0  0  0  0  0  0
  150.6843  136.0616  156.4771 F   0  0  0  0  0  0  0  0  0  0  0  0
  151.4941  137.7017  154.9825 C   0  0  2  0  0  0  0  0  0  0  0  0
  152.1548  137.0919  153.8926 O   0  0  0  0  0  0  0  0  0  0  0  0
  147.5166  143.3824  155.1629 H   0  0  0  0  0  0  0  0  0  0  0  0
  146.1893  142.6718  154.2693 H   0  0  0  0  0  0  0  0  0  0  0  0
  147.4607  138.5563  153.0663 H   0  0  0  0  0  0  0  0  0  0  0  0
  151.9197  141.7352  156.4581 H   0  0  0  0  0  0  0  0  0  0  0  0
  152.8698  139.4385  154.6692 H   0  0  0  0  0  0  0  0  0  0  0  0
  150.8258  138.3806  157.5689 H   0  0  0  0  0  0  0  0  0  0  0  0
  153.4998  137.0820  158.3845 H   0  0  0  0  0  0  0  0  0  0  0  0
  152.7364  138.4108  159.2403 H   0  0  0  0  0  0  0  0  0  0  0  0
  150.8501  136.9332  159.3345 H   0  0  0  0  0  0  0  0  0  0  0  0
  152.6214  136.3048  156.2117 H   0  0  0  0  0  0  0  0  0  0  0  0
  150.4291  137.7897  154.7654 H   0  0  0  0  0  0  0  0  0  0  0  0
  151.5035  136.8135  153.2669 H   0  0  0  0  0  0  0  0  0  0  0  0
  1  2  1  0  0  0  0
  1 20  1  0  0  0  0
  1 21  1  0  0  0  0
  2  7  1  0  0  0  0
  2  3  2  0  0  0  0
  3  4  1  0  0  0  0
  4  5  2  0  0  0  0
  4 22  1  0  0  0  0
  5  6  1  0  0  0  0
  6 10  1  0  0  0  0
  6  7  2  0  0  0  0
  7  8  1  0  0  0  0
  8  9  2  0  0  0  0
  9 10  1  0  0  0  0
  9 23  1  0  0  0  0
 10 11  1  0  0  0  0
 11 18  1  0  0  0  0
 11 12  1  0  0  0  0
 11 24  1  0  0  0  0
 12 13  1  0  0  0  0
 13 14  1  0  0  0  0
 13 16  1  0  0  0  0
 13 25  1  0  0  0  0
 14 15  1  0  0  0  0
 14 26  1  0  0  0  0
 14 27  1  0  0  0  0
 15 28  1  0  0  0  0
 16 17  1  0  0  0  0
 16 18  1  0  0  0  0
 16 29  1  0  0  0  0
 18 19  1  0  0  0  0
 18 30  1  0  0  0  0
 19 31  1  0  0  0  0
M  END
> <s_m_source_file>
AV-unprocessed.smi

> <i_m_source_file_index>
100

> <i_lp_mmshare_version>
43012

> <i_f3d_flags>
0

> <s_epik_input>
bjFbY0hdbmMoW05IMl0pYyhjMTIpbltjSF1uMltDQEBIXTNPW0NAQEhdKFtDSDJdW09IXSlbQ0BIXShGKVtDQEhdM1tPSF0=

> <s_epik_cmdline>
J2VwaWtfcHl0aG9uJywgJy1waCcsICc3LjAnLCAnLXRuJywgJzgnLCAnLW1hJywgJzIwMCcsICctbWV0YWxfYmluZGluZycsICctaW1hZScsICc8aW5maWxlLm1hZT4nLCAnLW9tYWUnLCAnPG91dGZpbGUubWFlPic=

> <r_lp_tautomer_probability>
1

> <r_epik_Ionization_Penalty>
0.000750324

> <r_epik_Ionization_Penalty_Charging>
0

> <r_epik_Ionization_Penalty_Neutral>
0.000750324

> <r_epik_State_Penalty>
-0

> <r_epik_Charging_Adjusted_Penalty>
0

> <i_epik_Tot_Q>
0

> <i_epik_Tot_abs_Q>
0

> <r_epik_Metal_State_Penalty>
-0

> <b_epik_Metal_Only>
0

> <s_epik_Chemistry_Notes>
This compound contains an acetal/aminal-like group ( X-CH(R)-Y where X, Y are N, S, or O) that may be acid/base labile, releasing an aldehyde.

> <s_lp_Force_Field>
OPLS_2005

> <r_lp_Energy>
30.8526

> <b_lp_Chiralities_Consistent>
1

> <s_lp_Variant>
AV-unprocessed.smi:100-16

> <Gold.Version>
5.8.1

> <Gold.Id.Protein>
6NUR|6NUR_protein|mol2

> <Gold.PLP.Fitness>
40.9505

> <Gold.PLP.PLP>
-27.5455

> <Gold.PLP.part.hbond>
-5.0000

> <Gold.PLP.part.metal>
0.0000

> <Gold.PLP.part.buried>
-3.1609

> <Gold.PLP.part.nonpolar>
-20.9446

> <Gold.PLP.part.repulsive>
2.3410

> <Gold.PLP.ligand.clash>
0.0000

> <Gold.PLP.ligand.torsion>
0.4175

> <Gold.PLP.Chemscore.Hbond>
4.7300

> <Gold.PLP.Chemscore.CHOScore>
0.0000

> <Gold.PLP.Chemscore.Metal>
0.0000

> <Gold.Chemscore.Hbonds>
donor molecule, donor type, donor heavy atom, donor atom, acceptor molecule, acceptor atom, score
      L1  H     1    20       P1  8028  0.90
      L1  H    19    31       P1  7949  0.91
      P1  H  6896  6907       L1    15  0.93
      P1  H  7997  8009       L1    12  0.80
      P1  H 10752 10764       L1    19  1.00

> <Gold.PLP.Chemscore.Internal.Correction>
0.0500

> <Gold.Rescore>
     Score         DG    S(hbond)    S(metal)    S(lipo)     H(rot)  DE(clash)    DE(int)     intcor
      6.88     -10.69       3.05        0.00      27.29       3.19       2.11       1.70       ----

> <Gold.Chemscore.Fitness>
6.8849

> <Gold.Chemscore.DG>
-10.6917

> <Gold.Chemscore.ZeroCoef>
-5.4800

> <Gold.Chemscore.Hbond>
3.0497

> <Gold.Chemscore.Metal>
0.0000

> <Gold.Chemscore.Lipo>
27.2852

> <Gold.Chemscore.Internal_Hbond>
0.0000

> <Gold.Chemscore.DEClash>
2.1063

> <Gold.Chemscore.DEInternal>
1.7004

> <Gold.Chemscore.Rot>
3.1901

> <Gold.Chemscore.Internal.Correction>
   9.000000E+99

> <Gold.Chemscore.Hbonds>
donor molecule, donor type, donor heavy atom, donor atom, acceptor molecule, acceptor atom, score
      L1  H     1    20       P1  8028  0.18
      L1  H    19    31       P1  7949  0.77
      P1  H  6896  6907       L1    15  0.67
      P1  H  7997  8009       L1    12  0.27
      P1  H 10752 10764       L1    19  0.24

> <Gold.Chemscore.Hbond.Weighted>
-10.1860

> <Gold.Chemscore.Metal.Weighted>
-0.0000

> <Gold.Chemscore.Lipo.Weighted>
-3.1924

> <Gold.Chemscore.Internal_Hbond.Weighted>
0.0000

> <Gold.Chemscore.DEClash.Weighted>
2.1063

> <Gold.Chemscore.DEInternal.Weighted>
1.7004

> <Gold.Chemscore.Rot.Weighted>
8.1667

> <Gold.Chemscore.Internal.Correction.Weighted>
   9.000000E+99

> <Gold.Protein.RotatedTorsions>
[ 6907 6896 6895 6894 ] final   15.53 input  -60.11 | X-H torsion
[ 7974 7965 7964 7962 ] final  153.51 input  175.53 | X-H torsion
[ 8008 7997 7996 7995 ] final -175.93 input   59.86 | X-H torsion
[ 10167 10162 10161 10158 ] final -101.90 input  -65.29 | X-H torsion
[ 10718 10713 10712 10709 ] final  -23.33 input   66.30 | X-H torsion
[ 10763 10752 10751 10750 ] final  -97.14 input  -60.55 | X-H torsion
[ 11005 11000 10999 10996 ] final   99.67 input  -57.11 | X-H torsion

> <Gold.Protein.ActiveResidues>
 VAL166  LYS551  ARG553  GLY616  TRP617  ASP618  TYR619  PRO620  LYS621  CYS622 
 ASP623  PHE694  ASN695  SER759  ASP760  ASP761  ALA762  ILE779  LEU786  VAL792 
 PHE793  MET794  SER795  GLU796  ALA797  LYS798  CYS799  TRP800  GLU811  SER814 

> <Gold.Protein.RotatedAtoms>
  151.8196  135.0656  160.0423 H   0  0  0  0  0  0  0  0  0  0  0  0  # atno 6907 bound_to 6896
  152.2961  133.5604  159.5596 H   0  0  0  0  0  0  0  0  0  0  0  0  # atno 6908 bound_to 6896
  150.7252  134.0275  159.3764 H   0  0  0  0  0  0  0  0  0  0  0  0  # atno 6909 bound_to 6896
  144.8150  139.6810  143.6125 H   0  0  0  0  0  0  0  0  0  0  0  0  # atno 7974 bound_to 7965
  155.9886  140.1196  157.0660 H   0  0  0  0  0  0  0  0  0  0  0  0  # atno 8008 bound_to 7997
  154.4204  140.1130  156.5602 H   0  0  0  0  0  0  0  0  0  0  0  0  # atno 8009 bound_to 7997
  155.6374  140.3473  155.4705 H   0  0  0  0  0  0  0  0  0  0  0  0  # atno 8010 bound_to 7997
  140.2364  143.3570  152.0841 H   0  0  0  0  0  0  0  0  0  0  0  0  # atno 10167 bound_to 10162
  156.4925  130.4570  149.6747 H   0  0  0  0  0  0  0  0  0  0  0  0  # atno 10718 bound_to 10713
  154.7302  135.5057  153.8951 H   0  0  0  0  0  0  0  0  0  0  0  0  # atno 10763 bound_to 10752
  153.0942  135.6667  153.9803 H   0  0  0  0  0  0  0  0  0  0  0  0  # atno 10764 bound_to 10752
  153.9606  135.3048  155.3413 H   0  0  0  0  0  0  0  0  0  0  0  0  # atno 10765 bound_to 10752
  139.8770  134.9106  156.4641 H   0  0  0  0  0  0  0  0  0  0  0  0  # atno 11005 bound_to 11000
  146.2452  139.6083  142.9464 LP  0  0  0  0  0  0  0  0  0  0  0  0  # atno 17320 bound_to 7965
  145.5236  141.0430  143.2421 LP  0  0  0  0  0  0  0  0  0  0  0  0  # atno 17321 bound_to 7965
  139.5092  144.6863  151.5877 LP  0  0  0  0  0  0  0  0  0  0  0  0  # atno 17342 bound_to 10162
  140.6147  143.9371  150.6479 LP  0  0  0  0  0  0  0  0  0  0  0  0  # atno 17343 bound_to 10162
  156.3412  130.7383  151.2328 LP  0  0  0  0  0  0  0  0  0  0  0  0  # atno 17370 bound_to 10713
  157.7472  131.0403  150.4592 LP  0  0  0  0  0  0  0  0  0  0  0  0  # atno 17371 bound_to 10713
  140.8843  133.7895  155.9501 LP  0  0  0  0  0  0  0  0  0  0  0  0  # atno 17394 bound_to 11000
  140.8821  134.2598  157.5138 LP  0  0  0  0  0  0  0  0  0  0  0  0  # atno 17395 bound_to 11000

$$$$
