AV-unprocessed.smi:1761|AV-procd|sdf|7098|dock2
  -GOLD-   22720 8313D 1   1.00000     0.00000
 Structure written by MMmdl.
 34 35  0  0  0  0  0  0  0  0  1 V2000
  149.9781  140.9304  158.0489 O   0  0  0  0  0  0  0  0  0  0  0  0
  149.8083  141.9079  157.3196 C   0  0  0  0  0  0  0  0  0  0  0  0
  150.1986  143.1637  157.5999 N   0  0  0  0  0  0  0  0  0  0  0  0
  150.8504  143.6410  158.7682 C   0  0  0  0  0  0  0  0  0  0  0  0
  151.1351  145.0254  158.7701 C   0  0  0  0  0  0  0  0  0  0  0  0
  151.7777  145.5992  159.8841 C   0  0  0  0  0  0  0  0  0  0  0  0
  152.1188  144.7727  160.9696 C   0  0  0  0  0  0  0  0  0  0  0  0
  151.7997  143.4048  160.8877 C   0  0  0  0  0  0  0  0  0  0  0  0
  151.1842  142.8529  159.8209 N   0  0  0  0  0  0  0  0  0  0  0  0
  149.2037  141.8461  156.1242 N   0  0  0  0  0  0  0  0  0  0  0  0
  148.6674  140.6355  155.5050 C   0  0  1  0  0  0  0  0  0  0  0  0
  147.5215  140.1146  156.3972 C   0  0  0  0  0  0  0  0  0  0  0  0
  146.7870  138.9249  155.7629 C   0  0  0  0  0  0  0  0  0  0  0  0
  146.2570  139.2880  154.3696 C   0  0  0  0  0  0  0  0  0  0  0  0
  147.4003  139.7600  153.4612 C   0  0  0  0  0  0  0  0  0  0  0  0
  148.1643  140.9493  154.0749 C   0  0  2  0  0  0  0  0  0  0  0  0
  149.2617  141.2286  153.2286 O   0  0  0  0  0  0  0  0  0  0  0  0
  150.0031  143.8608  156.8969 H   0  0  0  0  0  0  0  0  0  0  0  0
  150.8654  145.6459  157.9276 H   0  0  0  0  0  0  0  0  0  0  0  0
  152.0044  146.6549  159.9038 H   0  0  0  0  0  0  0  0  0  0  0  0
  152.6117  145.1762  161.8416 H   0  0  0  0  0  0  0  0  0  0  0  0
  152.0444  142.7359  161.6995 H   0  0  0  0  0  0  0  0  0  0  0  0
  149.1140  142.7006  155.5944 H   0  0  0  0  0  0  0  0  0  0  0  0
  149.4289  139.8547  155.4523 H   0  0  0  0  0  0  0  0  0  0  0  0
  147.9126  139.8249  157.3733 H   0  0  0  0  0  0  0  0  0  0  0  0
  146.8034  140.9154  156.5809 H   0  0  0  0  0  0  0  0  0  0  0  0
  147.4635  138.0724  155.6901 H   0  0  0  0  0  0  0  0  0  0  0  0
  145.9627  138.6121  156.4044 H   0  0  0  0  0  0  0  0  0  0  0  0
  145.7589  138.4266  153.9239 H   0  0  0  0  0  0  0  0  0  0  0  0
  145.5051  140.0735  154.4535 H   0  0  0  0  0  0  0  0  0  0  0  0
  148.0854  138.9277  153.2921 H   0  0  0  0  0  0  0  0  0  0  0  0
  147.0031  140.0354  152.4835 H   0  0  0  0  0  0  0  0  0  0  0  0
  147.5100  141.8223  154.0947 H   0  0  0  0  0  0  0  0  0  0  0  0
  149.3933  140.4905  152.6531 H   0  0  0  0  0  0  0  0  0  0  0  0
  1  2  2  0  0  0  0
  2  3  1  0  0  0  0
  2 10  1  0  0  0  0
  3  4  1  0  0  0  0
  3 18  1  0  0  0  0
  4  9  1  0  0  0  0
  4  5  2  0  0  0  0
  5  6  1  0  0  0  0
  5 19  1  0  0  0  0
  6  7  2  0  0  0  0
  6 20  1  0  0  0  0
  7  8  1  0  0  0  0
  7 21  1  0  0  0  0
  8  9  2  0  0  0  0
  8 22  1  0  0  0  0
 10 11  1  0  0  0  0
 10 23  1  0  0  0  0
 11 16  1  0  0  0  0
 11 12  1  0  0  0  0
 11 24  1  0  0  0  0
 12 13  1  0  0  0  0
 12 25  1  0  0  0  0
 12 26  1  0  0  0  0
 13 14  1  0  0  0  0
 13 27  1  0  0  0  0
 13 28  1  0  0  0  0
 14 15  1  0  0  0  0
 14 29  1  0  0  0  0
 14 30  1  0  0  0  0
 15 16  1  0  0  0  0
 15 31  1  0  0  0  0
 15 32  1  0  0  0  0
 16 17  1  0  0  0  0
 16 33  1  0  0  0  0
 17 34  1  0  0  0  0
M  END
> <s_m_source_file>
AV-unprocessed.smi

> <i_m_source_file_index>
1761

> <i_lp_mmshare_version>
43012

> <i_f3d_flags>
0

> <s_epik_input>
bjFbY0hdW2NIXVtjSF1bY0hdYzFbTkhdQyg9TylbTkhdW0NAQEhdMltDSDJdW0NIMl1bQ0gyXVtDSDJdW0NASF0yW09IXQ==

> <s_epik_cmdline>
J2VwaWtfcHl0aG9uJywgJy1waCcsICc3LjAnLCAnLXRuJywgJzgnLCAnLW1hJywgJzIwMCcsICctbWV0YWxfYmluZGluZycsICctaW1hZScsICc8aW5maWxlLm1hZT4nLCAnLW9tYWUnLCAnPG91dGZpbGUubWFlPic=

> <r_lp_tautomer_probability>
1

> <r_epik_Ionization_Penalty>
4.92589e-05

> <r_epik_Ionization_Penalty_Charging>
0

> <r_epik_Ionization_Penalty_Neutral>
4.92589e-05

> <r_epik_State_Penalty>
-0

> <r_epik_Charging_Adjusted_Penalty>
0

> <i_epik_Tot_Q>
0

> <i_epik_Tot_abs_Q>
0

> <r_epik_Metal_State_Penalty>
-0

> <b_epik_Metal_Only>
0

> <s_lp_Force_Field>
OPLS_2005

> <r_lp_Energy>
12.6575

> <b_lp_Chiralities_Consistent>
1

> <s_lp_Variant>
AV-unprocessed.smi:1761-4

> <Gold.Version>
5.8.1

> <Gold.Id.Protein>
6NUR|6NUR_protein|mol2

> <Gold.PLP.Fitness>
43.2489

> <Gold.PLP.PLP>
-31.5816

> <Gold.PLP.part.hbond>
-5.0133

> <Gold.PLP.part.metal>
0.0000

> <Gold.PLP.part.buried>
-4.9982

> <Gold.PLP.part.nonpolar>
-21.6240

> <Gold.PLP.part.repulsive>
0.1134

> <Gold.PLP.ligand.clash>
0.0000

> <Gold.PLP.ligand.torsion>
0.0199

> <Gold.PLP.Chemscore.Hbond>
3.9020

> <Gold.PLP.Chemscore.CHOScore>
0.0000

> <Gold.PLP.Chemscore.Metal>
0.0000

> <Gold.Chemscore.Hbonds>
donor molecule, donor type, donor heavy atom, donor atom, acceptor molecule, acceptor atom, score
      L1  H     3    18       P1  8028  1.00
      L1  H    10    23       P1  8028  0.94
      L1  H    17    34       P1  7957  0.88
      P1  H  8011  8017       L1    17  1.00

> <Gold.PLP.Chemscore.Internal.Correction>
0.0011

> <Gold.Rescore>
     Score         DG    S(hbond)    S(metal)    S(lipo)     H(rot)  DE(clash)    DE(int)     intcor
     17.07     -19.48       2.90        0.00      69.01       1.47       0.24       2.17       ----

> <Gold.Chemscore.Fitness>
17.0699

> <Gold.Chemscore.DG>
-19.4761

> <Gold.Chemscore.ZeroCoef>
-5.4800

> <Gold.Chemscore.Hbond>
2.8961

> <Gold.Chemscore.Metal>
0.0000

> <Gold.Chemscore.Lipo>
69.0095

> <Gold.Chemscore.Internal_Hbond>
0.0000

> <Gold.Chemscore.DEClash>
0.2405

> <Gold.Chemscore.DEInternal>
2.1656

> <Gold.Chemscore.Rot>
1.4653

> <Gold.Chemscore.Internal.Correction>
   9.000000E+99

> <Gold.Chemscore.Hbonds>
donor molecule, donor type, donor heavy atom, donor atom, acceptor molecule, acceptor atom, score
      L1  H     3    18       P1  8028  0.96
      L1  H    10    23       P1  8028  0.85
      L1  H    17    34       P1  7957  0.84
      P1  H  8011  8017       L1    17  0.29

> <Gold.Chemscore.Hbond.Weighted>
-9.6731

> <Gold.Chemscore.Metal.Weighted>
-0.0000

> <Gold.Chemscore.Lipo.Weighted>
-8.0741

> <Gold.Chemscore.Internal_Hbond.Weighted>
0.0000

> <Gold.Chemscore.DEClash.Weighted>
0.2405

> <Gold.Chemscore.DEInternal.Weighted>
2.1656

> <Gold.Chemscore.Rot.Weighted>
3.7511

> <Gold.Chemscore.Internal.Correction.Weighted>
   9.000000E+99

> <Gold.Protein.RotatedTorsions>
[ 6907 6896 6895 6894 ] final  118.14 input  -60.11 | X-H torsion
[ 7974 7965 7964 7962 ] final  125.74 input  175.53 | X-H torsion
[ 8008 7997 7996 7995 ] final  179.98 input   59.86 | X-H torsion
[ 10167 10162 10161 10158 ] final  -29.71 input  -65.29 | X-H torsion
[ 10718 10713 10712 10709 ] final  -44.07 input   66.30 | X-H torsion
[ 10763 10752 10751 10750 ] final  -48.40 input  -60.55 | X-H torsion
[ 11005 11000 10999 10996 ] final  123.45 input  -57.11 | X-H torsion

> <Gold.Protein.ActiveResidues>
 VAL166  LYS551  ARG553  GLY616  TRP617  ASP618  TYR619  PRO620  LYS621  CYS622 
 ASP623  PHE694  ASN695  SER759  ASP760  ASP761  ALA762  ILE779  LEU786  VAL792 
 PHE793  MET794  SER795  GLU796  ALA797  LYS798  CYS799  TRP800  GLU811  SER814 

> <Gold.Protein.RotatedAtoms>
  152.4564  133.7731  159.6809 H   0  0  0  0  0  0  0  0  0  0  0  0  # atno 6907 bound_to 6896
  150.8491  133.7804  159.3038 H   0  0  0  0  0  0  0  0  0  0  0  0  # atno 6908 bound_to 6896
  151.5405  135.1071  159.9977 H   0  0  0  0  0  0  0  0  0  0  0  0  # atno 6909 bound_to 6896
  145.0695  139.3741  143.4965 H   0  0  0  0  0  0  0  0  0  0  0  0  # atno 7974 bound_to 7965
  156.0372  140.1295  157.0195 H   0  0  0  0  0  0  0  0  0  0  0  0  # atno 8008 bound_to 7997
  154.4375  140.1037  156.6255 H   0  0  0  0  0  0  0  0  0  0  0  0  # atno 8009 bound_to 7997
  155.5720  140.3466  155.4520 H   0  0  0  0  0  0  0  0  0  0  0  0  # atno 8010 bound_to 7997
  140.7257  143.3907  151.1435 H   0  0  0  0  0  0  0  0  0  0  0  0  # atno 10167 bound_to 10162
  156.2424  130.4181  149.8745 H   0  0  0  0  0  0  0  0  0  0  0  0  # atno 10718 bound_to 10713
  154.0771  135.6596  153.4832 H   0  0  0  0  0  0  0  0  0  0  0  0  # atno 10763 bound_to 10752
  153.0369  135.5171  154.7510 H   0  0  0  0  0  0  0  0  0  0  0  0  # atno 10764 bound_to 10752
  154.6594  135.3012  154.9854 H   0  0  0  0  0  0  0  0  0  0  0  0  # atno 10765 bound_to 10752
  139.9313  134.9641  156.8261 H   0  0  0  0  0  0  0  0  0  0  0  0  # atno 11005 bound_to 11000
  146.3528  140.0433  142.8641 LP  0  0  0  0  0  0  0  0  0  0  0  0  # atno 17320 bound_to 7965
  145.1309  140.9517  143.4545 LP  0  0  0  0  0  0  0  0  0  0  0  0  # atno 17321 bound_to 7965
  139.7511  143.8777  152.3077 LP  0  0  0  0  0  0  0  0  0  0  0  0  # atno 17342 bound_to 10162
  139.8631  144.7107  150.9076 LP  0  0  0  0  0  0  0  0  0  0  0  0  # atno 17343 bound_to 10162
  156.6322  130.8670  151.3497 LP  0  0  0  0  0  0  0  0  0  0  0  0  # atno 17370 bound_to 10713
  157.7181  130.9522  150.1330 LP  0  0  0  0  0  0  0  0  0  0  0  0  # atno 17371 bound_to 10713
  140.6194  134.0008  155.7612 LP  0  0  0  0  0  0  0  0  0  0  0  0  # atno 17394 bound_to 11000
  141.0903  133.9927  157.3248 LP  0  0  0  0  0  0  0  0  0  0  0  0  # atno 17395 bound_to 11000

$$$$
