#       Name:                AV-unprocessed.smi:1218
#       Creating user name   scv26
#       Creation time:       Fri Mar 27 04:16:24 2020


#       File generated by GOLD software.
#

@<TRIPOS>MOLECULE
AV-unprocessed.smi:1218
    50    51     1
SMALL
NO_CHARGES


@<TRIPOS>ATOM
      1 ****        -3.4166   2.1820   1.6611 C.3            1 S1                 0.0000
      2 ****        -3.9202   1.8460   0.2472 C.3            1 S1                 0.0000
      3 ****        -5.4522   1.9391   0.1876 C.3            1 S1                 0.0000
      4 ****        -3.4439   0.4527  -0.2183 C.3            1 S1                 0.0000
      5 ****        -1.9666   0.3471  -0.3339 N.4            1 S1                 1.0000
      6 ****        -1.4122   1.0270  -1.5308 C.3            1 S1                 0.0000
      7 ****         0.1196   0.9002  -1.5589 C.3            1 S1                 0.0000
      8 ****         0.4827  -0.4733  -1.5207 O.3            1 S1                 0.0000
      9 ****         0.0447  -1.1133  -0.3261 C.3            1 S1                 0.0000
     10 ****         0.5722  -2.5589  -0.3311 C.3            1 S1                 0.0000
     11 ****         2.0296  -2.5930  -0.3007 N.am           1 S1                 0.0000
     12 ****         2.7809  -2.3970   0.7935 C.2            1 S1                 0.0000
     13 ****         2.3097  -2.2136   1.9159 O.2            1 S1                 0.0000
     14 ****         4.2951  -2.3789   0.5864 C.3            1 S1                 0.0000
     15 ****         4.7697  -1.0213   0.3897 N.pl3          1 S1                 0.0000
     16 ****         5.2091  -0.1216   1.3388 C.2            1 S1                 0.0000
     17 ****         5.5433   1.0289   0.6836 C.2            1 S1                 0.0000
     18 ****         5.2687   0.7333  -0.6810 C.2            1 S1                 0.0000
     19 ****         4.8033  -0.4933  -0.8540 N.2            1 S1                 0.0000
     20 ****        -1.4940  -1.0568  -0.2737 C.3            1 S1                 0.0000
     21 ****        -3.7766   1.4583   2.3933 H              1 S1                 0.0000
     22 ****        -3.7597   3.1685   1.9746 H              1 S1                 0.0000
     23 ****        -2.3275   2.1888   1.7071 H              1 S1                 0.0000
     24 ****        -3.5357   2.6038  -0.4347 H              1 S1                 0.0000
     25 ****        -5.9209   1.2127   0.8525 H              1 S1                 0.0000
     26 ****        -5.8183   1.7510  -0.8222 H              1 S1                 0.0000
     27 ****        -5.7984   2.9308   0.4809 H              1 S1                 0.0000
     28 ****        -3.8046  -0.2877   0.4977 H              1 S1                 0.0000
     29 ****        -3.8957   0.1919  -1.1767 H              1 S1                 0.0000
     30 ****        -1.8375   0.5847  -2.4331 H              1 S1                 0.0000
     31 ****        -1.6826   2.0821  -1.5342 H              1 S1                 0.0000
     32 ****         0.5166   1.3449  -2.4715 H              1 S1                 0.0000
     33 ****         0.5728   1.4335  -0.7214 H              1 S1                 0.0000
     34 ****         0.4511  -0.5848   0.5384 H              1 S1                 0.0000
     35 ****         0.1737  -3.1139   0.5197 H              1 S1                 0.0000
     36 ****         0.2332  -3.0802  -1.2268 H              1 S1                 0.0000
     37 ****         2.5028  -2.7318  -1.1823 H              1 S1                 0.0000
     38 ****         4.7923  -2.8044   1.4590 H              1 S1                 0.0000
     39 ****         4.5756  -2.9902  -0.2733 H              1 S1                 0.0000
     40 ****         5.2456  -0.3724   2.3888 H              1 S1                 0.0000
     41 ****         5.9259   1.9426   1.1137 H              1 S1                 0.0000
     42 ****         5.3920   1.3699  -1.5447 H              1 S1                 0.0000
     43 ****        -1.8449  -1.5220   0.6486 H              1 S1                 0.0000
     44 ****        -1.9228  -1.6224  -1.1027 H              1 S1                 0.0000
     45 ****        -1.5804   0.8097   0.4769 H              1 S1                 0.0000
     46 ****         1.4785  -0.5447  -1.5777 LP             1 S1                 0.0000
     47 ****         0.0699  -0.9373  -2.3045 LP             1 S1                 0.0000
     48 ****         1.3184  -2.2055   2.0467 LP             1 S1                 0.0000
     49 ****         2.9183  -2.0727   2.6967 LP             1 S1                 0.0000
     50 ****         4.5364  -0.9313  -1.7125 LP             1 S1                 0.0000
@<TRIPOS>BOND
    1    1    2 1     
    2    1   21 1     
    3    1   22 1     
    4    1   23 1     
    5    2    3 1     
    6    2    4 1     
    7    2   24 1     
    8    3   25 1     
    9    3   26 1     
   10    3   27 1     
   11    4    5 1     
   12    4   28 1     
   13    4   29 1     
   14    5   20 1     
   15    5    6 1     
   16    5   45 1     
   17    6    7 1     
   18    6   30 1     
   19    6   31 1     
   20    7    8 1     
   21    7   32 1     
   22    7   33 1     
   23    8    9 1     
   24    9   10 1     
   25    9   20 1     
   26    9   34 1     
   27   10   11 1     
   28   10   35 1     
   29   10   36 1     
   30   11   12 am    
   31   11   37 1     
   32   12   13 2     
   33   12   14 1     
   34   14   15 1     
   35   14   38 1     
   36   14   39 1     
   37   15   19 1     
   38   15   16 1     
   39   16   17 2     
   40   16   40 1     
   41   17   18 1     
   42   17   41 1     
   43   18   19 2     
   44   18   42 1     
   45   20   43 1     
   46   20   44 1     
   47    8   46 1     
   48    8   47 1     
   49   13   48 1     
   50   13   49 1     
   51   19   50 1     
@<TRIPOS>SUBSTRUCTURE
      1 S1             1
@<TRIPOS>SET
LONE_PAIRS      STATIC     ATOMS    <user>   **** ""
5 46 47 48 49 50
DONOR_HYDROGENS      STATIC     ATOMS    <user>   **** ""
2 45 37
ATOM$BLUE        STATIC     ATOMS    COLORGROUP SYSTEM
5 46 47 48 49 50
ATOM$RED        STATIC     ATOMS    COLORGROUP SYSTEM
2 45 37
