AV-unprocessed.smi:1795|AV-procd|sdf|7244|dock2
  -GOLD-   22720 8493D 1   1.00000     0.00000
 Structure written by MMmdl.
 48 49  0  0  0  0  0  0  0  0  2 V2000
  149.1950  141.5356  154.7782 C   0  0  0  0  0  0  0  0  0  0  0  0
  149.6203  140.0835  155.0220 C   0  0  1  0  0  0  0  0  0  0  0  0
  148.9508  139.1097  154.0253 C   0  0  0  0  0  0  0  0  0  0  0  0
  149.4501  137.7168  154.1947 N   0  3  2  0  0  0  0  0  0  0  0  0
  148.8614  136.9871  155.3681 C   0  0  2  0  0  0  0  0  0  0  0  0
  149.2642  137.5981  156.7328 C   0  0  0  0  0  0  0  0  0  0  0  0
  149.2530  135.4845  155.3264 C   0  0  0  0  0  0  0  0  0  0  0  0
  148.8899  134.8403  154.0691 N   0  0  0  0  0  0  0  0  0  0  0  0
  148.2818  133.6483  153.9629 C   0  0  0  0  0  0  0  0  0  0  0  0
  147.9302  132.9820  154.9361 O   0  0  0  0  0  0  0  0  0  0  0  0
  148.0562  133.1120  152.5453 C   0  0  0  0  0  0  0  0  0  0  0  0
  146.6437  133.2025  152.1413 N   0  0  0  0  0  0  0  0  0  0  0  0
  146.1012  134.4977  152.0239 C   0  0  0  0  0  0  0  0  0  0  0  0
  144.8230  134.7040  151.6693 C   0  0  0  0  0  0  0  0  0  0  0  0
  143.9953  133.5522  151.4005 C   0  0  0  0  0  0  0  0  0  0  0  0
  144.5015  132.3086  151.5163 C   0  0  0  0  0  0  0  0  0  0  0  0
  145.8950  132.0787  151.9143 C   0  0  0  0  0  0  0  0  0  0  0  0
  146.3577  130.9451  152.0439 O   0  0  0  0  0  0  0  0  0  0  0  0
  150.9348  137.7352  154.0913 C   0  0  0  0  0  0  0  0  0  0  0  0
  151.5520  138.7046  155.1199 C   0  0  1  0  0  0  0  0  0  0  0  0
  153.0789  138.7709  155.0066 C   0  0  0  0  0  0  0  0  0  0  0  0
  151.0350  140.0088  154.8781 O   0  0  0  0  0  0  0  0  0  0  0  0
  148.1164  141.6525  154.8867 H   0  0  0  0  0  0  0  0  0  0  0  0
  149.4685  141.8653  153.7756 H   0  0  0  0  0  0  0  0  0  0  0  0
  149.6745  142.2067  155.4915 H   0  0  0  0  0  0  0  0  0  0  0  0
  149.3530  139.8240  156.0467 H   0  0  0  0  0  0  0  0  0  0  0  0
  147.8682  139.1717  154.1079 H   0  0  0  0  0  0  0  0  0  0  0  0
  149.1823  139.4257  153.0071 H   0  0  0  0  0  0  0  0  0  0  0  0
  147.7769  137.0645  155.3052 H   0  0  0  0  0  0  0  0  0  0  0  0
  148.8659  137.0231  157.5687 H   0  0  0  0  0  0  0  0  0  0  0  0
  148.8717  138.6062  156.8627 H   0  0  0  0  0  0  0  0  0  0  0  0
  150.3478  137.6338  156.8492 H   0  0  0  0  0  0  0  0  0  0  0  0
  150.3192  135.3264  155.4804 H   0  0  0  0  0  0  0  0  0  0  0  0
  148.7499  134.9506  156.1332 H   0  0  0  0  0  0  0  0  0  0  0  0
  149.1419  135.3215  153.2169 H   0  0  0  0  0  0  0  0  0  0  0  0
  148.6790  133.6740  151.8474 H   0  0  0  0  0  0  0  0  0  0  0  0
  148.4244  132.0862  152.4879 H   0  0  0  0  0  0  0  0  0  0  0  0
  146.7861  135.3033  152.2470 H   0  0  0  0  0  0  0  0  0  0  0  0
  144.4237  135.7045  151.5889 H   0  0  0  0  0  0  0  0  0  0  0  0
  142.9658  133.6882  151.1037 H   0  0  0  0  0  0  0  0  0  0  0  0
  143.8675  131.4588  151.3098 H   0  0  0  0  0  0  0  0  0  0  0  0
  151.3694  136.7394  154.1631 H   0  0  0  0  0  0  0  0  0  0  0  0
  151.1945  138.0757  153.0877 H   0  0  0  0  0  0  0  0  0  0  0  0
  151.2949  138.3951  156.1342 H   0  0  0  0  0  0  0  0  0  0  0  0
  153.5288  137.7950  155.1914 H   0  0  0  0  0  0  0  0  0  0  0  0
  153.4935  139.4698  155.7334 H   0  0  0  0  0  0  0  0  0  0  0  0
  153.3883  139.1003  154.0144 H   0  0  0  0  0  0  0  0  0  0  0  0
  149.1339  137.1995  153.3869 H   0  0  0  0  0  0  0  0  0  0  0  0
  1  2  1  0  0  0  0
  1 23  1  0  0  0  0
  1 24  1  0  0  0  0
  1 25  1  0  0  0  0
  2 22  1  0  0  0  0
  2  3  1  0  0  0  0
  2 26  1  0  0  0  0
  3  4  1  0  0  0  0
  3 27  1  0  0  0  0
  3 28  1  0  0  0  0
  4  5  1  0  0  0  0
  4 19  1  0  0  0  0
  4 48  1  0  0  0  0
  5  6  1  0  0  0  0
  5  7  1  0  0  0  0
  5 29  1  0  0  0  0
  6 30  1  0  0  0  0
  6 31  1  0  0  0  0
  6 32  1  0  0  0  0
  7  8  1  0  0  0  0
  7 33  1  0  0  0  0
  7 34  1  0  0  0  0
  8  9  1  0  0  0  0
  8 35  1  0  0  0  0
  9 10  2  0  0  0  0
  9 11  1  0  0  0  0
 11 12  1  0  0  0  0
 11 36  1  0  0  0  0
 11 37  1  0  0  0  0
 12 17  1  0  0  0  0
 12 13  1  0  0  0  0
 13 14  2  0  0  0  0
 13 38  1  0  0  0  0
 14 15  1  0  0  0  0
 14 39  1  0  0  0  0
 15 16  2  0  0  0  0
 15 40  1  0  0  0  0
 16 17  1  0  0  0  0
 16 41  1  0  0  0  0
 17 18  2  0  0  0  0
 19 20  1  0  0  0  0
 19 42  1  0  0  0  0
 19 43  1  0  0  0  0
 20 21  1  0  0  0  0
 20 22  1  0  0  0  0
 20 44  1  0  0  0  0
 21 45  1  0  0  0  0
 21 46  1  0  0  0  0
 21 47  1  0  0  0  0
M  CHG  1   4   1
M  END
> <s_m_source_file>
AV-unprocessed.smi

> <i_m_source_file_index>
1795

> <i_lp_mmshare_version>
43012

> <i_f3d_flags>
0

> <s_epik_input>
W0NIM11bQ0BASF0xW0NIMl1OKFtDSDJdW0NASF0oTzEpW0NIM10pW0NASF0oW0NIM10pW0NIMl1bTkhdQyg9TylbQ0gyXW4yW2NIXVtjSF1bY0hdW2NIXWMyPU8=

> <s_epik_cmdline>
J2VwaWtfcHl0aG9uJywgJy1waCcsICc3LjAnLCAnLXRuJywgJzgnLCAnLW1hJywgJzIwMCcsICctbWV0YWxfYmluZGluZycsICctaW1hZScsICc8aW5maWxlLm1hZT4nLCAnLW9tYWUnLCAnPG91dGZpbGUubWFlPic=

> <r_lp_tautomer_probability>
1

> <r_epik_Ionization_Penalty>
0.656654

> <r_epik_Ionization_Penalty_Charging>
0.656654

> <r_epik_Ionization_Penalty_Neutral>
8.90321e-08

> <r_epik_State_Penalty>
0.675641

> <r_epik_Charging_Adjusted_Penalty>
1.33229

> <i_epik_Tot_Q>
1

> <i_epik_Tot_abs_Q>
1

> <r_epik_Metal_State_Penalty>
0.675691

> <b_epik_Metal_Only>
0

> <s_lp_Force_Field>
OPLS_2005

> <r_lp_Energy>
32.228

> <b_lp_Chiralities_Consistent>
1

> <s_lp_Variant>
AV-unprocessed.smi:1795-8

> <Gold.Version>
5.8.1

> <Gold.Id.Protein>
6NUR|6NUR_protein|mol2

> <Gold.PLP.Fitness>
52.4178

> <Gold.PLP.PLP>
-37.9590

> <Gold.PLP.part.hbond>
-3.0000

> <Gold.PLP.part.metal>
0.0000

> <Gold.PLP.part.buried>
-2.4814

> <Gold.PLP.part.nonpolar>
-33.1280

> <Gold.PLP.part.repulsive>
0.2363

> <Gold.PLP.ligand.clash>
0.0000

> <Gold.PLP.ligand.torsion>
0.3193

> <Gold.PLP.Chemscore.Hbond>
4.0000

> <Gold.PLP.Chemscore.CHOScore>
1.0000

> <Gold.PLP.Chemscore.Metal>
0.0000

> <Gold.Chemscore.Hbonds>
donor molecule, donor type, donor heavy atom, donor atom, acceptor molecule, acceptor atom, score
      L1  H     4    48       P1  7948  2.00
      L1  H     8    35       P1  7948  1.00
      P1  H  7989  7998       L1    22  1.00
      L1  C    13    38       P1  7948  1.00

> <Gold.PLP.Chemscore.Internal.Correction>
0.0973

> <Gold.Rescore>
     Score         DG    S(hbond)    S(metal)    S(lipo)     H(rot)  DE(clash)    DE(int)     intcor
     15.21     -17.67       2.35        0.00      78.51       1.89       0.25       2.21       ----

> <Gold.Chemscore.Fitness>
15.2128

> <Gold.Chemscore.DG>
-17.6714

> <Gold.Chemscore.ZeroCoef>
-5.4800

> <Gold.Chemscore.Hbond>
2.3462

> <Gold.Chemscore.Metal>
0.0000

> <Gold.Chemscore.Lipo>
78.5120

> <Gold.Chemscore.Internal_Hbond>
0.0000

> <Gold.Chemscore.DEClash>
0.2527

> <Gold.Chemscore.DEInternal>
2.2060

> <Gold.Chemscore.Rot>
1.8870

> <Gold.Chemscore.Internal.Correction>
   9.000000E+99

> <Gold.Chemscore.Hbonds>
donor molecule, donor type, donor heavy atom, donor atom, acceptor molecule, acceptor atom, score
      L1  H     4    48       P1  7948  1.00
      L1  H     8    35       P1  7948  0.25
      P1  H  7989  7998       L1    22  0.84

> <Gold.Chemscore.Hbond.Weighted>
-7.8363

> <Gold.Chemscore.Metal.Weighted>
-0.0000

> <Gold.Chemscore.Lipo.Weighted>
-9.1859

> <Gold.Chemscore.Internal_Hbond.Weighted>
0.0000

> <Gold.Chemscore.DEClash.Weighted>
0.2527

> <Gold.Chemscore.DEInternal.Weighted>
2.2060

> <Gold.Chemscore.Rot.Weighted>
4.8308

> <Gold.Chemscore.Internal.Correction.Weighted>
   9.000000E+99

> <Gold.Protein.RotatedTorsions>
[ 6907 6896 6895 6894 ] final  135.64 input  -60.11 | X-H torsion
[ 7974 7965 7964 7962 ] final   99.96 input  175.53 | X-H torsion
[ 8008 7997 7996 7995 ] final  111.39 input   59.86 | X-H torsion
[ 10167 10162 10161 10158 ] final  147.89 input  -65.29 | X-H torsion
[ 10718 10713 10712 10709 ] final   90.17 input   66.30 | X-H torsion
[ 10763 10752 10751 10750 ] final  141.93 input  -60.55 | X-H torsion
[ 11005 11000 10999 10996 ] final    0.75 input  -57.11 | X-H torsion

> <Gold.Protein.ActiveResidues>
 VAL166  LYS551  ARG553  GLY616  TRP617  ASP618  TYR619  PRO620  LYS621  CYS622 
 ASP623  PHE694  ASN695  SER759  ASP760  ASP761  ALA762  ILE779  LEU786  VAL792 
 PHE793  MET794  SER795  GLU796  ALA797  LYS798  CYS799  TRP800  GLU811  SER814 

> <Gold.Protein.RotatedAtoms>
  152.2982  133.5629  159.5601 H   0  0  0  0  0  0  0  0  0  0  0  0  # atno 6907 bound_to 6896
  150.7265  134.0330  159.3748 H   0  0  0  0  0  0  0  0  0  0  0  0  # atno 6908 bound_to 6896
  151.8231  135.0645  160.0478 H   0  0  0  0  0  0  0  0  0  0  0  0  # atno 6909 bound_to 6896
  145.3919  139.2361  143.3347 H   0  0  0  0  0  0  0  0  0  0  0  0  # atno 7974 bound_to 7965
  156.2120  140.3020  155.9754 H   0  0  0  0  0  0  0  0  0  0  0  0  # atno 8008 bound_to 7997
  155.2699  140.0433  157.3023 H   0  0  0  0  0  0  0  0  0  0  0  0  # atno 8009 bound_to 7997
  154.5713  140.2349  155.8195 H   0  0  0  0  0  0  0  0  0  0  0  0  # atno 8010 bound_to 7997
  139.4883  144.5721  151.7034 H   0  0  0  0  0  0  0  0  0  0  0  0  # atno 10167 bound_to 10162
  157.6958  131.0361  150.3537 H   0  0  0  0  0  0  0  0  0  0  0  0  # atno 10718 bound_to 10713
  153.9474  135.2973  155.3440 H   0  0  0  0  0  0  0  0  0  0  0  0  # atno 10763 bound_to 10752
  154.7445  135.5009  153.9183 H   0  0  0  0  0  0  0  0  0  0  0  0  # atno 10764 bound_to 10752
  153.1011  135.6734  153.9778 H   0  0  0  0  0  0  0  0  0  0  0  0  # atno 10765 bound_to 10752
  140.6231  133.9643  155.8235 H   0  0  0  0  0  0  0  0  0  0  0  0  # atno 11005 bound_to 11000
  146.2793  140.4603  142.8782 LP  0  0  0  0  0  0  0  0  0  0  0  0  # atno 17320 bound_to 7965
  144.8434  140.6892  143.6214 LP  0  0  0  0  0  0  0  0  0  0  0  0  # atno 17321 bound_to 7965
  140.5310  144.0729  150.6054 LP  0  0  0  0  0  0  0  0  0  0  0  0  # atno 17342 bound_to 10162
  140.3720  143.2849  152.0268 LP  0  0  0  0  0  0  0  0  0  0  0  0  # atno 17343 bound_to 10162
  156.3982  130.3911  149.6979 LP  0  0  0  0  0  0  0  0  0  0  0  0  # atno 17370 bound_to 10713
  156.4305  130.7813  151.2832 LP  0  0  0  0  0  0  0  0  0  0  0  0  # atno 17371 bound_to 10713
  141.0728  134.0179  157.3501 LP  0  0  0  0  0  0  0  0  0  0  0  0  # atno 17394 bound_to 11000
  139.9145  135.0195  156.7828 LP  0  0  0  0  0  0  0  0  0  0  0  0  # atno 17395 bound_to 11000

$$$$
