#       Name:                AV-unprocessed.smi:2610
#       Creating user name   scv26
#       Creation time:       Fri Mar 27 14:21:30 2020


#       File generated by GOLD software.
#

@<TRIPOS>MOLECULE
AV-unprocessed.smi:2610
    50    52     1
SMALL
NO_CHARGES


@<TRIPOS>ATOM
      1 ****        -4.0585   3.4977  -1.7120 C.3            1 S1                 0.0000
      2 ****        -3.5428   2.0559  -1.7720 C.3            1 S1                 0.0000
      3 ****        -2.0129   1.9743  -1.6772 C.3            1 S1                 0.0000
      4 ****        -1.4971   0.5283  -1.7089 C.3            1 S1                 0.0000
      5 ****        -0.0026   0.4515  -1.6045 C.2            1 S1                 0.0000
      6 ****         0.7705   0.5247  -2.6882 N.2            1 S1                 0.0000
      7 ****         2.0438   0.5015  -2.1570 C.ar           1 S1                 0.0000
      8 ****         3.3034   0.5572  -2.7952 C.ar           1 S1                 0.0000
      9 ****         4.4904   0.5404  -2.0345 C.ar           1 S1                 0.0000
     10 ****         4.4346   0.4711  -0.6278 C.ar           1 S1                 0.0000
     11 ****         3.1898   0.4120   0.0273 C.ar           1 S1                 0.0000
     12 ****         2.0062   0.4192  -0.7362 C.ar           1 S1                 0.0000
     13 ****         0.6510   0.3642  -0.4159 N.pl3          1 S1                 0.0000
     14 ****         0.0826   0.2738   0.9274 C.3            1 S1                 0.0000
     15 ****        -0.0967  -1.1732   1.4624 C.3            1 S1                 0.0000
     16 ****        -0.9307  -1.8844   0.5654 O.3            1 S1                 0.0000
     17 ****         1.2370  -1.9417   1.5833 C.3            1 S1                 0.0000
     18 ****         1.0671  -3.2901   2.3055 C.3            1 S1                 0.0000
     19 ****         0.4713  -3.0884   3.5811 O.3            1 S1                 0.0000
     20 ****        -0.8380  -2.5397   3.4956 C.3            1 S1                 0.0000
     21 ****        -0.7860  -1.1469   2.8420 C.3            1 S1                 0.0000
     22 ****        -5.1464   3.5238  -1.7766 H              1 S1                 0.0000
     23 ****        -3.6615   4.0928  -2.5349 H              1 S1                 0.0000
     24 ****        -3.7693   3.9810  -0.7783 H              1 S1                 0.0000
     25 ****        -3.9910   1.4811  -0.9608 H              1 S1                 0.0000
     26 ****        -3.8775   1.5923  -2.7007 H              1 S1                 0.0000
     27 ****        -1.5669   2.5382  -2.4976 H              1 S1                 0.0000
     28 ****        -1.6825   2.4561  -0.7561 H              1 S1                 0.0000
     29 ****        -1.9633  -0.0512  -0.9146 H              1 S1                 0.0000
     30 ****        -1.8020   0.0518  -2.6415 H              1 S1                 0.0000
     31 ****         3.3558   0.6176  -3.8722 H              1 S1                 0.0000
     32 ****         5.4480   0.5860  -2.5323 H              1 S1                 0.0000
     33 ****         5.3483   0.4642  -0.0515 H              1 S1                 0.0000
     34 ****         3.1481   0.3633   1.1047 H              1 S1                 0.0000
     35 ****         0.7302   0.8350   1.6021 H              1 S1                 0.0000
     36 ****        -0.8710   0.8020   0.9415 H              1 S1                 0.0000
     37 ****        -1.0425  -2.7638   0.8928 H              1 S1                 0.0000
     38 ****         1.6828  -2.1062   0.6019 H              1 S1                 0.0000
     39 ****         1.9476  -1.3407   2.1508 H              1 S1                 0.0000
     40 ****         0.4646  -3.9813   1.7143 H              1 S1                 0.0000
     41 ****         2.0401  -3.7616   2.4446 H              1 S1                 0.0000
     42 ****        -1.4915  -3.2127   2.9385 H              1 S1                 0.0000
     43 ****        -1.2507  -2.4626   4.5016 H              1 S1                 0.0000
     44 ****        -0.2395  -0.4755   3.5058 H              1 S1                 0.0000
     45 ****        -1.7937  -0.7375   2.7579 H              1 S1                 0.0000
     46 ****         0.4958   0.5822  -3.6480 LP             1 S1                 0.0000
     47 ****        -0.5059  -1.9128  -0.3395 LP             1 S1                 0.0000
     48 ****        -1.8205  -1.4325   0.5019 LP             1 S1                 0.0000
     49 ****         1.0467  -2.4623   4.1074 LP             1 S1                 0.0000
     50 ****         0.4189  -3.9688   4.0524 LP             1 S1                 0.0000
@<TRIPOS>BOND
    1    1    2 1     
    2    1   22 1     
    3    1   23 1     
    4    1   24 1     
    5    2    3 1     
    6    2   25 1     
    7    2   26 1     
    8    3    4 1     
    9    3   27 1     
   10    3   28 1     
   11    4    5 1     
   12    4   29 1     
   13    4   30 1     
   14    5   13 1     
   15    5    6 2     
   16    6    7 1     
   17    7   12 ar    
   18    7    8 ar    
   19    8    9 ar    
   20    8   31 1     
   21    9   10 ar    
   22    9   32 1     
   23   10   11 ar    
   24   10   33 1     
   25   11   12 ar    
   26   11   34 1     
   27   12   13 1     
   28   13   14 1     
   29   14   15 1     
   30   14   35 1     
   31   14   36 1     
   32   15   21 1     
   33   15   16 1     
   34   15   17 1     
   35   16   37 1     
   36   17   18 1     
   37   17   38 1     
   38   17   39 1     
   39   18   19 1     
   40   18   40 1     
   41   18   41 1     
   42   19   20 1     
   43   20   21 1     
   44   20   42 1     
   45   20   43 1     
   46   21   44 1     
   47   21   45 1     
   48    6   46 1     
   49   16   47 1     
   50   16   48 1     
   51   19   49 1     
   52   19   50 1     
@<TRIPOS>SUBSTRUCTURE
      1 S1             1
@<TRIPOS>SET
LONE_PAIRS      STATIC     ATOMS    <user>   **** ""
5 46 47 48 49 50
DONOR_HYDROGENS      STATIC     ATOMS    <user>   **** ""
1 37
ATOM$BLUE        STATIC     ATOMS    COLORGROUP SYSTEM
5 46 47 48 49 50
ATOM$RED        STATIC     ATOMS    COLORGROUP SYSTEM
1 37
