AV-unprocessed.smi:2143|AV-procd|sdf|8729|dock10
  -GOLD-   2272011493D 1   1.00000     0.00000
 Structure written by MMmdl.
 44 45  0  0  0  0  0  0  0  0  1 V2000
  152.4927  143.9469  162.3430 C   0  0  0  0  0  0  0  0  0  0  0  0
  151.9475  143.9553  160.9034 C   0  0  1  0  0  0  0  0  0  0  0  0
  151.9626  145.3951  160.3495 C   0  0  0  0  0  0  0  0  0  0  0  0
  151.4163  145.4704  158.9177 C   0  0  0  0  0  0  0  0  0  0  0  0
  152.1962  144.5346  157.9838 C   0  0  0  0  0  0  0  0  0  0  0  0
  152.1976  143.0822  158.5001 C   0  0  2  0  0  0  0  0  0  0  0  0
  150.8655  142.4879  158.3797 N   0  0  0  0  0  0  0  0  0  0  0  0
  150.5920  141.2790  157.8673 C   0  0  0  0  0  0  0  0  0  0  0  0
  151.4523  140.5274  157.4074 O   0  0  0  0  0  0  0  0  0  0  0  0
  149.1131  140.8724  157.8535 C   0  0  0  0  0  0  0  0  0  0  0  0
  148.3891  141.4137  156.6968 N   0  0  0  0  0  0  0  0  0  0  0  0
  148.8023  141.0946  155.4164 C   0  0  0  0  0  0  0  0  0  0  0  0
  148.1805  141.5363  154.3014 C   0  0  0  0  0  0  0  0  0  0  0  0
  147.0091  142.3999  154.3889 C   0  0  0  0  0  0  0  0  0  0  0  0
  146.4047  142.8111  153.3978 O   0  0  0  0  0  0  0  0  0  0  0  0
  146.6147  142.7203  155.7106 N   0  0  0  0  0  0  0  0  0  0  0  0
  145.4534  143.5622  155.9099 C   0  0  0  0  0  0  0  0  0  0  0  0
  147.2607  142.2429  156.8724 C   0  0  0  0  0  0  0  0  0  0  0  0
  146.8594  142.5284  158.0038 O   0  0  0  0  0  0  0  0  0  0  0  0
  152.7208  142.9941  159.9574 C   0  0  2  0  0  0  0  0  0  0  0  0
  152.7351  141.5347  160.4571 C   0  0  0  0  0  0  0  0  0  0  0  0
  153.5542  144.1958  162.3670 H   0  0  0  0  0  0  0  0  0  0  0  0
  152.3640  142.9754  162.8193 H   0  0  0  0  0  0  0  0  0  0  0  0
  151.9687  144.6745  162.9632 H   0  0  0  0  0  0  0  0  0  0  0  0
  150.9078  143.6285  160.9491 H   0  0  0  0  0  0  0  0  0  0  0  0
  151.3743  146.0488  160.9944 H   0  0  0  0  0  0  0  0  0  0  0  0
  152.9814  145.7847  160.3669 H   0  0  0  0  0  0  0  0  0  0  0  0
  150.3583  145.2055  158.9125 H   0  0  0  0  0  0  0  0  0  0  0  0
  151.4784  146.4952  158.5503 H   0  0  0  0  0  0  0  0  0  0  0  0
  151.7827  144.5814  156.9757 H   0  0  0  0  0  0  0  0  0  0  0  0
  153.2253  144.8868  157.9036 H   0  0  0  0  0  0  0  0  0  0  0  0
  152.8831  142.5077  157.8739 H   0  0  0  0  0  0  0  0  0  0  0  0
  150.0936  143.0377  158.7275 H   0  0  0  0  0  0  0  0  0  0  0  0
  149.0226  139.7847  157.8762 H   0  0  0  0  0  0  0  0  0  0  0  0
  148.6555  141.2249  158.7790 H   0  0  0  0  0  0  0  0  0  0  0  0
  149.6635  140.4530  155.2981 H   0  0  0  0  0  0  0  0  0  0  0  0
  148.5531  141.2442  153.3304 H   0  0  0  0  0  0  0  0  0  0  0  0
  145.7036  144.3123  156.6624 H   0  0  0  0  0  0  0  0  0  0  0  0
  144.6446  142.9125  156.2476 H   0  0  0  0  0  0  0  0  0  0  0  0
  145.1811  144.0751  154.9876 H   0  0  0  0  0  0  0  0  0  0  0  0
  153.7600  143.3269  159.9370 H   0  0  0  0  0  0  0  0  0  0  0  0
  151.7271  141.1586  160.6346 H   0  0  0  0  0  0  0  0  0  0  0  0
  153.2961  141.4333  161.3858 H   0  0  0  0  0  0  0  0  0  0  0  0
  153.2099  140.8774  159.7279 H   0  0  0  0  0  0  0  0  0  0  0  0
  1  2  1  0  0  0  0
  1 22  1  0  0  0  0
  1 23  1  0  0  0  0
  1 24  1  0  0  0  0
  2 20  1  0  0  0  0
  2  3  1  0  0  0  0
  2 25  1  0  0  0  0
  3  4  1  0  0  0  0
  3 26  1  0  0  0  0
  3 27  1  0  0  0  0
  4  5  1  0  0  0  0
  4 28  1  0  0  0  0
  4 29  1  0  0  0  0
  5  6  1  0  0  0  0
  5 30  1  0  0  0  0
  5 31  1  0  0  0  0
  6  7  1  0  0  0  0
  6 20  1  0  0  0  0
  6 32  1  0  0  0  0
  7  8  1  0  0  0  0
  7 33  1  0  0  0  0
  8  9  2  0  0  0  0
  8 10  1  0  0  0  0
 10 11  1  0  0  0  0
 10 34  1  0  0  0  0
 10 35  1  0  0  0  0
 11 18  1  0  0  0  0
 11 12  1  0  0  0  0
 12 13  2  0  0  0  0
 12 36  1  0  0  0  0
 13 14  1  0  0  0  0
 13 37  1  0  0  0  0
 14 15  2  0  0  0  0
 14 16  1  0  0  0  0
 16 17  1  0  0  0  0
 16 18  1  0  0  0  0
 17 38  1  0  0  0  0
 17 39  1  0  0  0  0
 17 40  1  0  0  0  0
 18 19  2  0  0  0  0
 20 21  1  0  0  0  0
 20 41  1  0  0  0  0
 21 42  1  0  0  0  0
 21 43  1  0  0  0  0
 21 44  1  0  0  0  0
M  END
> <s_m_source_file>
AV-unprocessed.smi

> <i_m_source_file_index>
2143

> <i_lp_mmshare_version>
43012

> <i_f3d_flags>
0

> <s_epik_input>
W0NIM11bQ0BASF0xW0NIMl1bQ0gyXVtDSDJdW0NASF0oW0NASF0xW0NIM10pW05IXUMoPU8pW0NIMl1uMltjSF1bY0hdYyg9TyluKFtDSDNdKWMyPU8=

> <s_epik_cmdline>
J2VwaWtfcHl0aG9uJywgJy1waCcsICc3LjAnLCAnLXRuJywgJzgnLCAnLW1hJywgJzIwMCcsICctbWV0YWxfYmluZGluZycsICctaW1hZScsICc8aW5maWxlLm1hZT4nLCAnLW9tYWUnLCAnPG91dGZpbGUubWFlPic=

> <r_lp_tautomer_probability>
1

> <r_epik_Ionization_Penalty>
3.18445e-08

> <r_epik_Ionization_Penalty_Charging>
1.27977e-08

> <r_epik_Ionization_Penalty_Neutral>
1.90469e-08

> <r_epik_State_Penalty>
-0

> <r_epik_Charging_Adjusted_Penalty>
1.27977e-08

> <i_epik_Tot_Q>
0

> <i_epik_Tot_abs_Q>
0

> <r_epik_Metal_State_Penalty>
-0

> <b_epik_Metal_Only>
0

> <s_lp_Force_Field>
OPLS_2005

> <r_lp_Energy>
18.9337

> <b_lp_Chiralities_Consistent>
1

> <s_lp_Variant>
AV-unprocessed.smi:2143-8

> <Gold.Version>
5.8.1

> <Gold.Id.Protein>
6NUR|6NUR_protein|mol2

> <Gold.PLP.Fitness>
46.6153

> <Gold.PLP.PLP>
-47.3587

> <Gold.PLP.part.hbond>
-1.0000

> <Gold.PLP.part.metal>
0.0000

> <Gold.PLP.part.buried>
-7.1936

> <Gold.PLP.part.nonpolar>
-38.9311

> <Gold.PLP.part.repulsive>
0.3215

> <Gold.PLP.ligand.clash>
0.0000

> <Gold.PLP.ligand.torsion>
0.5246

> <Gold.PLP.Chemscore.Hbond>
0.0975

> <Gold.PLP.Chemscore.CHOScore>
0.0000

> <Gold.PLP.Chemscore.Metal>
0.0000

> <Gold.PLP.Chemscore.Internal.Correction>
0.0133

> <Gold.Rescore>
     Score         DG    S(hbond)    S(metal)    S(lipo)     H(rot)  DE(clash)    DE(int)     intcor
     15.64     -16.03       0.44        0.00     110.76       1.51       0.15       0.23       ----

> <Gold.Chemscore.Fitness>
15.6421

> <Gold.Chemscore.DG>
-16.0295

> <Gold.Chemscore.ZeroCoef>
-5.4800

> <Gold.Chemscore.Hbond>
0.4384

> <Gold.Chemscore.Metal>
0.0000

> <Gold.Chemscore.Lipo>
110.7576

> <Gold.Chemscore.Internal_Hbond>
0.0000

> <Gold.Chemscore.DEClash>
0.1532

> <Gold.Chemscore.DEInternal>
0.2342

> <Gold.Chemscore.Rot>
1.5131

> <Gold.Chemscore.Internal.Correction>
   9.000000E+99

> <Gold.Chemscore.Hbond.Weighted>
-1.4643

> <Gold.Chemscore.Metal.Weighted>
-0.0000

> <Gold.Chemscore.Lipo.Weighted>
-12.9586

> <Gold.Chemscore.Internal_Hbond.Weighted>
0.0000

> <Gold.Chemscore.DEClash.Weighted>
0.1532

> <Gold.Chemscore.DEInternal.Weighted>
0.2342

> <Gold.Chemscore.Rot.Weighted>
3.8734

> <Gold.Chemscore.Internal.Correction.Weighted>
   9.000000E+99

> <Gold.Protein.RotatedTorsions>
[ 6907 6896 6895 6894 ] final  -43.85 input  -60.11 | X-H torsion
[ 7974 7965 7964 7962 ] final  -83.83 input  175.53 | X-H torsion
[ 8008 7997 7996 7995 ] final  -65.49 input   59.86 | X-H torsion
[ 10167 10162 10161 10158 ] final -144.72 input  -65.29 | X-H torsion
[ 10718 10713 10712 10709 ] final  117.65 input   66.30 | X-H torsion
[ 10763 10752 10751 10750 ] final  -48.77 input  -60.55 | X-H torsion
[ 11005 11000 10999 10996 ] final  121.01 input  -57.11 | X-H torsion

> <Gold.Protein.ActiveResidues>
 VAL166  LYS551  ARG553  GLY616  TRP617  ASP618  TYR619  PRO620  LYS621  CYS622 
 ASP623  PHE694  ASN695  SER759  ASP760  ASP761  ALA762  ILE779  LEU786  VAL792 
 PHE793  MET794  SER795  GLU796  ALA797  LYS798  CYS799  TRP800  GLU811  SER814 

> <Gold.Protein.RotatedAtoms>
  150.9393  134.8803  159.7601 H   0  0  0  0  0  0  0  0  0  0  0  0  # atno 6907 bound_to 6896
  152.5073  134.3965  159.9412 H   0  0  0  0  0  0  0  0  0  0  0  0  # atno 6908 bound_to 6896
  151.3987  133.3724  159.2764 H   0  0  0  0  0  0  0  0  0  0  0  0  # atno 6909 bound_to 6896
  145.5147  140.9537  143.1688 H   0  0  0  0  0  0  0  0  0  0  0  0  # atno 7974 bound_to 7965
  154.4675  140.0932  156.7058 H   0  0  0  0  0  0  0  0  0  0  0  0  # atno 8008 bound_to 7997
  155.4818  140.3468  155.4322 H   0  0  0  0  0  0  0  0  0  0  0  0  # atno 8009 bound_to 7997
  156.0981  140.1415  156.9492 H   0  0  0  0  0  0  0  0  0  0  0  0  # atno 8010 bound_to 7997
  139.7873  143.8016  152.2646 H   0  0  0  0  0  0  0  0  0  0  0  0  # atno 10167 bound_to 10162
  157.6082  131.1039  150.7645 H   0  0  0  0  0  0  0  0  0  0  0  0  # atno 10718 bound_to 10713
  154.0833  135.6588  153.4841 H   0  0  0  0  0  0  0  0  0  0  0  0  # atno 10763 bound_to 10752
  153.0348  135.5185  154.7453 H   0  0  0  0  0  0  0  0  0  0  0  0  # atno 10764 bound_to 10752
  154.6554  135.3007  154.9902 H   0  0  0  0  0  0  0  0  0  0  0  0  # atno 10765 bound_to 10752
  139.9208  134.9637  156.7893 H   0  0  0  0  0  0  0  0  0  0  0  0  # atno 11005 bound_to 11000
  144.7708  139.6739  143.7195 LP  0  0  0  0  0  0  0  0  0  0  0  0  # atno 17320 bound_to 7965
  146.2144  139.5523  142.9660 LP  0  0  0  0  0  0  0  0  0  0  0  0  # atno 17321 bound_to 7965
  139.8097  144.7341  150.9714 LP  0  0  0  0  0  0  0  0  0  0  0  0  # atno 17342 bound_to 10162
  140.7820  143.4263  151.0763 LP  0  0  0  0  0  0  0  0  0  0  0  0  # atno 17343 bound_to 10162
  156.8029  130.4927  149.5367 LP  0  0  0  0  0  0  0  0  0  0  0  0  # atno 17370 bound_to 10713
  156.1176  130.6086  151.0144 LP  0  0  0  0  0  0  0  0  0  0  0  0  # atno 17371 bound_to 10713
  140.6480  133.9757  155.7741 LP  0  0  0  0  0  0  0  0  0  0  0  0  # atno 17394 bound_to 11000
  141.0727  134.0181  157.3503 LP  0  0  0  0  0  0  0  0  0  0  0  0  # atno 17395 bound_to 11000

$$$$
