#       Name:                AV-unprocessed.smi:2282
#       Creating user name   scv26
#       Creation time:       Fri Mar 27 12:41:22 2020


#       File generated by GOLD software.
#

@<TRIPOS>MOLECULE
AV-unprocessed.smi:2282
    37    38     1
SMALL
NO_CHARGES


@<TRIPOS>ATOM
      1 ****        -5.3016   1.2966   1.8248 C.3            1 S1                 0.0000
      2 ****        -4.2812   0.5868   0.9546 C.ar           1 S1                 0.0000
      3 ****        -4.7881  -0.2529   0.0256 N.ar           1 S1                 0.0000
      4 ****        -3.9238  -0.9156  -0.7697 C.ar           1 S1                 0.0000
      5 ****        -2.5260  -0.7717  -0.6844 C.ar           1 S1                 0.0000
      6 ****        -1.9917   0.1202   0.2761 C.ar           1 S1                 0.0000
      7 ****        -0.5962   0.3246   0.4617 N.am           1 S1                 0.0000
      8 ****         0.4059   0.1632  -0.4216 C.2            1 S1                 0.0000
      9 ****         0.2553  -0.2022  -1.5879 O.2            1 S1                 0.0000
     10 ****         1.8121   0.4772   0.1162 C.3            1 S1                 0.0000
     11 ****         2.7272   1.2092  -0.8870 C.3            1 S1                 0.0000
     12 ****         3.8938   0.2578  -1.0968 C.3            1 S1                 0.0000
     13 ****         3.3167  -1.0933  -0.6891 C.3            1 S1                 0.0000
     14 ****         4.3681  -2.1226  -0.2617 C.3            1 S1                 0.0000
     15 ****         2.4772  -0.7512   0.4042 O.3            1 S1                 0.0000
     16 ****        -2.8936   0.8049   1.1242 C.ar           1 S1                 0.0000
     17 ****        -2.3132   1.8933   2.3405 Cl             1 S1                 0.0000
     18 ****        -5.2155   2.3769   1.7055 H              1 S1                 0.0000
     19 ****        -5.1406   1.0515   2.8748 H              1 S1                 0.0000
     20 ****        -6.3211   1.0088   1.5645 H              1 S1                 0.0000
     21 ****        -4.3596  -1.5878  -1.4936 H              1 S1                 0.0000
     22 ****        -1.8984  -1.3533  -1.3415 H              1 S1                 0.0000
     23 ****        -0.3336   0.7091   1.3577 H              1 S1                 0.0000
     24 ****         1.7328   1.0501   1.0415 H              1 S1                 0.0000
     25 ****         2.2293   1.4131  -1.8359 H              1 S1                 0.0000
     26 ****         3.0689   2.1677  -0.4946 H              1 S1                 0.0000
     27 ****         4.2718   0.2659  -2.1195 H              1 S1                 0.0000
     28 ****         4.7133   0.5335  -0.4317 H              1 S1                 0.0000
     29 ****         2.7056  -1.4980  -1.4974 H              1 S1                 0.0000
     30 ****         5.0395  -2.3606  -1.0871 H              1 S1                 0.0000
     31 ****         3.8943  -3.0500   0.0610 H              1 S1                 0.0000
     32 ****         4.9722  -1.7517   0.5667 H              1 S1                 0.0000
     33 ****        -5.7755  -0.3794  -0.0696 LP             1 S1                 0.0000
     34 ****        -0.6611  -0.4011  -1.9352 LP             1 S1                 0.0000
     35 ****         1.0494  -0.3000  -2.1877 LP             1 S1                 0.0000
     36 ****         1.8001  -1.4734   0.5451 LP             1 S1                 0.0000
     37 ****         3.0301  -0.6467   1.2309 LP             1 S1                 0.0000
@<TRIPOS>BOND
    1    1    2 1     
    2    1   18 1     
    3    1   19 1     
    4    1   20 1     
    5    2   16 ar    
    6    2    3 ar    
    7    3    4 ar    
    8    4    5 ar    
    9    4   21 1     
   10    5    6 ar    
   11    5   22 1     
   12    6    7 1     
   13    6   16 ar    
   14    7    8 am    
   15    7   23 1     
   16    8    9 2     
   17    8   10 1     
   18   10   15 1     
   19   10   11 1     
   20   10   24 1     
   21   11   12 1     
   22   11   25 1     
   23   11   26 1     
   24   12   13 1     
   25   12   27 1     
   26   12   28 1     
   27   13   14 1     
   28   13   15 1     
   29   13   29 1     
   30   14   30 1     
   31   14   31 1     
   32   14   32 1     
   33   16   17 1     
   34    3   33 1     
   35    9   34 1     
   36    9   35 1     
   37   15   36 1     
   38   15   37 1     
@<TRIPOS>SUBSTRUCTURE
      1 S1             1
@<TRIPOS>SET
LONE_PAIRS      STATIC     ATOMS    <user>   **** ""
5 33 34 35 36 37
DONOR_HYDROGENS      STATIC     ATOMS    <user>   **** ""
1 23
ATOM$BLUE        STATIC     ATOMS    COLORGROUP SYSTEM
5 33 34 35 36 37
ATOM$RED        STATIC     ATOMS    COLORGROUP SYSTEM
1 23
