AV-unprocessed.smi:1254|AV-procd|sdf|5271|dock2
  -GOLD-   22720 4383D 1   1.00000     0.00000
 Structure written by MMmdl.
 46 47  0  0  0  0  0  0  0  0  2 V2000
  151.7047  139.7064  158.3136 C   0  0  0  0  0  0  0  0  0  0  0  0
  151.3514  139.6572  156.8669 C   0  0  0  0  0  0  0  0  0  0  0  0
  150.1724  139.4649  156.2028 C   0  0  0  0  0  0  0  0  0  0  0  0
  150.5596  139.5352  154.8380 C   0  0  0  0  0  0  0  0  0  0  0  0
  149.6056  139.3760  153.8007 N   0  0  0  0  0  0  0  0  0  0  0  0
  148.3766  138.8409  153.8952 C   0  0  0  0  0  0  0  0  0  0  0  0
  147.8806  138.3754  154.9218 O   0  0  0  0  0  0  0  0  0  0  0  0
  147.7349  138.8791  152.7187 N   0  0  0  0  0  0  0  0  0  0  0  0
  146.3788  138.3908  152.4922 C   0  0  0  0  0  0  0  0  0  0  0  0
  146.3135  136.8529  152.5022 C   0  0  2  0  0  0  0  0  0  0  0  0
  144.9422  136.3314  152.0259 C   0  0  0  0  0  0  0  0  0  0  0  0
  144.8745  134.8511  152.1000 N   0  3  1  0  0  0  0  0  0  0  0  0
  145.5978  134.1658  150.9947 C   0  0  0  0  0  0  0  0  0  0  0  0
  145.2086  132.6787  150.8502 C   0  0  0  0  0  0  0  0  0  0  0  0
  145.9259  132.0496  149.6465 C   0  0  0  0  0  0  0  0  0  0  0  0
  143.6872  132.4936  150.7238 C   0  0  0  0  0  0  0  0  0  0  0  0
  145.2352  134.3841  153.4632 C   0  0  0  0  0  0  0  0  0  0  0  0
  146.5750  134.9848  153.9314 C   0  0  0  0  0  0  0  0  0  0  0  0
  146.5260  136.4030  153.8369 O   0  0  0  0  0  0  0  0  0  0  0  0
  151.8566  139.7517  154.6828 N   0  0  0  0  0  0  0  0  0  0  0  0
  152.3706  139.8316  155.9824 O   0  0  0  0  0  0  0  0  0  0  0  0
  150.8239  139.5470  158.9359 H   0  0  0  0  0  0  0  0  0  0  0  0
  152.1319  140.6747  158.5743 H   0  0  0  0  0  0  0  0  0  0  0  0
  152.4357  138.9360  158.5593 H   0  0  0  0  0  0  0  0  0  0  0  0
  149.1939  139.2990  156.6284 H   0  0  0  0  0  0  0  0  0  0  0  0
  149.8853  139.7167  152.8929 H   0  0  0  0  0  0  0  0  0  0  0  0
  148.2136  139.2795  151.9250 H   0  0  0  0  0  0  0  0  0  0  0  0
  145.7312  138.7997  153.2682 H   0  0  0  0  0  0  0  0  0  0  0  0
  146.0075  138.7799  151.5427 H   0  0  0  0  0  0  0  0  0  0  0  0
  147.0977  136.4573  151.8549 H   0  0  0  0  0  0  0  0  0  0  0  0
  144.1555  136.7427  152.6599 H   0  0  0  0  0  0  0  0  0  0  0  0
  144.7255  136.6720  151.0127 H   0  0  0  0  0  0  0  0  0  0  0  0
  145.3757  134.6657  150.0508 H   0  0  0  0  0  0  0  0  0  0  0  0
  146.6740  134.2643  151.1372 H   0  0  0  0  0  0  0  0  0  0  0  0
  145.5399  132.1332  151.7332 H   0  0  0  0  0  0  0  0  0  0  0  0
  145.6399  132.5375  148.7139 H   0  0  0  0  0  0  0  0  0  0  0  0
  145.6862  130.9899  149.5543 H   0  0  0  0  0  0  0  0  0  0  0  0
  147.0087  132.1321  149.7457 H   0  0  0  0  0  0  0  0  0  0  0  0
  143.2946  133.0174  149.8515 H   0  0  0  0  0  0  0  0  0  0  0  0
  143.1635  132.8706  151.6024 H   0  0  0  0  0  0  0  0  0  0  0  0
  143.4284  131.4394  150.6210 H   0  0  0  0  0  0  0  0  0  0  0  0
  144.4461  134.6998  154.1470 H   0  0  0  0  0  0  0  0  0  0  0  0
  145.2630  133.2967  153.5163 H   0  0  0  0  0  0  0  0  0  0  0  0
  146.7624  134.7106  154.9695 H   0  0  0  0  0  0  0  0  0  0  0  0
  147.4134  134.5983  153.3509 H   0  0  0  0  0  0  0  0  0  0  0  0
  143.9025  134.6141  151.9605 H   0  0  0  0  0  0  0  0  0  0  0  0
  1  2  1  0  0  0  0
  1 22  1  0  0  0  0
  1 23  1  0  0  0  0
  1 24  1  0  0  0  0
  2 21  1  0  0  0  0
  2  3  2  0  0  0  0
  3  4  1  0  0  0  0
  3 25  1  0  0  0  0
  4  5  1  0  0  0  0
  4 20  2  0  0  0  0
  5  6  1  0  0  0  0
  5 26  1  0  0  0  0
  6  7  2  0  0  0  0
  6  8  1  0  0  0  0
  8  9  1  0  0  0  0
  8 27  1  0  0  0  0
  9 10  1  0  0  0  0
  9 28  1  0  0  0  0
  9 29  1  0  0  0  0
 10 19  1  0  0  0  0
 10 11  1  0  0  0  0
 10 30  1  0  0  0  0
 11 12  1  0  0  0  0
 11 31  1  0  0  0  0
 11 32  1  0  0  0  0
 12 13  1  0  0  0  0
 12 17  1  0  0  0  0
 12 46  1  0  0  0  0
 13 14  1  0  0  0  0
 13 33  1  0  0  0  0
 13 34  1  0  0  0  0
 14 15  1  0  0  0  0
 14 16  1  0  0  0  0
 14 35  1  0  0  0  0
 15 36  1  0  0  0  0
 15 37  1  0  0  0  0
 15 38  1  0  0  0  0
 16 39  1  0  0  0  0
 16 40  1  0  0  0  0
 16 41  1  0  0  0  0
 17 18  1  0  0  0  0
 17 42  1  0  0  0  0
 17 43  1  0  0  0  0
 18 19  1  0  0  0  0
 18 44  1  0  0  0  0
 18 45  1  0  0  0  0
 20 21  1  0  0  0  0
M  CHG  1  12   1
M  END
> <s_m_source_file>
AV-unprocessed.smi

> <i_m_source_file_index>
1254

> <i_lp_mmshare_version>
43012

> <i_f3d_flags>
0

> <s_epik_input>
W0NIM11jMVtjSF1jKG5vMSlbTkhdQyg9TylbTkhdW0NIMl1bQ0BASF0yW0NIMl1OKFtDSDJdW0NIMl1PMilbQ0gyXVtDSF0oW0NIM10pW0NIM10=

> <s_epik_cmdline>
J2VwaWtfcHl0aG9uJywgJy1waCcsICc3LjAnLCAnLXRuJywgJzgnLCAnLW1hJywgJzIwMCcsICctbWV0YWxfYmluZGluZycsICctaW1hZScsICc8aW5maWxlLm1hZT4nLCAnLW9tYWUnLCAnPG91dGZpbGUubWFlPic=

> <r_epik_Ionization_Penalty>
0.0986825

> <r_epik_Ionization_Penalty_Charging>
0.0986478

> <r_epik_Ionization_Penalty_Neutral>
3.46838e-05

> <r_epik_State_Penalty>
0.0887259

> <r_epik_Charging_Adjusted_Penalty>
0.187374

> <i_epik_Tot_Q>
1

> <i_epik_Tot_abs_Q>
1

> <r_epik_Metal_State_Penalty>
0.103424

> <b_epik_Metal_Only>
0

> <s_lp_Force_Field>
OPLS_2005

> <r_lp_Energy>
16.7856

> <b_lp_Chiralities_Consistent>
1

> <s_lp_Variant>
AV-unprocessed.smi:1254-3

> <Gold.Version>
5.8.1

> <Gold.Id.Protein>
6NUR|6NUR_protein|mol2

> <Gold.PLP.Fitness>
42.1254

> <Gold.PLP.PLP>
-31.2281

> <Gold.PLP.part.hbond>
-4.9745

> <Gold.PLP.part.metal>
0.0000

> <Gold.PLP.part.buried>
-3.2710

> <Gold.PLP.part.nonpolar>
-24.5817

> <Gold.PLP.part.repulsive>
0.4218

> <Gold.PLP.ligand.clash>
0.0000

> <Gold.PLP.ligand.torsion>
0.2803

> <Gold.PLP.Chemscore.Hbond>
3.7913

> <Gold.PLP.Chemscore.CHOScore>
0.0000

> <Gold.PLP.Chemscore.Metal>
0.0000

> <Gold.Chemscore.Hbonds>
donor molecule, donor type, donor heavy atom, donor atom, acceptor molecule, acceptor atom, score
      L1  H     5    26       P1  7957  1.00
      L1  H     8    27       P1  7957  1.00
      P1  H  7989  7998       L1    20  0.74
      P1  H  7997  8008       L1    21  1.00

> <Gold.PLP.Chemscore.Internal.Correction>
0.0842

> <Gold.Rescore>
     Score         DG    S(hbond)    S(metal)    S(lipo)     H(rot)  DE(clash)    DE(int)     intcor
     16.99     -20.37       3.40        0.00      67.95       1.73       0.25       3.13       ----

> <Gold.Chemscore.Fitness>
16.9873

> <Gold.Chemscore.DG>
-20.3652

> <Gold.Chemscore.ZeroCoef>
-5.4800

> <Gold.Chemscore.Hbond>
3.4018

> <Gold.Chemscore.Metal>
0.0000

> <Gold.Chemscore.Lipo>
67.9469

> <Gold.Chemscore.Internal_Hbond>
0.0000

> <Gold.Chemscore.DEClash>
0.2488

> <Gold.Chemscore.DEInternal>
3.1292

> <Gold.Chemscore.Rot>
1.7291

> <Gold.Chemscore.Internal.Correction>
   9.000000E+99

> <Gold.Chemscore.Hbonds>
donor molecule, donor type, donor heavy atom, donor atom, acceptor molecule, acceptor atom, score
      L1  H     5    26       P1  7957  0.98
      L1  H     8    27       P1  7957  0.97
      P1  H  7989  7998       L1    20  0.09
      P1  H  7997  8008       L1    21  0.92

> <Gold.Chemscore.Hbond.Weighted>
-11.3619

> <Gold.Chemscore.Metal.Weighted>
-0.0000

> <Gold.Chemscore.Lipo.Weighted>
-7.9498

> <Gold.Chemscore.Internal_Hbond.Weighted>
0.0000

> <Gold.Chemscore.DEClash.Weighted>
0.2488

> <Gold.Chemscore.DEInternal.Weighted>
3.1292

> <Gold.Chemscore.Rot.Weighted>
4.4265

> <Gold.Chemscore.Internal.Correction.Weighted>
   9.000000E+99

> <Gold.Protein.RotatedTorsions>
[ 6907 6896 6895 6894 ] final   73.50 input  -60.11 | X-H torsion
[ 7974 7965 7964 7962 ] final -150.93 input  175.53 | X-H torsion
[ 8008 7997 7996 7995 ] final  -35.79 input   59.86 | X-H torsion
[ 10167 10162 10161 10158 ] final  -51.45 input  -65.29 | X-H torsion
[ 10718 10713 10712 10709 ] final  -20.06 input   66.30 | X-H torsion
[ 10763 10752 10751 10750 ] final   85.29 input  -60.55 | X-H torsion
[ 11005 11000 10999 10996 ] final -137.40 input  -57.11 | X-H torsion

> <Gold.Protein.ActiveResidues>
 VAL166  LYS551  ARG553  GLY616  TRP617  ASP618  TYR619  PRO620  LYS621  CYS622 
 ASP623  PHE694  ASN695  SER759  ASP760  ASP761  ALA762  ILE779  LEU786  VAL792 
 PHE793  MET794  SER795  GLU796  ALA797  LYS798  CYS799  TRP800  GLU811  SER814 

> <Gold.Protein.RotatedAtoms>
  152.4926  134.4412  159.9543 H   0  0  0  0  0  0  0  0  0  0  0  0  # atno 6907 bound_to 6896
  151.4397  133.3641  159.2788 H   0  0  0  0  0  0  0  0  0  0  0  0  # atno 6908 bound_to 6896
  150.9096  134.8536  159.7476 H   0  0  0  0  0  0  0  0  0  0  0  0  # atno 6909 bound_to 6896
  144.7879  140.4865  143.5793 H   0  0  0  0  0  0  0  0  0  0  0  0  # atno 7974 bound_to 7965
  154.4087  140.1648  156.2269 H   0  0  0  0  0  0  0  0  0  0  0  0  # atno 8008 bound_to 7997
  155.9316  140.3414  155.6231 H   0  0  0  0  0  0  0  0  0  0  0  0  # atno 8009 bound_to 7997
  155.7099  140.0755  157.2366 H   0  0  0  0  0  0  0  0  0  0  0  0  # atno 8010 bound_to 7997
  140.6588  143.2619  151.4505 H   0  0  0  0  0  0  0  0  0  0  0  0  # atno 10167 bound_to 10162
  156.5370  130.4669  149.6518 H   0  0  0  0  0  0  0  0  0  0  0  0  # atno 10718 bound_to 10713
  153.1461  135.4622  154.9568 H   0  0  0  0  0  0  0  0  0  0  0  0  # atno 10763 bound_to 10752
  154.7787  135.3181  154.8038 H   0  0  0  0  0  0  0  0  0  0  0  0  # atno 10764 bound_to 10752
  153.8552  135.6918  153.4842 H   0  0  0  0  0  0  0  0  0  0  0  0  # atno 10765 bound_to 10752
  140.8715  134.2045  157.4648 H   0  0  0  0  0  0  0  0  0  0  0  0  # atno 11005 bound_to 11000
  145.5873  139.1493  143.3202 LP  0  0  0  0  0  0  0  0  0  0  0  0  # atno 17320 bound_to 7965
  146.2118  140.6000  142.9056 LP  0  0  0  0  0  0  0  0  0  0  0  0  # atno 17321 bound_to 7965
  139.5816  144.1696  152.1976 LP  0  0  0  0  0  0  0  0  0  0  0  0  # atno 17342 bound_to 10162
  140.1023  144.5528  150.6980 LP  0  0  0  0  0  0  0  0  0  0  0  0  # atno 17343 bound_to 10162
  156.3006  130.7175  151.2046 LP  0  0  0  0  0  0  0  0  0  0  0  0  # atno 17370 bound_to 10713
  157.7412  131.0507  150.5114 LP  0  0  0  0  0  0  0  0  0  0  0  0  # atno 17371 bound_to 10713
  139.8712  134.9776  156.4966 LP  0  0  0  0  0  0  0  0  0  0  0  0  # atno 17394 bound_to 11000
  140.8568  133.8090  155.9224 LP  0  0  0  0  0  0  0  0  0  0  0  0  # atno 17395 bound_to 11000

$$$$
