#       Name:                AV-unprocessed.smi:2166
#       Creating user name   scv26
#       Creation time:       Fri Mar 27 12:00:35 2020


#       File generated by GOLD software.
#

@<TRIPOS>MOLECULE
AV-unprocessed.smi:2166
    44    45     1
SMALL
NO_CHARGES


@<TRIPOS>ATOM
      1 ****        -4.6481  -0.7857  -2.3647 C.3            1 S1                 0.0000
      2 ****        -5.2300  -2.0033  -1.1526 S.3            1 S1                 0.0000
      3 ****        -4.6637  -1.2483   0.4016 C.3            1 S1                 0.0000
      4 ****        -5.3974  -1.8785   1.5964 C.3            1 S1                 0.0000
      5 ****        -3.1409  -1.3480   0.5635 C.2            1 S1                 0.0000
      6 ****        -2.6322  -2.4064   0.9346 O.2            1 S1                 0.0000
      7 ****        -2.4488  -0.2309   0.2692 N.am           1 S1                 0.0000
      8 ****        -1.0431  -0.0335   0.2906 C.ar           1 S1                 0.0000
      9 ****        -0.6134   1.2489  -0.1107 C.ar           1 S1                 0.0000
     10 ****         0.7631   1.5420  -0.1353 C.ar           1 S1                 0.0000
     11 ****         1.6962   0.5498   0.2398 C.ar           1 S1                 0.0000
     12 ****         3.0812   0.8222   0.2158 N.3            1 S1                 0.0000
     13 ****         3.9817  -0.1265   0.8648 C.3            1 S1                 0.0000
     14 ****         5.3909   0.4764   0.9966 C.3            1 S1                 0.0000
     15 ****         5.8575   0.8887  -0.2836 O.3            1 S1                 0.0000
     16 ****         5.0259   1.8962  -0.8499 C.3            1 S1                 0.0000
     17 ****         3.6008   1.3489  -1.0440 C.3            1 S1                 0.0000
     18 ****         1.1660  -0.7020   0.6367 C.ar           1 S1                 0.0000
     19 ****        -0.1533  -0.9854   0.6594 N.ar           1 S1                 0.0000
     20 ****        -4.9596  -1.0791  -3.3670 H              1 S1                 0.0000
     21 ****        -3.5606  -0.7160  -2.3532 H              1 S1                 0.0000
     22 ****        -5.0642   0.1981  -2.1480 H              1 S1                 0.0000
     23 ****        -4.9430  -0.1940   0.3685 H              1 S1                 0.0000
     24 ****        -5.0610  -1.4497   2.5412 H              1 S1                 0.0000
     25 ****        -5.2393  -2.9568   1.6429 H              1 S1                 0.0000
     26 ****        -6.4720  -1.7074   1.5250 H              1 S1                 0.0000
     27 ****        -2.9946   0.5666  -0.0220 H              1 S1                 0.0000
     28 ****        -1.3283   2.0059  -0.3988 H              1 S1                 0.0000
     29 ****         1.0861   2.5290  -0.4311 H              1 S1                 0.0000
     30 ****         3.6067  -0.3856   1.8556 H              1 S1                 0.0000
     31 ****         4.0255  -1.0449   0.2774 H              1 S1                 0.0000
     32 ****         5.3896   1.3227   1.6857 H              1 S1                 0.0000
     33 ****         6.0791  -0.2644   1.4038 H              1 S1                 0.0000
     34 ****         5.0188   2.7796  -0.2093 H              1 S1                 0.0000
     35 ****         5.4435   2.2028  -1.8090 H              1 S1                 0.0000
     36 ****         3.6083   0.5468  -1.7834 H              1 S1                 0.0000
     37 ****         2.9684   2.1409  -1.4428 H              1 S1                 0.0000
     38 ****         1.8037  -1.5206   0.9348 H              1 S1                 0.0000
     39 ****        -3.2112  -3.1981   1.1296 LP             1 S1                 0.0000
     40 ****        -1.6402  -2.4741   1.0410 LP             1 S1                 0.0000
     41 ****         3.0951   1.5911   0.8550 LP             1 S1                 0.0000
     42 ****         5.8687   0.0971  -0.8944 LP             1 S1                 0.0000
     43 ****         6.7852   1.2500  -0.1891 LP             1 S1                 0.0000
     44 ****        -0.4707  -1.8894   0.9458 LP             1 S1                 0.0000
@<TRIPOS>BOND
    1    1    2 1     
    2    1   20 1     
    3    1   21 1     
    4    1   22 1     
    5    2    3 1     
    6    3    4 1     
    7    3    5 1     
    8    3   23 1     
    9    4   24 1     
   10    4   25 1     
   11    4   26 1     
   12    5    6 2     
   13    5    7 am    
   14    7    8 1     
   15    7   27 1     
   16    8   19 ar    
   17    8    9 ar    
   18    9   10 ar    
   19    9   28 1     
   20   10   11 ar    
   21   10   29 1     
   22   11   12 1     
   23   11   18 ar    
   24   12   17 1     
   25   12   13 1     
   26   13   14 1     
   27   13   30 1     
   28   13   31 1     
   29   14   15 1     
   30   14   32 1     
   31   14   33 1     
   32   15   16 1     
   33   16   17 1     
   34   16   34 1     
   35   16   35 1     
   36   17   36 1     
   37   17   37 1     
   38   18   19 ar    
   39   18   38 1     
   40    6   39 1     
   41    6   40 1     
   42   12   41 1     
   43   15   42 1     
   44   15   43 1     
   45   19   44 1     
@<TRIPOS>SUBSTRUCTURE
      1 S1             1
@<TRIPOS>SET
LONE_PAIRS      STATIC     ATOMS    <user>   **** ""
6 39 40 41 42 43 44
DONOR_HYDROGENS      STATIC     ATOMS    <user>   **** ""
1 27
ATOM$BLUE        STATIC     ATOMS    COLORGROUP SYSTEM
6 39 40 41 42 43 44
ATOM$RED        STATIC     ATOMS    COLORGROUP SYSTEM
1 27
