#       Name:                AV-unprocessed.smi:618
#       Creating user name   scv26
#       Creation time:       Fri Mar 27 00:00:34 2020


#       File generated by GOLD software.
#

@<TRIPOS>MOLECULE
AV-unprocessed.smi:618
    46    48     1
SMALL
NO_CHARGES


@<TRIPOS>ATOM
      1 ****        -1.2533   1.3216  -1.6852 O.2            1 S1                 0.0000
      2 ****        -1.7145   0.1821  -1.7446 C.2            1 S1                 0.0000
      3 ****        -0.9549  -0.9225  -1.7467 N.am           1 S1                 0.0000
      4 ****         0.5033  -0.9395  -1.6821 C.3            1 S1                 0.0000
      5 ****         1.0134  -0.9793  -0.2304 C.3            1 S1                 0.0000
      6 ****         2.5446  -1.1959  -0.1687 C.3            1 S1                 0.0000
      7 ****         2.9701  -1.1122   1.2406 N.4            1 S1                 1.0000
      8 ****         4.3960  -1.3071   1.5550 C.3            1 S1                 0.0000
      9 ****         4.6040  -0.5866   2.9026 C.3            1 S1                 0.0000
     10 ****         3.2806   0.1447   3.1949 C.3            1 S1                 0.0000
     11 ****         2.5954   0.1736   1.8327 C.3            1 S1                 0.0000
     12 ****         1.0693   0.3175   1.7885 C.3            1 S1                 0.0000
     13 ****         0.6742   0.2528   0.4175 O.3            1 S1                 0.0000
     14 ****        -3.0218  -0.1261  -1.7914 N.am           1 S1                 0.0000
     15 ****        -4.1356   0.7562  -1.8083 C.ar           1 S1                 0.0000
     16 ****        -4.0793   2.1000  -2.2514 C.ar           1 S1                 0.0000
     17 ****        -5.2579   2.8703  -2.2364 C.ar           1 S1                 0.0000
     18 ****        -6.4495   2.2687  -1.7878 C.ar           1 S1                 0.0000
     19 ****        -6.5209   0.9850  -1.3768 N.ar           1 S1                 0.0000
     20 ****        -5.3872   0.2522  -1.3947 C.ar           1 S1                 0.0000
     21 ****        -1.4190  -1.8177  -1.7996 H              1 S1                 0.0000
     22 ****         0.8407  -1.8300  -2.2128 H              1 S1                 0.0000
     23 ****         0.9266  -0.0865  -2.2157 H              1 S1                 0.0000
     24 ****         0.5178  -1.7979   0.2951 H              1 S1                 0.0000
     25 ****         2.8130  -2.1714  -0.5756 H              1 S1                 0.0000
     26 ****         3.0655  -0.4408  -0.7598 H              1 S1                 0.0000
     27 ****         4.6451  -2.3675   1.6037 H              1 S1                 0.0000
     28 ****         5.0152  -0.8466   0.7837 H              1 S1                 0.0000
     29 ****         4.8453  -1.2880   3.7022 H              1 S1                 0.0000
     30 ****         5.4307   0.1212   2.8265 H              1 S1                 0.0000
     31 ****         2.6856  -0.4326   3.9041 H              1 S1                 0.0000
     32 ****         3.4301   1.1411   3.6124 H              1 S1                 0.0000
     33 ****         3.0442   0.9749   1.2411 H              1 S1                 0.0000
     34 ****         0.5741  -0.4656   2.3648 H              1 S1                 0.0000
     35 ****         0.7617   1.2763   2.2062 H              1 S1                 0.0000
     36 ****        -3.2497  -1.1087  -1.7504 H              1 S1                 0.0000
     37 ****        -3.1668   2.5479  -2.6128 H              1 S1                 0.0000
     38 ****        -5.2492   3.8983  -2.5667 H              1 S1                 0.0000
     39 ****        -7.3706   2.8319  -1.7644 H              1 S1                 0.0000
     40 ****        -5.4828  -0.7709  -1.0613 H              1 S1                 0.0000
     41 ****         2.4649  -1.8216   1.7523 H              1 S1                 0.0000
     42 ****        -0.2640   1.4586  -1.6351 LP             1 S1                 0.0000
     43 ****        -1.8678   2.1104  -1.6870 LP             1 S1                 0.0000
     44 ****        -0.3178   0.3698   0.3705 LP             1 S1                 0.0000
     45 ****         1.1217   0.9999  -0.0741 LP             1 S1                 0.0000
     46 ****        -7.3861   0.5893  -1.0688 LP             1 S1                 0.0000
@<TRIPOS>BOND
    1    1    2 2     
    2    2    3 am    
    3    2   14 am    
    4    3    4 1     
    5    3   21 1     
    6    4    5 1     
    7    4   22 1     
    8    4   23 1     
    9    5   13 1     
   10    5    6 1     
   11    5   24 1     
   12    6    7 1     
   13    6   25 1     
   14    6   26 1     
   15    7   11 1     
   16    7    8 1     
   17    7   41 1     
   18    8    9 1     
   19    8   27 1     
   20    8   28 1     
   21    9   10 1     
   22    9   29 1     
   23    9   30 1     
   24   10   11 1     
   25   10   31 1     
   26   10   32 1     
   27   11   12 1     
   28   11   33 1     
   29   12   13 1     
   30   12   34 1     
   31   12   35 1     
   32   14   15 1     
   33   14   36 1     
   34   15   20 ar    
   35   15   16 ar    
   36   16   17 ar    
   37   16   37 1     
   38   17   18 ar    
   39   17   38 1     
   40   18   19 ar    
   41   18   39 1     
   42   19   20 ar    
   43   20   40 1     
   44    1   42 1     
   45    1   43 1     
   46   13   44 1     
   47   13   45 1     
   48   19   46 1     
@<TRIPOS>SUBSTRUCTURE
      1 S1             1
@<TRIPOS>SET
LONE_PAIRS      STATIC     ATOMS    <user>   **** ""
5 42 43 44 45 46
DONOR_HYDROGENS      STATIC     ATOMS    <user>   **** ""
3 21 41 36
ATOM$BLUE        STATIC     ATOMS    COLORGROUP SYSTEM
5 42 43 44 45 46
ATOM$RED        STATIC     ATOMS    COLORGROUP SYSTEM
3 21 41 36
