#       Name:                AV-unprocessed.smi:848
#       Creating user name   scv26
#       Creation time:       Fri Mar 27 01:41:08 2020


#       File generated by GOLD software.
#

@<TRIPOS>MOLECULE
AV-unprocessed.smi:848
    53    55     1
SMALL
NO_CHARGES


@<TRIPOS>ATOM
      1 ****        -5.9832  -0.6338   0.5256 C.3            1 S1                 0.0000
      2 ****        -5.0272   0.4846   0.1648 C.ar           1 S1                 0.0000
      3 ****        -5.5209   1.7616  -0.1685 C.ar           1 S1                 0.0000
      4 ****        -4.6285   2.7977  -0.5048 C.ar           1 S1                 0.0000
      5 ****        -5.1643   4.1685  -0.8635 C.3            1 S1                 0.0000
      6 ****        -3.2404   2.5513  -0.5087 C.ar           1 S1                 0.0000
      7 ****        -2.7297   1.2798  -0.1771 C.ar           1 S1                 0.0000
      8 ****        -1.3595   1.1320  -0.2049 O.3            1 S1                 0.0000
      9 ****        -0.8092  -0.1348   0.1310 C.3            1 S1                 0.0000
     10 ****         0.7223  -0.0451   0.0396 C.3            1 S1                 0.0000
     11 ****         1.2056   0.5531   1.2261 O.3            1 S1                 0.0000
     12 ****         1.3714  -1.4333  -0.1325 C.3            1 S1                 0.0000
     13 ****         2.8371  -1.3698  -0.2658 N.pl3          1 S1                 0.0000
     14 ****         3.6104  -1.1537  -1.3697 C.2            1 S1                 0.0000
     15 ****         3.1389  -0.9173  -2.7670 C.3            1 S1                 0.0000
     16 ****         2.7503   0.4208  -2.9845 O.3            1 S1                 0.0000
     17 ****         4.9110  -1.1842  -0.9640 N.pl3          1 S1                 1.0000
     18 ****         4.9730  -1.4226   0.4090 C.ar           1 S1                 0.0000
     19 ****         6.0647  -1.5381   1.2642 C.ar           1 S1                 0.0000
     20 ****         5.7805  -1.7796   2.6243 C.ar           1 S1                 0.0000
     21 ****         4.4539  -1.8962   3.0872 C.ar           1 S1                 0.0000
     22 ****         3.3556  -1.7781   2.2103 C.ar           1 S1                 0.0000
     23 ****         3.6443  -1.5414   0.8660 C.ar           1 S1                 0.0000
     24 ****        -3.6379   0.2444   0.1596 C.ar           1 S1                 0.0000
     25 ****        -7.0004  -0.2619   0.6511 H              1 S1                 0.0000
     26 ****        -5.6789  -1.1081   1.4589 H              1 S1                 0.0000
     27 ****        -5.9899  -1.3906  -0.2589 H              1 S1                 0.0000
     28 ****        -6.5850   1.9489  -0.1673 H              1 S1                 0.0000
     29 ****        -4.3663   4.9112  -0.8927 H              1 S1                 0.0000
     30 ****        -5.9018   4.4931  -0.1287 H              1 S1                 0.0000
     31 ****        -5.6428   4.1415  -1.8426 H              1 S1                 0.0000
     32 ****        -2.5547   3.3445  -0.7688 H              1 S1                 0.0000
     33 ****        -1.1192  -0.4618   1.1254 H              1 S1                 0.0000
     34 ****        -1.1730  -0.8684  -0.5905 H              1 S1                 0.0000
     35 ****         0.9994   0.5828  -0.8075 H              1 S1                 0.0000
     36 ****         0.8092   1.4072   1.3106 H              1 S1                 0.0000
     37 ****         1.1110  -2.0970   0.6920 H              1 S1                 0.0000
     38 ****         0.9868  -1.9126  -1.0329 H              1 S1                 0.0000
     39 ****         3.9358  -1.1713  -3.4666 H              1 S1                 0.0000
     40 ****         2.2989  -1.5758  -2.9877 H              1 S1                 0.0000
     41 ****         2.4488   0.5058  -3.8763 H              1 S1                 0.0000
     42 ****         7.0819  -1.4468   0.9124 H              1 S1                 0.0000
     43 ****         6.5960  -1.8747   3.3267 H              1 S1                 0.0000
     44 ****         4.2744  -2.0781   4.1369 H              1 S1                 0.0000
     45 ****         2.3439  -1.8610   2.5788 H              1 S1                 0.0000
     46 ****        -3.2912  -0.7448   0.4175 H              1 S1                 0.0000
     47 ****         5.6982  -1.0459  -1.5846 H              1 S1                 0.0000
     48 ****        -0.9771   1.7992   0.4342 LP             1 S1                 0.0000
     49 ****        -1.0575   1.3487  -1.1333 LP             1 S1                 0.0000
     50 ****         2.2002   0.6452   1.1775 LP             1 S1                 0.0000
     51 ****         0.9613  -0.0126   2.0137 LP             1 S1                 0.0000
     52 ****         3.5310   1.0272  -2.8335 LP             1 S1                 0.0000
     53 ****         2.0126   0.6640  -2.3548 LP             1 S1                 0.0000
@<TRIPOS>BOND
    1    1    2 1     
    2    1   25 1     
    3    1   26 1     
    4    1   27 1     
    5    2   24 ar    
    6    2    3 ar    
    7    3    4 ar    
    8    3   28 1     
    9    4    5 1     
   10    4    6 ar    
   11    5   29 1     
   12    5   30 1     
   13    5   31 1     
   14    6    7 ar    
   15    6   32 1     
   16    7    8 1     
   17    7   24 ar    
   18    8    9 1     
   19    9   10 1     
   20    9   33 1     
   21    9   34 1     
   22   10   11 1     
   23   10   12 1     
   24   10   35 1     
   25   11   36 1     
   26   12   13 1     
   27   12   37 1     
   28   12   38 1     
   29   13   23 1     
   30   13   14 1     
   31   14   15 1     
   32   14   17 2     
   33   15   16 1     
   34   15   39 1     
   35   15   40 1     
   36   16   41 1     
   37   17   18 1     
   38   17   47 1     
   39   18   23 ar    
   40   18   19 ar    
   41   19   20 ar    
   42   19   42 1     
   43   20   21 ar    
   44   20   43 1     
   45   21   22 ar    
   46   21   44 1     
   47   22   23 ar    
   48   22   45 1     
   49   24   46 1     
   50    8   48 1     
   51    8   49 1     
   52   11   50 1     
   53   11   51 1     
   54   16   52 1     
   55   16   53 1     
@<TRIPOS>SUBSTRUCTURE
      1 S1             1
@<TRIPOS>SET
LONE_PAIRS      STATIC     ATOMS    <user>   **** ""
6 48 49 50 51 52 53
DONOR_HYDROGENS      STATIC     ATOMS    <user>   **** ""
3 36 41 47
ATOM$BLUE        STATIC     ATOMS    COLORGROUP SYSTEM
6 48 49 50 51 52 53
ATOM$RED        STATIC     ATOMS    COLORGROUP SYSTEM
3 36 41 47
