AV-unprocessed.smi:893|AV-procd|sdf|4068|dock7
  -GOLD-   22720 1553D 1   1.00000     0.00000
 Structure written by MMmdl.
 26 27  0  0  0  0  0  0  0  0  2 V2000
  149.1324  140.1504  154.4008 C   0  0  0  0  0  0  0  0  0  0  0  0
  149.7882  141.1419  155.3752 C   0  0  0  0  0  0  0  0  0  0  0  0
  150.6184  140.4732  156.4984 C   0  0  1  0  0  0  0  0  0  0  0  0
  151.3056  141.4880  157.3956 C   0  0  0  0  0  0  0  0  0  0  0  0
  152.1500  141.2512  158.5210 C   0  0  0  0  0  0  0  0  0  0  0  0
  152.5872  142.3640  159.0873 N   0  0  0  0  0  0  0  0  0  0  0  0
  152.0448  143.3506  158.3466 N   0  0  0  0  0  0  0  0  0  0  0  0
  152.3220  144.7304  158.6833 C   0  0  0  0  0  0  0  0  0  0  0  0
  151.2671  142.8541  157.3239 C   0  0  0  0  0  0  0  0  0  0  0  0
  149.8024  139.5392  157.2487 N   0  0  0  0  0  0  0  0  0  0  0  0
  150.2732  138.2966  157.1599 C   0  0  0  0  0  0  0  0  0  0  0  0
  149.7288  137.3572  157.7352 O   0  0  0  0  0  0  0  0  0  0  0  0
  151.3707  138.2707  156.3789 N   0  5  0  0  0  0  0  0  0  0  0  0
  151.6632  139.5080  155.9217 C   0  0  0  0  0  0  0  0  0  0  0  0
  152.5680  139.8829  155.1759 O   0  0  0  0  0  0  0  0  0  0  0  0
  148.5599  140.6811  153.6400 H   0  0  0  0  0  0  0  0  0  0  0  0
  148.4483  139.4762  154.9163 H   0  0  0  0  0  0  0  0  0  0  0  0
  149.8785  139.5437  153.8873 H   0  0  0  0  0  0  0  0  0  0  0  0
  150.4222  141.8214  154.8029 H   0  0  0  0  0  0  0  0  0  0  0  0
  149.0092  141.7654  155.8166 H   0  0  0  0  0  0  0  0  0  0  0  0
  152.4567  140.3050  158.9422 H   0  0  0  0  0  0  0  0  0  0  0  0
  151.8227  145.3951  157.9779 H   0  0  0  0  0  0  0  0  0  0  0  0
  153.3965  144.9116  158.6411 H   0  0  0  0  0  0  0  0  0  0  0  0
  151.9610  144.9443  159.6897 H   0  0  0  0  0  0  0  0  0  0  0  0
  150.7558  143.5051  156.6299 H   0  0  0  0  0  0  0  0  0  0  0  0
  148.9859  139.8117  157.7756 H   0  0  0  0  0  0  0  0  0  0  0  0
  1  2  1  0  0  0  0
  1 16  1  0  0  0  0
  1 17  1  0  0  0  0
  1 18  1  0  0  0  0
  2  3  1  0  0  0  0
  2 19  1  0  0  0  0
  2 20  1  0  0  0  0
  3 14  1  0  0  0  0
  3  4  1  0  0  0  0
  3 10  1  0  0  0  0
  4  9  2  0  0  0  0
  4  5  1  0  0  0  0
  5  6  2  0  0  0  0
  5 21  1  0  0  0  0
  6  7  1  0  0  0  0
  7  8  1  0  0  0  0
  7  9  1  0  0  0  0
  8 22  1  0  0  0  0
  8 23  1  0  0  0  0
  8 24  1  0  0  0  0
  9 25  1  0  0  0  0
 10 11  1  0  0  0  0
 10 26  1  0  0  0  0
 11 12  2  0  0  0  0
 11 13  1  0  0  0  0
 13 14  1  0  0  0  0
 14 15  2  0  0  0  0
M  CHG  1  13  -1
M  END
> <s_m_source_file>
AV-unprocessed.smi

> <i_m_source_file_index>
893

> <i_lp_mmshare_version>
43012

> <i_f3d_flags>
0

> <s_epik_input>
Tz1DMVtOSF1DKD1PKVtOSF1bQ0BAXTEoW0NIMl1bQ0gzXSljMltjSF1ubihbQ0gzXSlbY0hdMg==

> <s_epik_cmdline>
J2VwaWtfcHl0aG9uJywgJy1waCcsICc3LjAnLCAnLXRuJywgJzgnLCAnLW1hJywgJzIwMCcsICctbWV0YWxfYmluZGluZycsICctaW1hZScsICc8aW5maWxlLm1hZT4nLCAnLW9tYWUnLCAnPG91dGZpbGUubWFlPic=

> <r_lp_tautomer_probability>
1

> <r_epik_Ionization_Penalty>
1.92579

> <r_epik_Ionization_Penalty_Charging>
1.92573

> <r_epik_Ionization_Penalty_Neutral>
5.85665e-05

> <r_epik_State_Penalty>
2.04887

> <r_epik_Charging_Adjusted_Penalty>
3.97461

> <i_epik_Tot_Q>
-1

> <i_epik_Tot_abs_Q>
1

> <r_epik_Metal_State_Penalty>
0.530533

> <b_epik_Metal_Only>
0

> <s_lp_Force_Field>
OPLS_2005

> <r_lp_Energy>
5.94643

> <b_lp_Chiralities_Consistent>
1

> <s_lp_Variant>
AV-unprocessed.smi:893-3

> <Gold.Version>
5.8.1

> <Gold.Id.Protein>
6NUR|6NUR_protein|mol2

> <Gold.PLP.Fitness>
34.9637

> <Gold.PLP.PLP>
-27.4127

> <Gold.PLP.part.hbond>
-2.0000

> <Gold.PLP.part.metal>
0.0000

> <Gold.PLP.part.buried>
-3.1595

> <Gold.PLP.part.nonpolar>
-22.7361

> <Gold.PLP.part.repulsive>
0.0482

> <Gold.PLP.ligand.clash>
0.0000

> <Gold.PLP.ligand.torsion>
0.0651

> <Gold.PLP.Chemscore.Hbond>
1.5187

> <Gold.PLP.Chemscore.CHOScore>
1.0000

> <Gold.PLP.Chemscore.Metal>
0.0000

> <Gold.Chemscore.Hbonds>
donor molecule, donor type, donor heavy atom, donor atom, acceptor molecule, acceptor atom, score
      P1  H  7989  7998       L1    15  0.44
      P1  H  7997  8008       L1    15  0.99
      L1  C     9    25       P1  8028  1.00

> <Gold.PLP.Chemscore.Internal.Correction>
0.1250

> <Gold.Rescore>
     Score         DG    S(hbond)    S(metal)    S(lipo)     H(rot)  DE(clash)    DE(int)     intcor
     12.95     -13.22       1.19        0.00      60.12       1.28       0.14       0.13       ----

> <Gold.Chemscore.Fitness>
12.9538

> <Gold.Chemscore.DG>
-13.2204

> <Gold.Chemscore.ZeroCoef>
-5.4800

> <Gold.Chemscore.Hbond>
1.1930

> <Gold.Chemscore.Metal>
0.0000

> <Gold.Chemscore.Lipo>
60.1193

> <Gold.Chemscore.Internal_Hbond>
0.0000

> <Gold.Chemscore.DEClash>
0.1407

> <Gold.Chemscore.DEInternal>
0.1259

> <Gold.Chemscore.Rot>
1.2805

> <Gold.Chemscore.Internal.Correction>
   9.000000E+99

> <Gold.Chemscore.Hbonds>
donor molecule, donor type, donor heavy atom, donor atom, acceptor molecule, acceptor atom, score
      P1  H  7989  7998       L1    15  0.28
      P1  H  7997  8008       L1    15  0.91

> <Gold.Chemscore.Hbond.Weighted>
-3.9847

> <Gold.Chemscore.Metal.Weighted>
-0.0000

> <Gold.Chemscore.Lipo.Weighted>
-7.0340

> <Gold.Chemscore.Internal_Hbond.Weighted>
0.0000

> <Gold.Chemscore.DEClash.Weighted>
0.1407

> <Gold.Chemscore.DEInternal.Weighted>
0.1259

> <Gold.Chemscore.Rot.Weighted>
3.2782

> <Gold.Chemscore.Internal.Correction.Weighted>
   9.000000E+99

> <Gold.Protein.RotatedTorsions>
[ 6907 6896 6895 6894 ] final -169.34 input  -60.11 | X-H torsion
[ 7974 7965 7964 7962 ] final  -69.87 input  175.53 | X-H torsion
[ 8008 7997 7996 7995 ] final  -16.01 input   59.86 | X-H torsion
[ 10167 10162 10161 10158 ] final  164.51 input  -65.29 | X-H torsion
[ 10718 10713 10712 10709 ] final  155.22 input   66.30 | X-H torsion
[ 10763 10752 10751 10750 ] final  105.43 input  -60.55 | X-H torsion
[ 11005 11000 10999 10996 ] final  100.75 input  -57.11 | X-H torsion

> <Gold.Protein.ActiveResidues>
 VAL166  LYS551  ARG553  GLY616  TRP617  ASP618  TYR619  PRO620  LYS621  CYS622 
 ASP623  PHE694  ASN695  SER759  ASP760  ASP761  ALA762  ILE779  LEU786  VAL792 
 PHE793  MET794  SER795  GLU796  ALA797  LYS798  CYS799  TRP800  GLU811  SER814 

> <Gold.Protein.RotatedAtoms>
  151.4901  133.3527  159.2851 H   0  0  0  0  0  0  0  0  0  0  0  0  # atno 6907 bound_to 6896
  150.8840  134.8237  159.7256 H   0  0  0  0  0  0  0  0  0  0  0  0  # atno 6908 bound_to 6896
  152.4781  134.4802  159.9715 H   0  0  0  0  0  0  0  0  0  0  0  0  # atno 6909 bound_to 6896
  145.6982  140.9127  143.0745 H   0  0  0  0  0  0  0  0  0  0  0  0  # atno 7974 bound_to 7965
  154.5086  140.2181  155.9202 H   0  0  0  0  0  0  0  0  0  0  0  0  # atno 8008 bound_to 7997
  156.1524  140.3159  155.8636 H   0  0  0  0  0  0  0  0  0  0  0  0  # atno 8009 bound_to 7997
  155.3913  140.0478  157.3031 H   0  0  0  0  0  0  0  0  0  0  0  0  # atno 8010 bound_to 7997
  139.4890  144.4228  151.9166 H   0  0  0  0  0  0  0  0  0  0  0  0  # atno 10167 bound_to 10162
  157.2212  131.0719  151.1911 H   0  0  0  0  0  0  0  0  0  0  0  0  # atno 10718 bound_to 10713
  153.3792  135.3910  155.1845 H   0  0  0  0  0  0  0  0  0  0  0  0  # atno 10763 bound_to 10752
  154.8705  135.3721  154.4878 H   0  0  0  0  0  0  0  0  0  0  0  0  # atno 10764 bound_to 10752
  153.5354  135.7085  153.5724 H   0  0  0  0  0  0  0  0  0  0  0  0  # atno 10765 bound_to 10752
  139.8771  134.9154  156.4803 H   0  0  0  0  0  0  0  0  0  0  0  0  # atno 11005 bound_to 11000
  144.6976  139.8913  143.7453 LP  0  0  0  0  0  0  0  0  0  0  0  0  # atno 17320 bound_to 7965
  146.0821  139.3809  143.0458 LP  0  0  0  0  0  0  0  0  0  0  0  0  # atno 17321 bound_to 7965
  140.3673  144.2899  150.5925 LP  0  0  0  0  0  0  0  0  0  0  0  0  # atno 17342 bound_to 10162
  140.5350  143.2235  151.8177 LP  0  0  0  0  0  0  0  0  0  0  0  0  # atno 17343 bound_to 10162
  157.3574  130.7113  149.6479 LP  0  0  0  0  0  0  0  0  0  0  0  0  # atno 17370 bound_to 10713
  155.9682  130.4235  150.4566 LP  0  0  0  0  0  0  0  0  0  0  0  0  # atno 17371 bound_to 10713
  140.8732  133.7973  155.9386 LP  0  0  0  0  0  0  0  0  0  0  0  0  # atno 17394 bound_to 11000
  140.8931  134.2471  157.5083 LP  0  0  0  0  0  0  0  0  0  0  0  0  # atno 17395 bound_to 11000

$$$$
