AV-unprocessed.smi:2973|AV-procd|sdf|11352|dock8
  -GOLD-   2272016273D 1   1.00000     0.00000
 Structure written by MMmdl.
 49 51  0  0  0  0  0  0  0  0  3 V2000
  150.2987  141.0971  155.7652 C   0  0  0  0  0  0  0  0  0  0  0  0
  151.3067  141.3070  156.9168 C   0  0  1  0  0  0  0  0  0  0  0  0
  150.6611  142.1592  158.0329 C   0  0  0  0  0  0  0  0  0  0  0  0
  151.6492  142.4627  159.1685 C   0  0  0  0  0  0  0  0  0  0  0  0
  152.2298  141.1720  159.7593 C   0  0  0  0  0  0  0  0  0  0  0  0
  152.8897  140.3140  158.6660 C   0  0  0  0  0  0  0  0  0  0  0  0
  151.9437  139.9910  157.4777 C   0  0  2  0  0  0  0  0  0  0  0  0
  152.7166  139.3227  156.4445 N   0  5  0  0  0  0  0  0  0  0  0  0
  152.2316  138.0723  156.2664 C   0  0  0  0  0  0  0  0  0  0  0  0
  152.6568  137.2226  155.4840 O   0  0  0  0  0  0  0  0  0  0  0  0
  151.1822  137.8405  157.0769 N   0  0  0  0  0  0  0  0  0  0  0  0
  150.4379  136.5760  157.1437 C   0  0  0  0  0  0  0  0  0  0  0  0
  149.5104  136.3631  155.9395 C   0  0  0  0  0  0  0  0  0  0  0  0
  149.1835  137.3052  155.2161 O   0  0  0  0  0  0  0  0  0  0  0  0
  149.1039  135.1026  155.7270 N   0  0  0  0  0  0  0  0  0  0  0  0
  148.2159  134.6816  154.6505 C   0  0  0  0  0  0  0  0  0  0  0  0
  148.5399  133.2549  154.1757 C   0  0  0  0  0  0  0  0  0  0  0  0
  147.5955  132.7841  153.0872 C   0  0  0  0  0  0  0  0  0  0  0  0
  146.9821  131.5129  153.1238 C   0  0  0  0  0  0  0  0  0  0  0  0
  146.1077  131.1393  152.0817 C   0  0  0  0  0  0  0  0  0  0  0  0
  145.8642  132.0441  151.0275 C   0  0  0  0  0  0  0  0  0  0  0  0
  146.5018  133.3015  151.0423 C   0  0  0  0  0  0  0  0  0  0  0  0
  147.3329  133.6223  152.0582 N   0  3  0  0  0  0  0  0  0  0  0  0
  150.9296  138.9080  157.8422 C   0  0  0  0  0  0  0  0  0  0  0  0
  150.0456  139.0196  158.6927 O   0  0  0  0  0  0  0  0  0  0  0  0
  149.4124  140.5547  156.0949 H   0  0  0  0  0  0  0  0  0  0  0  0
  150.7415  140.5417  154.9384 H   0  0  0  0  0  0  0  0  0  0  0  0
  149.9636  142.0538  155.3644 H   0  0  0  0  0  0  0  0  0  0  0  0
  152.1222  141.9034  156.5031 H   0  0  0  0  0  0  0  0  0  0  0  0
  150.2994  143.0995  157.6159 H   0  0  0  0  0  0  0  0  0  0  0  0
  149.7842  141.6533  158.4374 H   0  0  0  0  0  0  0  0  0  0  0  0
  152.4588  143.0883  158.7904 H   0  0  0  0  0  0  0  0  0  0  0  0
  151.1521  143.0381  159.9500 H   0  0  0  0  0  0  0  0  0  0  0  0
  152.9647  141.4165  160.5266 H   0  0  0  0  0  0  0  0  0  0  0  0
  151.4438  140.6088  160.2619 H   0  0  0  0  0  0  0  0  0  0  0  0
  153.7687  140.8440  158.2950 H   0  0  0  0  0  0  0  0  0  0  0  0
  153.2674  139.3933  159.1143 H   0  0  0  0  0  0  0  0  0  0  0  0
  151.1257  135.7310  157.2015 H   0  0  0  0  0  0  0  0  0  0  0  0
  149.8550  136.5448  158.0660 H   0  0  0  0  0  0  0  0  0  0  0  0
  149.4253  134.3885  156.3646 H   0  0  0  0  0  0  0  0  0  0  0  0
  147.1769  134.7497  154.9776 H   0  0  0  0  0  0  0  0  0  0  0  0
  148.3293  135.3857  153.8259 H   0  0  0  0  0  0  0  0  0  0  0  0
  149.5635  133.2081  153.8012 H   0  0  0  0  0  0  0  0  0  0  0  0
  148.4886  132.5564  155.0122 H   0  0  0  0  0  0  0  0  0  0  0  0
  147.1775  130.8322  153.9400 H   0  0  0  0  0  0  0  0  0  0  0  0
  145.6289  130.1708  152.0917 H   0  0  0  0  0  0  0  0  0  0  0  0
  145.1983  131.7776  150.2198 H   0  0  0  0  0  0  0  0  0  0  0  0
  146.3738  134.0544  150.2783 H   0  0  0  0  0  0  0  0  0  0  0  0
  147.7832  134.5378  152.0478 H   0  0  0  0  0  0  0  0  0  0  0  0
  1  2  1  0  0  0  0
  1 26  1  0  0  0  0
  1 27  1  0  0  0  0
  1 28  1  0  0  0  0
  2  7  1  0  0  0  0
  2  3  1  0  0  0  0
  2 29  1  0  0  0  0
  3  4  1  0  0  0  0
  3 30  1  0  0  0  0
  3 31  1  0  0  0  0
  4  5  1  0  0  0  0
  4 32  1  0  0  0  0
  4 33  1  0  0  0  0
  5  6  1  0  0  0  0
  5 34  1  0  0  0  0
  5 35  1  0  0  0  0
  6  7  1  0  0  0  0
  6 36  1  0  0  0  0
  6 37  1  0  0  0  0
  7 24  1  0  0  0  0
  7  8  1  0  0  0  0
  8  9  1  0  0  0  0
  9 10  2  0  0  0  0
  9 11  1  0  0  0  0
 11 12  1  0  0  0  0
 11 24  1  0  0  0  0
 12 13  1  0  0  0  0
 12 38  1  0  0  0  0
 12 39  1  0  0  0  0
 13 14  2  0  0  0  0
 13 15  1  0  0  0  0
 15 16  1  0  0  0  0
 15 40  1  0  0  0  0
 16 17  1  0  0  0  0
 16 41  1  0  0  0  0
 16 42  1  0  0  0  0
 17 18  1  0  0  0  0
 17 43  1  0  0  0  0
 17 44  1  0  0  0  0
 18 23  1  0  0  0  0
 18 19  2  0  0  0  0
 19 20  1  0  0  0  0
 19 45  1  0  0  0  0
 20 21  2  0  0  0  0
 20 46  1  0  0  0  0
 21 22  1  0  0  0  0
 21 47  1  0  0  0  0
 22 23  2  0  0  0  0
 22 48  1  0  0  0  0
 23 49  1  0  0  0  0
 24 25  2  0  0  0  0
M  CHG  1   8  -1
M  CHG  1  23   1
M  END
> <s_m_source_file>
AV-unprocessed.smi

> <i_m_source_file_index>
2973

> <i_lp_mmshare_version>
43012

> <i_f3d_flags>
0

> <s_epik_input>
W0NIMl0xW0NIMl1bQ0gyXVtDSDJdW0NAQEhdKFtDSDNdKVtDQF0xMltOSF1DKD1PKU4oQzI9TylbQ0gyXUMoPU8pW05IXVtDSDJdW0NIMl1jM1tjSF1bY0hdW2NIXVtjSF1uMw==

> <s_epik_cmdline>
J2VwaWtfcHl0aG9uJywgJy1waCcsICc3LjAnLCAnLXRuJywgJzgnLCAnLW1hJywgJzIwMCcsICctbWV0YWxfYmluZGluZycsICctaW1hZScsICc8aW5maWxlLm1hZT4nLCAnLW9tYWUnLCAnPG91dGZpbGUubWFlPic=

> <r_lp_tautomer_probability>
1

> <r_epik_Ionization_Penalty>
7.89073

> <r_epik_Ionization_Penalty_Charging>
7.89073

> <r_epik_Ionization_Penalty_Neutral>
1.56557e-07

> <r_epik_State_Penalty>
8.01193

> <r_epik_Charging_Adjusted_Penalty>
15.9027

> <i_epik_Tot_Q>
0

> <i_epik_Tot_abs_Q>
2

> <r_epik_Metal_State_Penalty>
3.98737

> <b_epik_Metal_Only>
1

> <s_lp_Force_Field>
OPLS_2005

> <r_lp_Energy>
17.432

> <b_lp_Chiralities_Consistent>
1

> <s_lp_Variant>
AV-unprocessed.smi:2973-16

> <Gold.Version>
5.8.1

> <Gold.Id.Protein>
6NUR|6NUR_protein|mol2

> <Gold.PLP.Fitness>
47.3902

> <Gold.PLP.PLP>
-35.1508

> <Gold.PLP.part.hbond>
-3.0000

> <Gold.PLP.part.metal>
0.0000

> <Gold.PLP.part.buried>
-4.7826

> <Gold.PLP.part.nonpolar>
-27.9791

> <Gold.PLP.part.repulsive>
0.1839

> <Gold.PLP.ligand.clash>
0.0000

> <Gold.PLP.ligand.torsion>
0.7555

> <Gold.PLP.Chemscore.Hbond>
4.5760

> <Gold.PLP.Chemscore.CHOScore>
0.0000

> <Gold.PLP.Chemscore.Metal>
0.0000

> <Gold.Chemscore.Hbonds>
donor molecule, donor type, donor heavy atom, donor atom, acceptor molecule, acceptor atom, score
      L1  H    23    49       P1  7948  2.00
      P1  H  7997  8010       L1     8  2.00
      P1  H 10752 10764       L1    10  0.59

> <Gold.PLP.Chemscore.Internal.Correction>
0.0223

> <Gold.Rescore>
     Score         DG    S(hbond)    S(metal)    S(lipo)     H(rot)  DE(clash)    DE(int)     intcor
     18.50     -19.31       2.37        0.00      92.50       1.92       0.07       0.75       ----

> <Gold.Chemscore.Fitness>
18.4979

> <Gold.Chemscore.DG>
-19.3137

> <Gold.Chemscore.ZeroCoef>
-5.4800

> <Gold.Chemscore.Hbond>
2.3713

> <Gold.Chemscore.Metal>
0.0000

> <Gold.Chemscore.Lipo>
92.4970

> <Gold.Chemscore.Internal_Hbond>
0.0000

> <Gold.Chemscore.DEClash>
0.0650

> <Gold.Chemscore.DEInternal>
0.7507

> <Gold.Chemscore.Rot>
1.9175

> <Gold.Chemscore.Internal.Correction>
   9.000000E+99

> <Gold.Chemscore.Hbonds>
donor molecule, donor type, donor heavy atom, donor atom, acceptor molecule, acceptor atom, score
      L1  H    23    49       P1  7948  0.37
      P1  H  7997  8010       L1     8  0.81
      P1  H 10752 10764       L1    10  0.60

> <Gold.Chemscore.Hbond.Weighted>
-7.9203

> <Gold.Chemscore.Metal.Weighted>
-0.0000

> <Gold.Chemscore.Lipo.Weighted>
-10.8222

> <Gold.Chemscore.Internal_Hbond.Weighted>
0.0000

> <Gold.Chemscore.DEClash.Weighted>
0.0650

> <Gold.Chemscore.DEInternal.Weighted>
0.7507

> <Gold.Chemscore.Rot.Weighted>
4.9087

> <Gold.Chemscore.Internal.Correction.Weighted>
   9.000000E+99

> <Gold.Protein.RotatedTorsions>
[ 6907 6896 6895 6894 ] final   83.67 input  -60.11 | X-H torsion
[ 7974 7965 7964 7962 ] final  -81.93 input  175.53 | X-H torsion
[ 8008 7997 7996 7995 ] final   89.41 input   59.86 | X-H torsion
[ 10167 10162 10161 10158 ] final  169.15 input  -65.29 | X-H torsion
[ 10718 10713 10712 10709 ] final    2.96 input   66.30 | X-H torsion
[ 10763 10752 10751 10750 ] final  -46.84 input  -60.55 | X-H torsion
[ 11005 11000 10999 10996 ] final   64.71 input  -57.11 | X-H torsion

> <Gold.Protein.ActiveResidues>
 VAL166  LYS551  ARG553  GLY616  TRP617  ASP618  TYR619  PRO620  LYS621  CYS622 
 ASP623  PHE694  ASN695  SER759  ASP760  ASP761  ALA762  ILE779  LEU786  VAL792 
 PHE793  MET794  SER795  GLU796  ALA797  LYS798  CYS799  TRP800  GLU811  SER814 

> <Gold.Protein.RotatedAtoms>
  152.5333  134.2860  159.9024 H   0  0  0  0  0  0  0  0  0  0  0  0  # atno 6907 bound_to 6896
  151.2813  133.4202  159.2635 H   0  0  0  0  0  0  0  0  0  0  0  0  # atno 6908 bound_to 6896
  151.0281  134.9534  159.8153 H   0  0  0  0  0  0  0  0  0  0  0  0  # atno 6909 bound_to 6896
  145.5400  140.9511  143.1556 H   0  0  0  0  0  0  0  0  0  0  0  0  # atno 7974 bound_to 7965
  155.9996  140.3361  155.6832 H   0  0  0  0  0  0  0  0  0  0  0  0  # atno 8008 bound_to 7997
  155.6309  140.0685  157.2667 H   0  0  0  0  0  0  0  0  0  0  0  0  # atno 8009 bound_to 7997
  154.4245  140.1760  156.1458 H   0  0  0  0  0  0  0  0  0  0  0  0  # atno 8010 bound_to 7997
  139.4985  144.3738  151.9696 H   0  0  0  0  0  0  0  0  0  0  0  0  # atno 10167 bound_to 10162
  156.8708  130.5619  149.5657 H   0  0  0  0  0  0  0  0  0  0  0  0  # atno 10718 bound_to 10713
  154.0515  135.6630  153.4801 H   0  0  0  0  0  0  0  0  0  0  0  0  # atno 10763 bound_to 10752
  153.0462  135.5113  154.7746 H   0  0  0  0  0  0  0  0  0  0  0  0  # atno 10764 bound_to 10752
  154.6754  135.3036  154.9652 H   0  0  0  0  0  0  0  0  0  0  0  0  # atno 10765 bound_to 10752
  139.9941  134.6545  156.0041 H   0  0  0  0  0  0  0  0  0  0  0  0  # atno 11005 bound_to 11000
  144.7582  139.7023  143.7245 LP  0  0  0  0  0  0  0  0  0  0  0  0  # atno 17320 bound_to 7965
  146.1987  139.5269  142.9757 LP  0  0  0  0  0  0  0  0  0  0  0  0  # atno 17321 bound_to 7965
  140.3174  144.3468  150.6018 LP  0  0  0  0  0  0  0  0  0  0  0  0  # atno 17342 bound_to 10162
  140.5750  143.2177  151.7531 LP  0  0  0  0  0  0  0  0  0  0  0  0  # atno 17343 bound_to 10162
  156.0728  130.5757  150.9415 LP  0  0  0  0  0  0  0  0  0  0  0  0  # atno 17370 bound_to 10713
  157.6197  131.0930  150.8645 LP  0  0  0  0  0  0  0  0  0  0  0  0  # atno 17371 bound_to 10713
  141.1590  133.6540  156.4255 LP  0  0  0  0  0  0  0  0  0  0  0  0  # atno 17394 bound_to 11000
  140.4852  134.6627  157.5188 LP  0  0  0  0  0  0  0  0  0  0  0  0  # atno 17395 bound_to 11000

$$$$
