#       Name:                AV-unprocessed.smi:564
#       Creating user name   scv26
#       Creation time:       Thu Mar 26 23:45:06 2020


#       File generated by GOLD software.
#

@<TRIPOS>MOLECULE
AV-unprocessed.smi:564
    53    54     1
SMALL
NO_CHARGES


@<TRIPOS>ATOM
      1 ****        -2.7529  -1.6848  -0.1573 C.3            1 S1                 0.0000
      2 ****        -2.3586  -0.2523  -0.3797 C.2            1 S1                 0.0000
      3 ****        -2.5523   0.6293   0.5864 N.2            1 S1                 0.0000
      4 ****        -2.1037   1.7967   0.0835 N.pl3          1 S1                 0.0000
      5 ****        -2.1737   2.9953   0.8965 C.3            1 S1                 0.0000
      6 ****        -1.6159   1.6505  -1.2000 C.2            1 S1                 0.0000
      7 ****        -1.0544   2.7980  -1.9761 C.3            1 S1                 0.0000
      8 ****        -1.7588   0.3303  -1.5350 C.2            1 S1                 0.0000
      9 ****        -1.3637  -0.3628  -2.8152 C.3            1 S1                 0.0000
     10 ****         0.0975  -0.7944  -2.7088 C.2            1 S1                 0.0000
     11 ****         0.9792  -0.1367  -3.2600 O.2            1 S1                 0.0000
     12 ****         0.3430  -1.8754  -1.9527 N.am           1 S1                 0.0000
     13 ****         1.6686  -2.3508  -1.5707 C.3            1 S1                 0.0000
     14 ****         2.3845  -1.3881  -0.5956 C.3            1 S1                 0.0000
     15 ****         1.4963  -0.8697   0.4870 N.4            1 S1                 1.0000
     16 ****         1.1685  -1.9430   1.4683 C.3            1 S1                 0.0000
     17 ****         0.1592  -1.4761   2.5250 C.3            1 S1                 0.0000
     18 ****         0.6906  -0.2483   3.2625 C.3            1 S1                 0.0000
     19 ****         1.0083   0.8502   2.2464 C.3            1 S1                 0.0000
     20 ****         1.9950   0.3763   1.1556 C.3            1 S1                 0.0000
     21 ****         2.2170   1.5409   0.1678 C.3            1 S1                 0.0000
     22 ****        -1.8731  -2.3202  -0.0583 H              1 S1                 0.0000
     23 ****        -3.3438  -2.0617  -0.9922 H              1 S1                 0.0000
     24 ****        -3.3496  -1.8039   0.7480 H              1 S1                 0.0000
     25 ****        -2.7608   3.7550   0.3801 H              1 S1                 0.0000
     26 ****        -1.1684   3.3787   1.0714 H              1 S1                 0.0000
     27 ****        -2.6411   2.7820   1.8589 H              1 S1                 0.0000
     28 ****        -0.5175   2.4519  -2.8593 H              1 S1                 0.0000
     29 ****        -0.3559   3.3766  -1.3712 H              1 S1                 0.0000
     30 ****        -1.8499   3.4658  -2.3067 H              1 S1                 0.0000
     31 ****        -1.9847  -1.2380  -3.0091 H              1 S1                 0.0000
     32 ****        -1.4849   0.2922  -3.6788 H              1 S1                 0.0000
     33 ****        -0.4484  -2.3641  -1.5587 H              1 S1                 0.0000
     34 ****         1.5505  -3.3326  -1.1126 H              1 S1                 0.0000
     35 ****         2.2784  -2.5086  -2.4615 H              1 S1                 0.0000
     36 ****         3.2645  -1.8659  -0.1630 H              1 S1                 0.0000
     37 ****         2.7643  -0.5731  -1.2055 H              1 S1                 0.0000
     38 ****         0.7492  -2.8080   0.9558 H              1 S1                 0.0000
     39 ****         2.0848  -2.2803   1.9555 H              1 S1                 0.0000
     40 ****        -0.7938  -1.2404   2.0512 H              1 S1                 0.0000
     41 ****        -0.0378  -2.2802   3.2345 H              1 S1                 0.0000
     42 ****        -0.0455   0.1067   3.9846 H              1 S1                 0.0000
     43 ****         1.5875  -0.5079   3.8263 H              1 S1                 0.0000
     44 ****         0.0813   1.1848   1.7812 H              1 S1                 0.0000
     45 ****         1.4155   1.7159   2.7699 H              1 S1                 0.0000
     46 ****         2.9479   0.1440   1.6340 H              1 S1                 0.0000
     47 ****         2.3860   2.4772   0.7004 H              1 S1                 0.0000
     48 ****         1.3506   1.6840  -0.4781 H              1 S1                 0.0000
     49 ****         3.0928   1.3946  -0.4631 H              1 S1                 0.0000
     50 ****         0.6285  -0.6104   0.0393 H              1 S1                 0.0000
     51 ****        -2.9453   0.4660   1.4913 LP             1 S1                 0.0000
     52 ****         0.7402   0.6835  -3.7798 LP             1 S1                 0.0000
     53 ****         1.9348  -0.4223  -3.1882 LP             1 S1                 0.0000
@<TRIPOS>BOND
    1    1    2 1     
    2    1   22 1     
    3    1   23 1     
    4    1   24 1     
    5    2    8 1     
    6    2    3 2     
    7    3    4 1     
    8    4    5 1     
    9    4    6 1     
   10    5   25 1     
   11    5   26 1     
   12    5   27 1     
   13    6    7 1     
   14    6    8 2     
   15    7   28 1     
   16    7   29 1     
   17    7   30 1     
   18    8    9 1     
   19    9   10 1     
   20    9   31 1     
   21    9   32 1     
   22   10   11 2     
   23   10   12 am    
   24   12   13 1     
   25   12   33 1     
   26   13   14 1     
   27   13   34 1     
   28   13   35 1     
   29   14   15 1     
   30   14   36 1     
   31   14   37 1     
   32   15   20 1     
   33   15   16 1     
   34   15   50 1     
   35   16   17 1     
   36   16   38 1     
   37   16   39 1     
   38   17   18 1     
   39   17   40 1     
   40   17   41 1     
   41   18   19 1     
   42   18   42 1     
   43   18   43 1     
   44   19   20 1     
   45   19   44 1     
   46   19   45 1     
   47   20   21 1     
   48   20   46 1     
   49   21   47 1     
   50   21   48 1     
   51   21   49 1     
   52    3   51 1     
   53   11   52 1     
   54   11   53 1     
@<TRIPOS>SUBSTRUCTURE
      1 S1             1
@<TRIPOS>SET
LONE_PAIRS      STATIC     ATOMS    <user>   **** ""
3 51 52 53
DONOR_HYDROGENS      STATIC     ATOMS    <user>   **** ""
2 33 50
ATOM$BLUE        STATIC     ATOMS    COLORGROUP SYSTEM
3 51 52 53
ATOM$RED        STATIC     ATOMS    COLORGROUP SYSTEM
2 33 50
