AV-unprocessed.smi:2639|AV-procd|sdf|10267|dock2
  -GOLD-   2272014273D 1   1.00000     0.00000
 Structure written by MMmdl.
 44 45  0  0  0  0  0  0  0  0  2 V2000
  143.6550  136.7396  152.0969 C   0  0  0  0  0  0  0  0  0  0  0  0
  144.8602  135.8389  152.4732 C   0  0  2  0  0  0  0  0  0  0  0  0
  144.5906  135.1689  153.8483 C   0  0  0  0  0  0  0  0  0  0  0  0
  143.2555  134.7158  153.9692 O   0  0  0  0  0  0  0  0  0  0  0  0
  146.0598  136.6742  152.6505 N   0  0  0  0  0  0  0  0  0  0  0  0
  146.1639  137.8939  153.2054 C   0  0  0  0  0  0  0  0  0  0  0  0
  145.2134  138.5278  153.6620 O   0  0  0  0  0  0  0  0  0  0  0  0
  147.4416  138.3110  153.2075 N   0  0  0  0  0  0  0  0  0  0  0  0
  147.9704  139.5467  153.6701 C   0  0  0  0  0  0  0  0  0  0  0  0
  147.2024  140.7111  153.4458 C   0  0  0  0  0  0  0  0  0  0  0  0
  147.6779  141.9571  153.9029 C   0  0  0  0  0  0  0  0  0  0  0  0
  148.8558  142.0277  154.5593 N   0  3  0  0  0  0  0  0  0  0  0  0
  149.6177  140.9414  154.8102 C   0  0  0  0  0  0  0  0  0  0  0  0
  149.1941  139.6685  154.3768 C   0  0  0  0  0  0  0  0  0  0  0  0
  145.1140  134.7599  151.3585 C   0  0  0  0  0  0  0  0  0  0  0  0
  143.9089  133.8234  151.0849 C   0  0  0  0  0  0  0  0  0  0  0  0
  144.1774  132.8787  149.9019 C   0  0  0  0  0  0  0  0  0  0  0  0
  145.4472  132.0471  150.1301 C   0  0  0  0  0  0  0  0  0  0  0  0
  146.6546  132.9551  150.3998 C   0  0  0  0  0  0  0  0  0  0  0  0
  146.3885  133.9022  151.5809 C   0  0  0  0  0  0  0  0  0  0  0  0
  142.7088  136.2082  152.1973 H   0  0  0  0  0  0  0  0  0  0  0  0
  143.7165  137.0974  151.0691 H   0  0  0  0  0  0  0  0  0  0  0  0
  143.5928  137.6175  152.7411 H   0  0  0  0  0  0  0  0  0  0  0  0
  145.2355  134.3038  153.9976 H   0  0  0  0  0  0  0  0  0  0  0  0
  144.7855  135.8562  154.6714 H   0  0  0  0  0  0  0  0  0  0  0  0
  143.2695  133.7954  154.1836 H   0  0  0  0  0  0  0  0  0  0  0  0
  146.9174  136.2540  152.3231 H   0  0  0  0  0  0  0  0  0  0  0  0
  148.1241  137.6420  152.8822 H   0  0  0  0  0  0  0  0  0  0  0  0
  146.2583  140.6548  152.9231 H   0  0  0  0  0  0  0  0  0  0  0  0
  147.1538  142.8917  153.7661 H   0  0  0  0  0  0  0  0  0  0  0  0
  150.5345  141.1200  155.3530 H   0  0  0  0  0  0  0  0  0  0  0  0
  149.8090  138.8119  154.6062 H   0  0  0  0  0  0  0  0  0  0  0  0
  145.2743  135.3030  150.4267 H   0  0  0  0  0  0  0  0  0  0  0  0
  143.6845  133.2223  151.9656 H   0  0  0  0  0  0  0  0  0  0  0  0
  143.0112  134.3996  150.8652 H   0  0  0  0  0  0  0  0  0  0  0  0
  143.3229  132.2178  149.7541 H   0  0  0  0  0  0  0  0  0  0  0  0
  144.2800  133.4598  148.9844 H   0  0  0  0  0  0  0  0  0  0  0  0
  145.2981  131.3737  150.9752 H   0  0  0  0  0  0  0  0  0  0  0  0
  145.6416  131.4167  149.2621 H   0  0  0  0  0  0  0  0  0  0  0  0
  147.5368  132.3476  150.6031 H   0  0  0  0  0  0  0  0  0  0  0  0
  146.8806  133.5389  149.5066 H   0  0  0  0  0  0  0  0  0  0  0  0
  147.2664  134.5327  151.7186 H   0  0  0  0  0  0  0  0  0  0  0  0
  146.2905  133.3090  152.4899 H   0  0  0  0  0  0  0  0  0  0  0  0
  149.1814  142.9388  154.8840 H   0  0  0  0  0  0  0  0  0  0  0  0
  1  2  1  0  0  0  0
  1 21  1  0  0  0  0
  1 22  1  0  0  0  0
  1 23  1  0  0  0  0
  2  3  1  0  0  0  0
  2  5  1  0  0  0  0
  2 15  1  0  0  0  0
  3  4  1  0  0  0  0
  3 24  1  0  0  0  0
  3 25  1  0  0  0  0
  4 26  1  0  0  0  0
  5  6  1  0  0  0  0
  5 27  1  0  0  0  0
  6  7  2  0  0  0  0
  6  8  1  0  0  0  0
  8  9  1  0  0  0  0
  8 28  1  0  0  0  0
  9 14  1  0  0  0  0
  9 10  2  0  0  0  0
 10 11  1  0  0  0  0
 10 29  1  0  0  0  0
 11 12  2  0  0  0  0
 11 30  1  0  0  0  0
 12 13  1  0  0  0  0
 12 44  1  0  0  0  0
 13 14  2  0  0  0  0
 13 31  1  0  0  0  0
 14 32  1  0  0  0  0
 15 20  1  0  0  0  0
 15 16  1  0  0  0  0
 15 33  1  0  0  0  0
 16 17  1  0  0  0  0
 16 34  1  0  0  0  0
 16 35  1  0  0  0  0
 17 18  1  0  0  0  0
 17 36  1  0  0  0  0
 17 37  1  0  0  0  0
 18 19  1  0  0  0  0
 18 38  1  0  0  0  0
 18 39  1  0  0  0  0
 19 20  1  0  0  0  0
 19 40  1  0  0  0  0
 19 41  1  0  0  0  0
 20 42  1  0  0  0  0
 20 43  1  0  0  0  0
M  CHG  1  12   1
M  END
> <s_m_source_file>
AV-unprocessed.smi

> <i_m_source_file_index>
2639

> <i_lp_mmshare_version>
43012

> <i_f3d_flags>
0

> <s_epik_input>
W0NIMl0xW0NIMl1bQ0gyXVtDSDJdW0NIMl1bQ0hdMVtDQF0oW0NIM10pKFtDSDJdW09IXSlbTkhdQyg9TylbTkhdYzJbY0hdW2NIXW5bY0hdW2NIXTI=

> <s_epik_cmdline>
J2VwaWtfcHl0aG9uJywgJy1waCcsICc3LjAnLCAnLXRuJywgJzgnLCAnLW1hJywgJzIwMCcsICctbWV0YWxfYmluZGluZycsICctaW1hZScsICc8aW5maWxlLm1hZT4nLCAnLW9tYWUnLCAnPG91dGZpbGUubWFlPic=

> <r_epik_Ionization_Penalty>
1.0096

> <r_epik_Ionization_Penalty_Charging>
1.00958

> <r_epik_Ionization_Penalty_Neutral>
2.00022e-05

> <r_epik_State_Penalty>
1.05889

> <r_epik_Charging_Adjusted_Penalty>
2.06847

> <i_epik_Tot_Q>
1

> <i_epik_Tot_abs_Q>
1

> <r_epik_Metal_State_Penalty>
1.15945

> <b_epik_Metal_Only>
0

> <s_lp_Force_Field>
OPLS_2005

> <r_lp_Energy>
31.9269

> <b_lp_Chiralities_Consistent>
1

> <s_lp_Variant>
AV-unprocessed.smi:2639-4

> <Gold.Version>
5.8.1

> <Gold.Id.Protein>
6NUR|6NUR_protein|mol2

> <Gold.PLP.Fitness>
48.9828

> <Gold.PLP.PLP>
-35.9945

> <Gold.PLP.part.hbond>
-4.0000

> <Gold.PLP.part.metal>
0.0000

> <Gold.PLP.part.buried>
-3.2820

> <Gold.PLP.part.nonpolar>
-28.9114

> <Gold.PLP.part.repulsive>
1.0657

> <Gold.PLP.ligand.clash>
0.0000

> <Gold.PLP.ligand.torsion>
1.0247

> <Gold.PLP.Chemscore.Hbond>
4.9913

> <Gold.PLP.Chemscore.CHOScore>
0.0000

> <Gold.PLP.Chemscore.Metal>
0.0000

> <Gold.Chemscore.Hbonds>
donor molecule, donor type, donor heavy atom, donor atom, acceptor molecule, acceptor atom, score
      L1  H     4    26       P1 10957  0.57
      L1  H     5    27       P1  7948  0.89
      L1  H     8    28       P1  7948  1.00
      L1  H    12    44       P1  8028  2.00

> <Gold.PLP.Chemscore.Internal.Correction>
0.0640

> <Gold.Rescore>
     Score         DG    S(hbond)    S(metal)    S(lipo)     H(rot)  DE(clash)    DE(int)     intcor
     19.39     -22.94       3.72        0.00      87.04       2.02       0.09       3.45       ----

> <Gold.Chemscore.Fitness>
19.3919

> <Gold.Chemscore.DG>
-22.9378

> <Gold.Chemscore.ZeroCoef>
-5.4800

> <Gold.Chemscore.Hbond>
3.7234

> <Gold.Chemscore.Metal>
0.0000

> <Gold.Chemscore.Lipo>
87.0430

> <Gold.Chemscore.Internal_Hbond>
0.0000

> <Gold.Chemscore.DEClash>
0.0944

> <Gold.Chemscore.DEInternal>
3.4515

> <Gold.Chemscore.Rot>
2.0165

> <Gold.Chemscore.Internal.Correction>
   9.000000E+99

> <Gold.Chemscore.Hbonds>
donor molecule, donor type, donor heavy atom, donor atom, acceptor molecule, acceptor atom, score
      L1  H     4    26       P1 10957  0.56
      L1  H     5    27       P1  7948  0.85
      L1  H     8    28       P1  7948  0.99
      L1  H    12    44       P1  8028  0.95

> <Gold.Chemscore.Hbond.Weighted>
-12.4360

> <Gold.Chemscore.Metal.Weighted>
-0.0000

> <Gold.Chemscore.Lipo.Weighted>
-10.1840

> <Gold.Chemscore.Internal_Hbond.Weighted>
0.0000

> <Gold.Chemscore.DEClash.Weighted>
0.0944

> <Gold.Chemscore.DEInternal.Weighted>
3.4515

> <Gold.Chemscore.Rot.Weighted>
5.1622

> <Gold.Chemscore.Internal.Correction.Weighted>
   9.000000E+99

> <Gold.Protein.RotatedTorsions>
[ 6907 6896 6895 6894 ] final  151.68 input  -60.11 | X-H torsion
[ 7974 7965 7964 7962 ] final  154.27 input  175.53 | X-H torsion
[ 8008 7997 7996 7995 ] final -120.69 input   59.86 | X-H torsion
[ 10167 10162 10161 10158 ] final  100.07 input  -65.29 | X-H torsion
[ 10718 10713 10712 10709 ] final  175.41 input   66.30 | X-H torsion
[ 10763 10752 10751 10750 ] final    1.52 input  -60.55 | X-H torsion
[ 11005 11000 10999 10996 ] final -146.49 input  -57.11 | X-H torsion

> <Gold.Protein.ActiveResidues>
 VAL166  LYS551  ARG553  GLY616  TRP617  ASP618  TYR619  PRO620  LYS621  CYS622 
 ASP623  PHE694  ASN695  SER759  ASP760  ASP761  ALA762  ILE779  LEU786  VAL792 
 PHE793  MET794  SER795  GLU796  ALA797  LYS798  CYS799  TRP800  GLU811  SER814 

> <Gold.Protein.RotatedAtoms>
  152.0973  133.4231  159.4570 H   0  0  0  0  0  0  0  0  0  0  0  0  # atno 6907 bound_to 6896
  150.6863  134.2802  159.4633 H   0  0  0  0  0  0  0  0  0  0  0  0  # atno 6908 bound_to 6896
  152.0659  134.9564  160.0625 H   0  0  0  0  0  0  0  0  0  0  0  0  # atno 6909 bound_to 6896
  144.8099  139.6911  143.6146 H   0  0  0  0  0  0  0  0  0  0  0  0  # atno 7974 bound_to 7965
  155.1358  140.0401  157.2786 H   0  0  0  0  0  0  0  0  0  0  0  0  # atno 8008 bound_to 7997
  154.6509  140.2569  155.7189 H   0  0  0  0  0  0  0  0  0  0  0  0  # atno 8009 bound_to 7997
  156.2576  140.2836  156.0942 H   0  0  0  0  0  0  0  0  0  0  0  0  # atno 8010 bound_to 7997
  139.7560  144.6969  151.0362 H   0  0  0  0  0  0  0  0  0  0  0  0  # atno 10167 bound_to 10162
  156.9352  130.9984  151.2979 H   0  0  0  0  0  0  0  0  0  0  0  0  # atno 10718 bound_to 10713
  153.3070  135.6960  153.7150 H   0  0  0  0  0  0  0  0  0  0  0  0  # atno 10763 bound_to 10752
  153.6042  135.3456  155.2957 H   0  0  0  0  0  0  0  0  0  0  0  0  # atno 10764 bound_to 10752
  154.8565  135.4348  154.2198 H   0  0  0  0  0  0  0  0  0  0  0  0  # atno 10765 bound_to 10752
  140.7814  134.3074  157.5044 H   0  0  0  0  0  0  0  0  0  0  0  0  # atno 11005 bound_to 11000
  146.2397  139.5975  142.9500 LP  0  0  0  0  0  0  0  0  0  0  0  0  # atno 17320 bound_to 7965
  145.5348  141.0425  143.2363 LP  0  0  0  0  0  0  0  0  0  0  0  0  # atno 17321 bound_to 7965
  140.7803  143.4753  151.0091 LP  0  0  0  0  0  0  0  0  0  0  0  0  # atno 17342 bound_to 10162
  139.8439  143.7527  152.3180 LP  0  0  0  0  0  0  0  0  0  0  0  0  # atno 17343 bound_to 10162
  157.5821  130.8383  149.8537 LP  0  0  0  0  0  0  0  0  0  0  0  0  # atno 17370 bound_to 10713
  156.0429  130.3734  150.1390 LP  0  0  0  0  0  0  0  0  0  0  0  0  # atno 17371 bound_to 10713
  139.8742  134.9321  156.3544 LP  0  0  0  0  0  0  0  0  0  0  0  0  # atno 17394 bound_to 11000
  140.9478  133.7471  156.0232 LP  0  0  0  0  0  0  0  0  0  0  0  0  # atno 17395 bound_to 11000

$$$$
