AV-unprocessed.smi:3349|AV-procd|sdf|12933|dock9
  -GOLD-   2272019363D 1   1.00000     0.00000
 Structure written by MMmdl.
 40 41  0  0  0  0  0  0  0  0  1 V2000
  154.1434  142.6750  162.0704 C   0  0  0  0  0  0  0  0  0  0  0  0
  153.1249  142.3771  160.9390 C   0  0  2  0  0  0  0  0  0  0  0  0
  153.6707  141.2125  160.0671 C   0  0  0  0  0  0  0  0  0  0  0  0
  152.6009  140.3843  159.5234 N   0  0  0  0  0  0  0  0  0  0  0  0
  152.7691  139.3957  158.6322 C   0  0  0  0  0  0  0  0  0  0  0  0
  153.8616  139.1226  158.1336 O   0  0  0  0  0  0  0  0  0  0  0  0
  151.5059  138.6024  158.2546 C   0  0  1  0  0  0  0  0  0  0  0  0
  150.6888  138.1458  159.4805 C   0  0  0  0  0  0  0  0  0  0  0  0
  150.6919  139.3599  157.3103 N   0  0  0  0  0  0  0  0  0  0  0  0
  150.3321  139.0660  156.0589 C   0  0  0  0  0  0  0  0  0  0  0  0
  149.6223  140.0151  155.4651 N   0  0  0  0  0  0  0  0  0  0  0  0
  149.5834  140.9352  156.4739 C   0  0  0  0  0  0  0  0  0  0  0  0
  150.2157  140.5972  157.5975 N   0  0  0  0  0  0  0  0  0  0  0  0
  152.7742  143.5831  160.1532 N   0  0  0  0  0  0  0  0  0  0  0  0
  151.9566  143.2761  158.9735 C   0  0  0  0  0  0  0  0  0  0  0  0
  151.5643  144.5309  158.1740 C   0  0  0  0  0  0  0  0  0  0  0  0
  150.8796  145.4445  159.0196 O   0  0  0  0  0  0  0  0  0  0  0  0
  151.6696  145.8314  160.1352 C   0  0  0  0  0  0  0  0  0  0  0  0
  152.0588  144.5862  160.9505 C   0  0  0  0  0  0  0  0  0  0  0  0
  154.4395  141.7796  162.6162 H   0  0  0  0  0  0  0  0  0  0  0  0
  153.7373  143.3443  162.8276 H   0  0  0  0  0  0  0  0  0  0  0  0
  155.0518  143.1283  161.6722 H   0  0  0  0  0  0  0  0  0  0  0  0
  152.2144  142.0139  161.4188 H   0  0  0  0  0  0  0  0  0  0  0  0
  154.2254  141.5780  159.2045 H   0  0  0  0  0  0  0  0  0  0  0  0
  154.3574  140.6026  160.6571 H   0  0  0  0  0  0  0  0  0  0  0  0
  151.6712  140.5502  159.8800 H   0  0  0  0  0  0  0  0  0  0  0  0
  151.8423  137.7028  157.7367 H   0  0  0  0  0  0  0  0  0  0  0  0
  151.2863  137.5147  160.1393 H   0  0  0  0  0  0  0  0  0  0  0  0
  149.8202  137.5632  159.1726 H   0  0  0  0  0  0  0  0  0  0  0  0
  150.3276  138.9904  160.0693 H   0  0  0  0  0  0  0  0  0  0  0  0
  150.6011  138.1415  155.5691 H   0  0  0  0  0  0  0  0  0  0  0  0
  149.0788  141.8851  156.3753 H   0  0  0  0  0  0  0  0  0  0  0  0
  152.4959  142.6240  158.2896 H   0  0  0  0  0  0  0  0  0  0  0  0
  151.0539  142.7436  159.2771 H   0  0  0  0  0  0  0  0  0  0  0  0
  152.4477  145.0092  157.7477 H   0  0  0  0  0  0  0  0  0  0  0  0
  150.9138  144.2612  157.3418 H   0  0  0  0  0  0  0  0  0  0  0  0
  152.5586  146.3649  159.7952 H   0  0  0  0  0  0  0  0  0  0  0  0
  151.0973  146.5241  160.7525 H   0  0  0  0  0  0  0  0  0  0  0  0
  151.1608  144.1427  161.3835 H   0  0  0  0  0  0  0  0  0  0  0  0
  152.6748  144.9291  161.7798 H   0  0  0  0  0  0  0  0  0  0  0  0
  1  2  1  0  0  0  0
  1 20  1  0  0  0  0
  1 21  1  0  0  0  0
  1 22  1  0  0  0  0
  2  3  1  0  0  0  0
  2 14  1  0  0  0  0
  2 23  1  0  0  0  0
  3  4  1  0  0  0  0
  3 24  1  0  0  0  0
  3 25  1  0  0  0  0
  4  5  1  0  0  0  0
  4 26  1  0  0  0  0
  5  6  2  0  0  0  0
  5  7  1  0  0  0  0
  7  8  1  0  0  0  0
  7  9  1  0  0  0  0
  7 27  1  0  0  0  0
  8 28  1  0  0  0  0
  8 29  1  0  0  0  0
  8 30  1  0  0  0  0
  9 13  1  0  0  0  0
  9 10  1  0  0  0  0
 10 11  2  0  0  0  0
 10 31  1  0  0  0  0
 11 12  1  0  0  0  0
 12 13  2  0  0  0  0
 12 32  1  0  0  0  0
 14 19  1  0  0  0  0
 14 15  1  0  0  0  0
 15 16  1  0  0  0  0
 15 33  1  0  0  0  0
 15 34  1  0  0  0  0
 16 17  1  0  0  0  0
 16 35  1  0  0  0  0
 16 36  1  0  0  0  0
 17 18  1  0  0  0  0
 18 19  1  0  0  0  0
 18 37  1  0  0  0  0
 18 38  1  0  0  0  0
 19 39  1  0  0  0  0
 19 40  1  0  0  0  0
M  END
> <s_m_source_file>
AV-unprocessed.smi

> <i_m_source_file_index>
3349

> <i_lp_mmshare_version>
43012

> <i_f3d_flags>
0

> <s_epik_input>
W0NIMl0xW0NIMl1PW0NIMl1bQ0gyXU4xW0NASF0oW0NIM10pW0NIMl1bTkhdQyg9TylbQ0BIXShbQ0gzXSluMltjSF1uW2NIXW4y

> <s_epik_cmdline>
J2VwaWtfcHl0aG9uJywgJy1waCcsICc3LjAnLCAnLXRuJywgJzgnLCAnLW1hJywgJzIwMCcsICctbWV0YWxfYmluZGluZycsICctaW1hZScsICc8aW5maWxlLm1hZT4nLCAnLW9tYWUnLCAnPG91dGZpbGUubWFlPic=

> <r_lp_tautomer_probability>
1

> <r_epik_Ionization_Penalty>
0.211373

> <r_epik_Ionization_Penalty_Charging>
0

> <r_epik_Ionization_Penalty_Neutral>
0.211373

> <r_epik_State_Penalty>
0.201459

> <r_epik_Charging_Adjusted_Penalty>
0.201459

> <i_epik_Tot_Q>
0

> <i_epik_Tot_abs_Q>
0

> <r_epik_Metal_State_Penalty>
0.201458

> <b_epik_Metal_Only>
0

> <s_lp_Force_Field>
OPLS_2005

> <r_lp_Energy>
35.2026

> <b_lp_Chiralities_Consistent>
1

> <s_lp_Variant>
AV-unprocessed.smi:3349-3

> <Gold.Version>
5.8.1

> <Gold.Id.Protein>
6NUR|6NUR_protein|mol2

> <Gold.PLP.Fitness>
50.3680

> <Gold.PLP.PLP>
-43.0082

> <Gold.PLP.part.hbond>
-3.0000

> <Gold.PLP.part.metal>
0.0000

> <Gold.PLP.part.buried>
-5.2738

> <Gold.PLP.part.nonpolar>
-34.6669

> <Gold.PLP.part.repulsive>
0.4240

> <Gold.PLP.ligand.clash>
0.0000

> <Gold.PLP.ligand.torsion>
0.8835

> <Gold.PLP.Chemscore.Hbond>
1.9920

> <Gold.PLP.Chemscore.CHOScore>
1.0000

> <Gold.PLP.Chemscore.Metal>
0.0000

> <Gold.Chemscore.Hbonds>
donor molecule, donor type, donor heavy atom, donor atom, acceptor molecule, acceptor atom, score
      P1  H  7997  8010       L1     6  1.00
      L1  C    12    32       P1  8028  0.01

> <Gold.PLP.Chemscore.Internal.Correction>
0.1508

> <Gold.Rescore>
     Score         DG    S(hbond)    S(metal)    S(lipo)     H(rot)  DE(clash)    DE(int)     intcor
     13.88     -15.53       1.91        0.00      87.39       2.56       0.01       1.65       ----

> <Gold.Chemscore.Fitness>
13.8760

> <Gold.Chemscore.DG>
-15.5310

> <Gold.Chemscore.ZeroCoef>
-5.4800

> <Gold.Chemscore.Hbond>
1.9078

> <Gold.Chemscore.Metal>
0.0000

> <Gold.Chemscore.Lipo>
87.3906

> <Gold.Chemscore.Internal_Hbond>
0.0000

> <Gold.Chemscore.DEClash>
0.0077

> <Gold.Chemscore.DEInternal>
1.6473

> <Gold.Chemscore.Rot>
2.5570

> <Gold.Chemscore.Internal.Correction>
   9.000000E+99

> <Gold.Chemscore.Hbonds>
donor molecule, donor type, donor heavy atom, donor atom, acceptor molecule, acceptor atom, score
      P1  H  7997  8010       L1     6  0.98

> <Gold.Chemscore.Hbond.Weighted>
-6.3722

> <Gold.Chemscore.Metal.Weighted>
-0.0000

> <Gold.Chemscore.Lipo.Weighted>
-10.2247

> <Gold.Chemscore.Internal_Hbond.Weighted>
0.0000

> <Gold.Chemscore.DEClash.Weighted>
0.0077

> <Gold.Chemscore.DEInternal.Weighted>
1.6473

> <Gold.Chemscore.Rot.Weighted>
6.5459

> <Gold.Chemscore.Internal.Correction.Weighted>
   9.000000E+99

> <Gold.Protein.RotatedTorsions>
[ 6907 6896 6895 6894 ] final  104.40 input  -60.11 | X-H torsion
[ 7974 7965 7964 7962 ] final   82.69 input  175.53 | X-H torsion
[ 8008 7997 7996 7995 ] final   23.85 input   59.86 | X-H torsion
[ 10167 10162 10161 10158 ] final  -71.49 input  -65.29 | X-H torsion
[ 10718 10713 10712 10709 ] final -109.35 input   66.30 | X-H torsion
[ 10763 10752 10751 10750 ] final -137.71 input  -60.55 | X-H torsion
[ 11005 11000 10999 10996 ] final   62.22 input  -57.11 | X-H torsion

> <Gold.Protein.ActiveResidues>
 VAL166  LYS551  ARG553  GLY616  TRP617  ASP618  TYR619  PRO620  LYS621  CYS622 
 ASP623  PHE694  ASN695  SER759  ASP760  ASP761  ALA762  ILE779  LEU786  VAL792 
 PHE793  MET794  SER795  GLU796  ALA797  LYS798  CYS799  TRP800  GLU811  SER814 

> <Gold.Protein.RotatedAtoms>
  152.5265  133.9682  159.7749 H   0  0  0  0  0  0  0  0  0  0  0  0  # atno 6907 bound_to 6896
  150.9959  133.6095  159.2709 H   0  0  0  0  0  0  0  0  0  0  0  0  # atno 6908 bound_to 6896
  151.3222  135.0827  159.9363 H   0  0  0  0  0  0  0  0  0  0  0  0  # atno 6909 bound_to 6896
  145.6217  139.2387  143.2134 H   0  0  0  0  0  0  0  0  0  0  0  0  # atno 7974 bound_to 7965
  154.9873  140.3109  155.4921 H   0  0  0  0  0  0  0  0  0  0  0  0  # atno 8008 bound_to 7997
  156.2945  140.2255  156.4915 H   0  0  0  0  0  0  0  0  0  0  0  0  # atno 8009 bound_to 7997
  154.7735  140.0450  157.1059 H   0  0  0  0  0  0  0  0  0  0  0  0  # atno 8010 bound_to 7997
  140.5269  143.2325  151.7331 H   0  0  0  0  0  0  0  0  0  0  0  0  # atno 10167 bound_to 10162
  156.0532  130.5759  150.8088 H   0  0  0  0  0  0  0  0  0  0  0  0  # atno 10718 bound_to 10713
  154.8655  135.3634  154.5268 H   0  0  0  0  0  0  0  0  0  0  0  0  # atno 10763 bound_to 10752
  153.5895  135.7016  153.5434 H   0  0  0  0  0  0  0  0  0  0  0  0  # atno 10764 bound_to 10752
  153.3386  135.4104  155.1515 H   0  0  0  0  0  0  0  0  0  0  0  0  # atno 10765 bound_to 10752
  140.0107  134.6301  155.9785 H   0  0  0  0  0  0  0  0  0  0  0  0  # atno 11005 bound_to 11000
  146.1426  140.7037  142.9360 LP  0  0  0  0  0  0  0  0  0  0  0  0  # atno 17320 bound_to 7965
  144.7228  140.4429  143.6995 LP  0  0  0  0  0  0  0  0  0  0  0  0  # atno 17321 bound_to 7965
  139.4941  144.4172  152.0017 LP  0  0  0  0  0  0  0  0  0  0  0  0  # atno 17342 bound_to 10162
  140.3272  144.3359  150.5995 LP  0  0  0  0  0  0  0  0  0  0  0  0  # atno 17343 bound_to 10162
  157.5479  131.0943  150.9737 LP  0  0  0  0  0  0  0  0  0  0  0  0  # atno 17370 bound_to 10713
  157.0004  130.5597  149.5311 LP  0  0  0  0  0  0  0  0  0  0  0  0  # atno 17371 bound_to 10713
  141.1709  133.6537  156.4647 LP  0  0  0  0  0  0  0  0  0  0  0  0  # atno 17394 bound_to 11000
  140.4560  134.6885  157.5062 LP  0  0  0  0  0  0  0  0  0  0  0  0  # atno 17395 bound_to 11000

$$$$
