#       Name:                AV-unprocessed.smi:3107
#       Creating user name   scv26
#       Creation time:       Fri Mar 27 17:19:56 2020


#       File generated by GOLD software.
#

@<TRIPOS>MOLECULE
AV-unprocessed.smi:3107
    38    39     1
SMALL
NO_CHARGES


@<TRIPOS>ATOM
      1 ****        -5.9343   2.1832   0.1973 C.2            1 S1                 0.0000
      2 ****        -5.7515   1.7815  -1.1555 C.2            1 S1                 0.0000
      3 ****        -4.4754   1.6448  -1.4788 N.2            1 S1                 0.0000
      4 ****        -3.8048   1.9546  -0.3485 N.pl3          1 S1                 0.0000
      5 ****        -2.3557   1.9112  -0.3397 C.3            1 S1                 0.0000
      6 ****        -1.8314   0.4691  -0.2868 C.3            1 S1                 0.0000
      7 ****        -0.3564   0.4410  -0.2996 N.4            1 S1                 1.0000
      8 ****         0.2201  -0.9176  -0.2463 C.3            1 S1                 0.0000
      9 ****         1.7597  -0.8827  -0.2614 C.3            1 S1                 0.0000
     10 ****         2.3407  -2.2971  -0.4673 C.3            1 S1                 0.0000
     11 ****         3.8782  -2.2883  -0.4795 C.3            1 S1                 0.0000
     12 ****         4.4426  -1.6548   0.8008 C.3            1 S1                 0.0000
     13 ****         3.8746  -0.2439   1.0144 C.3            1 S1                 0.0000
     14 ****         2.3373  -0.2590   1.0284 C.3            1 S1                 0.0000
     15 ****        -4.6613   2.2855   0.6805 C.2            1 S1                 0.0000
     16 ****        -6.8563   2.3685   0.7284 H              1 S1                 0.0000
     17 ****        -6.5025   1.5862  -1.9068 H              1 S1                 0.0000
     18 ****        -1.9887   2.4209  -1.2321 H              1 S1                 0.0000
     19 ****        -1.9966   2.4788   0.5199 H              1 S1                 0.0000
     20 ****        -2.1931  -0.0259   0.6157 H              1 S1                 0.0000
     21 ****        -2.2057  -0.0996  -1.1393 H              1 S1                 0.0000
     22 ****        -0.0339   0.8924  -1.1437 H              1 S1                 0.0000
     23 ****        -0.1382  -1.4346   0.6452 H              1 S1                 0.0000
     24 ****        -0.1456  -1.4781  -1.1078 H              1 S1                 0.0000
     25 ****         2.0749  -0.2717  -1.1090 H              1 S1                 0.0000
     26 ****         1.9890  -2.9596   0.3250 H              1 S1                 0.0000
     27 ****         1.9754  -2.7185  -1.4047 H              1 S1                 0.0000
     28 ****         4.2544  -3.3062  -0.5859 H              1 S1                 0.0000
     29 ****         4.2347  -1.7352  -1.3494 H              1 S1                 0.0000
     30 ****         4.1969  -2.2821   1.6588 H              1 S1                 0.0000
     31 ****         5.5310  -1.6142   0.7480 H              1 S1                 0.0000
     32 ****         4.2505   0.1692   1.9508 H              1 S1                 0.0000
     33 ****         4.2278   0.4169   0.2216 H              1 S1                 0.0000
     34 ****         1.9722   0.7606   1.1545 H              1 S1                 0.0000
     35 ****         1.9895  -0.8197   1.8972 H              1 S1                 0.0000
     36 ****        -4.2992   2.5622   1.6597 H              1 S1                 0.0000
     37 ****        -0.0180   0.9629   0.4961 H              1 S1                 0.0000
     38 ****        -4.0935   1.3730  -2.3621 LP             1 S1                 0.0000
@<TRIPOS>BOND
    1    1   15 2     
    2    1    2 1     
    3    1   16 1     
    4    2    3 2     
    5    2   17 1     
    6    3    4 1     
    7    4    5 1     
    8    4   15 1     
    9    5    6 1     
   10    5   18 1     
   11    5   19 1     
   12    6    7 1     
   13    6   20 1     
   14    6   21 1     
   15    7    8 1     
   16    7   22 1     
   17    7   37 1     
   18    8    9 1     
   19    8   23 1     
   20    8   24 1     
   21    9   14 1     
   22    9   10 1     
   23    9   25 1     
   24   10   11 1     
   25   10   26 1     
   26   10   27 1     
   27   11   12 1     
   28   11   28 1     
   29   11   29 1     
   30   12   13 1     
   31   12   30 1     
   32   12   31 1     
   33   13   14 1     
   34   13   32 1     
   35   13   33 1     
   36   14   34 1     
   37   14   35 1     
   38   15   36 1     
   39    3   38 1     
@<TRIPOS>SUBSTRUCTURE
      1 S1             1
@<TRIPOS>SET
LONE_PAIRS      STATIC     ATOMS    <user>   **** ""
1 38
DONOR_HYDROGENS      STATIC     ATOMS    <user>   **** ""
2 22 37
ATOM$BLUE        STATIC     ATOMS    COLORGROUP SYSTEM
1 38
ATOM$RED        STATIC     ATOMS    COLORGROUP SYSTEM
2 22 37
