#       Name:                AV-unprocessed.smi:1393
#       Creating user name   scv26
#       Creation time:       Fri Mar 27 05:28:45 2020


#       File generated by GOLD software.
#

@<TRIPOS>MOLECULE
AV-unprocessed.smi:1393
    45    46     1
SMALL
NO_CHARGES


@<TRIPOS>ATOM
      1 ****        -0.1869   1.1155   0.0182 O.2            1 S1                 0.0000
      2 ****         0.4920   0.2559  -0.5458 C.2            1 S1                 0.0000
      3 ****         2.0073   0.4313  -0.7227 C.3            1 S1                 0.0000
      4 ****         2.5623   1.5700   0.0292 N.am           1 S1                 0.0000
      5 ****         2.7561   2.7670  -0.6830 C.2            1 S1                 0.0000
      6 ****         3.2508   3.8650  -0.0961 C.2            1 S1                 0.0000
      7 ****         3.5825   3.7981   1.3062 C.2            1 S1                 0.0000
      8 ****         3.4068   2.6607   2.0182 C.2            1 S1                 0.0000
      9 ****         3.7390   2.5777   3.5063 C.3            1 S1                 0.0000
     10 ****         4.7119   1.6904   3.7169 F              1 S1                 0.0000
     11 ****         4.1464   3.7525   3.9889 F              1 S1                 0.0000
     12 ****         2.6703   2.1991   4.2089 F              1 S1                 0.0000
     13 ****         2.8654   1.4542   1.3595 C.2            1 S1                 0.0000
     14 ****         2.6917   0.3943   1.9637 O.2            1 S1                 0.0000
     15 ****        -0.0244  -0.8754  -1.0494 N.am           1 S1                 0.0000
     16 ****        -1.4345  -1.2638  -1.0152 C.3            1 S1                 0.0000
     17 ****        -1.7976  -1.8799   0.3622 C.3            1 S1                 0.0000
     18 ****        -2.9636  -2.8908   0.3715 C.3            1 S1                 0.0000
     19 ****        -4.2922  -2.3794  -0.2215 C.3            1 S1                 0.0000
     20 ****        -4.2287  -1.7819  -1.6467 C.3            1 S1                 0.0000
     21 ****        -3.1403  -2.3107  -2.4674 N.am           1 S1                 0.0000
     22 ****        -1.8307  -2.1011  -2.2475 C.2            1 S1                 0.0000
     23 ****        -0.9720  -2.5739  -2.9913 O.2            1 S1                 0.0000
     24 ****         2.5091  -0.4931  -0.4303 H              1 S1                 0.0000
     25 ****         2.2145   0.5406  -1.7882 H              1 S1                 0.0000
     26 ****         2.4745   2.7360  -1.7255 H              1 S1                 0.0000
     27 ****         3.3924   4.7775  -0.6563 H              1 S1                 0.0000
     28 ****         3.9743   4.6842   1.7827 H              1 S1                 0.0000
     29 ****         0.6056  -1.5203  -1.5047 H              1 S1                 0.0000
     30 ****        -2.0026  -0.3380  -1.1154 H              1 S1                 0.0000
     31 ****        -0.9238  -2.3902   0.7702 H              1 S1                 0.0000
     32 ****        -2.0161  -1.0728   1.0627 H              1 S1                 0.0000
     33 ****        -2.6596  -3.7972  -0.1542 H              1 S1                 0.0000
     34 ****        -3.1412  -3.2091   1.3991 H              1 S1                 0.0000
     35 ****        -4.9911  -3.2166  -0.2304 H              1 S1                 0.0000
     36 ****        -4.7314  -1.6412   0.4501 H              1 S1                 0.0000
     37 ****        -5.1712  -1.9680  -2.1620 H              1 S1                 0.0000
     38 ****        -4.1426  -0.6961  -1.5930 H              1 S1                 0.0000
     39 ****        -3.4008  -2.8691  -3.2674 H              1 S1                 0.0000
     40 ****         0.2477   1.9446   0.3699 LP             1 S1                 0.0000
     41 ****        -1.1726   0.9840   0.1243 LP             1 S1                 0.0000
     42 ****         2.3232  -0.4011   1.4824 LP             1 S1                 0.0000
     43 ****         2.9192   0.3295   2.9353 LP             1 S1                 0.0000
     44 ****        -0.0032  -2.4169  -2.7998 LP             1 S1                 0.0000
     45 ****        -1.2430  -3.1152  -3.7873 LP             1 S1                 0.0000
@<TRIPOS>BOND
    1    1    2 2     
    2    2    3 1     
    3    2   15 am    
    4    3    4 1     
    5    3   24 1     
    6    3   25 1     
    7    4   13 am    
    8    4    5 1     
    9    5    6 2     
   10    5   26 1     
   11    6    7 1     
   12    6   27 1     
   13    7    8 2     
   14    7   28 1     
   15    8    9 1     
   16    8   13 1     
   17    9   10 1     
   18    9   11 1     
   19    9   12 1     
   20   13   14 2     
   21   15   16 1     
   22   15   29 1     
   23   16   22 1     
   24   16   17 1     
   25   16   30 1     
   26   17   18 1     
   27   17   31 1     
   28   17   32 1     
   29   18   19 1     
   30   18   33 1     
   31   18   34 1     
   32   19   20 1     
   33   19   35 1     
   34   19   36 1     
   35   20   21 1     
   36   20   37 1     
   37   20   38 1     
   38   21   22 am    
   39   21   39 1     
   40   22   23 2     
   41    1   40 1     
   42    1   41 1     
   43   14   42 1     
   44   14   43 1     
   45   23   44 1     
   46   23   45 1     
@<TRIPOS>SUBSTRUCTURE
      1 S1             1
@<TRIPOS>SET
LONE_PAIRS      STATIC     ATOMS    <user>   **** ""
6 40 41 42 43 44 45
DONOR_HYDROGENS      STATIC     ATOMS    <user>   **** ""
2 29 39
ATOM$BLUE        STATIC     ATOMS    COLORGROUP SYSTEM
6 40 41 42 43 44 45
ATOM$RED        STATIC     ATOMS    COLORGROUP SYSTEM
2 29 39
