#       Name:                AV-unprocessed.smi:3272
#       Creating user name   scv26
#       Creation time:       Fri Mar 27 18:43:13 2020


#       File generated by GOLD software.
#

@<TRIPOS>MOLECULE
AV-unprocessed.smi:3272
    40    41     1
SMALL
NO_CHARGES


@<TRIPOS>ATOM
      1 ****        -5.8983   0.2488  -1.3981 C.3            1 S1                 0.0000
      2 ****        -5.1247   0.1457  -0.0784 C.3            1 S1                 0.0000
      3 ****        -3.8578   0.8477  -0.1425 N.pl3          1 S1                 0.0000
      4 ****        -2.5993   0.3190  -0.3494 C.2            1 S1                 0.0000
      5 ****        -1.7434   1.3837  -0.3277 C.2            1 S1                 0.0000
      6 ****        -0.3351   1.4090  -0.4904 N.am           1 S1                 0.0000
      7 ****         0.4833   0.3589  -0.6679 C.2            1 S1                 0.0000
      8 ****         0.1222  -0.8167  -0.7262 O.2            1 S1                 0.0000
      9 ****         1.7622   0.7489  -0.7678 N.am           1 S1                 0.0000
     10 ****         2.9063  -0.1412  -0.9411 C.3            1 S1                 0.0000
     11 ****         3.5936  -0.4579   0.4006 C.3            1 S1                 0.0000
     12 ****         2.7568  -1.2510   1.3865 C.3            1 S1                 0.0000
     13 ****         3.8187  -1.8008   2.3340 C.3            1 S1                 0.0000
     14 ****         4.9978  -1.9597   1.5500 O.3            1 S1                 0.0000
     15 ****         4.8169  -1.3643   0.2686 C.3            1 S1                 0.0000
     16 ****        -2.5536   2.5273  -0.1048 C.2            1 S1                 0.0000
     17 ****        -3.8307   2.1953   0.0067 N.2            1 S1                 0.0000
     18 ****        -6.8418  -0.2935  -1.3374 H              1 S1                 0.0000
     19 ****        -5.3244  -0.1722  -2.2243 H              1 S1                 0.0000
     20 ****        -6.1269   1.2867  -1.6426 H              1 S1                 0.0000
     21 ****        -5.7145   0.5572   0.7417 H              1 S1                 0.0000
     22 ****        -4.9316  -0.9000   0.1636 H              1 S1                 0.0000
     23 ****        -2.4378  -0.7394  -0.4905 H              1 S1                 0.0000
     24 ****         0.0950   2.3217  -0.4567 H              1 S1                 0.0000
     25 ****         1.9622   1.7368  -0.7098 H              1 S1                 0.0000
     26 ****         2.6114  -1.0606  -1.4501 H              1 S1                 0.0000
     27 ****         3.6154   0.3568  -1.6027 H              1 S1                 0.0000
     28 ****         3.9039   0.4737   0.8771 H              1 S1                 0.0000
     29 ****         2.0061  -0.6482   1.8983 H              1 S1                 0.0000
     30 ****         2.2478  -2.0720   0.8794 H              1 S1                 0.0000
     31 ****         4.0268  -1.0837   3.1290 H              1 S1                 0.0000
     32 ****         3.5162  -2.7405   2.7965 H              1 S1                 0.0000
     33 ****         4.6326  -2.1593  -0.4555 H              1 S1                 0.0000
     34 ****         5.7079  -0.8209  -0.0465 H              1 S1                 0.0000
     35 ****        -2.2649   3.5647  -0.0213 H              1 S1                 0.0000
     36 ****        -0.8469  -1.0470  -0.6389 LP             1 S1                 0.0000
     37 ****         0.7982  -1.5413  -0.8609 LP             1 S1                 0.0000
     38 ****         5.1916  -2.9343   1.4376 LP             1 S1                 0.0000
     39 ****         5.7658  -1.5186   2.0143 LP             1 S1                 0.0000
     40 ****        -4.6065   2.8057   0.1662 LP             1 S1                 0.0000
@<TRIPOS>BOND
    1    1    2 1     
    2    1   18 1     
    3    1   19 1     
    4    1   20 1     
    5    2    3 1     
    6    2   21 1     
    7    2   22 1     
    8    3   17 1     
    9    3    4 1     
   10    4    5 2     
   11    4   23 1     
   12    5    6 1     
   13    5   16 1     
   14    6    7 am    
   15    6   24 1     
   16    7    8 2     
   17    7    9 am    
   18    9   10 1     
   19    9   25 1     
   20   10   11 1     
   21   10   26 1     
   22   10   27 1     
   23   11   15 1     
   24   11   12 1     
   25   11   28 1     
   26   12   13 1     
   27   12   29 1     
   28   12   30 1     
   29   13   14 1     
   30   13   31 1     
   31   13   32 1     
   32   14   15 1     
   33   15   33 1     
   34   15   34 1     
   35   16   17 2     
   36   16   35 1     
   37    8   36 1     
   38    8   37 1     
   39   14   38 1     
   40   14   39 1     
   41   17   40 1     
@<TRIPOS>SUBSTRUCTURE
      1 S1             1
@<TRIPOS>SET
LONE_PAIRS      STATIC     ATOMS    <user>   **** ""
5 36 37 38 39 40
DONOR_HYDROGENS      STATIC     ATOMS    <user>   **** ""
2 24 25
ATOM$BLUE        STATIC     ATOMS    COLORGROUP SYSTEM
5 36 37 38 39 40
ATOM$RED        STATIC     ATOMS    COLORGROUP SYSTEM
2 24 25
