AV-unprocessed.smi:703|AV-procd|sdf|3426|dock3
  -GOLD-   22720 0413D 1   1.00000     0.00000
 Structure written by MMmdl.
 38 39  0  0  0  0  0  0  0  0  2 V2000
  151.8776  144.3246  158.0685 C   0  0  0  0  0  0  0  0  0  0  0  0
  150.8047  143.3209  158.5119 C   0  0  0  0  0  0  0  0  0  0  0  0
  150.0037  142.8155  157.3722 N   0  3  1  0  0  0  0  0  0  0  0  0
  150.7480  141.9658  156.4160 C   0  0  0  0  0  0  0  0  0  0  0  0
  149.7002  141.0416  155.7977 C   0  0  1  0  0  0  0  0  0  0  0  0
  150.2634  139.8093  155.0701 C   0  0  0  0  0  0  0  0  0  0  0  0
  148.7494  140.7695  156.9694 C   0  0  1  0  0  0  0  0  0  0  0  0
  149.2262  139.6546  157.7969 N   0  0  0  0  0  0  0  0  0  0  0  0
  148.2958  138.2028  157.8217 S   0  0  0  0  0  0  0  0  0  0  0  0
  147.0010  138.5118  158.4479 O   0  0  0  0  0  0  0  0  0  0  0  0
  148.3376  137.6332  156.4666 O   0  0  0  0  0  0  0  0  0  0  0  0
  149.2598  137.1253  158.9630 C   0  0  0  0  0  0  0  0  0  0  0  0
  148.3252  136.4613  159.9329 C   0  0  0  0  0  0  0  0  0  0  0  0
  147.9861  135.0835  160.0316 C   0  0  0  0  0  0  0  0  0  0  0  0
  147.1092  135.0456  161.0772 C   0  0  0  0  0  0  0  0  0  0  0  0
  146.9157  136.2907  161.5804 O   0  0  0  0  0  0  0  0  0  0  0  0
  147.6956  137.1881  160.8423 N   0  0  0  0  0  0  0  0  0  0  0  0
  148.7769  142.0825  157.7709 C   0  0  0  0  0  0  0  0  0  0  0  0
  152.4121  144.7224  158.9315 H   0  0  0  0  0  0  0  0  0  0  0  0
  151.4334  145.1669  157.5373 H   0  0  0  0  0  0  0  0  0  0  0  0
  152.6157  143.8633  157.4121 H   0  0  0  0  0  0  0  0  0  0  0  0
  151.2611  142.4859  159.0458 H   0  0  0  0  0  0  0  0  0  0  0  0
  150.1350  143.8157  159.2166 H   0  0  0  0  0  0  0  0  0  0  0  0
  151.2663  142.5658  155.6674 H   0  0  0  0  0  0  0  0  0  0  0  0
  151.4947  141.3744  156.9486 H   0  0  0  0  0  0  0  0  0  0  0  0
  149.1432  141.6265  155.0636 H   0  0  0  0  0  0  0  0  0  0  0  0
  150.8980  139.2059  155.7194 H   0  0  0  0  0  0  0  0  0  0  0  0
  150.8664  140.1088  154.2125 H   0  0  0  0  0  0  0  0  0  0  0  0
  149.4588  139.1722  154.7018 H   0  0  0  0  0  0  0  0  0  0  0  0
  147.7461  140.5370  156.6093 H   0  0  0  0  0  0  0  0  0  0  0  0
  150.2062  139.4510  157.6005 H   0  0  0  0  0  0  0  0  0  0  0  0
  149.8049  136.3918  158.3681 H   0  0  0  0  0  0  0  0  0  0  0  0
  149.9913  137.7416  159.4852 H   0  0  0  0  0  0  0  0  0  0  0  0
  148.3350  134.2544  159.4342 H   0  0  0  0  0  0  0  0  0  0  0  0
  146.5629  134.2484  161.5594 H   0  0  0  0  0  0  0  0  0  0  0  0
  148.7318  141.9083  158.8471 H   0  0  0  0  0  0  0  0  0  0  0  0
  147.9173  142.7016  157.5126 H   0  0  0  0  0  0  0  0  0  0  0  0
  149.6840  143.6209  156.8531 H   0  0  0  0  0  0  0  0  0  0  0  0
  1  2  1  0  0  0  0
  1 19  1  0  0  0  0
  1 20  1  0  0  0  0
  1 21  1  0  0  0  0
  2  3  1  0  0  0  0
  2 22  1  0  0  0  0
  2 23  1  0  0  0  0
  3 18  1  0  0  0  0
  3  4  1  0  0  0  0
  3 38  1  0  0  0  0
  4  5  1  0  0  0  0
  4 24  1  0  0  0  0
  4 25  1  0  0  0  0
  5  6  1  0  0  0  0
  5  7  1  0  0  0  0
  5 26  1  0  0  0  0
  6 27  1  0  0  0  0
  6 28  1  0  0  0  0
  6 29  1  0  0  0  0
  7  8  1  0  0  0  0
  7 18  1  0  0  0  0
  7 30  1  0  0  0  0
  8  9  1  0  0  0  0
  8 31  1  0  0  0  0
  9 10  2  0  0  0  0
  9 11  2  0  0  0  0
  9 12  1  0  0  0  0
 12 13  1  0  0  0  0
 12 32  1  0  0  0  0
 12 33  1  0  0  0  0
 13 17  2  0  0  0  0
 13 14  1  0  0  0  0
 14 15  2  0  0  0  0
 14 34  1  0  0  0  0
 15 16  1  0  0  0  0
 15 35  1  0  0  0  0
 16 17  1  0  0  0  0
 18 36  1  0  0  0  0
 18 37  1  0  0  0  0
M  CHG  1   3   1
M  END
> <s_m_source_file>
AV-unprocessed.smi

> <i_m_source_file_index>
703

> <i_lp_mmshare_version>
43012

> <i_f3d_flags>
0

> <s_epik_input>
W0NIM11bQ0gyXU4xW0NIMl1bQ0BASF0oW0NIM10pW0NASF0oW0NIMl0xKVtOSF1TKD1PKSg9TylbQ0gyXWMyW2NIXVtjSF1vbjI=

> <s_epik_cmdline>
J2VwaWtfcHl0aG9uJywgJy1waCcsICc3LjAnLCAnLXRuJywgJzgnLCAnLW1hJywgJzIwMCcsICctbWV0YWxfYmluZGluZycsICctaW1hZScsICc8aW5maWxlLm1hZT4nLCAnLW9tYWUnLCAnPG91dGZpbGUubWFlPic=

> <r_epik_Ionization_Penalty>
0.00324529

> <r_epik_Ionization_Penalty_Charging>
0.0019384

> <r_epik_Ionization_Penalty_Neutral>
0.00130689

> <r_epik_State_Penalty>
0.00218682

> <r_epik_Charging_Adjusted_Penalty>
0.00412522

> <i_epik_Tot_Q>
1

> <i_epik_Tot_abs_Q>
1

> <r_epik_Metal_State_Penalty>
0.310831

> <b_epik_Metal_Only>
0

> <s_lp_Force_Field>
OPLS_2005

> <r_lp_Energy>
19.6136

> <b_lp_Chiralities_Consistent>
1

> <s_lp_Variant>
AV-unprocessed.smi:703-1

> <Gold.Version>
5.8.1

> <Gold.Id.Protein>
6NUR|6NUR_protein|mol2

> <Gold.PLP.Fitness>
38.4104

> <Gold.PLP.PLP>
-29.2795

> <Gold.PLP.part.hbond>
-4.0000

> <Gold.PLP.part.metal>
0.0000

> <Gold.PLP.part.buried>
-4.6429

> <Gold.PLP.part.nonpolar>
-21.4224

> <Gold.PLP.part.repulsive>
0.0192

> <Gold.PLP.ligand.clash>
0.0000

> <Gold.PLP.ligand.torsion>
1.1070

> <Gold.PLP.Chemscore.Hbond>
3.7280

> <Gold.PLP.Chemscore.CHOScore>
0.0000

> <Gold.PLP.Chemscore.Metal>
0.0000

> <Gold.Chemscore.Hbonds>
donor molecule, donor type, donor heavy atom, donor atom, acceptor molecule, acceptor atom, score
      L1  H     3    38       P1  8028  2.00
      P1  H  6931  6943       L1    17  0.85
      P1  H  6934  6947       L1    17  0.91

> <Gold.PLP.Chemscore.Internal.Correction>
0.1610

> <Gold.Rescore>
     Score         DG    S(hbond)    S(metal)    S(lipo)     H(rot)  DE(clash)    DE(int)     intcor
     14.68     -17.08       2.56        0.00      68.54       1.94       0.03       2.37       ----

> <Gold.Chemscore.Fitness>
14.6789

> <Gold.Chemscore.DG>
-17.0775

> <Gold.Chemscore.ZeroCoef>
-5.4800

> <Gold.Chemscore.Hbond>
2.5582

> <Gold.Chemscore.Metal>
0.0000

> <Gold.Chemscore.Lipo>
68.5445

> <Gold.Chemscore.Internal_Hbond>
0.0000

> <Gold.Chemscore.DEClash>
0.0314

> <Gold.Chemscore.DEInternal>
2.3672

> <Gold.Chemscore.Rot>
1.9400

> <Gold.Chemscore.Internal.Correction>
   9.000000E+99

> <Gold.Chemscore.Hbonds>
donor molecule, donor type, donor heavy atom, donor atom, acceptor molecule, acceptor atom, score
      L1  H     3    38       P1  8028  0.98
      P1  H  6931  6943       L1    17  0.55
      P1  H  6934  6947       L1    17  0.84

> <Gold.Chemscore.Hbond.Weighted>
-8.5442

> <Gold.Chemscore.Metal.Weighted>
-0.0000

> <Gold.Chemscore.Lipo.Weighted>
-8.0197

> <Gold.Chemscore.Internal_Hbond.Weighted>
0.0000

> <Gold.Chemscore.DEClash.Weighted>
0.0314

> <Gold.Chemscore.DEInternal.Weighted>
2.3672

> <Gold.Chemscore.Rot.Weighted>
4.9665

> <Gold.Chemscore.Internal.Correction.Weighted>
   9.000000E+99

> <Gold.Protein.RotatedTorsions>
[ 6907 6896 6895 6894 ] final   22.51 input  -60.11 | X-H torsion
[ 7974 7965 7964 7962 ] final   30.32 input  175.53 | X-H torsion
[ 8008 7997 7996 7995 ] final -125.30 input   59.86 | X-H torsion
[ 10167 10162 10161 10158 ] final -165.54 input  -65.29 | X-H torsion
[ 10718 10713 10712 10709 ] final  -54.14 input   66.30 | X-H torsion
[ 10763 10752 10751 10750 ] final -143.43 input  -60.55 | X-H torsion
[ 11005 11000 10999 10996 ] final -140.51 input  -57.11 | X-H torsion

> <Gold.Protein.ActiveResidues>
 VAL166  LYS551  ARG553  GLY616  TRP617  ASP618  TYR619  PRO620  LYS621  CYS622 
 ASP623  PHE694  ASN695  SER759  ASP760  ASP761  ALA762  ILE779  LEU786  VAL792 
 PHE793  MET794  SER795  GLU796  ALA797  LYS798  CYS799  TRP800  GLU811  SER814 

> <Gold.Protein.RotatedAtoms>
  151.9283  135.0268  160.0527 H   0  0  0  0  0  0  0  0  0  0  0  0  # atno 6907 bound_to 6896
  152.2140  133.4928  159.5134 H   0  0  0  0  0  0  0  0  0  0  0  0  # atno 6908 bound_to 6896
  150.6983  134.1346  159.4125 H   0  0  0  0  0  0  0  0  0  0  0  0  # atno 6909 bound_to 6896
  146.1619  139.6804  142.9028 H   0  0  0  0  0  0  0  0  0  0  0  0  # atno 7974 bound_to 7965
  155.2110  140.0419  157.2933 H   0  0  0  0  0  0  0  0  0  0  0  0  # atno 8008 bound_to 7997
  154.6012  140.2452  155.7762 H   0  0  0  0  0  0  0  0  0  0  0  0  # atno 8009 bound_to 7997
  156.2322  140.2934  156.0227 H   0  0  0  0  0  0  0  0  0  0  0  0  # atno 8010 bound_to 7997
  139.6175  144.0690  152.1902 H   0  0  0  0  0  0  0  0  0  0  0  0  # atno 10167 bound_to 10162
  156.1476  130.4152  149.9998 H   0  0  0  0  0  0  0  0  0  0  0  0  # atno 10718 bound_to 10713
  154.8470  135.3468  154.6186 H   0  0  0  0  0  0  0  0  0  0  0  0  # atno 10763 bound_to 10752
  153.6795  135.6981  153.5127 H   0  0  0  0  0  0  0  0  0  0  0  0  # atno 10764 bound_to 10752
  153.2679  135.4302  155.0915 H   0  0  0  0  0  0  0  0  0  0  0  0  # atno 10765 bound_to 10752
  140.8415  134.2396  157.4807 H   0  0  0  0  0  0  0  0  0  0  0  0  # atno 11005 bound_to 11000
  145.4567  141.0431  143.2774 LP  0  0  0  0  0  0  0  0  0  0  0  0  # atno 17320 bound_to 7965
  144.8038  139.6090  143.7060 LP  0  0  0  0  0  0  0  0  0  0  0  0  # atno 17321 bound_to 7965
  140.0323  144.6071  150.7477 LP  0  0  0  0  0  0  0  0  0  0  0  0  # atno 17342 bound_to 10162
  140.7361  143.2748  151.3774 LP  0  0  0  0  0  0  0  0  0  0  0  0  # atno 17343 bound_to 10162
  156.7865  130.9240  151.3646 LP  0  0  0  0  0  0  0  0  0  0  0  0  # atno 17370 bound_to 10713
  157.6630  130.8982  149.9870 LP  0  0  0  0  0  0  0  0  0  0  0  0  # atno 17371 bound_to 10713
  139.8703  134.9638  156.4473 LP  0  0  0  0  0  0  0  0  0  0  0  0  # atno 17394 bound_to 11000
  140.8890  133.7862  155.9550 LP  0  0  0  0  0  0  0  0  0  0  0  0  # atno 17395 bound_to 11000

$$$$
