#       Name:                AV-unprocessed.smi:2191
#       Creating user name   scv26
#       Creation time:       Fri Mar 27 12:10:01 2020


#       File generated by GOLD software.
#

@<TRIPOS>MOLECULE
AV-unprocessed.smi:2191
    41    43     1
SMALL
NO_CHARGES


@<TRIPOS>ATOM
      1 ****        -0.6343  -0.6803  -0.9674 O.3            1 S1                 0.0000
      2 ****        -0.1978  -0.3018   0.3237 C.3            1 S1                 0.0000
      3 ****         1.3377  -0.2440   0.3167 C.3            1 S1                 0.0000
      4 ****         1.8472  -1.5630   0.4618 O.3            1 S1                 0.0000
      5 ****         3.2145  -1.7390   0.4684 C.ar           1 S1                 0.0000
      6 ****         3.6879  -3.0588   0.6203 C.ar           1 S1                 0.0000
      7 ****         5.0692  -3.3320   0.6402 C.ar           1 S1                 0.0000
      8 ****         5.9957  -2.2815   0.5071 C.ar           1 S1                 0.0000
      9 ****         5.5378  -0.9597   0.3532 C.ar           1 S1                 0.0000
     10 ****         4.1559  -0.6866   0.3343 C.ar           1 S1                 0.0000
     11 ****        -0.8215   1.0597   0.6879 C.3            1 S1                 0.0000
     12 ****        -2.2736   1.0351   0.6636 N.pl3          1 S1                 0.0000
     13 ****        -3.0904   0.5280   1.6069 C.2            1 S1                 0.0000
     14 ****        -4.3997   0.6107   1.3885 N.2            1 S1                 0.0000
     15 ****        -4.4379   1.2470   0.1596 C.ar           1 S1                 0.0000
     16 ****        -5.5384   1.6368  -0.6371 C.ar           1 S1                 0.0000
     17 ****        -5.3319   2.2855  -1.8725 C.ar           1 S1                 0.0000
     18 ****        -4.0252   2.5518  -2.3309 C.ar           1 S1                 0.0000
     19 ****        -2.9131   2.1711  -1.5555 C.ar           1 S1                 0.0000
     20 ****        -3.1232   1.5269  -0.3218 C.ar           1 S1                 0.0000
     21 ****        -0.2650  -1.5262  -1.1710 H              1 S1                 0.0000
     22 ****        -0.5340  -1.0487   1.0442 H              1 S1                 0.0000
     23 ****         1.7013   0.2324  -0.5958 H              1 S1                 0.0000
     24 ****         1.6812   0.3516   1.1642 H              1 S1                 0.0000
     25 ****         2.9833  -3.8712   0.7231 H              1 S1                 0.0000
     26 ****         5.4171  -4.3475   0.7575 H              1 S1                 0.0000
     27 ****         7.0555  -2.4890   0.5227 H              1 S1                 0.0000
     28 ****         6.2479  -0.1526   0.2499 H              1 S1                 0.0000
     29 ****         3.8441   0.3399   0.2155 H              1 S1                 0.0000
     30 ****        -0.5053   1.3635   1.6868 H              1 S1                 0.0000
     31 ****        -0.4725   1.8339   0.0035 H              1 S1                 0.0000
     32 ****        -2.7007   0.0716   2.5051 H              1 S1                 0.0000
     33 ****        -6.5436   1.4374  -0.2963 H              1 S1                 0.0000
     34 ****        -6.1810   2.5800  -2.4717 H              1 S1                 0.0000
     35 ****        -3.8766   3.0478  -3.2790 H              1 S1                 0.0000
     36 ****        -1.9111   2.3705  -1.9049 H              1 S1                 0.0000
     37 ****        -0.3261  -0.0066  -1.6391 LP             1 S1                 0.0000
     38 ****        -1.6327  -0.7348  -0.9840 LP             1 S1                 0.0000
     39 ****         1.4826  -2.1060  -0.2946 LP             1 S1                 0.0000
     40 ****         1.4985  -1.9214   1.3278 LP             1 S1                 0.0000
     41 ****        -5.1569   0.2962   1.9610 LP             1 S1                 0.0000
@<TRIPOS>BOND
    1    1    2 1     
    2    1   21 1     
    3    2    3 1     
    4    2   11 1     
    5    2   22 1     
    6    3    4 1     
    7    3   23 1     
    8    3   24 1     
    9    4    5 1     
   10    5   10 ar    
   11    5    6 ar    
   12    6    7 ar    
   13    6   25 1     
   14    7    8 ar    
   15    7   26 1     
   16    8    9 ar    
   17    8   27 1     
   18    9   10 ar    
   19    9   28 1     
   20   10   29 1     
   21   11   12 1     
   22   11   30 1     
   23   11   31 1     
   24   12   20 1     
   25   12   13 1     
   26   13   14 2     
   27   13   32 1     
   28   14   15 1     
   29   15   20 ar    
   30   15   16 ar    
   31   16   17 ar    
   32   16   33 1     
   33   17   18 ar    
   34   17   34 1     
   35   18   19 ar    
   36   18   35 1     
   37   19   20 ar    
   38   19   36 1     
   39    1   37 1     
   40    1   38 1     
   41    4   39 1     
   42    4   40 1     
   43   14   41 1     
@<TRIPOS>SUBSTRUCTURE
      1 S1             1
@<TRIPOS>SET
LONE_PAIRS      STATIC     ATOMS    <user>   **** ""
5 37 38 39 40 41
DONOR_HYDROGENS      STATIC     ATOMS    <user>   **** ""
1 21
ATOM$BLUE        STATIC     ATOMS    COLORGROUP SYSTEM
5 37 38 39 40 41
ATOM$RED        STATIC     ATOMS    COLORGROUP SYSTEM
1 21
