AV-unprocessed.smi:2902|AV-procd|sdf|11151|dock3
  -GOLD-   2272016 33D 1   1.00000     0.00000
 Structure written by MMmdl.
 47 48  0  0  0  0  0  0  0  0  1 V2000
  148.5721  141.3660  156.2118 C   0  0  0  0  0  0  0  0  0  0  0  0
  147.7446  141.7329  157.4500 C   0  0  0  0  0  0  0  0  0  0  0  0
  148.3624  142.8900  158.2572 C   0  0  2  0  0  0  0  0  0  0  0  0
  149.5664  142.4081  158.8581 O   0  0  0  0  0  0  0  0  0  0  0  0
  150.7804  143.0715  158.5108 C   0  0  0  0  0  0  0  0  0  0  0  0
  152.0225  142.4787  159.1826 C   0  0  0  0  0  0  0  0  0  0  0  0
  153.0451  143.6207  159.1936 C   0  0  0  0  0  0  0  0  0  0  0  0
  152.2377  144.9233  159.0738 C   0  0  0  0  0  0  0  0  0  0  0  0
  150.7631  144.5089  159.0262 C   0  0  0  0  0  0  0  0  0  0  0  0
  147.3927  143.4052  159.3335 C   0  0  0  0  0  0  0  0  0  0  0  0
  146.8336  142.6182  160.0975 O   0  0  0  0  0  0  0  0  0  0  0  0
  147.2270  144.7359  159.3914 N   0  0  0  0  0  0  0  0  0  0  0  0
  146.4173  145.4523  160.3741 C   0  0  2  0  0  0  0  0  0  0  0  0
  146.5997  144.8047  161.7604 C   0  0  0  0  0  0  0  0  0  0  0  0
  144.9393  145.4995  159.9082 C   0  0  2  0  0  0  0  0  0  0  0  0
  144.3004  144.1039  159.7783 C   0  0  0  0  0  0  0  0  0  0  0  0
  144.7946  146.2288  158.6561 N   0  0  0  0  0  0  0  0  0  0  0  0
  145.1198  147.4834  158.3347 C   0  0  0  0  0  0  0  0  0  0  0  0
  144.8405  147.8059  157.0797 N   0  0  0  0  0  0  0  0  0  0  0  0
  144.3119  146.6209  156.6528 C   0  0  0  0  0  0  0  0  0  0  0  0
  144.2636  145.6425  157.5569 N   0  0  0  0  0  0  0  0  0  0  0  0
  148.1056  140.5481  155.6626 H   0  0  0  0  0  0  0  0  0  0  0  0
  149.5783  141.0493  156.4879 H   0  0  0  0  0  0  0  0  0  0  0  0
  148.6619  142.2142  155.5328 H   0  0  0  0  0  0  0  0  0  0  0  0
  146.7384  142.0040  157.1268 H   0  0  0  0  0  0  0  0  0  0  0  0
  147.6360  140.8519  158.0840 H   0  0  0  0  0  0  0  0  0  0  0  0
  148.5919  143.7020  157.5654 H   0  0  0  0  0  0  0  0  0  0  0  0
  150.9220  143.1032  157.4300 H   0  0  0  0  0  0  0  0  0  0  0  0
  151.7834  142.1956  160.2087 H   0  0  0  0  0  0  0  0  0  0  0  0
  152.3964  141.5908  158.6721 H   0  0  0  0  0  0  0  0  0  0  0  0
  153.6526  143.5995  160.0986 H   0  0  0  0  0  0  0  0  0  0  0  0
  153.7223  143.5276  158.3437 H   0  0  0  0  0  0  0  0  0  0  0  0
  152.4345  145.6054  159.9013 H   0  0  0  0  0  0  0  0  0  0  0  0
  152.5101  145.4405  158.1530 H   0  0  0  0  0  0  0  0  0  0  0  0
  150.1598  145.1706  158.4044 H   0  0  0  0  0  0  0  0  0  0  0  0
  150.3471  144.5328  160.0343 H   0  0  0  0  0  0  0  0  0  0  0  0
  147.7278  145.3004  158.7207 H   0  0  0  0  0  0  0  0  0  0  0  0
  146.7765  146.4813  160.4371 H   0  0  0  0  0  0  0  0  0  0  0  0
  146.0763  145.3604  162.5383 H   0  0  0  0  0  0  0  0  0  0  0  0
  147.6519  144.7726  162.0450 H   0  0  0  0  0  0  0  0  0  0  0  0
  146.2216  143.7820  161.7709 H   0  0  0  0  0  0  0  0  0  0  0  0
  144.3708  146.0427  160.6659 H   0  0  0  0  0  0  0  0  0  0  0  0
  144.2603  143.5889  160.7379 H   0  0  0  0  0  0  0  0  0  0  0  0
  144.8583  143.4735  159.0853 H   0  0  0  0  0  0  0  0  0  0  0  0
  143.2760  144.1759  159.4113 H   0  0  0  0  0  0  0  0  0  0  0  0
  145.5684  148.1742  159.0332 H   0  0  0  0  0  0  0  0  0  0  0  0
  143.9531  146.4746  155.6446 H   0  0  0  0  0  0  0  0  0  0  0  0
  1  2  1  0  0  0  0
  1 22  1  0  0  0  0
  1 23  1  0  0  0  0
  1 24  1  0  0  0  0
  2  3  1  0  0  0  0
  2 25  1  0  0  0  0
  2 26  1  0  0  0  0
  3  4  1  0  0  0  0
  3 10  1  0  0  0  0
  3 27  1  0  0  0  0
  4  5  1  0  0  0  0
  5  9  1  0  0  0  0
  5  6  1  0  0  0  0
  5 28  1  0  0  0  0
  6  7  1  0  0  0  0
  6 29  1  0  0  0  0
  6 30  1  0  0  0  0
  7  8  1  0  0  0  0
  7 31  1  0  0  0  0
  7 32  1  0  0  0  0
  8  9  1  0  0  0  0
  8 33  1  0  0  0  0
  8 34  1  0  0  0  0
  9 35  1  0  0  0  0
  9 36  1  0  0  0  0
 10 11  2  0  0  0  0
 10 12  1  0  0  0  0
 12 13  1  0  0  0  0
 12 37  1  0  0  0  0
 13 14  1  0  0  0  0
 13 15  1  0  0  0  0
 13 38  1  0  0  0  0
 14 39  1  0  0  0  0
 14 40  1  0  0  0  0
 14 41  1  0  0  0  0
 15 16  1  0  0  0  0
 15 17  1  0  0  0  0
 15 42  1  0  0  0  0
 16 43  1  0  0  0  0
 16 44  1  0  0  0  0
 16 45  1  0  0  0  0
 17 21  1  0  0  0  0
 17 18  1  0  0  0  0
 18 19  2  0  0  0  0
 18 46  1  0  0  0  0
 19 20  1  0  0  0  0
 20 21  2  0  0  0  0
 20 47  1  0  0  0  0
M  END
> <s_m_source_file>
AV-unprocessed.smi

> <i_m_source_file_index>
2902

> <i_lp_mmshare_version>
43012

> <i_f3d_flags>
0

> <s_epik_input>
W0NIMl0xW0NIMl1bQ0gyXVtDSDJdW0NIXTFPW0NAQEhdKFtDSDJdW0NIM10pQyg9TylbTkhdW0NASF0oW0NIM10pW0NASF0oW0NIM10pbjJbY0hdbltjSF1uMg==

> <s_epik_cmdline>
J2VwaWtfcHl0aG9uJywgJy1waCcsICc3LjAnLCAnLXRuJywgJzgnLCAnLW1hJywgJzIwMCcsICctbWV0YWxfYmluZGluZycsICctaW1hZScsICc8aW5maWxlLm1hZT4nLCAnLW9tYWUnLCAnPG91dGZpbGUubWFlPic=

> <r_lp_tautomer_probability>
1

> <r_epik_Ionization_Penalty>
6.95617e-05

> <r_epik_Ionization_Penalty_Charging>
0

> <r_epik_Ionization_Penalty_Neutral>
6.95617e-05

> <r_epik_State_Penalty>
-0

> <r_epik_Charging_Adjusted_Penalty>
0

> <i_epik_Tot_Q>
0

> <i_epik_Tot_abs_Q>
0

> <r_epik_Metal_State_Penalty>
-0

> <b_epik_Metal_Only>
0

> <s_lp_Force_Field>
OPLS_2005

> <r_lp_Energy>
29.4531

> <b_lp_Chiralities_Consistent>
1

> <s_lp_Variant>
AV-unprocessed.smi:2902-1

> <Gold.Version>
5.8.1

> <Gold.Id.Protein>
6NUR|6NUR_protein|mol2

> <Gold.PLP.Fitness>
40.0890

> <Gold.PLP.PLP>
-34.9836

> <Gold.PLP.part.hbond>
-3.7145

> <Gold.PLP.part.metal>
0.0000

> <Gold.PLP.part.buried>
-3.7588

> <Gold.PLP.part.nonpolar>
-28.3906

> <Gold.PLP.part.repulsive>
0.3614

> <Gold.PLP.ligand.clash>
0.0000

> <Gold.PLP.ligand.torsion>
1.3824

> <Gold.PLP.Chemscore.Hbond>
2.5794

> <Gold.PLP.Chemscore.CHOScore>
0.0000

> <Gold.PLP.Chemscore.Metal>
0.0000

> <Gold.Chemscore.Hbonds>
donor molecule, donor type, donor heavy atom, donor atom, acceptor molecule, acceptor atom, score
      L1  H    12    37       P1  8029  1.00
      P1  H  6933  6944       L1    11  0.46
      P1  H  6934  6946       L1    11  0.98

> <Gold.PLP.Chemscore.Internal.Correction>
0.1319

> <Gold.Rescore>
     Score         DG    S(hbond)    S(metal)    S(lipo)     H(rot)  DE(clash)    DE(int)     intcor
     12.21     -15.19       2.05        0.00      83.42       2.69       0.08       2.90       ----

> <Gold.Chemscore.Fitness>
12.2112

> <Gold.Chemscore.DG>
-15.1915

> <Gold.Chemscore.ZeroCoef>
-5.4800

> <Gold.Chemscore.Hbond>
2.0500

> <Gold.Chemscore.Metal>
0.0000

> <Gold.Chemscore.Lipo>
83.4185

> <Gold.Chemscore.Internal_Hbond>
0.0000

> <Gold.Chemscore.DEClash>
0.0825

> <Gold.Chemscore.DEInternal>
2.8977

> <Gold.Chemscore.Rot>
2.6935

> <Gold.Chemscore.Internal.Correction>
   9.000000E+99

> <Gold.Chemscore.Hbonds>
donor molecule, donor type, donor heavy atom, donor atom, acceptor molecule, acceptor atom, score
      L1  H    12    37       P1  8029  0.93
      P1  H  6933  6944       L1    11  0.08
      P1  H  6934  6946       L1    11  0.93

> <Gold.Chemscore.Hbond.Weighted>
-6.8469

> <Gold.Chemscore.Metal.Weighted>
-0.0000

> <Gold.Chemscore.Lipo.Weighted>
-9.7600

> <Gold.Chemscore.Internal_Hbond.Weighted>
0.0000

> <Gold.Chemscore.DEClash.Weighted>
0.0825

> <Gold.Chemscore.DEInternal.Weighted>
2.8977

> <Gold.Chemscore.Rot.Weighted>
6.8954

> <Gold.Chemscore.Internal.Correction.Weighted>
   9.000000E+99

> <Gold.Protein.RotatedTorsions>
[ 6907 6896 6895 6894 ] final  -14.53 input  -60.11 | X-H torsion
[ 7974 7965 7964 7962 ] final   38.02 input  175.53 | X-H torsion
[ 8008 7997 7996 7995 ] final   50.11 input   59.86 | X-H torsion
[ 10167 10162 10161 10158 ] final  -44.13 input  -65.29 | X-H torsion
[ 10718 10713 10712 10709 ] final  172.90 input   66.30 | X-H torsion
[ 10763 10752 10751 10750 ] final  -38.43 input  -60.55 | X-H torsion
[ 11005 11000 10999 10996 ] final -112.01 input  -57.11 | X-H torsion

> <Gold.Protein.ActiveResidues>
 VAL166  LYS551  ARG553  GLY616  TRP617  ASP618  TYR619  PRO620  LYS621  CYS622 
 ASP623  PHE694  ASN695  SER759  ASP760  ASP761  ALA762  ILE779  LEU786  VAL792 
 PHE793  MET794  SER795  GLU796  ALA797  LYS798  CYS799  TRP800  GLU811  SER814 

> <Gold.Protein.RotatedAtoms>
  151.3380  135.0857  159.9360 H   0  0  0  0  0  0  0  0  0  0  0  0  # atno 6907 bound_to 6896
  152.5218  133.9476  159.7667 H   0  0  0  0  0  0  0  0  0  0  0  0  # atno 6908 bound_to 6896
  150.9827  133.6175  159.2750 H   0  0  0  0  0  0  0  0  0  0  0  0  # atno 6909 bound_to 6896
  146.1093  139.5823  142.9362 H   0  0  0  0  0  0  0  0  0  0  0  0  # atno 7974 bound_to 7965
  155.4133  140.3443  155.4265 H   0  0  0  0  0  0  0  0  0  0  0  0  # atno 8008 bound_to 7997
  156.1436  140.1549  156.8913 H   0  0  0  0  0  0  0  0  0  0  0  0  # atno 8009 bound_to 7997
  154.4992  140.0819  156.7742 H   0  0  0  0  0  0  0  0  0  0  0  0  # atno 8010 bound_to 7997
  140.6908  143.2946  151.3451 H   0  0  0  0  0  0  0  0  0  0  0  0  # atno 10167 bound_to 10162
  156.9721  131.0093  151.2902 H   0  0  0  0  0  0  0  0  0  0  0  0  # atno 10718 bound_to 10713
  153.9127  135.6791  153.4750 H   0  0  0  0  0  0  0  0  0  0  0  0  # atno 10763 bound_to 10752
  153.1070  135.4801  154.8966 H   0  0  0  0  0  0  0  0  0  0  0  0  # atno 10764 bound_to 10752
  154.7519  135.3187  154.8498 H   0  0  0  0  0  0  0  0  0  0  0  0  # atno 10765 bound_to 10752
  141.0700  133.9395  157.2503 H   0  0  0  0  0  0  0  0  0  0  0  0  # atno 11005 bound_to 11000
  145.5696  141.0395  143.2182 LP  0  0  0  0  0  0  0  0  0  0  0  0  # atno 17320 bound_to 7965
  144.7498  139.7224  143.7277 LP  0  0  0  0  0  0  0  0  0  0  0  0  # atno 17321 bound_to 7965
  139.6310  144.0722  152.2476 LP  0  0  0  0  0  0  0  0  0  0  0  0  # atno 17342 bound_to 10162
  140.0196  144.6163  150.7578 LP  0  0  0  0  0  0  0  0  0  0  0  0  # atno 17343 bound_to 10162
  157.5585  130.8230  149.8235 LP  0  0  0  0  0  0  0  0  0  0  0  0  # atno 17370 bound_to 10713
  156.0278  130.3774  150.1772 LP  0  0  0  0  0  0  0  0  0  0  0  0  # atno 17371 bound_to 10713
  139.9514  135.0174  156.9005 LP  0  0  0  0  0  0  0  0  0  0  0  0  # atno 17394 bound_to 11000
  140.5692  134.0459  155.7425 LP  0  0  0  0  0  0  0  0  0  0  0  0  # atno 17395 bound_to 11000

$$$$
