AV-unprocessed.smi:1712|AV-procd|sdf|6903|dock9
  -GOLD-   22720 8103D 1   1.00000     0.00000
 Structure written by MMmdl.
 38 39  0  0  0  0  0  0  0  0  2 V2000
  147.1007  140.7368  153.4833 C   0  0  0  0  0  0  0  0  0  0  0  0
  147.4785  139.4086  152.7814 C   0  0  2  0  0  0  0  0  0  0  0  0
  146.2203  138.5192  152.5698 C   0  0  0  0  0  0  0  0  0  0  0  0
  146.5248  137.1962  152.0282 N   0  0  0  0  0  0  0  0  0  0  0  0
  145.6216  136.2431  151.7539 C   0  0  0  0  0  0  0  0  0  0  0  0
  144.4086  136.3934  151.9010 O   0  0  0  0  0  0  0  0  0  0  0  0
  146.2117  135.1255  151.2994 N   0  0  0  0  0  0  0  0  0  0  0  0
  145.5791  133.9238  150.8913 C   0  0  0  0  0  0  0  0  0  0  0  0
  146.2136  132.6531  150.8364 C   0  0  0  0  0  0  0  0  0  0  0  0
  145.3787  131.7133  150.4165 N   0  0  0  0  0  0  0  0  0  0  0  0
  144.2172  132.3718  150.2032 N   0  0  0  0  0  0  0  0  0  0  0  0
  144.2921  133.7192  150.4787 C   0  0  0  0  0  0  0  0  0  0  0  0
  148.5664  138.6829  153.5223 N   0  3  0  0  0  0  0  0  0  0  0  0
  149.7060  139.5528  153.9321 C   0  0  0  0  0  0  0  0  0  0  0  0
  150.7840  138.7616  154.6918 C   0  0  0  0  0  0  0  0  0  0  0  0
  150.2073  138.1271  155.8210 O   0  0  0  0  0  0  0  0  0  0  0  0
  149.2179  137.1901  155.4292 C   0  0  0  0  0  0  0  0  0  0  0  0
  148.0737  137.9162  154.7024 C   0  0  0  0  0  0  0  0  0  0  0  0
  143.3912  131.8933  149.8728 H   0  0  0  0  0  0  0  0  0  0  0  0
  146.2952  141.2569  152.9673 H   0  0  0  0  0  0  0  0  0  0  0  0
  147.9219  141.4510  153.5013 H   0  0  0  0  0  0  0  0  0  0  0  0
  146.7754  140.5641  154.5095 H   0  0  0  0  0  0  0  0  0  0  0  0
  147.8698  139.6592  151.7939 H   0  0  0  0  0  0  0  0  0  0  0  0
  145.7272  138.3142  153.5187 H   0  0  0  0  0  0  0  0  0  0  0  0
  145.4896  139.0402  151.9487 H   0  0  0  0  0  0  0  0  0  0  0  0
  147.4993  136.9835  151.8704 H   0  0  0  0  0  0  0  0  0  0  0  0
  147.2189  135.1347  151.2333 H   0  0  0  0  0  0  0  0  0  0  0  0
  147.2313  132.3864  151.0809 H   0  0  0  0  0  0  0  0  0  0  0  0
  143.4481  134.3816  150.3573 H   0  0  0  0  0  0  0  0  0  0  0  0
  150.1934  139.9942  153.0647 H   0  0  0  0  0  0  0  0  0  0  0  0
  149.3373  140.3711  154.5528 H   0  0  0  0  0  0  0  0  0  0  0  0
  151.2573  138.0231  154.0426 H   0  0  0  0  0  0  0  0  0  0  0  0
  151.5715  139.4346  155.0317 H   0  0  0  0  0  0  0  0  0  0  0  0
  149.6562  136.4178  154.7948 H   0  0  0  0  0  0  0  0  0  0  0  0
  148.8371  136.6895  156.3197 H   0  0  0  0  0  0  0  0  0  0  0  0
  147.5651  138.5927  155.3911 H   0  0  0  0  0  0  0  0  0  0  0  0
  147.3548  137.1557  154.4044 H   0  0  0  0  0  0  0  0  0  0  0  0
  148.9467  138.0031  152.8792 H   0  0  0  0  0  0  0  0  0  0  0  0
  1  2  1  0  0  0  0
  1 20  1  0  0  0  0
  1 21  1  0  0  0  0
  1 22  1  0  0  0  0
  2  3  1  0  0  0  0
  2 13  1  0  0  0  0
  2 23  1  0  0  0  0
  3  4  1  0  0  0  0
  3 24  1  0  0  0  0
  3 25  1  0  0  0  0
  4  5  1  0  0  0  0
  4 26  1  0  0  0  0
  5  6  2  0  0  0  0
  5  7  1  0  0  0  0
  7  8  1  0  0  0  0
  7 27  1  0  0  0  0
  8 12  2  0  0  0  0
  8  9  1  0  0  0  0
  9 10  2  0  0  0  0
  9 28  1  0  0  0  0
 10 11  1  0  0  0  0
 11 19  1  0  0  0  0
 11 12  1  0  0  0  0
 12 29  1  0  0  0  0
 13 18  1  0  0  0  0
 13 14  1  0  0  0  0
 13 38  1  0  0  0  0
 14 15  1  0  0  0  0
 14 30  1  0  0  0  0
 14 31  1  0  0  0  0
 15 16  1  0  0  0  0
 15 32  1  0  0  0  0
 15 33  1  0  0  0  0
 16 17  1  0  0  0  0
 17 18  1  0  0  0  0
 17 34  1  0  0  0  0
 17 35  1  0  0  0  0
 18 36  1  0  0  0  0
 18 37  1  0  0  0  0
M  CHG  1  13   1
M  END
> <s_m_source_file>
AV-unprocessed.smi

> <i_m_source_file_index>
1712

> <i_lp_mmshare_version>
43012

> <i_f3d_flags>
0

> <s_epik_input>
W0NIMl0xW0NIMl1PW0NIMl1bQ0gyXU4xW0NASF0oW0NIM10pW0NIMl1bTkhdQyg9TylbTkhdYzJbY0hdbltuSF1bY0hdMg==

> <s_epik_cmdline>
J2VwaWtfcHl0aG9uJywgJy1waCcsICc3LjAnLCAnLXRuJywgJzgnLCAnLW1hJywgJzIwMCcsICctbWV0YWxfYmluZGluZycsICctaW1hZScsICc8aW5maWxlLm1hZT4nLCAnLW9tYWUnLCAnPG91dGZpbGUubWFlPic=

> <r_lp_tautomer_probability>
0.5

> <r_epik_Ionization_Penalty>
0.646007

> <r_epik_Ionization_Penalty_Charging>
0.645968

> <r_epik_Ionization_Penalty_Neutral>
3.91929e-05

> <r_epik_State_Penalty>
0.664063

> <r_epik_Charging_Adjusted_Penalty>
1.31003

> <i_epik_Tot_Q>
1

> <i_epik_Tot_abs_Q>
1

> <r_epik_Metal_State_Penalty>
0.664064

> <b_epik_Metal_Only>
0

> <s_lp_Force_Field>
OPLS_2005

> <r_lp_Energy>
23.9653

> <b_lp_Chiralities_Consistent>
1

> <s_lp_Variant>
AV-unprocessed.smi:1712-3

> <Gold.Version>
5.8.1

> <Gold.Id.Protein>
6NUR|6NUR_protein|mol2

> <Gold.PLP.Fitness>
41.7392

> <Gold.PLP.PLP>
-25.2107

> <Gold.PLP.part.hbond>
-4.0000

> <Gold.PLP.part.metal>
0.0000

> <Gold.PLP.part.buried>
-0.5513

> <Gold.PLP.part.nonpolar>
-22.4735

> <Gold.PLP.part.repulsive>
1.3955

> <Gold.PLP.ligand.clash>
0.0000

> <Gold.PLP.ligand.torsion>
0.3571

> <Gold.PLP.Chemscore.Hbond>
3.7436

> <Gold.PLP.Chemscore.CHOScore>
1.9874

> <Gold.PLP.Chemscore.Metal>
0.0000

> <Gold.Chemscore.Hbonds>
donor molecule, donor type, donor heavy atom, donor atom, acceptor molecule, acceptor atom, score
      L1  H     4    26       P1  7948  1.00
      L1  H     7    27       P1  7948  0.76
      L1  H    13    38       P1  7948  2.00
      L1  C     9    28       P1 10747  1.00
      L1  C    12    29       P1 10186  0.91

> <Gold.PLP.Chemscore.Internal.Correction>
0.0497

> <Gold.Rescore>
     Score         DG    S(hbond)    S(metal)    S(lipo)     H(rot)  DE(clash)    DE(int)     intcor
     15.98     -16.57       2.58        0.00      57.93       1.68       0.17       0.41       ----

> <Gold.Chemscore.Fitness>
15.9841

> <Gold.Chemscore.DG>
-16.5655

> <Gold.Chemscore.ZeroCoef>
-5.4800

> <Gold.Chemscore.Hbond>
2.5753

> <Gold.Chemscore.Metal>
0.0000

> <Gold.Chemscore.Lipo>
57.9285

> <Gold.Chemscore.Internal_Hbond>
0.0000

> <Gold.Chemscore.DEClash>
0.1688

> <Gold.Chemscore.DEInternal>
0.4126

> <Gold.Chemscore.Rot>
1.6771

> <Gold.Chemscore.Internal.Correction>
   9.000000E+99

> <Gold.Chemscore.Hbonds>
donor molecule, donor type, donor heavy atom, donor atom, acceptor molecule, acceptor atom, score
      L1  H     4    26       P1  7948  0.99
      L1  H     7    27       P1  7948  0.47
      L1  H    13    38       P1  7948  0.94

> <Gold.Chemscore.Hbond.Weighted>
-8.6014

> <Gold.Chemscore.Metal.Weighted>
-0.0000

> <Gold.Chemscore.Lipo.Weighted>
-6.7776

> <Gold.Chemscore.Internal_Hbond.Weighted>
0.0000

> <Gold.Chemscore.DEClash.Weighted>
0.1688

> <Gold.Chemscore.DEInternal.Weighted>
0.4126

> <Gold.Chemscore.Rot.Weighted>
4.2935

> <Gold.Chemscore.Internal.Correction.Weighted>
   9.000000E+99

> <Gold.Protein.RotatedTorsions>
[ 6907 6896 6895 6894 ] final  136.16 input  -60.11 | X-H torsion
[ 7974 7965 7964 7962 ] final  176.73 input  175.53 | X-H torsion
[ 8008 7997 7996 7995 ] final   -1.75 input   59.86 | X-H torsion
[ 10167 10162 10161 10158 ] final  -18.35 input  -65.29 | X-H torsion
[ 10718 10713 10712 10709 ] final   63.55 input   66.30 | X-H torsion
[ 10763 10752 10751 10750 ] final  152.59 input  -60.55 | X-H torsion
[ 11005 11000 10999 10996 ] final  157.42 input  -57.11 | X-H torsion

> <Gold.Protein.ActiveResidues>
 VAL166  LYS551  ARG553  GLY616  TRP617  ASP618  TYR619  PRO620  LYS621  CYS622 
 ASP623  PHE694  ASN695  SER759  ASP760  ASP761  ALA762  ILE779  LEU786  VAL792 
 PHE793  MET794  SER795  GLU796  ALA797  LYS798  CYS799  TRP800  GLU811  SER814 

> <Gold.Protein.RotatedAtoms>
  152.2925  133.5575  159.5566 H   0  0  0  0  0  0  0  0  0  0  0  0  # atno 6907 bound_to 6896
  150.7241  134.0408  159.3774 H   0  0  0  0  0  0  0  0  0  0  0  0  # atno 6908 bound_to 6896
  151.8313  135.0621  160.0488 H   0  0  0  0  0  0  0  0  0  0  0  0  # atno 6909 bound_to 6896
  144.7179  140.0140  143.6440 H   0  0  0  0  0  0  0  0  0  0  0  0  # atno 7974 bound_to 7965
  154.6433  140.2551  155.7297 H   0  0  0  0  0  0  0  0  0  0  0  0  # atno 8008 bound_to 7997
  156.2539  140.2883  156.0756 H   0  0  0  0  0  0  0  0  0  0  0  0  # atno 8009 bound_to 7997
  155.1563  140.0383  157.2823 H   0  0  0  0  0  0  0  0  0  0  0  0  # atno 8010 bound_to 7997
  140.7257  143.4925  150.9973 H   0  0  0  0  0  0  0  0  0  0  0  0  # atno 10167 bound_to 10162
  157.5979  130.9111  149.9730 H   0  0  0  0  0  0  0  0  0  0  0  0  # atno 10718 bound_to 10713
  154.1225  135.2832  155.3205 H   0  0  0  0  0  0  0  0  0  0  0  0  # atno 10763 bound_to 10752
  154.6413  135.5401  153.7796 H   0  0  0  0  0  0  0  0  0  0  0  0  # atno 10764 bound_to 10752
  153.0308  135.6487  154.1378 H   0  0  0  0  0  0  0  0  0  0  0  0  # atno 10765 bound_to 10752
  140.1768  134.8504  157.2755 H   0  0  0  0  0  0  0  0  0  0  0  0  # atno 11005 bound_to 11000
  146.0235  139.3271  143.0798 LP  0  0  0  0  0  0  0  0  0  0  0  0  # atno 17320 bound_to 7965
  145.8540  140.9513  143.0735 LP  0  0  0  0  0  0  0  0  0  0  0  0  # atno 17321 bound_to 7965
  139.8631  143.7289  152.3172 LP  0  0  0  0  0  0  0  0  0  0  0  0  # atno 17342 bound_to 10162
  139.7511  144.7534  151.0504 LP  0  0  0  0  0  0  0  0  0  0  0  0  # atno 17343 bound_to 10162
  156.1045  130.3653  150.0158 LP  0  0  0  0  0  0  0  0  0  0  0  0  # atno 17370 bound_to 10713
  156.8267  130.9378  151.3639 LP  0  0  0  0  0  0  0  0  0  0  0  0  # atno 17371 bound_to 10713
  140.2314  134.3905  155.7520 LP  0  0  0  0  0  0  0  0  0  0  0  0  # atno 17394 bound_to 11000
  141.2221  133.7217  156.8646 LP  0  0  0  0  0  0  0  0  0  0  0  0  # atno 17395 bound_to 11000

$$$$
