AV-unprocessed.smi:1058|AV-procd|sdf|4652|dock3
  -GOLD-   22720 3163D 1   1.00000     0.00000
 Structure written by MMmdl.
 40 41  0  0  0  0  0  0  0  0  1 V2000
  148.4188  141.0790  154.1029 C   0  0  0  0  0  0  0  0  0  0  0  0
  149.0910  140.6883  155.4301 C   0  0  2  0  0  0  0  0  0  0  0  0
  149.5260  141.9186  156.0933 N   0  0  0  0  0  0  0  0  0  0  0  0
  150.0875  141.9792  157.3109 C   0  0  0  0  0  0  0  0  0  0  0  0
  150.2799  140.9877  158.0161 O   0  0  0  0  0  0  0  0  0  0  0  0
  150.4070  143.2435  157.6396 N   0  0  0  0  0  0  0  0  0  0  0  0
  151.0107  143.7129  158.8368 C   0  0  0  0  0  0  0  0  0  0  0  0
  151.2252  145.1088  158.8929 C   0  0  0  0  0  0  0  0  0  0  0  0
  151.8192  145.6731  160.0386 C   0  0  0  0  0  0  0  0  0  0  0  0
  152.1821  144.8259  161.1009 C   0  0  0  0  0  0  0  0  0  0  0  0
  151.9329  143.4479  160.9650 C   0  0  0  0  0  0  0  0  0  0  0  0
  151.3647  142.9051  159.8676 N   0  0  0  0  0  0  0  0  0  0  0  0
  150.3012  139.7796  155.1093 C   0  0  0  0  0  0  0  0  0  0  0  0
  151.4312  140.2717  155.1544 O   0  0  0  0  0  0  0  0  0  0  0  0
  150.1015  138.4763  154.7870 N   0  0  0  0  0  0  0  0  0  0  0  0
  148.7996  137.8007  154.7233 C   0  0  0  0  0  0  0  0  0  0  0  0
  148.5578  137.0599  156.0477 C   0  0  0  0  0  0  0  0  0  0  0  0
  149.8616  135.7716  156.2875 S   0  0  0  0  0  0  0  0  0  0  0  0
  149.8776  135.3580  157.6984 O   0  0  0  0  0  0  0  0  0  0  0  0
  149.7006  134.7675  155.2246 O   0  0  0  0  0  0  0  0  0  0  0  0
  151.3948  136.7374  155.9213 C   0  0  0  0  0  0  0  0  0  0  0  0
  151.2178  137.5369  154.6194 C   0  0  0  0  0  0  0  0  0  0  0  0
  148.0552  140.2019  153.5663 H   0  0  0  0  0  0  0  0  0  0  0  0
  149.1054  141.6106  153.4420 H   0  0  0  0  0  0  0  0  0  0  0  0
  147.5607  141.7287  154.2774 H   0  0  0  0  0  0  0  0  0  0  0  0
  148.3723  140.1962  156.0850 H   0  0  0  0  0  0  0  0  0  0  0  0
  149.4110  142.7782  155.5769 H   0  0  0  0  0  0  0  0  0  0  0  0
  150.1974  143.9529  156.9529 H   0  0  0  0  0  0  0  0  0  0  0  0
  150.9401  145.7452  158.0678 H   0  0  0  0  0  0  0  0  0  0  0  0
  151.9926  146.7373  160.1007 H   0  0  0  0  0  0  0  0  0  0  0  0
  152.6393  145.2211  161.9962 H   0  0  0  0  0  0  0  0  0  0  0  0
  152.1965  142.7629  161.7571 H   0  0  0  0  0  0  0  0  0  0  0  0
  147.9788  138.4810  154.5030 H   0  0  0  0  0  0  0  0  0  0  0  0
  148.7896  137.0886  153.8971 H   0  0  0  0  0  0  0  0  0  0  0  0
  148.5889  137.7464  156.8948 H   0  0  0  0  0  0  0  0  0  0  0  0
  147.5855  136.5672  156.0538 H   0  0  0  0  0  0  0  0  0  0  0  0
  151.5925  137.4023  156.7631 H   0  0  0  0  0  0  0  0  0  0  0  0
  152.2292  136.0402  155.8462 H   0  0  0  0  0  0  0  0  0  0  0  0
  151.0235  136.8604  153.7861 H   0  0  0  0  0  0  0  0  0  0  0  0
  152.1497  138.0437  154.3652 H   0  0  0  0  0  0  0  0  0  0  0  0
  1  2  1  0  0  0  0
  1 23  1  0  0  0  0
  1 24  1  0  0  0  0
  1 25  1  0  0  0  0
  2  3  1  0  0  0  0
  2 13  1  0  0  0  0
  2 26  1  0  0  0  0
  3  4  1  0  0  0  0
  3 27  1  0  0  0  0
  4  5  2  0  0  0  0
  4  6  1  0  0  0  0
  6  7  1  0  0  0  0
  6 28  1  0  0  0  0
  7 12  1  0  0  0  0
  7  8  2  0  0  0  0
  8  9  1  0  0  0  0
  8 29  1  0  0  0  0
  9 10  2  0  0  0  0
  9 30  1  0  0  0  0
 10 11  1  0  0  0  0
 10 31  1  0  0  0  0
 11 12  2  0  0  0  0
 11 32  1  0  0  0  0
 13 14  2  0  0  0  0
 13 15  1  0  0  0  0
 15 22  1  0  0  0  0
 15 16  1  0  0  0  0
 16 17  1  0  0  0  0
 16 33  1  0  0  0  0
 16 34  1  0  0  0  0
 17 18  1  0  0  0  0
 17 35  1  0  0  0  0
 17 36  1  0  0  0  0
 18 19  2  0  0  0  0
 18 20  2  0  0  0  0
 18 21  1  0  0  0  0
 21 22  1  0  0  0  0
 21 37  1  0  0  0  0
 21 38  1  0  0  0  0
 22 39  1  0  0  0  0
 22 40  1  0  0  0  0
M  END
> <s_m_source_file>
AV-unprocessed.smi

> <i_m_source_file_index>
1058

> <i_lp_mmshare_version>
43012

> <i_f3d_flags>
0

> <s_epik_input>
Tz1TMSg9TylbQ0gyXVtDSDJdTihbQ0gyXVtDSDJdMSlDKD1PKVtDQEhdKFtDSDNdKVtOSF1DKD1PKVtOSF1jMltjSF1bY0hdW2NIXVtjSF1uMg==

> <s_epik_cmdline>
J2VwaWtfcHl0aG9uJywgJy1waCcsICc3LjAnLCAnLXRuJywgJzgnLCAnLW1hJywgJzIwMCcsICctbWV0YWxfYmluZGluZycsICctaW1hZScsICc8aW5maWxlLm1hZT4nLCAnLW9tYWUnLCAnPG91dGZpbGUubWFlPic=

> <r_lp_tautomer_probability>
1

> <r_epik_Ionization_Penalty>
3.69864e-05

> <r_epik_Ionization_Penalty_Charging>
0

> <r_epik_Ionization_Penalty_Neutral>
3.69864e-05

> <r_epik_State_Penalty>
-0

> <r_epik_Charging_Adjusted_Penalty>
0

> <i_epik_Tot_Q>
0

> <i_epik_Tot_abs_Q>
0

> <r_epik_Metal_State_Penalty>
-0

> <b_epik_Metal_Only>
0

> <s_lp_Force_Field>
OPLS_2005

> <r_lp_Energy>
18.4379

> <b_lp_Chiralities_Consistent>
1

> <s_lp_Variant>
AV-unprocessed.smi:1058-1

> <Gold.Version>
5.8.1

> <Gold.Id.Protein>
6NUR|6NUR_protein|mol2

> <Gold.PLP.Fitness>
48.6797

> <Gold.PLP.PLP>
-39.1993

> <Gold.PLP.part.hbond>
-4.3622

> <Gold.PLP.part.metal>
0.0000

> <Gold.PLP.part.buried>
-6.5847

> <Gold.PLP.part.nonpolar>
-30.0674

> <Gold.PLP.part.repulsive>
0.2842

> <Gold.PLP.ligand.clash>
0.0000

> <Gold.PLP.ligand.torsion>
0.4651

> <Gold.PLP.Chemscore.Hbond>
3.4610

> <Gold.PLP.Chemscore.CHOScore>
0.0000

> <Gold.PLP.Chemscore.Metal>
0.0000

> <Gold.Chemscore.Hbonds>
donor molecule, donor type, donor heavy atom, donor atom, acceptor molecule, acceptor atom, score
      L1  H     3    27       P1  8028  0.93
      L1  H     6    28       P1  8028  0.98
      P1  H  6896  6908       L1    19  0.54
      P1  H  7989  7998       L1    14  1.00

> <Gold.PLP.Chemscore.Internal.Correction>
0.0277

> <Gold.Rescore>
     Score         DG    S(hbond)    S(metal)    S(lipo)     H(rot)  DE(clash)    DE(int)     intcor
     19.11     -21.86       3.40        0.00      72.65       1.36       0.38       2.38       ----

> <Gold.Chemscore.Fitness>
19.1068

> <Gold.Chemscore.DG>
-21.8605

> <Gold.Chemscore.ZeroCoef>
-5.4800

> <Gold.Chemscore.Hbond>
3.4033

> <Gold.Chemscore.Metal>
0.0000

> <Gold.Chemscore.Lipo>
72.6460

> <Gold.Chemscore.Internal_Hbond>
0.0000

> <Gold.Chemscore.DEClash>
0.3773

> <Gold.Chemscore.DEInternal>
2.3764

> <Gold.Chemscore.Rot>
1.3617

> <Gold.Chemscore.Internal.Correction>
   9.000000E+99

> <Gold.Chemscore.Hbonds>
donor molecule, donor type, donor heavy atom, donor atom, acceptor molecule, acceptor atom, score
      L1  H     3    27       P1  8028  0.87
      L1  H     6    28       P1  8028  0.89
      P1  H  6896  6908       L1    19  0.54
      P1  H  7989  7998       L1    14  0.37

> <Gold.Chemscore.Hbond.Weighted>
-11.3670

> <Gold.Chemscore.Metal.Weighted>
-0.0000

> <Gold.Chemscore.Lipo.Weighted>
-8.4996

> <Gold.Chemscore.Internal_Hbond.Weighted>
0.0000

> <Gold.Chemscore.DEClash.Weighted>
0.3773

> <Gold.Chemscore.DEInternal.Weighted>
2.3764

> <Gold.Chemscore.Rot.Weighted>
3.4861

> <Gold.Chemscore.Internal.Correction.Weighted>
   9.000000E+99

> <Gold.Protein.RotatedTorsions>
[ 6907 6896 6895 6894 ] final  148.40 input  -60.11 | X-H torsion
[ 7974 7965 7964 7962 ] final  160.84 input  175.53 | X-H torsion
[ 8008 7997 7996 7995 ] final   12.43 input   59.86 | X-H torsion
[ 10167 10162 10161 10158 ] final   89.05 input  -65.29 | X-H torsion
[ 10718 10713 10712 10709 ] final  -35.57 input   66.30 | X-H torsion
[ 10763 10752 10751 10750 ] final   47.42 input  -60.55 | X-H torsion
[ 11005 11000 10999 10996 ] final  -34.92 input  -57.11 | X-H torsion

> <Gold.Protein.ActiveResidues>
 VAL166  LYS551  ARG553  GLY616  TRP617  ASP618  TYR619  PRO620  LYS621  CYS622 
 ASP623  PHE694  ASN695  SER759  ASP760  ASP761  ALA762  ILE779  LEU786  VAL792 
 PHE793  MET794  SER795  GLU796  ALA797  LYS798  CYS799  TRP800  GLU811  SER814 

> <Gold.Protein.RotatedAtoms>
  152.1420  133.4469  159.4771 H   0  0  0  0  0  0  0  0  0  0  0  0  # atno 6907 bound_to 6896
  150.6887  134.2294  159.4437 H   0  0  0  0  0  0  0  0  0  0  0  0  # atno 6908 bound_to 6896
  152.0185  134.9836  160.0620 H   0  0  0  0  0  0  0  0  0  0  0  0  # atno 6909 bound_to 6896
  144.7716  139.7814  143.6295 H   0  0  0  0  0  0  0  0  0  0  0  0  # atno 7974 bound_to 7965
  154.8206  140.2883  155.5790 H   0  0  0  0  0  0  0  0  0  0  0  0  # atno 8008 bound_to 7997
  156.2997  140.2551  156.3042 H   0  0  0  0  0  0  0  0  0  0  0  0  # atno 8009 bound_to 7997
  154.9343  140.0383  157.2054 H   0  0  0  0  0  0  0  0  0  0  0  0  # atno 8010 bound_to 7997
  139.8612  144.6543  150.9056 H   0  0  0  0  0  0  0  0  0  0  0  0  # atno 10167 bound_to 10162
  156.3370  130.4288  149.7821 H   0  0  0  0  0  0  0  0  0  0  0  0  # atno 10718 bound_to 10713
  152.9800  135.5977  154.3759 H   0  0  0  0  0  0  0  0  0  0  0  0  # atno 10763 bound_to 10752
  154.3428  135.2767  155.2415 H   0  0  0  0  0  0  0  0  0  0  0  0  # atno 10764 bound_to 10752
  154.4489  135.5994  153.6233 H   0  0  0  0  0  0  0  0  0  0  0  0  # atno 10765 bound_to 10752
  140.9755  133.7085  156.1595 H   0  0  0  0  0  0  0  0  0  0  0  0  # atno 11005 bound_to 11000
  146.1866  139.5085  142.9832 LP  0  0  0  0  0  0  0  0  0  0  0  0  # atno 17320 bound_to 7965
  145.6307  141.0304  143.1864 LP  0  0  0  0  0  0  0  0  0  0  0  0  # atno 17321 bound_to 7965
  140.7775  143.3743  151.1592 LP  0  0  0  0  0  0  0  0  0  0  0  0  # atno 17342 bound_to 10162
  139.7372  143.8980  152.3038 LP  0  0  0  0  0  0  0  0  0  0  0  0  # atno 17343 bound_to 10162
  156.5071  130.8155  151.3155 LP  0  0  0  0  0  0  0  0  0  0  0  0  # atno 17370 bound_to 10713
  157.7440  130.9926  150.2641 LP  0  0  0  0  0  0  0  0  0  0  0  0  # atno 17371 bound_to 10713
  140.7265  134.4301  157.5570 LP  0  0  0  0  0  0  0  0  0  0  0  0  # atno 17394 bound_to 11000
  139.8929  134.8744  156.2250 LP  0  0  0  0  0  0  0  0  0  0  0  0  # atno 17395 bound_to 11000

$$$$
