AV-unprocessed.smi:3303|AV-procd|sdf|12657|dock2
  -GOLD-   2272018593D 1   1.00000     0.00000
 Structure written by MMmdl.
 45 46  0  0  0  0  0  0  0  0  3 V2000
  144.3022  135.4843  152.7066 C   0  0  0  0  0  0  0  0  0  0  0  0
  145.0703  134.7485  151.5940 C   0  0  2  0  0  0  0  0  0  0  0  0
  144.0828  134.0080  150.6690 C   0  0  0  0  0  0  0  0  0  0  0  0
  144.7725  133.2895  149.5658 N   0  3  2  0  0  0  0  0  0  0  0  0
  143.7906  132.7135  148.6149 C   0  0  0  0  0  0  0  0  0  0  0  0
  145.7708  132.3052  150.0808 C   0  0  1  0  0  0  0  0  0  0  0  0
  146.5175  131.5693  148.9510 C   0  0  0  0  0  0  0  0  0  0  0  0
  146.7893  133.0129  150.9981 C   0  0  0  0  0  0  0  0  0  0  0  0
  146.1126  133.7598  152.1581 C   0  0  1  0  0  0  0  0  0  0  0  0
  147.1398  134.4682  152.9561 N   0  3  0  0  0  0  0  0  0  0  0  0
  147.8255  133.6342  153.9632 C   0  0  0  0  0  0  0  0  0  0  0  0
  149.0132  132.8873  153.3417 C   0  0  0  0  0  0  0  0  0  0  0  0
  149.7877  132.0868  154.3706 C   0  0  0  0  0  0  0  0  0  0  0  0
  149.9211  130.6877  154.2447 C   0  0  0  0  0  0  0  0  0  0  0  0
  150.6594  129.9944  155.2233 C   0  0  0  0  0  0  0  0  0  0  0  0
  151.2321  130.7231  156.2834 C   0  0  0  0  0  0  0  0  0  0  0  0
  151.0417  132.1189  156.3178 C   0  0  0  0  0  0  0  0  0  0  0  0
  150.3380  132.7939  155.3827 N   0  0  0  0  0  0  0  0  0  0  0  0
  143.7786  134.7842  153.3585 H   0  0  0  0  0  0  0  0  0  0  0  0
  143.5597  136.1637  152.2867 H   0  0  0  0  0  0  0  0  0  0  0  0
  144.9682  136.0825  153.3289 H   0  0  0  0  0  0  0  0  0  0  0  0
  145.5913  135.4988  150.9965 H   0  0  0  0  0  0  0  0  0  0  0  0
  143.4873  133.2969  151.2445 H   0  0  0  0  0  0  0  0  0  0  0  0
  143.3830  134.7290  150.2436 H   0  0  0  0  0  0  0  0  0  0  0  0
  143.2612  131.8706  149.0605 H   0  0  0  0  0  0  0  0  0  0  0  0
  144.2714  132.3761  147.6972 H   0  0  0  0  0  0  0  0  0  0  0  0
  143.0515  133.4599  148.3214 H   0  0  0  0  0  0  0  0  0  0  0  0
  145.2355  131.5592  150.6712 H   0  0  0  0  0  0  0  0  0  0  0  0
  147.3050  130.9327  149.3555 H   0  0  0  0  0  0  0  0  0  0  0  0
  146.9848  132.2697  148.2582 H   0  0  0  0  0  0  0  0  0  0  0  0
  145.8569  130.9170  148.3800 H   0  0  0  0  0  0  0  0  0  0  0  0
  147.4909  132.2806  151.4004 H   0  0  0  0  0  0  0  0  0  0  0  0
  147.3831  133.7129  150.4075 H   0  0  0  0  0  0  0  0  0  0  0  0
  145.6001  133.0270  152.7847 H   0  0  0  0  0  0  0  0  0  0  0  0
  147.8363  134.8413  152.3265 H   0  0  0  0  0  0  0  0  0  0  0  0
  148.1739  134.2677  154.7800 H   0  0  0  0  0  0  0  0  0  0  0  0
  147.1117  132.9245  154.3840 H   0  0  0  0  0  0  0  0  0  0  0  0
  148.6643  132.2116  152.5591 H   0  0  0  0  0  0  0  0  0  0  0  0
  149.6880  133.5948  152.8579 H   0  0  0  0  0  0  0  0  0  0  0  0
  149.4711  130.1555  153.4194 H   0  0  0  0  0  0  0  0  0  0  0  0
  150.7854  128.9235  155.1612 H   0  0  0  0  0  0  0  0  0  0  0  0
  151.8044  130.2245  157.0516 H   0  0  0  0  0  0  0  0  0  0  0  0
  151.4671  132.7090  157.1159 H   0  0  0  0  0  0  0  0  0  0  0  0
  146.6953  135.2397  153.4334 H   0  0  0  0  0  0  0  0  0  0  0  0
  145.2900  133.9865  149.0490 H   0  0  0  0  0  0  0  0  0  0  0  0
  1  2  1  0  0  0  0
  1 19  1  0  0  0  0
  1 20  1  0  0  0  0
  1 21  1  0  0  0  0
  2  9  1  0  0  0  0
  2  3  1  0  0  0  0
  2 22  1  0  0  0  0
  3  4  1  0  0  0  0
  3 23  1  0  0  0  0
  3 24  1  0  0  0  0
  4  5  1  0  0  0  0
  4  6  1  0  0  0  0
  4 45  1  0  0  0  0
  5 25  1  0  0  0  0
  5 26  1  0  0  0  0
  5 27  1  0  0  0  0
  6  7  1  0  0  0  0
  6  8  1  0  0  0  0
  6 28  1  0  0  0  0
  7 29  1  0  0  0  0
  7 30  1  0  0  0  0
  7 31  1  0  0  0  0
  8  9  1  0  0  0  0
  8 32  1  0  0  0  0
  8 33  1  0  0  0  0
  9 10  1  0  0  0  0
  9 34  1  0  0  0  0
 10 11  1  0  0  0  0
 10 35  1  0  0  0  0
 10 44  1  0  0  0  0
 11 12  1  0  0  0  0
 11 36  1  0  0  0  0
 11 37  1  0  0  0  0
 12 13  1  0  0  0  0
 12 38  1  0  0  0  0
 12 39  1  0  0  0  0
 13 18  1  0  0  0  0
 13 14  2  0  0  0  0
 14 15  1  0  0  0  0
 14 40  1  0  0  0  0
 15 16  2  0  0  0  0
 15 41  1  0  0  0  0
 16 17  1  0  0  0  0
 16 42  1  0  0  0  0
 17 18  2  0  0  0  0
 17 43  1  0  0  0  0
M  CHG  1   4   1
M  CHG  1  10   1
M  END
> <s_m_source_file>
AV-unprocessed.smi

> <i_m_source_file_index>
3303

> <i_lp_mmshare_version>
43012

> <i_f3d_flags>
0

> <s_epik_input>
W0NIM11bQ0BASF0xW0NIMl1OKFtDSDNdKVtDQEBIXShbQ0gzXSlbQ0gyXVtDQEhdMVtOSF1bQ0gyXVtDSDJdYzJbY0hdW2NIXVtjSF1bY0hdbjI=

> <s_epik_cmdline>
J2VwaWtfcHl0aG9uJywgJy1waCcsICc3LjAnLCAnLXRuJywgJzgnLCAnLW1hJywgJzIwMCcsICctbWV0YWxfYmluZGluZycsICctaW1hZScsICc8aW5maWxlLm1hZT4nLCAnLW9tYWUnLCAnPG91dGZpbGUubWFlPic=

> <r_epik_Ionization_Penalty>
0.0769462

> <r_epik_Ionization_Penalty_Charging>
0.0759813

> <r_epik_Ionization_Penalty_Neutral>
0.000964829

> <r_epik_State_Penalty>
0.0654373

> <r_epik_Charging_Adjusted_Penalty>
0.141419

> <i_epik_Tot_Q>
2

> <i_epik_Tot_abs_Q>
2

> <r_epik_Metal_State_Penalty>
0.0656439

> <b_epik_Metal_Only>
0

> <s_lp_Force_Field>
OPLS_2005

> <r_lp_Energy>
29.1913

> <b_lp_Chiralities_Consistent>
1

> <s_lp_Variant>
AV-unprocessed.smi:3303-1

> <Gold.Version>
5.8.1

> <Gold.Id.Protein>
6NUR|6NUR_protein|mol2

> <Gold.PLP.Fitness>
44.0621

> <Gold.PLP.PLP>
-35.8406

> <Gold.PLP.part.hbond>
-2.0000

> <Gold.PLP.part.metal>
0.0000

> <Gold.PLP.part.buried>
-2.1513

> <Gold.PLP.part.nonpolar>
-32.1391

> <Gold.PLP.part.repulsive>
0.1316

> <Gold.PLP.ligand.clash>
0.0000

> <Gold.PLP.ligand.torsion>
0.3984

> <Gold.PLP.Chemscore.Hbond>
3.0000

> <Gold.PLP.Chemscore.CHOScore>
0.0000

> <Gold.PLP.Chemscore.Metal>
0.0000

> <Gold.Chemscore.Hbonds>
donor molecule, donor type, donor heavy atom, donor atom, acceptor molecule, acceptor atom, score
      L1  H     4    45       P1  7921  1.00
      L1  H    10    35       P1  7948  2.00

> <Gold.PLP.Chemscore.Internal.Correction>
0.0184

> <Gold.Rescore>
     Score         DG    S(hbond)    S(metal)    S(lipo)     H(rot)  DE(clash)    DE(int)     intcor
     18.76     -19.94       1.74        0.00     103.92       1.37       0.79       0.39       ----

> <Gold.Chemscore.Fitness>
18.7648

> <Gold.Chemscore.DG>
-19.9393

> <Gold.Chemscore.ZeroCoef>
-5.4800

> <Gold.Chemscore.Hbond>
1.7422

> <Gold.Chemscore.Metal>
0.0000

> <Gold.Chemscore.Lipo>
103.9227

> <Gold.Chemscore.Internal_Hbond>
0.0000

> <Gold.Chemscore.DEClash>
0.7851

> <Gold.Chemscore.DEInternal>
0.3894

> <Gold.Chemscore.Rot>
1.3744

> <Gold.Chemscore.Internal.Correction>
   9.000000E+99

> <Gold.Chemscore.Hbonds>
donor molecule, donor type, donor heavy atom, donor atom, acceptor molecule, acceptor atom, score
      L1  H     4    45       P1  7921  0.90
      L1  H    10    35       P1  7948  0.75

> <Gold.Chemscore.Hbond.Weighted>
-5.8188

> <Gold.Chemscore.Metal.Weighted>
-0.0000

> <Gold.Chemscore.Lipo.Weighted>
-12.1590

> <Gold.Chemscore.Internal_Hbond.Weighted>
0.0000

> <Gold.Chemscore.DEClash.Weighted>
0.7851

> <Gold.Chemscore.DEInternal.Weighted>
0.3894

> <Gold.Chemscore.Rot.Weighted>
3.5185

> <Gold.Chemscore.Internal.Correction.Weighted>
   9.000000E+99

> <Gold.Protein.RotatedTorsions>
[ 6907 6896 6895 6894 ] final  110.94 input  -60.11 | X-H torsion
[ 7974 7965 7964 7962 ] final -134.95 input  175.53 | X-H torsion
[ 8008 7997 7996 7995 ] final -160.78 input   59.86 | X-H torsion
[ 10167 10162 10161 10158 ] final   70.30 input  -65.29 | X-H torsion
[ 10718 10713 10712 10709 ] final  100.91 input   66.30 | X-H torsion
[ 10763 10752 10751 10750 ] final  176.89 input  -60.55 | X-H torsion
[ 11005 11000 10999 10996 ] final   26.01 input  -57.11 | X-H torsion

> <Gold.Protein.ActiveResidues>
 VAL166  LYS551  ARG553  GLY616  TRP617  ASP618  TYR619  PRO620  LYS621  CYS622 
 ASP623  PHE694  ASN695  SER759  ASP760  ASP761  ALA762  ILE779  LEU786  VAL792 
 PHE793  MET794  SER795  GLU796  ALA797  LYS798  CYS799  TRP800  GLU811  SER814 

> <Gold.Protein.RotatedAtoms>
  152.4995  133.8729  159.7307 H   0  0  0  0  0  0  0  0  0  0  0  0  # atno 6907 bound_to 6896
  150.9211  133.6871  159.2838 H   0  0  0  0  0  0  0  0  0  0  0  0  # atno 6908 bound_to 6896
  151.4247  135.1007  159.9677 H   0  0  0  0  0  0  0  0  0  0  0  0  # atno 6909 bound_to 6896
  144.9057  140.6830  143.5057 H   0  0  0  0  0  0  0  0  0  0  0  0  # atno 7974 bound_to 7965
  155.7825  140.0867  157.2051 H   0  0  0  0  0  0  0  0  0  0  0  0  # atno 8008 bound_to 7997
  154.3989  140.1505  156.3126 H   0  0  0  0  0  0  0  0  0  0  0  0  # atno 8009 bound_to 7997
  155.8639  140.3429  155.5778 H   0  0  0  0  0  0  0  0  0  0  0  0  # atno 8010 bound_to 7997
  140.0584  144.5253  150.7312 H   0  0  0  0  0  0  0  0  0  0  0  0  # atno 10167 bound_to 10162
  157.6842  131.0711  150.5173 H   0  0  0  0  0  0  0  0  0  0  0  0  # atno 10718 bound_to 10713
  154.4872  135.2777  155.1525 H   0  0  0  0  0  0  0  0  0  0  0  0  # atno 10763 bound_to 10752
  154.3211  135.6209  153.5512 H   0  0  0  0  0  0  0  0  0  0  0  0  # atno 10764 bound_to 10752
  152.9883  135.5743  154.5286 H   0  0  0  0  0  0  0  0  0  0  0  0  # atno 10765 bound_to 10752
  140.3417  134.2326  155.7689 H   0  0  0  0  0  0  0  0  0  0  0  0  # atno 11005 bound_to 11000
  145.3540  139.1699  143.4419 LP  0  0  0  0  0  0  0  0  0  0  0  0  # atno 17320 bound_to 7965
  146.3132  140.3595  142.8663 LP  0  0  0  0  0  0  0  0  0  0  0  0  # atno 17321 bound_to 7965
  140.7183  143.2565  151.4361 LP  0  0  0  0  0  0  0  0  0  0  0  0  # atno 17342 bound_to 10162
  139.5909  144.1501  152.2087 LP  0  0  0  0  0  0  0  0  0  0  0  0  # atno 17343 bound_to 10162
  156.5487  130.4226  149.6118 LP  0  0  0  0  0  0  0  0  0  0  0  0  # atno 17370 bound_to 10713
  156.2921  130.7130  151.1981 LP  0  0  0  0  0  0  0  0  0  0  0  0  # atno 17371 bound_to 10713
  141.2037  133.7906  157.0328 LP  0  0  0  0  0  0  0  0  0  0  0  0  # atno 17394 bound_to 11000
  140.0776  134.9667  157.1571 LP  0  0  0  0  0  0  0  0  0  0  0  0  # atno 17395 bound_to 11000

$$$$
