#       Name:                AV-unprocessed.smi:438
#       Creating user name   scv26
#       Creation time:       Thu Mar 26 22:55:50 2020


#       File generated by GOLD software.
#

@<TRIPOS>MOLECULE
AV-unprocessed.smi:438
    56    57     1
SMALL
NO_CHARGES


@<TRIPOS>ATOM
      1 ****        -1.9335   0.9365   2.4063 C.3            1 S1                 0.0000
      2 ****        -1.2723  -0.2896   1.8044 C.ar           1 S1                 0.0000
      3 ****         0.0550  -0.4108   2.0260 N.ar           1 S1                 0.0000
      4 ****         0.6534  -1.4783   1.4991 C.ar           1 S1                 0.0000
      5 ****         2.4077  -1.5944   1.7930 S.3            1 S1                 0.0000
      6 ****         3.0208  -2.2913   0.2193 C.3            1 S1                 0.0000
      7 ****         2.8071  -1.4235  -1.0280 C.2            1 S1                 0.0000
      8 ****         2.9541  -1.9244  -2.1421 O.2            1 S1                 0.0000
      9 ****         2.4728  -0.1364  -0.8437 N.am           1 S1                 0.0000
     10 ****         2.2376   0.8578  -1.8904 C.3            1 S1                 0.0000
     11 ****         0.8896   0.6207  -2.6092 C.3            1 S1                 0.0000
     12 ****        -0.3135   0.9121  -1.6980 C.3            1 S1                 0.0000
     13 ****        -0.2417   2.3313  -1.1159 C.3            1 S1                 0.0000
     14 ****         1.0899   2.5721  -0.3872 C.3            1 S1                 0.0000
     15 ****         2.2995   2.2904  -1.3041 C.3            1 S1                 0.0000
     16 ****         3.6294   2.5868  -0.5895 C.3            1 S1                 0.0000
     17 ****         0.0864  -2.4514   0.7841 N.ar           1 S1                 0.0000
     18 ****        -1.2388  -2.3447   0.5520 C.ar           1 S1                 0.0000
     19 ****        -1.8395  -3.3280  -0.1787 O.3            1 S1                 0.0000
     20 ****        -1.9911  -1.2507   1.0479 C.ar           1 S1                 0.0000
     21 ****        -3.4852  -1.1274   0.7805 C.3            1 S1                 0.0000
     22 ****        -4.3212  -1.8951   1.8129 C.3            1 S1                 0.0000
     23 ****        -5.6931  -1.7476   1.5201 O.3            1 S1                 0.0000
     24 ****        -2.7967   0.6509   3.0074 H              1 S1                 0.0000
     25 ****        -2.2677   1.6114   1.6185 H              1 S1                 0.0000
     26 ****        -1.2446   1.4856   3.0494 H              1 S1                 0.0000
     27 ****         4.0913  -2.4659   0.3270 H              1 S1                 0.0000
     28 ****         2.5662  -3.2694   0.0593 H              1 S1                 0.0000
     29 ****         2.3768   0.1866   0.1084 H              1 S1                 0.0000
     30 ****         3.0386   0.7580  -2.6253 H              1 S1                 0.0000
     31 ****         0.8353   1.2685  -3.4849 H              1 S1                 0.0000
     32 ****         0.8274  -0.3992  -2.9899 H              1 S1                 0.0000
     33 ****        -1.2424   0.7847  -2.2541 H              1 S1                 0.0000
     34 ****        -0.3395   0.1842  -0.8890 H              1 S1                 0.0000
     35 ****        -0.3544   3.0605  -1.9191 H              1 S1                 0.0000
     36 ****        -1.0745   2.4947  -0.4317 H              1 S1                 0.0000
     37 ****         1.1256   3.6021  -0.0306 H              1 S1                 0.0000
     38 ****         1.1384   1.9405   0.5009 H              1 S1                 0.0000
     39 ****         2.2351   2.9835  -2.1444 H              1 S1                 0.0000
     40 ****         3.7543   1.9755   0.3047 H              1 S1                 0.0000
     41 ****         3.6815   3.6313  -0.2817 H              1 S1                 0.0000
     42 ****         4.4783   2.3954  -1.2464 H              1 S1                 0.0000
     43 ****        -1.2319  -3.9947  -0.4594 H              1 S1                 0.0000
     44 ****        -3.7773  -0.0773   0.7676 H              1 S1                 0.0000
     45 ****        -3.7014  -1.4985  -0.2222 H              1 S1                 0.0000
     46 ****        -4.0683  -2.9558   1.8030 H              1 S1                 0.0000
     47 ****        -4.1314  -1.5231   2.8200 H              1 S1                 0.0000
     48 ****        -6.1904  -2.2426   2.1532 H              1 S1                 0.0000
     49 ****         0.5626   0.2665   2.5586 LP             1 S1                 0.0000
     50 ****         3.2101  -2.8873  -2.2276 LP             1 S1                 0.0000
     51 ****         2.8175  -1.3687  -2.9621 LP             1 S1                 0.0000
     52 ****         0.6182  -3.2236   0.4365 LP             1 S1                 0.0000
     53 ****        -2.2585  -2.9154  -0.9876 LP             1 S1                 0.0000
     54 ****        -2.5482  -3.7562   0.3820 LP             1 S1                 0.0000
     55 ****        -5.8805  -2.0922   0.6002 LP             1 S1                 0.0000
     56 ****        -5.9471  -0.7818   1.5724 LP             1 S1                 0.0000
@<TRIPOS>BOND
    1    1    2 1     
    2    1   24 1     
    3    1   25 1     
    4    1   26 1     
    5    2   20 ar    
    6    2    3 ar    
    7    3    4 ar    
    8    4    5 1     
    9    4   17 ar    
   10    5    6 1     
   11    6    7 1     
   12    6   27 1     
   13    6   28 1     
   14    7    8 2     
   15    7    9 am    
   16    9   10 1     
   17    9   29 1     
   18   10   15 1     
   19   10   11 1     
   20   10   30 1     
   21   11   12 1     
   22   11   31 1     
   23   11   32 1     
   24   12   13 1     
   25   12   33 1     
   26   12   34 1     
   27   13   14 1     
   28   13   35 1     
   29   13   36 1     
   30   14   15 1     
   31   14   37 1     
   32   14   38 1     
   33   15   16 1     
   34   15   39 1     
   35   16   40 1     
   36   16   41 1     
   37   16   42 1     
   38   17   18 ar    
   39   18   19 1     
   40   18   20 ar    
   41   19   43 1     
   42   20   21 1     
   43   21   22 1     
   44   21   44 1     
   45   21   45 1     
   46   22   23 1     
   47   22   46 1     
   48   22   47 1     
   49   23   48 1     
   50    3   49 1     
   51    8   50 1     
   52    8   51 1     
   53   17   52 1     
   54   19   53 1     
   55   19   54 1     
   56   23   55 1     
   57   23   56 1     
@<TRIPOS>SUBSTRUCTURE
      1 S1             1
@<TRIPOS>SET
LONE_PAIRS      STATIC     ATOMS    <user>   **** ""
8 49 50 51 52 53 54 55 56
DONOR_HYDROGENS      STATIC     ATOMS    <user>   **** ""
3 29 43 48
ATOM$BLUE        STATIC     ATOMS    COLORGROUP SYSTEM
8 49 50 51 52 53 54 55 56
ATOM$RED        STATIC     ATOMS    COLORGROUP SYSTEM
3 29 43 48
