AV-unprocessed.smi:109|AV-procd|sdf|1058|dock9
  -GOLD-   2262018133D 1   1.00000     0.00000
 Structure written by MMmdl.
 58 61  0  0  0  0  0  0  0  0  1 V2000
  152.8795  139.7376  154.7602 O   0  0  0  0  0  0  0  0  0  0  0  0
  151.8859  139.5843  155.7507 C   0  0  0  0  0  0  0  0  0  0  0  0
  151.1399  140.9130  155.9523 C   0  0  0  0  0  0  0  0  0  0  0  0
  150.3031  140.9440  157.2507 C   0  0  1  0  0  0  0  0  0  0  0  0
  149.5004  139.7253  157.3506 N   0  0  0  0  0  0  0  0  0  0  0  0
  148.3697  139.5575  156.6294 C   0  0  0  0  0  0  0  0  0  0  0  0
  147.7539  140.6055  156.0216 N   0  0  0  0  0  0  0  0  0  0  0  0
  146.6402  140.4072  155.3097 C   0  0  0  0  0  0  0  0  0  0  0  0
  145.9887  139.2646  155.0800 N   0  0  0  0  0  0  0  0  0  0  0  0
  146.6049  138.2102  155.6885 C   0  0  0  0  0  0  0  0  0  0  0  0
  147.7880  138.2730  156.4746 C   0  0  0  0  0  0  0  0  0  0  0  0
  148.1194  137.0019  156.9257 N   0  0  0  0  0  0  0  0  0  0  0  0
  147.1852  136.2359  156.4283 C   0  0  0  0  0  0  0  0  0  0  0  0
  146.2268  136.8859  155.6780 N   0  0  0  0  0  0  0  0  0  0  0  0
  145.0352  136.3307  154.9614 C   0  0  1  0  0  0  0  0  0  0  0  0
  145.0238  136.8604  153.6672 O   0  0  0  0  0  0  0  0  0  0  0  0
  145.5533  135.8931  152.7721 C   0  0  2  0  0  0  0  0  0  0  0  0
  145.3471  136.2583  151.2866 C   0  0  0  0  0  0  0  0  0  0  0  0
  145.9399  137.4848  150.9147 O   0  0  0  0  0  0  0  0  0  0  0  0
  145.0448  134.5559  153.3266 C   0  0  2  0  0  0  0  0  0  0  0  0
  143.7075  134.2936  152.9378 O   0  0  0  0  0  0  0  0  0  0  0  0
  145.1720  134.7966  154.8332 C   0  0  2  0  0  0  0  0  0  0  0  0
  144.2117  134.0846  155.5909 O   0  0  0  0  0  0  0  0  0  0  0  0
  151.1424  141.1630  158.5402 C   0  0  0  0  0  0  0  0  0  0  0  0
  151.6975  142.5997  158.6544 C   0  0  0  0  0  0  0  0  0  0  0  0
  152.4372  142.8128  159.9855 C   0  0  0  0  0  0  0  0  0  0  0  0
  153.5617  141.7818  160.1686 C   0  0  0  0  0  0  0  0  0  0  0  0
  153.0216  140.3476  160.0562 C   0  0  0  0  0  0  0  0  0  0  0  0
  152.2806  140.1335  158.7261 C   0  0  0  0  0  0  0  0  0  0  0  0
  144.1735  136.6716  155.5370 H   0  0  0  0  0  0  0  0  0  0  0  0
  146.6336  135.9044  152.9296 H   0  0  0  0  0  0  0  0  0  0  0  0
  145.6653  133.7223  152.9959 H   0  0  0  0  0  0  0  0  0  0  0  0
  146.1688  134.4943  155.1588 H   0  0  0  0  0  0  0  0  0  0  0  0
  153.0796  138.8864  154.4017 H   0  0  0  0  0  0  0  0  0  0  0  0
  151.1956  138.7988  155.4425 H   0  0  0  0  0  0  0  0  0  0  0  0
  152.3614  139.2567  156.6756 H   0  0  0  0  0  0  0  0  0  0  0  0
  151.8566  141.7353  155.9477 H   0  0  0  0  0  0  0  0  0  0  0  0
  150.4933  141.0686  155.0898 H   0  0  0  0  0  0  0  0  0  0  0  0
  149.6232  141.7916  157.1562 H   0  0  0  0  0  0  0  0  0  0  0  0
  149.8567  139.0191  157.9784 H   0  0  0  0  0  0  0  0  0  0  0  0
  146.2107  141.2899  154.8594 H   0  0  0  0  0  0  0  0  0  0  0  0
  147.1764  135.1696  156.5999 H   0  0  0  0  0  0  0  0  0  0  0  0
  145.7479  135.4683  150.6511 H   0  0  0  0  0  0  0  0  0  0  0  0
  144.2803  136.3244  151.0712 H   0  0  0  0  0  0  0  0  0  0  0  0
  145.3710  137.9198  150.2978 H   0  0  0  0  0  0  0  0  0  0  0  0
  143.4627  133.4405  153.2631 H   0  0  0  0  0  0  0  0  0  0  0  0
  143.7286  133.5209  155.0060 H   0  0  0  0  0  0  0  0  0  0  0  0
  150.4642  141.0391  159.3858 H   0  0  0  0  0  0  0  0  0  0  0  0
  152.3828  142.8124  157.8343 H   0  0  0  0  0  0  0  0  0  0  0  0
  150.8839  143.3210  158.5723 H   0  0  0  0  0  0  0  0  0  0  0  0
  152.8484  143.8219  160.0245 H   0  0  0  0  0  0  0  0  0  0  0  0
  151.7311  142.7345  160.8131 H   0  0  0  0  0  0  0  0  0  0  0  0
  154.3322  141.9428  159.4134 H   0  0  0  0  0  0  0  0  0  0  0  0
  154.0430  141.9237  161.1366 H   0  0  0  0  0  0  0  0  0  0  0  0
  153.8414  139.6340  160.1430 H   0  0  0  0  0  0  0  0  0  0  0  0
  152.3464  140.1447  160.8883 H   0  0  0  0  0  0  0  0  0  0  0  0
  151.8825  139.1189  158.6942 H   0  0  0  0  0  0  0  0  0  0  0  0
  152.9968  140.2115  157.9080 H   0  0  0  0  0  0  0  0  0  0  0  0
  1  2  1  0  0  0  0
  1 34  1  0  0  0  0
  2  3  1  0  0  0  0
  2 35  1  0  0  0  0
  2 36  1  0  0  0  0
  3  4  1  0  0  0  0
  3 37  1  0  0  0  0
  3 38  1  0  0  0  0
  4  5  1  0  0  0  0
  4 24  1  0  0  0  0
  4 39  1  0  0  0  0
  5  6  1  0  0  0  0
  5 40  1  0  0  0  0
  6 11  1  0  0  0  0
  6  7  2  0  0  0  0
  7  8  1  0  0  0  0
  8  9  2  0  0  0  0
  8 41  1  0  0  0  0
  9 10  1  0  0  0  0
 10 14  1  0  0  0  0
 10 11  2  0  0  0  0
 11 12  1  0  0  0  0
 12 13  2  0  0  0  0
 13 14  1  0  0  0  0
 13 42  1  0  0  0  0
 14 15  1  0  0  0  0
 15 30  1  0  0  0  0
 15 22  1  0  0  0  0
 15 16  1  0  0  0  0
 16 17  1  0  0  0  0
 17 31  1  0  0  0  0
 17 18  1  0  0  0  0
 17 20  1  0  0  0  0
 18 19  1  0  0  0  0
 18 43  1  0  0  0  0
 18 44  1  0  0  0  0
 19 45  1  0  0  0  0
 20 32  1  0  0  0  0
 20 21  1  0  0  0  0
 20 22  1  0  0  0  0
 21 46  1  0  0  0  0
 22 33  1  0  0  0  0
 22 23  1  0  0  0  0
 23 47  1  0  0  0  0
 24 29  1  0  0  0  0
 24 25  1  0  0  0  0
 24 48  1  0  0  0  0
 25 26  1  0  0  0  0
 25 49  1  0  0  0  0
 25 50  1  0  0  0  0
 26 27  1  0  0  0  0
 26 51  1  0  0  0  0
 26 52  1  0  0  0  0
 27 28  1  0  0  0  0
 27 53  1  0  0  0  0
 27 54  1  0  0  0  0
 28 29  1  0  0  0  0
 28 55  1  0  0  0  0
 28 56  1  0  0  0  0
 29 57  1  0  0  0  0
 29 58  1  0  0  0  0
M  END
> <s_m_source_file>
AV-unprocessed.smi

> <i_m_source_file_index>
109

> <i_lp_mmshare_version>
43012

> <i_f3d_flags>
0

> <s_epik_input>
W0NIMl0xW0NIMl1bQ0gyXVtDSDJdW0NIMl1bQ0hdMVtDQEhdKFtDSDJdW0NIMl1bT0hdKVtOSF1jKG5bY0hdbjIpYyhjMjMpbltjSF1uM1tDQEBIXTRPW0NASF0oW0NIMl1bT0hdKVtDQEBIXShbT0hdKVtDQEhdNFtPSF0=

> <s_epik_cmdline>
J2VwaWtfcHl0aG9uJywgJy1waCcsICc3LjAnLCAnLXRuJywgJzgnLCAnLW1hJywgJzIwMCcsICctbWV0YWxfYmluZGluZycsICctaW1hZScsICc8aW5maWxlLm1hZT4nLCAnLW9tYWUnLCAnPG91dGZpbGUubWFlPic=

> <r_lp_tautomer_probability>
1

> <r_epik_Ionization_Penalty>
0.000793976

> <r_epik_Ionization_Penalty_Charging>
0

> <r_epik_Ionization_Penalty_Neutral>
0.000793976

> <r_epik_State_Penalty>
-0

> <r_epik_Charging_Adjusted_Penalty>
0

> <i_epik_Tot_Q>
0

> <i_epik_Tot_abs_Q>
0

> <r_epik_Metal_State_Penalty>
-0

> <b_epik_Metal_Only>
0

> <s_epik_Chemistry_Notes>
This compound contains an acetal/aminal-like group ( X-CH(R)-Y where X, Y are N, S, or O) that may be acid/base labile, releasing an aldehyde.

> <s_lp_Force_Field>
OPLS_2005

> <r_lp_Energy>
57.9674

> <b_lp_Chiralities_Consistent>
1

> <s_lp_Variant>
AV-unprocessed.smi:109-28

> <Gold.Version>
5.8.1

> <Gold.Id.Protein>
6NUR|6NUR_protein|mol2

> <Gold.PLP.Fitness>
47.0039

> <Gold.PLP.PLP>
-36.2611

> <Gold.PLP.part.hbond>
-5.7752

> <Gold.PLP.part.metal>
0.0000

> <Gold.PLP.part.buried>
-6.1415

> <Gold.PLP.part.nonpolar>
-25.2570

> <Gold.PLP.part.repulsive>
0.2311

> <Gold.PLP.ligand.clash>
0.0000

> <Gold.PLP.ligand.torsion>
0.9727

> <Gold.PLP.Chemscore.Hbond>
4.1582

> <Gold.PLP.Chemscore.CHOScore>
0.0000

> <Gold.PLP.Chemscore.Metal>
0.0000

> <Gold.Chemscore.Hbonds>
donor molecule, donor type, donor heavy atom, donor atom, acceptor molecule, acceptor atom, score
      L1  H    19    45       P1 10171  1.00
      L1  H    21    46       P1 10957  0.10
      L1  H    23    47       P1 10957  0.86
      P1  H  7989  7998       L1     1  0.28
      P1  H  7997  8008       L1     1  0.94

> <Gold.PLP.Chemscore.Internal.Correction>
0.2136

> <Gold.Rescore>
     Score         DG    S(hbond)    S(metal)    S(lipo)     H(rot)  DE(clash)    DE(int)     intcor
     11.68     -14.16       3.86        0.00      83.59       5.47       0.05       2.44       ----

> <Gold.Chemscore.Fitness>
11.6773

> <Gold.Chemscore.DG>
-14.1599

> <Gold.Chemscore.ZeroCoef>
-5.4800

> <Gold.Chemscore.Hbond>
3.8602

> <Gold.Chemscore.Metal>
0.0000

> <Gold.Chemscore.Lipo>
83.5939

> <Gold.Chemscore.Internal_Hbond>
0.0000

> <Gold.Chemscore.DEClash>
0.0471

> <Gold.Chemscore.DEInternal>
2.4355

> <Gold.Chemscore.Rot>
5.4662

> <Gold.Chemscore.Internal.Correction>
   9.000000E+99

> <Gold.Chemscore.Hbonds>
donor molecule, donor type, donor heavy atom, donor atom, acceptor molecule, acceptor atom, score
      L1  H    19    45       P1 10171  0.98
      L1  H    21    46       P1 10957  0.12
      L1  H    23    47       P1 10957  0.79
      P1  H  7954  7966       L1    19  0.01
      P1  H  7989  7998       L1     1  0.03
      P1  H  7997  8008       L1     1  0.24

> <Gold.Chemscore.Hbond.Weighted>
-12.8929

> <Gold.Chemscore.Metal.Weighted>
-0.0000

> <Gold.Chemscore.Lipo.Weighted>
-9.7805

> <Gold.Chemscore.Internal_Hbond.Weighted>
0.0000

> <Gold.Chemscore.DEClash.Weighted>
0.0471

> <Gold.Chemscore.DEInternal.Weighted>
2.4355

> <Gold.Chemscore.Rot.Weighted>
13.9935

> <Gold.Chemscore.Internal.Correction.Weighted>
   9.000000E+99

> <Gold.Protein.RotatedTorsions>
[ 6907 6896 6895 6894 ] final  162.79 input  -60.11 | X-H torsion
[ 7974 7965 7964 7962 ] final  157.31 input  175.53 | X-H torsion
[ 8008 7997 7996 7995 ] final    5.93 input   59.86 | X-H torsion
[ 10167 10162 10161 10158 ] final   61.97 input  -65.29 | X-H torsion
[ 10718 10713 10712 10709 ] final   28.27 input   66.30 | X-H torsion
[ 10763 10752 10751 10750 ] final  -18.09 input  -60.55 | X-H torsion
[ 11005 11000 10999 10996 ] final  155.49 input  -57.11 | X-H torsion

> <Gold.Protein.ActiveResidues>
 VAL166  LYS551  ARG553  GLY616  TRP617  ASP618  TYR619  PRO620  LYS621  CYS622 
 ASP623  PHE694  ASN695  SER759  ASP760  ASP761  ALA762  ILE779  LEU786  VAL792 
 PHE793  MET794  SER795  GLU796  ALA797  LYS798  CYS799  TRP800  GLU811  SER814 

> <Gold.Protein.RotatedAtoms>
  151.9351  133.3622  159.3944 H   0  0  0  0  0  0  0  0  0  0  0  0  # atno 6907 bound_to 6896
  150.7009  134.4498  159.5340 H   0  0  0  0  0  0  0  0  0  0  0  0  # atno 6908 bound_to 6896
  152.2145  134.8471  160.0544 H   0  0  0  0  0  0  0  0  0  0  0  0  # atno 6909 bound_to 6896
  144.7911  139.7323  143.6221 H   0  0  0  0  0  0  0  0  0  0  0  0  # atno 7974 bound_to 7965
  154.7346  140.2737  155.6426 H   0  0  0  0  0  0  0  0  0  0  0  0  # atno 8008 bound_to 7997
  156.2858  140.2709  156.1982 H   0  0  0  0  0  0  0  0  0  0  0  0  # atno 8009 bound_to 7997
  155.0337  140.0371  157.2473 H   0  0  0  0  0  0  0  0  0  0  0  0  # atno 8010 bound_to 7997
  140.1490  144.4481  150.6769 H   0  0  0  0  0  0  0  0  0  0  0  0  # atno 10167 bound_to 10162
  157.2313  130.7025  149.6315 H   0  0  0  0  0  0  0  0  0  0  0  0  # atno 10718 bound_to 10713
  153.5839  135.7004  153.5452 H   0  0  0  0  0  0  0  0  0  0  0  0  # atno 10763 bound_to 10752
  153.3237  135.4067  155.1438 H   0  0  0  0  0  0  0  0  0  0  0  0  # atno 10764 bound_to 10752
  154.8612  135.3702  154.5367 H   0  0  0  0  0  0  0  0  0  0  0  0  # atno 10765 bound_to 10752
  140.1586  134.8625  157.2546 H   0  0  0  0  0  0  0  0  0  0  0  0  # atno 11005 bound_to 11000
  146.2163  139.5555  142.9648 LP  0  0  0  0  0  0  0  0  0  0  0  0  # atno 17320 bound_to 7965
  145.5793  141.0384  143.2131 LP  0  0  0  0  0  0  0  0  0  0  0  0  # atno 17321 bound_to 7965
  140.6714  143.2287  151.5615 LP  0  0  0  0  0  0  0  0  0  0  0  0  # atno 17342 bound_to 10162
  139.5435  144.2584  152.1397 LP  0  0  0  0  0  0  0  0  0  0  0  0  # atno 17343 bound_to 10162
  155.9675  130.4488  150.5633 LP  0  0  0  0  0  0  0  0  0  0  0  0  # atno 17370 bound_to 10713
  157.3475  131.0727  151.1739 LP  0  0  0  0  0  0  0  0  0  0  0  0  # atno 17371 bound_to 10713
  140.2517  134.3675  155.7440 LP  0  0  0  0  0  0  0  0  0  0  0  0  # atno 17394 bound_to 11000
  141.2207  133.7320  156.8945 LP  0  0  0  0  0  0  0  0  0  0  0  0  # atno 17395 bound_to 11000

$$$$
