AV-unprocessed.smi:855|AV-procd|sdf|3956|dock1
  -GOLD-   22720 1423D 1   1.00000     0.00000
 Structure written by MMmdl.
 36 37  0  0  0  0  0  0  0  0  2 V2000
  153.7293  137.8194  157.0188 C   0  0  0  0  0  0  0  0  0  0  0  0
  152.6828  138.2582  156.0526 C   0  0  0  0  0  0  0  0  0  0  0  0
  151.6940  137.5905  155.3860 C   0  0  0  0  0  0  0  0  0  0  0  0
  151.0654  138.6181  154.6339 C   0  0  0  0  0  0  0  0  0  0  0  0
  149.9618  138.3323  153.7900 N   0  0  0  0  0  0  0  0  0  0  0  0
  148.7578  138.9296  153.7876 C   0  0  0  0  0  0  0  0  0  0  0  0
  148.4175  139.8470  154.5353 O   0  0  0  0  0  0  0  0  0  0  0  0
  147.9491  138.3991  152.8585 N   0  0  0  0  0  0  0  0  0  0  0  0
  146.5834  138.8376  152.5955 C   0  0  0  0  0  0  0  0  0  0  0  0
  145.9153  137.9938  151.4935 C   0  0  0  0  0  0  0  0  0  0  0  0
  146.1799  136.5471  151.6690 N   0  3  0  0  0  0  0  0  0  0  0  0
  145.9029  136.0115  153.0243 C   0  0  0  0  0  0  0  0  0  0  0  0
  145.2024  134.6589  152.8360 C   0  0  0  0  0  0  0  0  0  0  0  0
  145.4231  134.3115  151.3673 C   0  0  0  0  0  0  0  0  0  0  0  0
  145.4786  135.6815  150.6997 C   0  0  0  0  0  0  0  0  0  0  0  0
  151.6214  139.8052  154.8220 N   0  0  0  0  0  0  0  0  0  0  0  0
  152.6616  139.5803  155.7313 O   0  0  0  0  0  0  0  0  0  0  0  0
  153.4385  136.8914  157.5115 H   0  0  0  0  0  0  0  0  0  0  0  0
  153.8887  138.5739  157.7894 H   0  0  0  0  0  0  0  0  0  0  0  0
  154.6778  137.6497  156.5094 H   0  0  0  0  0  0  0  0  0  0  0  0
  151.4603  136.5372  155.4331 H   0  0  0  0  0  0  0  0  0  0  0  0
  150.1049  137.5923  153.1188 H   0  0  0  0  0  0  0  0  0  0  0  0
  148.3081  137.6496  152.2849 H   0  0  0  0  0  0  0  0  0  0  0  0
  145.9979  138.7972  153.5157 H   0  0  0  0  0  0  0  0  0  0  0  0
  146.6246  139.8861  152.3007 H   0  0  0  0  0  0  0  0  0  0  0  0
  144.8395  138.1737  151.4677 H   0  0  0  0  0  0  0  0  0  0  0  0
  146.3064  138.2958  150.5206 H   0  0  0  0  0  0  0  0  0  0  0  0
  146.8475  135.8954  153.5564 H   0  0  0  0  0  0  0  0  0  0  0  0
  145.2739  136.6836  153.6102 H   0  0  0  0  0  0  0  0  0  0  0  0
  145.5822  133.8904  153.5101 H   0  0  0  0  0  0  0  0  0  0  0  0
  144.1342  134.7698  153.0282 H   0  0  0  0  0  0  0  0  0  0  0  0
  146.3787  133.7994  151.2455 H   0  0  0  0  0  0  0  0  0  0  0  0
  144.6407  133.6706  150.9596 H   0  0  0  0  0  0  0  0  0  0  0  0
  144.4646  136.0523  150.5387 H   0  0  0  0  0  0  0  0  0  0  0  0
  145.9885  135.6595  149.7360 H   0  0  0  0  0  0  0  0  0  0  0  0
  147.1656  136.4018  151.5023 H   0  0  0  0  0  0  0  0  0  0  0  0
  1  2  1  0  0  0  0
  1 18  1  0  0  0  0
  1 19  1  0  0  0  0
  1 20  1  0  0  0  0
  2 17  1  0  0  0  0
  2  3  2  0  0  0  0
  3  4  1  0  0  0  0
  3 21  1  0  0  0  0
  4  5  1  0  0  0  0
  4 16  2  0  0  0  0
  5  6  1  0  0  0  0
  5 22  1  0  0  0  0
  6  7  2  0  0  0  0
  6  8  1  0  0  0  0
  8  9  1  0  0  0  0
  8 23  1  0  0  0  0
  9 10  1  0  0  0  0
  9 24  1  0  0  0  0
  9 25  1  0  0  0  0
 10 11  1  0  0  0  0
 10 26  1  0  0  0  0
 10 27  1  0  0  0  0
 11 15  1  0  0  0  0
 11 12  1  0  0  0  0
 11 36  1  0  0  0  0
 12 13  1  0  0  0  0
 12 28  1  0  0  0  0
 12 29  1  0  0  0  0
 13 14  1  0  0  0  0
 13 30  1  0  0  0  0
 13 31  1  0  0  0  0
 14 15  1  0  0  0  0
 14 32  1  0  0  0  0
 14 33  1  0  0  0  0
 15 34  1  0  0  0  0
 15 35  1  0  0  0  0
 16 17  1  0  0  0  0
M  CHG  1  11   1
M  END
> <s_m_source_file>
AV-unprocessed.smi

> <i_m_source_file_index>
855

> <i_lp_mmshare_version>
43012

> <i_f3d_flags>
0

> <s_epik_input>
W0NIM11jMVtjSF1jKG5vMSlbTkhdQyg9TylbTkhdW0NIMl1bQ0gyXU4yW0NIMl1bQ0gyXVtDSDJdW0NIMl0y

> <s_epik_cmdline>
J2VwaWtfcHl0aG9uJywgJy1waCcsICc3LjAnLCAnLXRuJywgJzgnLCAnLW1hJywgJzIwMCcsICctbWV0YWxfYmluZGluZycsICctaW1hZScsICc8aW5maWxlLm1hZT4nLCAnLW9tYWUnLCAnPG91dGZpbGUubWFlPic=

> <r_epik_Ionization_Penalty>
0.00243703

> <r_epik_Ionization_Penalty_Charging>
0.00240122

> <r_epik_Ionization_Penalty_Neutral>
3.58091e-05

> <r_epik_State_Penalty>
0.00166069

> <r_epik_Charging_Adjusted_Penalty>
0.00406191

> <i_epik_Tot_Q>
1

> <i_epik_Tot_abs_Q>
1

> <r_epik_Metal_State_Penalty>
0.021664

> <b_epik_Metal_Only>
0

> <s_lp_Force_Field>
OPLS_2005

> <r_lp_Energy>
23.058

> <b_lp_Chiralities_Consistent>
1

> <s_lp_Variant>
AV-unprocessed.smi:855-1

> <Gold.Version>
5.8.1

> <Gold.Id.Protein>
6NUR|6NUR_protein|mol2

> <Gold.PLP.Fitness>
42.5091

> <Gold.PLP.PLP>
-26.6956

> <Gold.PLP.part.hbond>
-6.6574

> <Gold.PLP.part.metal>
0.0000

> <Gold.PLP.part.buried>
0.2094

> <Gold.PLP.part.nonpolar>
-22.3251

> <Gold.PLP.part.repulsive>
0.3435

> <Gold.PLP.ligand.clash>
0.0000

> <Gold.PLP.ligand.torsion>
0.5734

> <Gold.PLP.Chemscore.Hbond>
5.6415

> <Gold.PLP.Chemscore.CHOScore>
0.0000

> <Gold.PLP.Chemscore.Metal>
0.0000

> <Gold.Chemscore.Hbonds>
donor molecule, donor type, donor heavy atom, donor atom, acceptor molecule, acceptor atom, score
      L1  H     5    22       P1  7948  0.56
      L1  H     8    23       P1  7948  1.00
      L1  H    11    36       P1  7948  2.00
      P1  H  7989  7998       L1    16  1.00
      P1  H  7997  8008       L1    17  1.00

> <Gold.PLP.Chemscore.Internal.Correction>
0.0360

> <Gold.Rescore>
     Score         DG    S(hbond)    S(metal)    S(lipo)     H(rot)  DE(clash)    DE(int)     intcor
     19.25     -21.52       4.19        0.00      52.44       1.60       1.66       0.62       ----

> <Gold.Chemscore.Fitness>
19.2484

> <Gold.Chemscore.DG>
-21.5236

> <Gold.Chemscore.ZeroCoef>
-5.4800

> <Gold.Chemscore.Hbond>
4.1942

> <Gold.Chemscore.Metal>
0.0000

> <Gold.Chemscore.Lipo>
52.4424

> <Gold.Chemscore.Internal_Hbond>
0.0000

> <Gold.Chemscore.DEClash>
1.6569

> <Gold.Chemscore.DEInternal>
0.6183

> <Gold.Chemscore.Rot>
1.6019

> <Gold.Chemscore.Internal.Correction>
   9.000000E+99

> <Gold.Chemscore.Hbonds>
donor molecule, donor type, donor heavy atom, donor atom, acceptor molecule, acceptor atom, score
      L1  H     5    22       P1  7948  0.11
      L1  H     8    23       P1  7948  0.98
      L1  H    11    36       P1  7948  1.00
      P1  H  7989  7998       L1    16  0.93
      P1  H  7997  8008       L1    17  0.45

> <Gold.Chemscore.Hbond.Weighted>
-14.0087

> <Gold.Chemscore.Metal.Weighted>
-0.0000

> <Gold.Chemscore.Lipo.Weighted>
-6.1358

> <Gold.Chemscore.Internal_Hbond.Weighted>
0.0000

> <Gold.Chemscore.DEClash.Weighted>
1.6569

> <Gold.Chemscore.DEInternal.Weighted>
0.6183

> <Gold.Chemscore.Rot.Weighted>
4.1009

> <Gold.Chemscore.Internal.Correction.Weighted>
   9.000000E+99

> <Gold.Protein.RotatedTorsions>
[ 6907 6896 6895 6894 ] final  161.70 input  -60.11 | X-H torsion
[ 7974 7965 7964 7962 ] final  176.22 input  175.53 | X-H torsion
[ 8008 7997 7996 7995 ] final  -30.38 input   59.86 | X-H torsion
[ 10167 10162 10161 10158 ] final  -92.82 input  -65.29 | X-H torsion
[ 10718 10713 10712 10709 ] final -123.62 input   66.30 | X-H torsion
[ 10763 10752 10751 10750 ] final -167.79 input  -60.55 | X-H torsion
[ 11005 11000 10999 10996 ] final  -36.85 input  -57.11 | X-H torsion

> <Gold.Protein.ActiveResidues>
 VAL166  LYS551  ARG553  GLY616  TRP617  ASP618  TYR619  PRO620  LYS621  CYS622 
 ASP623  PHE694  ASN695  SER759  ASP760  ASP761  ALA762  ILE779  LEU786  VAL792 
 PHE793  MET794  SER795  GLU796  ALA797  LYS798  CYS799  TRP800  GLU811  SER814 

> <Gold.Protein.RotatedAtoms>
  151.9516  133.3668  159.4001 H   0  0  0  0  0  0  0  0  0  0  0  0  # atno 6907 bound_to 6896
  150.6979  134.4334  159.5268 H   0  0  0  0  0  0  0  0  0  0  0  0  # atno 6908 bound_to 6896
  152.2008  134.8589  160.0559 H   0  0  0  0  0  0  0  0  0  0  0  0  # atno 6909 bound_to 6896
  144.7188  140.0064  143.6440 H   0  0  0  0  0  0  0  0  0  0  0  0  # atno 7974 bound_to 7965
  154.4253  140.1793  156.1397 H   0  0  0  0  0  0  0  0  0  0  0  0  # atno 8008 bound_to 7997
  156.0001  140.3361  155.6812 H   0  0  0  0  0  0  0  0  0  0  0  0  # atno 8009 bound_to 7997
  155.6254  140.0664  157.2656 H   0  0  0  0  0  0  0  0  0  0  0  0  # atno 8010 bound_to 7997
  140.3309  143.2995  151.9943 H   0  0  0  0  0  0  0  0  0  0  0  0  # atno 10167 bound_to 10162
  156.1518  130.6540  150.9924 H   0  0  0  0  0  0  0  0  0  0  0  0  # atno 10718 bound_to 10713
  154.6696  135.2937  154.9760 H   0  0  0  0  0  0  0  0  0  0  0  0  # atno 10763 bound_to 10752
  154.0792  135.6607  153.4839 H   0  0  0  0  0  0  0  0  0  0  0  0  # atno 10764 bound_to 10752
  153.0478  135.5193  154.7685 H   0  0  0  0  0  0  0  0  0  0  0  0  # atno 10765 bound_to 10752
  140.9906  133.7007  156.1844 H   0  0  0  0  0  0  0  0  0  0  0  0  # atno 11005 bound_to 11000
  146.0294  139.3321  143.0764 LP  0  0  0  0  0  0  0  0  0  0  0  0  # atno 17320 bound_to 7965
  145.8471  140.9549  143.0769 LP  0  0  0  0  0  0  0  0  0  0  0  0  # atno 17321 bound_to 7965
  139.4856  144.6235  151.7209 LP  0  0  0  0  0  0  0  0  0  0  0  0  # atno 17342 bound_to 10162
  140.5398  144.0598  150.6084 LP  0  0  0  0  0  0  0  0  0  0  0  0  # atno 17343 bound_to 10162
  157.6663  131.0871  150.7721 LP  0  0  0  0  0  0  0  0  0  0  0  0  # atno 17370 bound_to 10713
  156.7788  130.4852  149.5404 LP  0  0  0  0  0  0  0  0  0  0  0  0  # atno 17371 bound_to 10713
  140.7045  134.4528  157.5585 LP  0  0  0  0  0  0  0  0  0  0  0  0  # atno 17394 bound_to 11000
  139.8991  134.8599  156.1976 LP  0  0  0  0  0  0  0  0  0  0  0  0  # atno 17395 bound_to 11000

$$$$
