#       Name:                AV-unprocessed.smi:1362
#       Creating user name   scv26
#       Creation time:       Fri Mar 27 05:15:18 2020


#       File generated by GOLD software.
#

@<TRIPOS>MOLECULE
AV-unprocessed.smi:1362
    44    44     1
SMALL
NO_CHARGES


@<TRIPOS>ATOM
      1 ****        -3.3869  -2.1690  -3.7104 C.3            1 S1                 0.0000
      2 ****        -2.9003  -1.3539  -2.5321 C.2            1 S1                 0.0000
      3 ****        -2.7029  -0.0152  -2.8270 N.pl3          1 S1                 0.0000
      4 ****        -2.2582   0.8133  -1.8120 C.2            1 S1                 0.0000
      5 ****        -2.0684   2.2633  -2.2220 C.3            1 S1                 0.0000
      6 ****        -2.0216   0.3315  -0.5653 C.2            1 S1                 0.0000
      7 ****        -1.5248   1.2084   0.5826 C.3            1 S1                 0.0000
      8 ****        -0.0104   1.4084   0.6369 C.2            1 S1                 0.0000
      9 ****         0.4828   2.4875   0.3104 O.2            1 S1                 0.0000
     10 ****         0.7111   0.3540   1.0477 N.am           1 S1                 0.0000
     11 ****         2.1677   0.3033   1.1580 C.3            1 S1                 0.0000
     12 ****         2.7427  -0.1932  -0.1817 C.3            1 S1                 0.0000
     13 ****         2.5799  -0.5752   2.3687 C.3            1 S1                 0.0000
     14 ****         1.9296  -0.0980   3.6821 C.3            1 S1                 0.0000
     15 ****         4.1069  -0.6461   2.5501 C.3            1 S1                 0.0000
     16 ****        -2.2451  -1.1118  -0.3121 C.2            1 S1                 0.0000
     17 ****        -2.0331  -1.6117   0.7921 O.2            1 S1                 0.0000
     18 ****        -2.7006  -1.9082  -1.3752 N.2            1 S1                 0.0000
     19 ****        -2.8660   0.3845  -3.7400 H              1 S1                 0.0000
     20 ****        -3.5864  -3.2003  -3.4162 H              1 S1                 0.0000
     21 ****        -2.6354  -2.1786  -4.5003 H              1 S1                 0.0000
     22 ****        -4.3078  -1.7454  -4.1123 H              1 S1                 0.0000
     23 ****        -2.7212   2.9134  -1.6393 H              1 S1                 0.0000
     24 ****        -2.3010   2.4166  -3.2766 H              1 S1                 0.0000
     25 ****        -1.0363   2.5739  -2.0601 H              1 S1                 0.0000
     26 ****        -1.8642   0.8147   1.5417 H              1 S1                 0.0000
     27 ****        -1.9964   2.1885   0.5087 H              1 S1                 0.0000
     28 ****         0.2108  -0.4870   1.2975 H              1 S1                 0.0000
     29 ****         2.5445   1.3123   1.3357 H              1 S1                 0.0000
     30 ****         3.8303  -0.1345  -0.2018 H              1 S1                 0.0000
     31 ****         2.3801   0.4124  -1.0131 H              1 S1                 0.0000
     32 ****         2.4573  -1.2274  -0.3772 H              1 S1                 0.0000
     33 ****         2.2271  -1.5912   2.1849 H              1 S1                 0.0000
     34 ****         2.2067   0.9324   3.9069 H              1 S1                 0.0000
     35 ****         2.2437  -0.7161   4.5236 H              1 S1                 0.0000
     36 ****         0.8415  -0.1489   3.6409 H              1 S1                 0.0000
     37 ****         4.5388   0.3482   2.6676 H              1 S1                 0.0000
     38 ****         4.5941  -1.1269   1.7025 H              1 S1                 0.0000
     39 ****         4.3701  -1.2272   3.4344 H              1 S1                 0.0000
     40 ****        -0.1075   3.2361   0.0087 LP             1 S1                 0.0000
     41 ****         1.4739   2.6157   0.3469 LP             1 S1                 0.0000
     42 ****        -1.7022  -1.0414   1.5440 LP             1 S1                 0.0000
     43 ****        -2.1916  -2.5883   0.9377 LP             1 S1                 0.0000
     44 ****        -2.8682  -2.8852  -1.2434 LP             1 S1                 0.0000
@<TRIPOS>BOND
    1    1   20 1     
    2    1   21 1     
    3    1   22 1     
    4    1    2 1     
    5    2    3 1     
    6    2   18 2     
    7    3    4 1     
    8    3   19 1     
    9    4    6 2     
   10    4    5 1     
   11    5   23 1     
   12    5   24 1     
   13    5   25 1     
   14    6   16 1     
   15    6    7 1     
   16    7    8 1     
   17    7   26 1     
   18    7   27 1     
   19    8    9 2     
   20    8   10 am    
   21   10   11 1     
   22   10   28 1     
   23   11   12 1     
   24   11   13 1     
   25   11   29 1     
   26   12   30 1     
   27   12   31 1     
   28   12   32 1     
   29   13   14 1     
   30   13   15 1     
   31   13   33 1     
   32   14   34 1     
   33   14   35 1     
   34   14   36 1     
   35   15   37 1     
   36   15   38 1     
   37   15   39 1     
   38   16   17 2     
   39   16   18 1     
   40    9   40 1     
   41    9   41 1     
   42   17   42 1     
   43   17   43 1     
   44   18   44 1     
@<TRIPOS>SUBSTRUCTURE
      1 S1             1
@<TRIPOS>SET
LONE_PAIRS      STATIC     ATOMS    <user>   **** ""
5 40 41 42 43 44
DONOR_HYDROGENS      STATIC     ATOMS    <user>   **** ""
2 19 28
ATOM$BLUE        STATIC     ATOMS    COLORGROUP SYSTEM
5 40 41 42 43 44
ATOM$RED        STATIC     ATOMS    COLORGROUP SYSTEM
2 19 28
