AV-unprocessed.smi:1127|AV-procd|sdf|4840|dock1
  -GOLD-   22720 3403D 1   1.00000     0.00000
 Structure written by MMmdl.
 42 43  0  0  0  0  0  0  0  0  1 V2000
  147.0775  140.0352  153.0321 C   0  0  0  0  0  0  0  0  0  0  0  0
  147.0194  138.8737  154.4770 S   0  0  2  0  0  0  0  0  0  0  0  0
  145.6115  138.2768  154.5200 O   0  0  0  0  0  0  0  0  0  0  0  0
  146.9880  140.1960  155.7384 C   0  0  0  0  0  0  0  0  0  0  0  0
  146.0795  140.2706  156.7157 N   0  0  0  0  0  0  0  0  0  0  0  0
  146.4098  141.4107  157.4232 N   0  0  0  0  0  0  0  0  0  0  0  0
  147.4833  141.8988  156.7980 C   0  0  0  0  0  0  0  0  0  0  0  0
  147.8996  141.1869  155.7386 N   0  0  0  0  0  0  0  0  0  0  0  0
  149.0202  141.4482  154.8528 C   0  0  0  0  0  0  0  0  0  0  0  0
  150.3382  141.4417  155.6260 C   0  0  0  0  0  0  0  0  0  0  0  0
  151.1663  140.5544  155.4233 O   0  0  0  0  0  0  0  0  0  0  0  0
  150.5091  142.4291  156.5184 N   0  0  0  0  0  0  0  0  0  0  0  0
  151.6699  142.6084  157.3877 C   0  0  0  0  0  0  0  0  0  0  0  0
  151.4336  141.8500  158.7141 C   0  0  0  0  0  0  0  0  0  0  0  0
  152.5955  141.8259  159.7256 C   0  0  0  0  0  0  0  0  0  0  0  0
  152.9851  143.1587  160.3970 C   0  0  0  0  0  0  0  0  0  0  0  0
  151.8143  144.0771  160.8034 C   0  0  0  0  0  0  0  0  0  0  0  0
  151.5476  145.2469  159.8339 C   0  0  0  0  0  0  0  0  0  0  0  0
  150.9678  144.8856  158.4521 C   0  0  0  0  0  0  0  0  0  0  0  0
  151.9395  144.1224  157.5271 C   0  0  0  0  0  0  0  0  0  0  0  0
  147.6264  140.9434  153.2823 H   0  0  0  0  0  0  0  0  0  0  0  0
  146.0676  140.3122  152.7298 H   0  0  0  0  0  0  0  0  0  0  0  0
  147.5720  139.5570  152.1869 H   0  0  0  0  0  0  0  0  0  0  0  0
  147.9785  142.8026  157.1217 H   0  0  0  0  0  0  0  0  0  0  0  0
  149.0459  140.6789  154.0797 H   0  0  0  0  0  0  0  0  0  0  0  0
  148.8677  142.4027  154.3473 H   0  0  0  0  0  0  0  0  0  0  0  0
  149.7715  143.1123  156.6089 H   0  0  0  0  0  0  0  0  0  0  0  0
  152.5375  142.1714  156.8897 H   0  0  0  0  0  0  0  0  0  0  0  0
  150.5262  142.2057  159.1978 H   0  0  0  0  0  0  0  0  0  0  0  0
  151.2161  140.8096  158.4696 H   0  0  0  0  0  0  0  0  0  0  0  0
  152.3141  141.1309  160.5175 H   0  0  0  0  0  0  0  0  0  0  0  0
  153.4781  141.3887  159.2578 H   0  0  0  0  0  0  0  0  0  0  0  0
  153.5469  142.9069  161.2973 H   0  0  0  0  0  0  0  0  0  0  0  0
  153.7011  143.7043  159.7845 H   0  0  0  0  0  0  0  0  0  0  0  0
  150.9049  143.5070  160.9930 H   0  0  0  0  0  0  0  0  0  0  0  0
  152.0693  144.5209  161.7664 H   0  0  0  0  0  0  0  0  0  0  0  0
  150.8439  145.9239  160.3195 H   0  0  0  0  0  0  0  0  0  0  0  0
  152.4617  145.8272  159.7039 H   0  0  0  0  0  0  0  0  0  0  0  0
  150.0191  144.3594  158.5560 H   0  0  0  0  0  0  0  0  0  0  0  0
  150.7136  145.8244  157.9586 H   0  0  0  0  0  0  0  0  0  0  0  0
  152.9706  144.3007  157.8259 H   0  0  0  0  0  0  0  0  0  0  0  0
  151.8821  144.5655  156.5314 H   0  0  0  0  0  0  0  0  0  0  0  0
  1  2  1  0  0  0  0
  1 21  1  0  0  0  0
  1 22  1  0  0  0  0
  1 23  1  0  0  0  0
  2  3  2  0  0  0  0
  2  4  1  0  0  0  0
  4  8  1  0  0  0  0
  4  5  2  0  0  0  0
  5  6  1  0  0  0  0
  6  7  2  0  0  0  0
  7  8  1  0  0  0  0
  7 24  1  0  0  0  0
  8  9  1  0  0  0  0
  9 10  1  0  0  0  0
  9 25  1  0  0  0  0
  9 26  1  0  0  0  0
 10 11  2  0  0  0  0
 10 12  1  0  0  0  0
 12 13  1  0  0  0  0
 12 27  1  0  0  0  0
 13 20  1  0  0  0  0
 13 14  1  0  0  0  0
 13 28  1  0  0  0  0
 14 15  1  0  0  0  0
 14 29  1  0  0  0  0
 14 30  1  0  0  0  0
 15 16  1  0  0  0  0
 15 31  1  0  0  0  0
 15 32  1  0  0  0  0
 16 17  1  0  0  0  0
 16 33  1  0  0  0  0
 16 34  1  0  0  0  0
 17 18  1  0  0  0  0
 17 35  1  0  0  0  0
 17 36  1  0  0  0  0
 18 19  1  0  0  0  0
 18 37  1  0  0  0  0
 18 38  1  0  0  0  0
 19 20  1  0  0  0  0
 19 39  1  0  0  0  0
 19 40  1  0  0  0  0
 20 41  1  0  0  0  0
 20 42  1  0  0  0  0
M  END
> <s_m_source_file>
AV-unprocessed.smi

> <i_m_source_file_index>
1127

> <i_lp_mmshare_version>
43012

> <i_f3d_flags>
0

> <s_epik_input>
W0NIM11bU0BdKD1PKWMxbm5bY0hdbjFbQ0gyXUMoPU8pW05IXVtDSF0yW0NIMl1bQ0gyXVtDSDJdW0NIMl1bQ0gyXVtDSDJdW0NIMl0y

> <s_epik_cmdline>
J2VwaWtfcHl0aG9uJywgJy1waCcsICc3LjAnLCAnLXRuJywgJzgnLCAnLW1hJywgJzIwMCcsICctbWV0YWxfYmluZGluZycsICctaW1hZScsICc8aW5maWxlLm1hZT4nLCAnLW9tYWUnLCAnPG91dGZpbGUubWFlPic=

> <r_lp_tautomer_probability>
1

> <r_epik_Ionization_Penalty>
7.34999e-08

> <r_epik_Ionization_Penalty_Charging>
0

> <r_epik_Ionization_Penalty_Neutral>
7.34999e-08

> <r_epik_State_Penalty>
-0

> <r_epik_Charging_Adjusted_Penalty>
0

> <i_epik_Tot_Q>
0

> <i_epik_Tot_abs_Q>
0

> <r_epik_Metal_State_Penalty>
-0

> <b_epik_Metal_Only>
0

> <s_lp_Force_Field>
OPLS_2005

> <r_lp_Energy>
17.7529

> <b_lp_Chiralities_Consistent>
1

> <s_lp_Variant>
AV-unprocessed.smi:1127-1

> <Gold.Version>
5.8.1

> <Gold.Id.Protein>
6NUR|6NUR_protein|mol2

> <Gold.PLP.Fitness>
45.5772

> <Gold.PLP.PLP>
-38.3282

> <Gold.PLP.part.hbond>
-2.0000

> <Gold.PLP.part.metal>
0.0000

> <Gold.PLP.part.buried>
-4.6972

> <Gold.PLP.part.nonpolar>
-30.7008

> <Gold.PLP.part.repulsive>
0.2492

> <Gold.PLP.ligand.clash>
0.0000

> <Gold.PLP.ligand.torsion>
0.9466

> <Gold.PLP.Chemscore.Hbond>
1.8240

> <Gold.PLP.Chemscore.CHOScore>
0.8624

> <Gold.PLP.Chemscore.Metal>
0.0000

> <Gold.Chemscore.Hbonds>
donor molecule, donor type, donor heavy atom, donor atom, acceptor molecule, acceptor atom, score
      L1  H    12    27       P1  8028  0.79
      P1  H  7989  7998       L1    11  0.90
      L1  C     7    24       P1  8028  0.81

> <Gold.PLP.Chemscore.Internal.Correction>
1.0831

> <Gold.Rescore>
     Score         DG    S(hbond)    S(metal)    S(lipo)     H(rot)  DE(clash)    DE(int)     intcor
     15.85     -18.21       1.52        0.00     102.62       1.70       1.33       1.03       ----

> <Gold.Chemscore.Fitness>
15.8461

> <Gold.Chemscore.DG>
-18.2124

> <Gold.Chemscore.ZeroCoef>
-5.4800

> <Gold.Chemscore.Hbond>
1.5237

> <Gold.Chemscore.Metal>
0.0000

> <Gold.Chemscore.Lipo>
102.6199

> <Gold.Chemscore.Internal_Hbond>
0.0000

> <Gold.Chemscore.DEClash>
1.3336

> <Gold.Chemscore.DEInternal>
1.0328

> <Gold.Chemscore.Rot>
1.7044

> <Gold.Chemscore.Internal.Correction>
   9.000000E+99

> <Gold.Chemscore.Hbonds>
donor molecule, donor type, donor heavy atom, donor atom, acceptor molecule, acceptor atom, score
      L1  H    12    27       P1  8028  0.75
      P1  H  7989  7998       L1    11  0.25

> <Gold.Chemscore.Hbond.Weighted>
-5.0890

> <Gold.Chemscore.Metal.Weighted>
-0.0000

> <Gold.Chemscore.Lipo.Weighted>
-12.0065

> <Gold.Chemscore.Internal_Hbond.Weighted>
0.0000

> <Gold.Chemscore.DEClash.Weighted>
1.3336

> <Gold.Chemscore.DEInternal.Weighted>
1.0328

> <Gold.Chemscore.Rot.Weighted>
4.3631

> <Gold.Chemscore.Internal.Correction.Weighted>
   9.000000E+99

> <Gold.Protein.RotatedTorsions>
[ 6907 6896 6895 6894 ] final  -22.89 input  -60.11 | X-H torsion
[ 7974 7965 7964 7962 ] final  109.17 input  175.53 | X-H torsion
[ 8008 7997 7996 7995 ] final   79.51 input   59.86 | X-H torsion
[ 10167 10162 10161 10158 ] final  -80.25 input  -65.29 | X-H torsion
[ 10718 10713 10712 10709 ] final  137.00 input   66.30 | X-H torsion
[ 10763 10752 10751 10750 ] final  -91.20 input  -60.55 | X-H torsion
[ 11005 11000 10999 10996 ] final -115.79 input  -57.11 | X-H torsion

> <Gold.Protein.ActiveResidues>
 VAL166  LYS551  ARG553  GLY616  TRP617  ASP618  TYR619  PRO620  LYS621  CYS622 
 ASP623  PHE694  ASN695  SER759  ASP760  ASP761  ALA762  ILE779  LEU786  VAL792 
 PHE793  MET794  SER795  GLU796  ALA797  LYS798  CYS799  TRP800  GLU811  SER814 

> <Gold.Protein.RotatedAtoms>
  151.2120  135.0485  159.8914 H   0  0  0  0  0  0  0  0  0  0  0  0  # atno 6907 bound_to 6896
  152.5424  134.0734  159.8214 H   0  0  0  0  0  0  0  0  0  0  0  0  # atno 6908 bound_to 6896
  151.0889  133.5283  159.2648 H   0  0  0  0  0  0  0  0  0  0  0  0  # atno 6909 bound_to 6896
  145.2712  139.2666  143.3965 H   0  0  0  0  0  0  0  0  0  0  0  0  # atno 7974 bound_to 7965
  155.8707  140.3449  155.5819 H   0  0  0  0  0  0  0  0  0  0  0  0  # atno 8008 bound_to 7997
  155.7830  140.0861  157.2068 H   0  0  0  0  0  0  0  0  0  0  0  0  # atno 8009 bound_to 7997
  154.4017  140.1497  156.3062 H   0  0  0  0  0  0  0  0  0  0  0  0  # atno 8010 bound_to 7997
  140.4520  143.2480  151.8475 H   0  0  0  0  0  0  0  0  0  0  0  0  # atno 10167 bound_to 10162
  157.4408  131.1057  151.0146 H   0  0  0  0  0  0  0  0  0  0  0  0  # atno 10718 bound_to 10713
  154.6737  135.5276  153.8171 H   0  0  0  0  0  0  0  0  0  0  0  0  # atno 10763 bound_to 10752
  153.0518  135.6535  154.0685 H   0  0  0  0  0  0  0  0  0  0  0  0  # atno 10764 bound_to 10752
  154.0581  135.2964  155.3309 H   0  0  0  0  0  0  0  0  0  0  0  0  # atno 10765 bound_to 10752
  141.0464  133.9755  157.2910 H   0  0  0  0  0  0  0  0  0  0  0  0  # atno 11005 bound_to 11000
  146.3246  140.3156  142.8629 LP  0  0  0  0  0  0  0  0  0  0  0  0  # atno 17320 bound_to 7965
  144.9333  140.7999  143.5676 LP  0  0  0  0  0  0  0  0  0  0  0  0  # atno 17321 bound_to 7965
  139.4797  144.5109  151.8934 LP  0  0  0  0  0  0  0  0  0  0  0  0  # atno 17342 bound_to 10162
  140.4196  144.2261  150.5887 LP  0  0  0  0  0  0  0  0  0  0  0  0  # atno 17343 bound_to 10162
  157.1010  130.5981  149.5460 LP  0  0  0  0  0  0  0  0  0  0  0  0  # atno 17370 bound_to 10713
  155.9948  130.5013  150.7433 LP  0  0  0  0  0  0  0  0  0  0  0  0  # atno 17371 bound_to 10713
  139.9315  135.0199  156.8417 LP  0  0  0  0  0  0  0  0  0  0  0  0  # atno 17394 bound_to 11000
  140.6138  134.0058  155.7588 LP  0  0  0  0  0  0  0  0  0  0  0  0  # atno 17395 bound_to 11000

$$$$
