#       Name:                AV-unprocessed.smi:786
#       Creating user name   scv26
#       Creation time:       Fri Mar 27 01:14:45 2020


#       File generated by GOLD software.
#

@<TRIPOS>MOLECULE
AV-unprocessed.smi:786
    43    44     1
SMALL
NO_CHARGES


@<TRIPOS>ATOM
      1 ****        -2.4960  -1.0737   2.2673 O.2            1 S1                 0.0000
      2 ****        -2.1274  -1.0061   0.8455 S.o2           1 S1                 0.0000
      3 ****        -2.8933  -1.7631  -0.1562 O.2            1 S1                 0.0000
      4 ****        -2.0440   0.7633   0.3083 C.3            1 S1                 0.0000
      5 ****        -1.4608   1.6982   1.3884 C.3            1 S1                 0.0000
      6 ****        -2.5029   2.1477   2.4305 C.3            1 S1                 0.0000
      7 ****        -1.8821   3.1345   3.4329 C.3            1 S1                 0.0000
      8 ****        -1.3404   4.2544   2.7414 O.3            1 S1                 0.0000
      9 ****        -0.2923   3.8985   1.8468 C.3            1 S1                 0.0000
     10 ****        -0.8267   2.9505   0.7606 C.3            1 S1                 0.0000
     11 ****        -0.4830  -1.5184   0.7315 N.3            1 S1                 0.0000
     12 ****         0.1996  -1.5607  -0.5617 C.3            1 S1                 0.0000
     13 ****         1.4411  -2.4586  -0.4788 C.3            1 S1                 0.0000
     14 ****         2.1802  -2.5394  -1.8014 C.ar           1 S1                 0.0000
     15 ****         2.0077  -3.6486  -2.6568 C.ar           1 S1                 0.0000
     16 ****         2.7116  -3.6715  -3.8764 C.ar           1 S1                 0.0000
     17 ****         3.5561  -2.5901  -4.1925 C.ar           1 S1                 0.0000
     18 ****         3.6587  -1.5285  -3.2712 C.ar           1 S1                 0.0000
     19 ****         2.9874  -1.4961  -2.0996 N.ar           1 S1                 0.0000
     20 ****        -1.4538   0.7983  -0.6067 H              1 S1                 0.0000
     21 ****        -3.0511   1.0806   0.0372 H              1 S1                 0.0000
     22 ****        -0.6650   1.1610   1.9065 H              1 S1                 0.0000
     23 ****        -3.3428   2.6296   1.9285 H              1 S1                 0.0000
     24 ****        -2.9148   1.2972   2.9706 H              1 S1                 0.0000
     25 ****        -2.6425   3.4866   4.1301 H              1 S1                 0.0000
     26 ****        -1.1064   2.6497   4.0274 H              1 S1                 0.0000
     27 ****         0.1029   4.8061   1.3904 H              1 S1                 0.0000
     28 ****         0.5285   3.4363   2.3974 H              1 S1                 0.0000
     29 ****        -0.0154   2.6673   0.0890 H              1 S1                 0.0000
     30 ****        -1.5657   3.4753   0.1535 H              1 S1                 0.0000
     31 ****         0.0975  -1.2215   1.5157 H              1 S1                 0.0000
     32 ****        -0.4848  -1.9403  -1.3210 H              1 S1                 0.0000
     33 ****         0.4798  -0.5478  -0.8516 H              1 S1                 0.0000
     34 ****         2.1241  -2.0843   0.2853 H              1 S1                 0.0000
     35 ****         1.1536  -3.4637  -0.1676 H              1 S1                 0.0000
     36 ****         1.3509  -4.4629  -2.3875 H              1 S1                 0.0000
     37 ****         2.6053  -4.5036  -4.5569 H              1 S1                 0.0000
     38 ****         4.1115  -2.5737  -5.1186 H              1 S1                 0.0000
     39 ****         4.2965  -0.6829  -3.4810 H              1 S1                 0.0000
     40 ****        -0.9803   4.9010   3.4139 LP             1 S1                 0.0000
     41 ****        -2.0723   4.6909   2.2181 LP             1 S1                 0.0000
     42 ****        -0.6296  -2.5038   0.8179 LP             1 S1                 0.0000
     43 ****         3.0843  -0.7239  -1.4716 LP             1 S1                 0.0000
@<TRIPOS>BOND
    1    1    2 2     
    2    2    3 2     
    3    2    4 1     
    4    2   11 1     
    5    4    5 1     
    6    4   20 1     
    7    4   21 1     
    8    5   10 1     
    9    5    6 1     
   10    5   22 1     
   11    6    7 1     
   12    6   23 1     
   13    6   24 1     
   14    7    8 1     
   15    7   25 1     
   16    7   26 1     
   17    8    9 1     
   18    9   10 1     
   19    9   27 1     
   20    9   28 1     
   21   10   29 1     
   22   10   30 1     
   23   11   12 1     
   24   11   31 1     
   25   12   13 1     
   26   12   32 1     
   27   12   33 1     
   28   13   14 1     
   29   13   34 1     
   30   13   35 1     
   31   14   19 ar    
   32   14   15 ar    
   33   15   16 ar    
   34   15   36 1     
   35   16   17 ar    
   36   16   37 1     
   37   17   18 ar    
   38   17   38 1     
   39   18   19 ar    
   40   18   39 1     
   41    8   40 1     
   42    8   41 1     
   43   11   42 1     
   44   19   43 1     
@<TRIPOS>SUBSTRUCTURE
      1 S1             1
@<TRIPOS>SET
LONE_PAIRS      STATIC     ATOMS    <user>   **** ""
6 1 3 40 41 42 43
DONOR_HYDROGENS      STATIC     ATOMS    <user>   **** ""
1 31
ATOM$BLUE        STATIC     ATOMS    COLORGROUP SYSTEM
6 1 3 40 41 42 43
ATOM$RED        STATIC     ATOMS    COLORGROUP SYSTEM
1 31
