AV-unprocessed.smi:1172|AV-procd|sdf|4944|dock5
  -GOLD-   22720 3533D 1   1.00000     0.00000
 Structure written by MMmdl.
 36 37  0  0  0  0  0  0  0  0  1 V2000
  149.4625  140.2708  153.7716 N   0  0  0  0  0  0  0  0  0  0  0  0
  148.4923  140.7418  154.5600 C   0  0  0  0  0  0  0  0  0  0  0  0
  148.7039  141.1076  155.7142 O   0  0  0  0  0  0  0  0  0  0  0  0
  147.0843  140.8220  153.9664 C   0  0  0  0  0  0  0  0  0  0  0  0
  146.5727  139.5037  153.6356 N   0  0  0  0  0  0  0  0  0  0  0  0
  146.9483  138.6799  152.5926 C   0  0  0  0  0  0  0  0  0  0  0  0
  146.1818  137.5556  152.7139 C   0  0  0  0  0  0  0  0  0  0  0  0
  146.1547  136.3916  151.9048 N   0  0  0  0  0  0  0  0  0  0  0  0
  145.0751  135.7192  151.4618 C   0  0  0  0  0  0  0  0  0  0  0  0
  143.9207  136.1111  151.6378 O   0  0  0  0  0  0  0  0  0  0  0  0
  145.3691  134.6044  150.7449 N   0  0  0  0  0  0  0  0  0  0  0  0
  146.5265  133.7173  150.9605 C   0  0  0  0  0  0  0  0  0  0  0  0
  146.0501  132.4496  151.6939 C   0  0  0  0  0  0  0  0  0  0  0  0
  144.9285  131.7476  150.9053 C   0  0  0  0  0  0  0  0  0  0  0  0
  143.8070  132.7326  150.5178 C   0  0  2  0  0  0  0  0  0  0  0  0
  142.9006  132.0952  149.6433 O   0  0  0  0  0  0  0  0  0  0  0  0
  144.3905  133.9874  149.8391 C   0  0  0  0  0  0  0  0  0  0  0  0
  145.3609  137.7678  153.8516 C   0  0  0  0  0  0  0  0  0  0  0  0
  145.6029  138.9466  154.4040 N   0  0  0  0  0  0  0  0  0  0  0  0
  150.4048  140.1987  154.1274 H   0  0  0  0  0  0  0  0  0  0  0  0
  149.2526  139.9852  152.8262 H   0  0  0  0  0  0  0  0  0  0  0  0
  146.4076  141.3050  154.6733 H   0  0  0  0  0  0  0  0  0  0  0  0
  147.0933  141.4342  153.0638 H   0  0  0  0  0  0  0  0  0  0  0  0
  147.7078  138.9677  151.8809 H   0  0  0  0  0  0  0  0  0  0  0  0
  147.0551  136.0089  151.6560 H   0  0  0  0  0  0  0  0  0  0  0  0
  146.9551  133.4478  149.9941 H   0  0  0  0  0  0  0  0  0  0  0  0
  147.3421  134.1786  151.5171 H   0  0  0  0  0  0  0  0  0  0  0  0
  146.8850  131.7647  151.8435 H   0  0  0  0  0  0  0  0  0  0  0  0
  145.6872  132.7176  152.6872 H   0  0  0  0  0  0  0  0  0  0  0  0
  145.3575  131.3117  150.0018 H   0  0  0  0  0  0  0  0  0  0  0  0
  144.5228  130.9182  151.4856 H   0  0  0  0  0  0  0  0  0  0  0  0
  143.2591  133.0284  151.4137 H   0  0  0  0  0  0  0  0  0  0  0  0
  142.1705  132.6757  149.4912 H   0  0  0  0  0  0  0  0  0  0  0  0
  143.5903  134.6739  149.5577 H   0  0  0  0  0  0  0  0  0  0  0  0
  144.8873  133.7181  148.9056 H   0  0  0  0  0  0  0  0  0  0  0  0
  144.6134  137.1206  154.2861 H   0  0  0  0  0  0  0  0  0  0  0  0
  1  2  1  0  0  0  0
  1 20  1  0  0  0  0
  1 21  1  0  0  0  0
  2  3  2  0  0  0  0
  2  4  1  0  0  0  0
  4  5  1  0  0  0  0
  4 22  1  0  0  0  0
  4 23  1  0  0  0  0
  5 19  1  0  0  0  0
  5  6  1  0  0  0  0
  6  7  2  0  0  0  0
  6 24  1  0  0  0  0
  7  8  1  0  0  0  0
  7 18  1  0  0  0  0
  8  9  1  0  0  0  0
  8 25  1  0  0  0  0
  9 10  2  0  0  0  0
  9 11  1  0  0  0  0
 11 17  1  0  0  0  0
 11 12  1  0  0  0  0
 12 13  1  0  0  0  0
 12 26  1  0  0  0  0
 12 27  1  0  0  0  0
 13 14  1  0  0  0  0
 13 28  1  0  0  0  0
 13 29  1  0  0  0  0
 14 15  1  0  0  0  0
 14 30  1  0  0  0  0
 14 31  1  0  0  0  0
 15 16  1  0  0  0  0
 15 17  1  0  0  0  0
 15 32  1  0  0  0  0
 16 33  1  0  0  0  0
 17 34  1  0  0  0  0
 17 35  1  0  0  0  0
 18 19  2  0  0  0  0
 18 36  1  0  0  0  0
M  END
> <s_m_source_file>
AV-unprocessed.smi

> <i_m_source_file_index>
1172

> <i_lp_mmshare_version>
43012

> <i_f3d_flags>
0

> <s_epik_input>
W05IMl1DKD1PKVtDSDJdbjFbY0hdYyhbY0hdbjEpW05IXUMoPU8pTjJbQ0gyXVtDSDJdW0NIMl1bQ0BASF0oW09IXSlbQ0gyXTI=

> <s_epik_cmdline>
J2VwaWtfcHl0aG9uJywgJy1waCcsICc3LjAnLCAnLXRuJywgJzgnLCAnLW1hJywgJzIwMCcsICctbWV0YWxfYmluZGluZycsICctaW1hZScsICc8aW5maWxlLm1hZT4nLCAnLW9tYWUnLCAnPG91dGZpbGUubWFlPic=

> <r_lp_tautomer_probability>
1

> <r_epik_Ionization_Penalty>
4.44977e-05

> <r_epik_Ionization_Penalty_Charging>
0

> <r_epik_Ionization_Penalty_Neutral>
4.44977e-05

> <r_epik_State_Penalty>
-0

> <r_epik_Charging_Adjusted_Penalty>
0

> <i_epik_Tot_Q>
0

> <i_epik_Tot_abs_Q>
0

> <r_epik_Metal_State_Penalty>
-0

> <b_epik_Metal_Only>
0

> <s_lp_Force_Field>
OPLS_2005

> <r_lp_Energy>
32.958

> <b_lp_Chiralities_Consistent>
1

> <s_lp_Variant>
AV-unprocessed.smi:1172-2

> <Gold.Version>
5.8.1

> <Gold.Id.Protein>
6NUR|6NUR_protein|mol2

> <Gold.PLP.Fitness>
44.6361

> <Gold.PLP.PLP>
-32.8801

> <Gold.PLP.part.hbond>
-4.5498

> <Gold.PLP.part.metal>
0.0000

> <Gold.PLP.part.buried>
-3.8795

> <Gold.PLP.part.nonpolar>
-25.9115

> <Gold.PLP.part.repulsive>
1.9217

> <Gold.PLP.ligand.clash>
0.0000

> <Gold.PLP.ligand.torsion>
0.7936

> <Gold.PLP.Chemscore.Hbond>
3.4315

> <Gold.PLP.Chemscore.CHOScore>
1.0000

> <Gold.PLP.Chemscore.Metal>
0.0000

> <Gold.Chemscore.Hbonds>
donor molecule, donor type, donor heavy atom, donor atom, acceptor molecule, acceptor atom, score
      L1  H     1    21       P1  7957  0.99
      L1  H     8    25       P1  7948  0.91
      L1  H    16    33       P1 10186  0.86
      P1  H 10785 10796       L1    16  0.65
      L1  C     6    24       P1  7957  1.00

> <Gold.PLP.Chemscore.Internal.Correction>
0.0487

> <Gold.Rescore>
     Score         DG    S(hbond)    S(metal)    S(lipo)     H(rot)  DE(clash)    DE(int)     intcor
     16.14     -18.31       3.35        0.00      62.12       2.20       1.35       0.82       ----

> <Gold.Chemscore.Fitness>
16.1366

> <Gold.Chemscore.DG>
-18.3093

> <Gold.Chemscore.ZeroCoef>
-5.4800

> <Gold.Chemscore.Hbond>
3.3485

> <Gold.Chemscore.Metal>
0.0000

> <Gold.Chemscore.Lipo>
62.1225

> <Gold.Chemscore.Internal_Hbond>
0.0000

> <Gold.Chemscore.DEClash>
1.3499

> <Gold.Chemscore.DEInternal>
0.8228

> <Gold.Chemscore.Rot>
2.1966

> <Gold.Chemscore.Internal.Correction>
   9.000000E+99

> <Gold.Chemscore.Hbonds>
donor molecule, donor type, donor heavy atom, donor atom, acceptor molecule, acceptor atom, score
      L1  H     1    21       P1  7957  0.94
      L1  H     8    25       P1  7948  0.89
      L1  H    16    33       P1 10186  0.84
      P1  H 10785 10796       L1    16  0.64

> <Gold.Chemscore.Hbond.Weighted>
-11.1841

> <Gold.Chemscore.Metal.Weighted>
-0.0000

> <Gold.Chemscore.Lipo.Weighted>
-7.2683

> <Gold.Chemscore.Internal_Hbond.Weighted>
0.0000

> <Gold.Chemscore.DEClash.Weighted>
1.3499

> <Gold.Chemscore.DEInternal.Weighted>
0.8228

> <Gold.Chemscore.Rot.Weighted>
5.6232

> <Gold.Chemscore.Internal.Correction.Weighted>
   9.000000E+99

> <Gold.Protein.RotatedTorsions>
[ 6907 6896 6895 6894 ] final -109.82 input  -60.11 | X-H torsion
[ 7974 7965 7964 7962 ] final -159.89 input  175.53 | X-H torsion
[ 8008 7997 7996 7995 ] final  -37.99 input   59.86 | X-H torsion
[ 10167 10162 10161 10158 ] final   -6.69 input  -65.29 | X-H torsion
[ 10718 10713 10712 10709 ] final   20.16 input   66.30 | X-H torsion
[ 10763 10752 10751 10750 ] final  151.33 input  -60.55 | X-H torsion
[ 11005 11000 10999 10996 ] final   44.58 input  -57.11 | X-H torsion

> <Gold.Protein.ActiveResidues>
 VAL166  LYS551  ARG553  GLY616  TRP617  ASP618  TYR619  PRO620  LYS621  CYS622 
 ASP623  PHE694  ASN695  SER759  ASP760  ASP761  ALA762  ILE779  LEU786  VAL792 
 PHE793  MET794  SER795  GLU796  ALA797  LYS798  CYS799  TRP800  GLU811  SER814 

> <Gold.Protein.RotatedAtoms>
  150.7586  133.9472  159.3474 H   0  0  0  0  0  0  0  0  0  0  0  0  # atno 6907 bound_to 6896
  151.7386  135.0857  160.0321 H   0  0  0  0  0  0  0  0  0  0  0  0  # atno 6908 bound_to 6896
  152.3543  133.6180  159.6004 H   0  0  0  0  0  0  0  0  0  0  0  0  # atno 6909 bound_to 6896
  144.7448  140.3620  143.6094 H   0  0  0  0  0  0  0  0  0  0  0  0  # atno 7974 bound_to 7965
  154.4044  140.1589  156.2626 H   0  0  0  0  0  0  0  0  0  0  0  0  # atno 8008 bound_to 7997
  155.9023  140.3432  155.6013 H   0  0  0  0  0  0  0  0  0  0  0  0  # atno 8009 bound_to 7997
  155.7434  140.0795  157.2226 H   0  0  0  0  0  0  0  0  0  0  0  0  # atno 8010 bound_to 7997
  140.7005  143.6165  150.8654 H   0  0  0  0  0  0  0  0  0  0  0  0  # atno 10167 bound_to 10162
  157.1206  130.6548  149.5923 H   0  0  0  0  0  0  0  0  0  0  0  0  # atno 10718 bound_to 10713
  154.1021  135.2845  155.3249 H   0  0  0  0  0  0  0  0  0  0  0  0  # atno 10763 bound_to 10752
  154.6548  135.5356  153.7949 H   0  0  0  0  0  0  0  0  0  0  0  0  # atno 10764 bound_to 10752
  153.0375  135.6519  154.1184 H   0  0  0  0  0  0  0  0  0  0  0  0  # atno 10765 bound_to 10752
  140.1538  134.4428  155.8363 H   0  0  0  0  0  0  0  0  0  0  0  0  # atno 11005 bound_to 11000
  145.7167  139.1699  143.2508 LP  0  0  0  0  0  0  0  0  0  0  0  0  # atno 17320 bound_to 7965
  146.1307  140.7189  142.9413 LP  0  0  0  0  0  0  0  0  0  0  0  0  # atno 17321 bound_to 7965
  139.9886  143.5871  152.2918 LP  0  0  0  0  0  0  0  0  0  0  0  0  # atno 17342 bound_to 10162
  139.6518  144.7661  151.2132 LP  0  0  0  0  0  0  0  0  0  0  0  0  # atno 17343 bound_to 10162
  155.9829  130.4846  150.6907 LP  0  0  0  0  0  0  0  0  0  0  0  0  # atno 17370 bound_to 10713
  157.4480  131.0869  151.0876 LP  0  0  0  0  0  0  0  0  0  0  0  0  # atno 17371 bound_to 10713
  141.2202  133.6884  156.7470 LP  0  0  0  0  0  0  0  0  0  0  0  0  # atno 17394 bound_to 11000
  140.2572  134.8495  157.3724 LP  0  0  0  0  0  0  0  0  0  0  0  0  # atno 17395 bound_to 11000

$$$$
