AV-unprocessed.smi:623|AV-procd|sdf|3091|dock1
  -GOLD-   22720 0 13D 1   1.00000     0.00000
 Structure written by MMmdl.
 45 47  0  0  0  0  0  0  0  0  1 V2000
  147.6696  133.5777  162.3497 C   0  0  0  0  0  0  0  0  0  0  0  0
  146.5163  134.4978  161.8601 C   0  0  0  0  0  0  0  0  0  0  0  0
  145.2354  133.9618  162.5596 C   0  0  0  0  0  0  0  0  0  0  0  0
  146.7697  136.0030  162.0783 C   0  0  2  0  0  0  0  0  0  0  0  0
  145.5596  136.6798  161.3968 C   0  0  0  0  0  0  0  0  0  0  0  0
  145.2890  135.7514  160.1962 C   0  0  0  0  0  0  0  0  0  0  0  0
  146.4180  134.6909  160.3219 C   0  0  2  0  0  0  0  0  0  0  0  0
  146.1402  133.4162  159.5060 C   0  0  0  0  0  0  0  0  0  0  0  0
  147.7776  135.3773  159.9736 C   0  0  1  0  0  0  0  0  0  0  0  0
  147.7668  136.1488  158.7304 N   0  0  0  0  0  0  0  0  0  0  0  0
  148.8348  136.3897  157.9554 C   0  0  0  0  0  0  0  0  0  0  0  0
  149.9646  135.9719  158.2138 O   0  0  0  0  0  0  0  0  0  0  0  0
  148.5730  137.2058  156.6821 C   0  0  0  0  0  0  0  0  0  0  0  0
  149.7874  137.8431  156.1533 N   0  0  0  0  0  0  0  0  0  0  0  0
  150.1972  137.5948  154.8509 C   0  0  0  0  0  0  0  0  0  0  0  0
  151.3154  138.1303  154.3063 C   0  0  0  0  0  0  0  0  0  0  0  0
  152.1652  139.0204  155.0902 C   0  0  0  0  0  0  0  0  0  0  0  0
  153.1957  139.5548  154.6864 O   0  0  0  0  0  0  0  0  0  0  0  0
  151.7203  139.2443  156.3959 N   0  0  0  0  0  0  0  0  0  0  0  0
  150.5705  138.6937  156.9639 C   0  0  0  0  0  0  0  0  0  0  0  0
  150.2720  138.9524  158.1294 O   0  0  0  0  0  0  0  0  0  0  0  0
  148.0030  136.2963  161.1959 C   0  0  0  0  0  0  0  0  0  0  0  0
  152.2785  139.8523  156.9772 H   0  0  0  0  0  0  0  0  0  0  0  0
  147.7544  133.6163  163.4361 H   0  0  0  0  0  0  0  0  0  0  0  0
  148.6548  133.8195  161.9582 H   0  0  0  0  0  0  0  0  0  0  0  0
  147.4759  132.5388  162.0813 H   0  0  0  0  0  0  0  0  0  0  0  0
  144.3226  134.5107  162.3392 H   0  0  0  0  0  0  0  0  0  0  0  0
  145.3526  133.9878  163.6434 H   0  0  0  0  0  0  0  0  0  0  0  0
  145.0485  132.9236  162.2841 H   0  0  0  0  0  0  0  0  0  0  0  0
  146.9031  136.3019  163.1184 H   0  0  0  0  0  0  0  0  0  0  0  0
  144.6976  136.7282  162.0625 H   0  0  0  0  0  0  0  0  0  0  0  0
  145.7796  137.7011  161.0840 H   0  0  0  0  0  0  0  0  0  0  0  0
  144.3025  135.2942  160.2746 H   0  0  0  0  0  0  0  0  0  0  0  0
  145.2905  136.2893  159.2487 H   0  0  0  0  0  0  0  0  0  0  0  0
  146.0471  133.6427  158.4439 H   0  0  0  0  0  0  0  0  0  0  0  0
  145.2122  132.9374  159.8181 H   0  0  0  0  0  0  0  0  0  0  0  0
  146.9444  132.6893  159.6186 H   0  0  0  0  0  0  0  0  0  0  0  0
  148.5807  134.6404  159.9252 H   0  0  0  0  0  0  0  0  0  0  0  0
  146.8765  136.5240  158.4374 H   0  0  0  0  0  0  0  0  0  0  0  0
  148.1429  136.5377  155.9345 H   0  0  0  0  0  0  0  0  0  0  0  0
  147.8033  137.9562  156.8742 H   0  0  0  0  0  0  0  0  0  0  0  0
  149.6005  136.9360  154.2358 H   0  0  0  0  0  0  0  0  0  0  0  0
  151.5836  137.8973  153.2860 H   0  0  0  0  0  0  0  0  0  0  0  0
  148.0717  137.3527  160.9309 H   0  0  0  0  0  0  0  0  0  0  0  0
  148.9305  136.0444  161.7103 H   0  0  0  0  0  0  0  0  0  0  0  0
  1  2  1  0  0  0  0
  1 24  1  0  0  0  0
  1 25  1  0  0  0  0
  1 26  1  0  0  0  0
  2  7  1  0  0  0  0
  2  3  1  0  0  0  0
  2  4  1  0  0  0  0
  3 27  1  0  0  0  0
  3 28  1  0  0  0  0
  3 29  1  0  0  0  0
  4 22  1  0  0  0  0
  4  5  1  0  0  0  0
  4 30  1  0  0  0  0
  5  6  1  0  0  0  0
  5 31  1  0  0  0  0
  5 32  1  0  0  0  0
  6  7  1  0  0  0  0
  6 33  1  0  0  0  0
  6 34  1  0  0  0  0
  7  8  1  0  0  0  0
  7  9  1  0  0  0  0
  8 35  1  0  0  0  0
  8 36  1  0  0  0  0
  8 37  1  0  0  0  0
  9 10  1  0  0  0  0
  9 22  1  0  0  0  0
  9 38  1  0  0  0  0
 10 11  1  0  0  0  0
 10 39  1  0  0  0  0
 11 12  2  0  0  0  0
 11 13  1  0  0  0  0
 13 14  1  0  0  0  0
 13 40  1  0  0  0  0
 13 41  1  0  0  0  0
 14 20  1  0  0  0  0
 14 15  1  0  0  0  0
 15 16  2  0  0  0  0
 15 42  1  0  0  0  0
 16 17  1  0  0  0  0
 16 43  1  0  0  0  0
 17 18  2  0  0  0  0
 17 19  1  0  0  0  0
 19 23  1  0  0  0  0
 19 20  1  0  0  0  0
 20 21  2  0  0  0  0
 22 44  1  0  0  0  0
 22 45  1  0  0  0  0
M  END
> <s_m_source_file>
AV-unprocessed.smi

> <i_m_source_file_index>
623

> <i_lp_mmshare_version>
43012

> <i_f3d_flags>
0

> <s_epik_input>
W0NIM11bQ0BdMTJDKFtDSDNdKShbQ0gzXSlbQ0BIXShbQ0gyXVtDSDJdMSlbQ0gyXVtDQEBIXTJbTkhdQyg9TylbQ0gyXW4zW2NIXVtjSF1jKD1PKVtuSF1jMz1P

> <s_epik_cmdline>
J2VwaWtfcHl0aG9uJywgJy1waCcsICc3LjAnLCAnLXRuJywgJzgnLCAnLW1hJywgJzIwMCcsICctbWV0YWxfYmluZGluZycsICctaW1hZScsICc8aW5maWxlLm1hZT4nLCAnLW9tYWUnLCAnPG91dGZpbGUubWFlPic=

> <r_lp_tautomer_probability>
0.999537

> <r_epik_Ionization_Penalty>
0.00303563

> <r_epik_Ionization_Penalty_Charging>
0.00303561

> <r_epik_Ionization_Penalty_Neutral>
2.03238e-08

> <r_epik_State_Penalty>
0.00213308

> <r_epik_Charging_Adjusted_Penalty>
0.00516869

> <i_epik_Tot_Q>
0

> <i_epik_Tot_abs_Q>
0

> <r_epik_Metal_State_Penalty>
0.361714

> <b_epik_Metal_Only>
0

> <s_lp_Force_Field>
OPLS_2005

> <r_lp_Energy>
55.109

> <b_lp_Chiralities_Consistent>
1

> <s_lp_Variant>
AV-unprocessed.smi:623-1

> <Gold.Version>
5.8.1

> <Gold.Id.Protein>
6NUR|6NUR_protein|mol2

> <Gold.PLP.Fitness>
38.8933

> <Gold.PLP.PLP>
-31.2658

> <Gold.PLP.part.hbond>
-3.0000

> <Gold.PLP.part.metal>
0.0000

> <Gold.PLP.part.buried>
-5.0512

> <Gold.PLP.part.nonpolar>
-23.6772

> <Gold.PLP.part.repulsive>
0.1956

> <Gold.PLP.ligand.clash>
0.0000

> <Gold.PLP.ligand.torsion>
0.6922

> <Gold.PLP.Chemscore.Hbond>
2.0140

> <Gold.PLP.Chemscore.CHOScore>
0.9820

> <Gold.PLP.Chemscore.Metal>
0.0000

> <Gold.Chemscore.Hbonds>
donor molecule, donor type, donor heavy atom, donor atom, acceptor molecule, acceptor atom, score
      P1  H  6896  6907       L1    12  1.00
      P1  H  7989  7998       L1    18  0.01
      P1  H  7997  8009       L1    18  1.00
      L1  C    15    42       P1  7948  0.99

> <Gold.PLP.Chemscore.Internal.Correction>
0.0239

> <Gold.Rescore>
     Score         DG    S(hbond)    S(metal)    S(lipo)     H(rot)  DE(clash)    DE(int)     intcor
     15.95     -16.63       1.98        0.00      75.30       1.66       0.00       0.68       ----

> <Gold.Chemscore.Fitness>
15.9458

> <Gold.Chemscore.DG>
-16.6250

> <Gold.Chemscore.ZeroCoef>
-5.4800

> <Gold.Chemscore.Hbond>
1.9752

> <Gold.Chemscore.Metal>
0.0000

> <Gold.Chemscore.Lipo>
75.2952

> <Gold.Chemscore.Internal_Hbond>
0.0000

> <Gold.Chemscore.DEClash>
0.0000

> <Gold.Chemscore.DEInternal>
0.6792

> <Gold.Chemscore.Rot>
1.6647

> <Gold.Chemscore.Internal.Correction>
   9.000000E+99

> <Gold.Chemscore.Hbonds>
donor molecule, donor type, donor heavy atom, donor atom, acceptor molecule, acceptor atom, score
      P1  H  6896  6907       L1    12  0.88
      P1  H  7997  8009       L1    18  1.00

> <Gold.Chemscore.Hbond.Weighted>
-6.5972

> <Gold.Chemscore.Metal.Weighted>
-0.0000

> <Gold.Chemscore.Lipo.Weighted>
-8.8095

> <Gold.Chemscore.Internal_Hbond.Weighted>
0.0000

> <Gold.Chemscore.DEClash.Weighted>
0.0000

> <Gold.Chemscore.DEInternal.Weighted>
0.6792

> <Gold.Chemscore.Rot.Weighted>
4.2617

> <Gold.Chemscore.Internal.Correction.Weighted>
   9.000000E+99

> <Gold.Protein.RotatedTorsions>
[ 6907 6896 6895 6894 ] final  -61.99 input  -60.11 | X-H torsion
[ 7974 7965 7964 7962 ] final  -85.89 input  175.53 | X-H torsion
[ 8008 7997 7996 7995 ] final -118.71 input   59.86 | X-H torsion
[ 10167 10162 10161 10158 ] final    1.91 input  -65.29 | X-H torsion
[ 10718 10713 10712 10709 ] final    6.55 input   66.30 | X-H torsion
[ 10763 10752 10751 10750 ] final   66.09 input  -60.55 | X-H torsion
[ 11005 11000 10999 10996 ] final   73.79 input  -57.11 | X-H torsion

> <Gold.Protein.ActiveResidues>
 VAL166  LYS551  ARG553  GLY616  TRP617  ASP618  TYR619  PRO620  LYS621  CYS622 
 ASP623  PHE694  ASN695  SER759  ASP760  ASP761  ALA762  ILE779  LEU786  VAL792 
 PHE793  MET794  SER795  GLU796  ALA797  LYS798  CYS799  TRP800  GLU811  SER814 

> <Gold.Protein.RotatedAtoms>
  150.7746  134.6631  159.6349 H   0  0  0  0  0  0  0  0  0  0  0  0  # atno 6907 bound_to 6896
  152.3811  134.6585  160.0151 H   0  0  0  0  0  0  0  0  0  0  0  0  # atno 6908 bound_to 6896
  151.6914  133.3274  159.3280 H   0  0  0  0  0  0  0  0  0  0  0  0  # atno 6909 bound_to 6896
  145.4873  140.9554  143.1831 H   0  0  0  0  0  0  0  0  0  0  0  0  # atno 7974 bound_to 7965
  155.1041  140.0396  157.2705 H   0  0  0  0  0  0  0  0  0  0  0  0  # atno 8008 bound_to 7997
  154.6735  140.2617  155.6956 H   0  0  0  0  0  0  0  0  0  0  0  0  # atno 8009 bound_to 7997
  156.2667  140.2793  156.1253 H   0  0  0  0  0  0  0  0  0  0  0  0  # atno 8010 bound_to 7997
  140.6660  143.7177  150.7828 H   0  0  0  0  0  0  0  0  0  0  0  0  # atno 10167 bound_to 10162
  156.9238  130.5801  149.5648 H   0  0  0  0  0  0  0  0  0  0  0  0  # atno 10718 bound_to 10713
  153.0125  135.5333  154.6770 H   0  0  0  0  0  0  0  0  0  0  0  0  # atno 10763 bound_to 10752
  154.5940  135.2861  155.0608 H   0  0  0  0  0  0  0  0  0  0  0  0  # atno 10764 bound_to 10752
  154.1690  135.6535  153.5057 H   0  0  0  0  0  0  0  0  0  0  0  0  # atno 10765 bound_to 10752
  139.9422  134.7377  156.1069 H   0  0  0  0  0  0  0  0  0  0  0  0  # atno 11005 bound_to 11000
  144.7854  139.6437  143.7136 LP  0  0  0  0  0  0  0  0  0  0  0  0  # atno 17320 bound_to 7965
  146.2305  139.5805  142.9558 LP  0  0  0  0  0  0  0  0  0  0  0  0  # atno 17321 bound_to 7965
  140.0855  143.4928  152.2507 LP  0  0  0  0  0  0  0  0  0  0  0  0  # atno 17342 bound_to 10162
  139.5909  144.7550  151.3402 LP  0  0  0  0  0  0  0  0  0  0  0  0  # atno 17343 bound_to 10162
  156.0478  130.5552  150.8922 LP  0  0  0  0  0  0  0  0  0  0  0  0  # atno 17370 bound_to 10713
  157.5891  131.0945  150.9149 LP  0  0  0  0  0  0  0  0  0  0  0  0  # atno 17371 bound_to 10713
  141.1061  133.6659  156.2867 LP  0  0  0  0  0  0  0  0  0  0  0  0  # atno 17394 bound_to 11000
  140.5922  134.5639  157.5502 LP  0  0  0  0  0  0  0  0  0  0  0  0  # atno 17395 bound_to 11000

$$$$
