AV-unprocessed.smi:1326|AV-procd|sdf|5476|dock6
  -GOLD-   22720 5 43D 1   1.00000     0.00000
 Structure written by MMmdl.
 38 38  0  0  0  0  0  0  0  0  2 V2000
  148.6802  140.7131  153.7908 C   0  0  0  0  0  0  0  0  0  0  0  0
  149.5956  140.1476  154.8556 C   0  0  0  0  0  0  0  0  0  0  0  0
  149.0947  139.7387  155.9587 N   0  0  0  0  0  0  0  0  0  0  0  0
  149.9406  139.2112  156.9493 C   0  0  0  0  0  0  0  0  0  0  0  0
  149.2605  138.7460  158.2251 C   0  0  0  0  0  0  0  0  0  0  0  0
  151.2878  139.1277  156.7550 C   0  0  0  0  0  0  0  0  0  0  0  0
  152.2508  138.5594  157.7977 C   0  0  0  0  0  0  0  0  0  0  0  0
  153.0868  139.5859  158.5650 C   0  0  0  0  0  0  0  0  0  0  0  0
  154.2719  139.3573  158.8075 O   0  0  0  0  0  0  0  0  0  0  0  0
  152.4653  140.7205  158.9222 N   0  0  0  0  0  0  0  0  0  0  0  0
  153.0891  141.8413  159.6143 C   0  0  0  0  0  0  0  0  0  0  0  0
  152.0538  142.9304  159.9495 C   0  0  0  0  0  0  0  0  0  0  0  0
  152.4133  144.3313  159.4140 C   0  0  0  0  0  0  0  0  0  0  0  0
  151.4951  145.4304  159.9748 C   0  0  0  0  0  0  0  0  0  0  0  0
  152.3868  144.3463  157.8780 C   0  0  0  0  0  0  0  0  0  0  0  0
  151.8259  139.6180  155.4732 C   0  0  0  0  0  0  0  0  0  0  0  0
  153.0365  139.5850  155.2554 O   0  0  0  0  0  0  0  0  0  0  0  0
  150.9402  140.1119  154.5621 N   0  5  0  0  0  0  0  0  0  0  0  0
  147.6320  140.5534  154.0476 H   0  0  0  0  0  0  0  0  0  0  0  0
  148.8716  140.2335  152.8303 H   0  0  0  0  0  0  0  0  0  0  0  0
  148.8472  141.7850  153.6818 H   0  0  0  0  0  0  0  0  0  0  0  0
  149.6924  139.2421  159.0945 H   0  0  0  0  0  0  0  0  0  0  0  0
  149.3750  137.6688  158.3470 H   0  0  0  0  0  0  0  0  0  0  0  0
  148.1933  138.9697  158.2087 H   0  0  0  0  0  0  0  0  0  0  0  0
  151.6778  137.9767  158.5191 H   0  0  0  0  0  0  0  0  0  0  0  0
  152.9280  137.8365  157.3417 H   0  0  0  0  0  0  0  0  0  0  0  0
  151.4893  140.8192  158.6799 H   0  0  0  0  0  0  0  0  0  0  0  0
  153.5422  141.4505  160.5248 H   0  0  0  0  0  0  0  0  0  0  0  0
  153.9015  142.2533  159.0134 H   0  0  0  0  0  0  0  0  0  0  0  0
  151.0926  142.6322  159.5277 H   0  0  0  0  0  0  0  0  0  0  0  0
  151.9061  142.9766  161.0296 H   0  0  0  0  0  0  0  0  0  0  0  0
  153.4348  144.5588  159.7215 H   0  0  0  0  0  0  0  0  0  0  0  0
  150.4490  145.2300  159.7415 H   0  0  0  0  0  0  0  0  0  0  0  0
  151.7471  146.4037  159.5529 H   0  0  0  0  0  0  0  0  0  0  0  0
  151.5858  145.5181  161.0570 H   0  0  0  0  0  0  0  0  0  0  0  0
  151.3909  144.1174  157.4967 H   0  0  0  0  0  0  0  0  0  0  0  0
  153.0784  143.6118  157.4644 H   0  0  0  0  0  0  0  0  0  0  0  0
  152.6759  145.3225  157.4883 H   0  0  0  0  0  0  0  0  0  0  0  0
  1  2  1  0  0  0  0
  1 19  1  0  0  0  0
  1 20  1  0  0  0  0
  1 21  1  0  0  0  0
  2 18  1  0  0  0  0
  2  3  2  0  0  0  0
  3  4  1  0  0  0  0
  4  5  1  0  0  0  0
  4  6  2  0  0  0  0
  5 22  1  0  0  0  0
  5 23  1  0  0  0  0
  5 24  1  0  0  0  0
  6  7  1  0  0  0  0
  6 16  1  0  0  0  0
  7  8  1  0  0  0  0
  7 25  1  0  0  0  0
  7 26  1  0  0  0  0
  8  9  2  0  0  0  0
  8 10  1  0  0  0  0
 10 11  1  0  0  0  0
 10 27  1  0  0  0  0
 11 12  1  0  0  0  0
 11 28  1  0  0  0  0
 11 29  1  0  0  0  0
 12 13  1  0  0  0  0
 12 30  1  0  0  0  0
 12 31  1  0  0  0  0
 13 14  1  0  0  0  0
 13 15  1  0  0  0  0
 13 32  1  0  0  0  0
 14 33  1  0  0  0  0
 14 34  1  0  0  0  0
 14 35  1  0  0  0  0
 15 36  1  0  0  0  0
 15 37  1  0  0  0  0
 15 38  1  0  0  0  0
 16 17  2  0  0  0  0
 16 18  1  0  0  0  0
M  CHG  1  18  -1
M  END
> <s_m_source_file>
AV-unprocessed.smi

> <i_m_source_file_index>
1326

> <i_lp_mmshare_version>
43012

> <i_f3d_flags>
0

> <s_epik_input>
W0NIM11jMW5jKFtDSDNdKWMoYyg9TylbbkhdMSlbQ0gyXUMoPU8pW05IXVtDSDJdW0NIMl1bQ0hdKFtDSDNdKVtDSDNd

> <s_epik_cmdline>
J2VwaWtfcHl0aG9uJywgJy1waCcsICc3LjAnLCAnLXRuJywgJzgnLCAnLW1hJywgJzIwMCcsICctbWV0YWxfYmluZGluZycsICctaW1hZScsICc8aW5maWxlLm1hZT4nLCAnLW9tYWUnLCAnPG91dGZpbGUubWFlPic=

> <r_lp_tautomer_probability>
0.839158

> <r_epik_Ionization_Penalty>
6.68288

> <r_epik_Ionization_Penalty_Charging>
7.3825e-08

> <r_epik_Ionization_Penalty_Neutral>
6.68288

> <r_epik_State_Penalty>
4.52336

> <r_epik_Charging_Adjusted_Penalty>
4.52336

> <i_epik_Tot_Q>
-1

> <i_epik_Tot_abs_Q>
1

> <r_epik_Metal_State_Penalty>
0.854958

> <b_epik_Metal_Only>
1

> <s_lp_Force_Field>
OPLS_2005

> <r_lp_Energy>
8.11969

> <b_lp_Chiralities_Consistent>
1

> <s_lp_Variant>
AV-unprocessed.smi:1326-3

> <Gold.Version>
5.8.1

> <Gold.Id.Protein>
6NUR|6NUR_protein|mol2

> <Gold.PLP.Fitness>
44.3893

> <Gold.PLP.PLP>
-37.1412

> <Gold.PLP.part.hbond>
-3.0839

> <Gold.PLP.part.metal>
0.0000

> <Gold.PLP.part.buried>
-2.7228

> <Gold.PLP.part.nonpolar>
-31.2547

> <Gold.PLP.part.repulsive>
0.1939

> <Gold.PLP.ligand.clash>
0.0000

> <Gold.PLP.ligand.torsion>
0.8894

> <Gold.PLP.Chemscore.Hbond>
3.0000

> <Gold.PLP.Chemscore.CHOScore>
0.0000

> <Gold.PLP.Chemscore.Metal>
0.0000

> <Gold.Chemscore.Hbonds>
donor molecule, donor type, donor heavy atom, donor atom, acceptor molecule, acceptor atom, score
      P1  H  7989  7998       L1    18  0.86
      P1  H  7997  8009       L1     9  1.00
      P1  H  7997  8010       L1    17  1.00

> <Gold.PLP.Chemscore.Internal.Correction>
0.0270

> <Gold.Rescore>
     Score         DG    S(hbond)    S(metal)    S(lipo)     H(rot)  DE(clash)    DE(int)     intcor
     18.26     -19.17       2.61        0.00      82.44       1.83       0.14       0.77       ----

> <Gold.Chemscore.Fitness>
18.2560

> <Gold.Chemscore.DG>
-19.1656

> <Gold.Chemscore.ZeroCoef>
-5.4800

> <Gold.Chemscore.Hbond>
2.6123

> <Gold.Chemscore.Metal>
0.0000

> <Gold.Chemscore.Lipo>
82.4433

> <Gold.Chemscore.Internal_Hbond>
0.0000

> <Gold.Chemscore.DEClash>
0.1401

> <Gold.Chemscore.DEInternal>
0.7695

> <Gold.Chemscore.Rot>
1.8302

> <Gold.Chemscore.Internal.Correction>
   9.000000E+99

> <Gold.Chemscore.Hbonds>
donor molecule, donor type, donor heavy atom, donor atom, acceptor molecule, acceptor atom, score
      P1  H  7989  7998       L1    18  0.66
      P1  H  7997  8009       L1     9  0.39
      P1  H  7997  8010       L1    17  0.98

> <Gold.Chemscore.Hbond.Weighted>
-8.7251

> <Gold.Chemscore.Metal.Weighted>
-0.0000

> <Gold.Chemscore.Lipo.Weighted>
-9.6459

> <Gold.Chemscore.Internal_Hbond.Weighted>
0.0000

> <Gold.Chemscore.DEClash.Weighted>
0.1401

> <Gold.Chemscore.DEInternal.Weighted>
0.7695

> <Gold.Chemscore.Rot.Weighted>
4.6854

> <Gold.Chemscore.Internal.Correction.Weighted>
   9.000000E+99

> <Gold.Protein.RotatedTorsions>
[ 6907 6896 6895 6894 ] final  -97.04 input  -60.11 | X-H torsion
[ 7974 7965 7964 7962 ] final -144.99 input  175.53 | X-H torsion
[ 8008 7997 7996 7995 ] final  117.23 input   59.86 | X-H torsion
[ 10167 10162 10161 10158 ] final -103.56 input  -65.29 | X-H torsion
[ 10718 10713 10712 10709 ] final   38.83 input   66.30 | X-H torsion
[ 10763 10752 10751 10750 ] final -136.86 input  -60.55 | X-H torsion
[ 11005 11000 10999 10996 ] final -132.73 input  -57.11 | X-H torsion

> <Gold.Protein.ActiveResidues>
 VAL166  LYS551  ARG553  GLY616  TRP617  ASP618  TYR619  PRO620  LYS621  CYS622 
 ASP623  PHE694  ASN695  SER759  ASP760  ASP761  ALA762  ILE779  LEU786  VAL792 
 PHE793  MET794  SER795  GLU796  ALA797  LYS798  CYS799  TRP800  GLU811  SER814 

> <Gold.Protein.RotatedAtoms>
  150.7005  134.1410  159.4104 H   0  0  0  0  0  0  0  0  0  0  0  0  # atno 6907 bound_to 6896
  151.9394  135.0218  160.0544 H   0  0  0  0  0  0  0  0  0  0  0  0  # atno 6908 bound_to 6896
  152.2106  133.4873  159.5145 H   0  0  0  0  0  0  0  0  0  0  0  0  # atno 6909 bound_to 6896
  144.8259  140.5641  143.5547 H   0  0  0  0  0  0  0  0  0  0  0  0  # atno 7974 bound_to 7965
  156.2483  140.2901  156.0646 H   0  0  0  0  0  0  0  0  0  0  0  0  # atno 8008 bound_to 7997
  155.1738  140.0402  157.2885 H   0  0  0  0  0  0  0  0  0  0  0  0  # atno 8009 bound_to 7997
  154.6307  140.2498  155.7444 H   0  0  0  0  0  0  0  0  0  0  0  0  # atno 8010 bound_to 7997
  140.2187  143.3692  152.0988 H   0  0  0  0  0  0  0  0  0  0  0  0  # atno 10167 bound_to 10162
  157.3634  130.7662  149.7065 H   0  0  0  0  0  0  0  0  0  0  0  0  # atno 10718 bound_to 10713
  154.8674  135.3659  154.5130 H   0  0  0  0  0  0  0  0  0  0  0  0  # atno 10763 bound_to 10752
  153.5764  135.7019  153.5487 H   0  0  0  0  0  0  0  0  0  0  0  0  # atno 10764 bound_to 10752
  153.3496  135.4075  155.1598 H   0  0  0  0  0  0  0  0  0  0  0  0  # atno 10765 bound_to 10752
  140.9144  134.1526  157.4364 H   0  0  0  0  0  0  0  0  0  0  0  0  # atno 11005 bound_to 11000
  145.5002  139.1484  143.3661 LP  0  0  0  0  0  0  0  0  0  0  0  0  # atno 17320 bound_to 7965
  146.2564  140.5141  142.8872 LP  0  0  0  0  0  0  0  0  0  0  0  0  # atno 17321 bound_to 7965
  139.5152  144.6959  151.5630 LP  0  0  0  0  0  0  0  0  0  0  0  0  # atno 17342 bound_to 10162
  140.6271  143.9148  150.6573 LP  0  0  0  0  0  0  0  0  0  0  0  0  # atno 17343 bound_to 10162
  155.9741  130.4107  150.3945 LP  0  0  0  0  0  0  0  0  0  0  0  0  # atno 17370 bound_to 10713
  157.2025  131.0441  151.2642 LP  0  0  0  0  0  0  0  0  0  0  0  0  # atno 17371 bound_to 10713
  139.8763  134.9948  156.5711 LP  0  0  0  0  0  0  0  0  0  0  0  0  # atno 17394 bound_to 11000
  140.8069  133.8460  155.8775 LP  0  0  0  0  0  0  0  0  0  0  0  0  # atno 17395 bound_to 11000

$$$$
