AV-unprocessed.smi:2655|AV-procd|sdf|10300|dock3
  -GOLD-   2272014313D 1   1.00000     0.00000
 Structure written by MMmdl.
 34 35  0  0  0  0  0  0  0  0  1 V2000
  151.6691  140.5019  158.0695 C   0  0  0  0  0  0  0  0  0  0  0  0
  150.8060  140.8756  156.8985 C   0  0  0  0  0  0  0  0  0  0  0  0
  149.8751  141.8107  157.0607 N   0  0  0  0  0  0  0  0  0  0  0  0
  149.2954  141.9192  155.8505 N   0  0  0  0  0  0  0  0  0  0  0  0
  149.8587  141.0622  154.9411 C   0  0  0  0  0  0  0  0  0  0  0  0
  149.4203  141.0212  153.6545 O   0  0  0  0  0  0  0  0  0  0  0  0
  150.8446  140.3557  155.5665 C   0  0  0  0  0  0  0  0  0  0  0  0
  151.7529  139.2997  154.9971 C   0  0  0  0  0  0  0  0  0  0  0  0
  151.5815  137.9586  155.7288 C   0  0  0  0  0  0  0  0  0  0  0  0
  150.8344  136.9975  154.9258 N   0  0  0  0  0  0  0  0  0  0  0  0
  150.5013  135.7606  155.3229 C   0  0  0  0  0  0  0  0  0  0  0  0
  150.8007  135.2978  156.4240 O   0  0  0  0  0  0  0  0  0  0  0  0
  149.8118  135.1094  154.3702 N   0  0  0  0  0  0  0  0  0  0  0  0
  149.3010  133.7873  154.4247 C   0  0  0  0  0  0  0  0  0  0  0  0
  148.9023  133.1096  153.2417 C   0  0  0  0  0  0  0  0  0  0  0  0
  148.4850  131.8949  153.7086 C   0  0  0  0  0  0  0  0  0  0  0  0
  147.9404  130.6814  153.0364 C   0  0  0  0  0  0  0  0  0  0  0  0
  148.6150  131.8372  155.0618 O   0  0  0  0  0  0  0  0  0  0  0  0
  149.1390  133.0536  155.5151 N   0  0  0  0  0  0  0  0  0  0  0  0
  152.1931  139.5624  157.8955 H   0  0  0  0  0  0  0  0  0  0  0  0
  151.0757  140.3835  158.9766 H   0  0  0  0  0  0  0  0  0  0  0  0
  152.4201  141.2689  158.2599 H   0  0  0  0  0  0  0  0  0  0  0  0
  148.5407  142.5657  155.6697 H   0  0  0  0  0  0  0  0  0  0  0  0
  152.7933  139.6204  155.0624 H   0  0  0  0  0  0  0  0  0  0  0  0
  151.5575  139.1596  153.9335 H   0  0  0  0  0  0  0  0  0  0  0  0
  152.5544  137.5437  155.9985 H   0  0  0  0  0  0  0  0  0  0  0  0
  151.0399  138.1109  156.6628 H   0  0  0  0  0  0  0  0  0  0  0  0
  150.5500  137.2975  154.0047 H   0  0  0  0  0  0  0  0  0  0  0  0
  149.6374  135.6114  153.5122 H   0  0  0  0  0  0  0  0  0  0  0  0
  148.9202  133.4535  152.2183 H   0  0  0  0  0  0  0  0  0  0  0  0
  148.0188  130.7671  151.9525 H   0  0  0  0  0  0  0  0  0  0  0  0
  146.8899  130.5391  153.2902 H   0  0  0  0  0  0  0  0  0  0  0  0
  148.4874  129.7902  153.3448 H   0  0  0  0  0  0  0  0  0  0  0  0
  149.7954  140.2562  153.2454 H   0  0  0  0  0  0  0  0  0  0  0  0
  1 20  1  0  0  0  0
  1 21  1  0  0  0  0
  1 22  1  0  0  0  0
  1  2  1  0  0  0  0
  2  7  1  0  0  0  0
  2  3  2  0  0  0  0
  3  4  1  0  0  0  0
  4 23  1  0  0  0  0
  4  5  1  0  0  0  0
  5  7  2  0  0  0  0
  5  6  1  0  0  0  0
  6 34  1  0  0  0  0
  7  8  1  0  0  0  0
  8  9  1  0  0  0  0
  8 24  1  0  0  0  0
  8 25  1  0  0  0  0
  9 10  1  0  0  0  0
  9 26  1  0  0  0  0
  9 27  1  0  0  0  0
 10 11  1  0  0  0  0
 10 28  1  0  0  0  0
 11 12  2  0  0  0  0
 11 13  1  0  0  0  0
 13 14  1  0  0  0  0
 13 29  1  0  0  0  0
 14 19  2  0  0  0  0
 14 15  1  0  0  0  0
 15 16  2  0  0  0  0
 15 30  1  0  0  0  0
 16 17  1  0  0  0  0
 16 18  1  0  0  0  0
 17 31  1  0  0  0  0
 17 32  1  0  0  0  0
 17 33  1  0  0  0  0
 18 19  1  0  0  0  0
M  END
> <s_m_source_file>
AV-unprocessed.smi

> <i_m_source_file_index>
2655

> <i_lp_mmshare_version>
43012

> <i_f3d_flags>
0

> <s_epik_input>
W0NIM11DMT1OW05IXUMoPU8pW0NASF0xW0NIMl1bQ0gyXVtOSF1DKD1PKVtOSF1jMltjSF1jKFtDSDNdKW9uMg==

> <s_epik_cmdline>
J2VwaWtfcHl0aG9uJywgJy1waCcsICc3LjAnLCAnLXRuJywgJzgnLCAnLW1hJywgJzIwMCcsICctbWV0YWxfYmluZGluZycsICctaW1hZScsICc8aW5maWxlLm1hZT4nLCAnLW9tYWUnLCAnPG91dGZpbGUubWFlPic=

> <r_lp_tautomer_probability>
0.0227396

> <r_epik_Ionization_Penalty>
3.51829

> <r_epik_Ionization_Penalty_Charging>
0

> <r_epik_Ionization_Penalty_Neutral>
3.51829

> <r_epik_State_Penalty>
1.61027

> <r_epik_Charging_Adjusted_Penalty>
1.61027

> <i_epik_Tot_Q>
0

> <i_epik_Tot_abs_Q>
0

> <r_epik_Metal_State_Penalty>
3.01397

> <b_epik_Metal_Only>
0

> <s_lp_Force_Field>
OPLS_2005

> <r_lp_Energy>
-1.25166

> <b_lp_Chiralities_Consistent>
1

> <s_lp_Variant>
AV-unprocessed.smi:2655-3

> <Gold.Version>
5.8.1

> <Gold.Id.Protein>
6NUR|6NUR_protein|mol2

> <Gold.PLP.Fitness>
38.7135

> <Gold.PLP.PLP>
-31.0862

> <Gold.PLP.part.hbond>
-5.0000

> <Gold.PLP.part.metal>
0.0000

> <Gold.PLP.part.buried>
-1.1353

> <Gold.PLP.part.nonpolar>
-23.5563

> <Gold.PLP.part.repulsive>
0.3350

> <Gold.PLP.ligand.clash>
0.0000

> <Gold.PLP.ligand.torsion>
0.3836

> <Gold.PLP.Chemscore.Hbond>
2.7941

> <Gold.PLP.Chemscore.CHOScore>
0.0000

> <Gold.PLP.Chemscore.Metal>
0.0000

> <Gold.Chemscore.Hbonds>
donor molecule, donor type, donor heavy atom, donor atom, acceptor molecule, acceptor atom, score
      L1  H     4    23       P1  8028  0.28
      L1  H     6    34       P1  7957  0.30
      L1  H    13    29       P1  7948  0.75
      P1  H  8011  8017       L1     6  1.00

> <Gold.PLP.Chemscore.Internal.Correction>
0.0122

> <Gold.Rescore>
     Score         DG    S(hbond)    S(metal)    S(lipo)     H(rot)  DE(clash)    DE(int)     intcor
     11.01     -13.27       2.68        0.00      45.43       2.53       0.69       1.57       ----

> <Gold.Chemscore.Fitness>
11.0054

> <Gold.Chemscore.DG>
-13.2678

> <Gold.Chemscore.ZeroCoef>
-5.4800

> <Gold.Chemscore.Hbond>
2.6807

> <Gold.Chemscore.Metal>
0.0000

> <Gold.Chemscore.Lipo>
45.4347

> <Gold.Chemscore.Internal_Hbond>
0.0000

> <Gold.Chemscore.DEClash>
0.6915

> <Gold.Chemscore.DEInternal>
1.5709

> <Gold.Chemscore.Rot>
2.5318

> <Gold.Chemscore.Internal.Correction>
   9.000000E+99

> <Gold.Chemscore.Hbonds>
donor molecule, donor type, donor heavy atom, donor atom, acceptor molecule, acceptor atom, score
      L1  H     4    23       P1  8028  0.28
      L1  H     6    34       P1  7957  0.31
      L1  H    13    29       P1  7948  0.09
      P1  H  8011  8017       L1     6  0.32

> <Gold.Chemscore.Hbond.Weighted>
-8.9534

> <Gold.Chemscore.Metal.Weighted>
-0.0000

> <Gold.Chemscore.Lipo.Weighted>
-5.3159

> <Gold.Chemscore.Internal_Hbond.Weighted>
0.0000

> <Gold.Chemscore.DEClash.Weighted>
0.6915

> <Gold.Chemscore.DEInternal.Weighted>
1.5709

> <Gold.Chemscore.Rot.Weighted>
6.4815

> <Gold.Chemscore.Internal.Correction.Weighted>
   9.000000E+99

> <Gold.Protein.RotatedTorsions>
[ 6907 6896 6895 6894 ] final  -58.94 input  -60.11 | X-H torsion
[ 7974 7965 7964 7962 ] final  152.46 input  175.53 | X-H torsion
[ 8008 7997 7996 7995 ] final   31.12 input   59.86 | X-H torsion
[ 10167 10162 10161 10158 ] final   -9.16 input  -65.29 | X-H torsion
[ 10718 10713 10712 10709 ] final  111.22 input   66.30 | X-H torsion
[ 10763 10752 10751 10750 ] final    6.79 input  -60.55 | X-H torsion
[ 11005 11000 10999 10996 ] final  176.05 input  -57.11 | X-H torsion

> <Gold.Protein.ActiveResidues>
 VAL166  LYS551  ARG553  GLY616  TRP617  ASP618  TYR619  PRO620  LYS621  CYS622 
 ASP623  PHE694  ASN695  SER759  ASP760  ASP761  ALA762  ILE779  LEU786  VAL792 
 PHE793  MET794  SER795  GLU796  ALA797  LYS798  CYS799  TRP800  GLU811  SER814 

> <Gold.Protein.RotatedAtoms>
  150.7968  134.7033  159.6561 H   0  0  0  0  0  0  0  0  0  0  0  0  # atno 6907 bound_to 6896
  152.4081  134.6169  160.0050 H   0  0  0  0  0  0  0  0  0  0  0  0  # atno 6908 bound_to 6896
  151.6420  133.3288  159.3168 H   0  0  0  0  0  0  0  0  0  0  0  0  # atno 6909 bound_to 6896
  144.8221  139.6671  143.6096 H   0  0  0  0  0  0  0  0  0  0  0  0  # atno 7974 bound_to 7965
  155.1014  140.3230  155.4546 H   0  0  0  0  0  0  0  0  0  0  0  0  # atno 8008 bound_to 7997
  156.2716  140.2060  156.6086 H   0  0  0  0  0  0  0  0  0  0  0  0  # atno 8009 bound_to 7997
  154.6826  140.0524  157.0269 H   0  0  0  0  0  0  0  0  0  0  0  0  # atno 8010 bound_to 7997
  140.7079  143.5888  150.8915 H   0  0  0  0  0  0  0  0  0  0  0  0  # atno 10167 bound_to 10162
  157.6455  131.0947  150.6717 H   0  0  0  0  0  0  0  0  0  0  0  0  # atno 10718 bound_to 10713
  153.2437  135.6906  153.7755 H   0  0  0  0  0  0  0  0  0  0  0  0  # atno 10763 bound_to 10752
  153.6875  135.3318  155.3194 H   0  0  0  0  0  0  0  0  0  0  0  0  # atno 10764 bound_to 10752
  154.8366  135.4537  154.1368 H   0  0  0  0  0  0  0  0  0  0  0  0  # atno 10765 bound_to 10752
  140.3689  134.7047  157.4379 H   0  0  0  0  0  0  0  0  0  0  0  0  # atno 11005 bound_to 11000
  146.2526  139.6233  142.9416 LP  0  0  0  0  0  0  0  0  0  0  0  0  # atno 17320 bound_to 7965
  145.5082  141.0436  143.2503 LP  0  0  0  0  0  0  0  0  0  0  0  0  # atno 17321 bound_to 7965
  139.9614  143.6160  152.3001 LP  0  0  0  0  0  0  0  0  0  0  0  0  # atno 17342 bound_to 10162
  139.6714  144.7660  151.1777 LP  0  0  0  0  0  0  0  0  0  0  0  0  # atno 17343 bound_to 10162
  156.7034  130.4630  149.5566 LP  0  0  0  0  0  0  0  0  0  0  0  0  # atno 17370 bound_to 10713
  156.1779  130.6480  151.0916 LP  0  0  0  0  0  0  0  0  0  0  0  0  # atno 17371 bound_to 10713
  140.0567  134.6053  155.8796 LP  0  0  0  0  0  0  0  0  0  0  0  0  # atno 17394 bound_to 11000
  141.1961  133.6590  156.5674 LP  0  0  0  0  0  0  0  0  0  0  0  0  # atno 17395 bound_to 11000

$$$$
