AV-unprocessed.smi:1163|AV-procd|sdf|4923|dock5
  -GOLD-   22720 3503D 1   1.00000     0.00000
 Structure written by MMmdl.
 40 41  0  0  0  0  0  0  0  0  2 V2000
  146.2021  142.8895  154.4901 C   0  0  0  0  0  0  0  0  0  0  0  0
  145.9265  141.7411  155.2845 O   0  0  0  0  0  0  0  0  0  0  0  0
  146.1079  140.4953  154.7199 C   0  0  0  0  0  0  0  0  0  0  0  0
  145.5517  139.3741  155.3670 C   0  0  0  0  0  0  0  0  0  0  0  0
  145.7332  138.0986  154.7987 C   0  0  0  0  0  0  0  0  0  0  0  0
  146.4751  137.9835  153.5987 C   0  0  0  0  0  0  0  0  0  0  0  0
  146.7161  136.7605  152.9157 N   0  0  0  0  0  0  0  0  0  0  0  0
  145.9620  135.6481  152.8920 C   0  0  0  0  0  0  0  0  0  0  0  0
  144.9018  135.4894  153.4966 O   0  0  0  0  0  0  0  0  0  0  0  0
  146.5217  134.6979  152.1297 N   0  0  0  0  0  0  0  0  0  0  0  0
  145.9516  133.3750  151.8980 C   0  0  1  0  0  0  0  0  0  0  0  0
  145.6071  133.0995  150.4413 C   0  0  0  0  0  0  0  0  0  0  0  0
  145.5044  131.5712  150.4187 C   0  0  0  0  0  0  0  0  0  0  0  0
  146.4479  131.0654  151.4490 N   0  3  2  0  0  0  0  0  0  0  0  0
  145.9245  129.9562  152.2860 C   0  0  0  0  0  0  0  0  0  0  0  0
  146.9484  128.8238  152.4834 C   0  0  0  0  0  0  0  0  0  0  0  0
  146.4366  127.9158  153.3130 F   0  0  0  0  0  0  0  0  0  0  0  0
  147.2391  128.2234  151.3298 F   0  0  0  0  0  0  0  0  0  0  0  0
  148.0679  129.3091  153.0199 F   0  0  0  0  0  0  0  0  0  0  0  0
  146.9236  132.2367  152.2220 C   0  0  0  0  0  0  0  0  0  0  0  0
  146.9776  139.1692  153.0235 C   0  0  0  0  0  0  0  0  0  0  0  0
  146.8083  140.3943  153.5635 N   0  0  0  0  0  0  0  0  0  0  0  0
  146.0106  143.7881  155.0764 H   0  0  0  0  0  0  0  0  0  0  0  0
  145.5615  142.9280  153.6076 H   0  0  0  0  0  0  0  0  0  0  0  0
  147.2465  142.9158  154.1762 H   0  0  0  0  0  0  0  0  0  0  0  0
  144.9915  139.4905  156.2829 H   0  0  0  0  0  0  0  0  0  0  0  0
  145.2899  137.2449  155.2866 H   0  0  0  0  0  0  0  0  0  0  0  0
  147.5971  136.7099  152.4252 H   0  0  0  0  0  0  0  0  0  0  0  0
  147.3958  134.9081  151.6701 H   0  0  0  0  0  0  0  0  0  0  0  0
  145.0466  133.2603  152.4989 H   0  0  0  0  0  0  0  0  0  0  0  0
  144.6877  133.5900  150.1197 H   0  0  0  0  0  0  0  0  0  0  0  0
  146.4161  133.4297  149.7876 H   0  0  0  0  0  0  0  0  0  0  0  0
  144.4819  131.2844  150.6693 H   0  0  0  0  0  0  0  0  0  0  0  0
  145.7325  131.1570  149.4362 H   0  0  0  0  0  0  0  0  0  0  0  0
  145.6758  130.3559  153.2702 H   0  0  0  0  0  0  0  0  0  0  0  0
  144.9941  129.5723  151.8645 H   0  0  0  0  0  0  0  0  0  0  0  0
  147.9271  132.4827  151.8714 H   0  0  0  0  0  0  0  0  0  0  0  0
  146.9907  132.0473  153.2944 H   0  0  0  0  0  0  0  0  0  0  0  0
  147.5384  139.1353  152.1009 H   0  0  0  0  0  0  0  0  0  0  0  0
  147.2580  130.7026  150.9666 H   0  0  0  0  0  0  0  0  0  0  0  0
  1  2  1  0  0  0  0
  1 23  1  0  0  0  0
  1 24  1  0  0  0  0
  1 25  1  0  0  0  0
  2  3  1  0  0  0  0
  3 22  1  0  0  0  0
  3  4  2  0  0  0  0
  4  5  1  0  0  0  0
  4 26  1  0  0  0  0
  5  6  2  0  0  0  0
  5 27  1  0  0  0  0
  6  7  1  0  0  0  0
  6 21  1  0  0  0  0
  7  8  1  0  0  0  0
  7 28  1  0  0  0  0
  8  9  2  0  0  0  0
  8 10  1  0  0  0  0
 10 11  1  0  0  0  0
 10 29  1  0  0  0  0
 11 20  1  0  0  0  0
 11 12  1  0  0  0  0
 11 30  1  0  0  0  0
 12 13  1  0  0  0  0
 12 31  1  0  0  0  0
 12 32  1  0  0  0  0
 13 14  1  0  0  0  0
 13 33  1  0  0  0  0
 13 34  1  0  0  0  0
 14 15  1  0  0  0  0
 14 20  1  0  0  0  0
 14 40  1  0  0  0  0
 15 16  1  0  0  0  0
 15 35  1  0  0  0  0
 15 36  1  0  0  0  0
 16 17  1  0  0  0  0
 16 18  1  0  0  0  0
 16 19  1  0  0  0  0
 20 37  1  0  0  0  0
 20 38  1  0  0  0  0
 21 22  2  0  0  0  0
 21 39  1  0  0  0  0
M  CHG  1  14   1
M  END
> <s_m_source_file>
AV-unprocessed.smi

> <i_m_source_file_index>
1163

> <i_lp_mmshare_version>
43012

> <i_f3d_flags>
0

> <s_epik_input>
W0NIM11PYzFbY0hdW2NIXWMoW2NIXW4xKVtOSF1DKD1PKVtOSF1bQ0BASF0yW0NIMl1bQ0gyXU4oW0NIMl0yKVtDSDJdQyhGKShGKUY=

> <s_epik_cmdline>
J2VwaWtfcHl0aG9uJywgJy1waCcsICc3LjAnLCAnLXRuJywgJzgnLCAnLW1hJywgJzIwMCcsICctbWV0YWxfYmluZGluZycsICctaW1hZScsICc8aW5maWxlLm1hZT4nLCAnLW9tYWUnLCAnPG91dGZpbGUubWFlPic=

> <r_lp_tautomer_probability>
1

> <r_epik_Ionization_Penalty>
1.12054

> <r_epik_Ionization_Penalty_Charging>
1.12047

> <r_epik_Ionization_Penalty_Neutral>
7.20346e-05

> <r_epik_State_Penalty>
1.17927

> <r_epik_Charging_Adjusted_Penalty>
2.29974

> <i_epik_Tot_Q>
1

> <i_epik_Tot_abs_Q>
1

> <r_epik_Metal_State_Penalty>
1.17928

> <b_epik_Metal_Only>
0

> <s_lp_Force_Field>
OPLS_2005

> <r_lp_Energy>
31.6131

> <b_lp_Chiralities_Consistent>
1

> <s_lp_Variant>
AV-unprocessed.smi:1163-4

> <Gold.Version>
5.8.1

> <Gold.Id.Protein>
6NUR|6NUR_protein|mol2

> <Gold.PLP.Fitness>
43.5894

> <Gold.PLP.PLP>
-33.5641

> <Gold.PLP.part.hbond>
-2.9719

> <Gold.PLP.part.metal>
0.0000

> <Gold.PLP.part.buried>
-5.1274

> <Gold.PLP.part.nonpolar>
-27.2941

> <Gold.PLP.part.repulsive>
0.4043

> <Gold.PLP.ligand.clash>
0.0000

> <Gold.PLP.ligand.torsion>
0.9908

> <Gold.PLP.Chemscore.Hbond>
2.8320

> <Gold.PLP.Chemscore.CHOScore>
1.0000

> <Gold.PLP.Chemscore.Metal>
0.0000

> <Gold.Chemscore.Hbonds>
donor molecule, donor type, donor heavy atom, donor atom, acceptor molecule, acceptor atom, score
      L1  H     7    28       P1  7948  1.00
      L1  H    10    29       P1  7948  0.80
      L1  H    14    40       P1 10747  1.00
      L1  C    21    39       P1  7957  1.00

> <Gold.PLP.Chemscore.Internal.Correction>
0.5109

> <Gold.Rescore>
     Score         DG    S(hbond)    S(metal)    S(lipo)     H(rot)  DE(clash)    DE(int)     intcor
     16.54     -17.60       2.72        0.00      62.65       1.68       0.17       0.89       ----

> <Gold.Chemscore.Fitness>
16.5380

> <Gold.Chemscore.DG>
-17.5966

> <Gold.Chemscore.ZeroCoef>
-5.4800

> <Gold.Chemscore.Hbond>
2.7192

> <Gold.Chemscore.Metal>
0.0000

> <Gold.Chemscore.Lipo>
62.6468

> <Gold.Chemscore.Internal_Hbond>
0.0000

> <Gold.Chemscore.DEClash>
0.1655

> <Gold.Chemscore.DEInternal>
0.8931

> <Gold.Chemscore.Rot>
1.6778

> <Gold.Chemscore.Internal.Correction>
   9.000000E+99

> <Gold.Chemscore.Hbonds>
donor molecule, donor type, donor heavy atom, donor atom, acceptor molecule, acceptor atom, score
      L1  H     7    28       P1  7948  0.93
      L1  H    10    29       P1  7948  0.53
      L1  H    14    40       P1 10747  0.98

> <Gold.Chemscore.Hbond.Weighted>
-9.0821

> <Gold.Chemscore.Metal.Weighted>
-0.0000

> <Gold.Chemscore.Lipo.Weighted>
-7.3297

> <Gold.Chemscore.Internal_Hbond.Weighted>
0.0000

> <Gold.Chemscore.DEClash.Weighted>
0.1655

> <Gold.Chemscore.DEInternal.Weighted>
0.8931

> <Gold.Chemscore.Rot.Weighted>
4.2951

> <Gold.Chemscore.Internal.Correction.Weighted>
   9.000000E+99

> <Gold.Protein.RotatedTorsions>
[ 6907 6896 6895 6894 ] final -136.46 input  -60.11 | X-H torsion
[ 7974 7965 7964 7962 ] final   47.58 input  175.53 | X-H torsion
[ 8008 7997 7996 7995 ] final -148.90 input   59.86 | X-H torsion
[ 10167 10162 10161 10158 ] final  112.35 input  -65.29 | X-H torsion
[ 10718 10713 10712 10709 ] final   71.46 input   66.30 | X-H torsion
[ 10763 10752 10751 10750 ] final   89.57 input  -60.55 | X-H torsion
[ 11005 11000 10999 10996 ] final   90.53 input  -57.11 | X-H torsion

> <Gold.Protein.ActiveResidues>
 VAL166  LYS551  ARG553  GLY616  TRP617  ASP618  TYR619  PRO620  LYS621  CYS622 
 ASP623  PHE694  ASN695  SER759  ASP760  ASP761  ALA762  ILE779  LEU786  VAL792 
 PHE793  MET794  SER795  GLU796  ALA797  LYS798  CYS799  TRP800  GLU811  SER814 

> <Gold.Protein.RotatedAtoms>
  151.0104  133.5971  159.2683 H   0  0  0  0  0  0  0  0  0  0  0  0  # atno 6907 bound_to 6896
  151.3125  135.0797  159.9287 H   0  0  0  0  0  0  0  0  0  0  0  0  # atno 6908 bound_to 6896
  152.5298  133.9766  159.7841 H   0  0  0  0  0  0  0  0  0  0  0  0  # atno 6909 bound_to 6896
  146.0284  139.4734  142.9853 H   0  0  0  0  0  0  0  0  0  0  0  0  # atno 7974 bound_to 7965
  155.5990  140.0660  157.2738 H   0  0  0  0  0  0  0  0  0  0  0  0  # atno 8008 bound_to 7997
  154.4284  140.1821  156.1201 H   0  0  0  0  0  0  0  0  0  0  0  0  # atno 8009 bound_to 7997
  156.0174  140.3320  155.7006 H   0  0  0  0  0  0  0  0  0  0  0  0  # atno 8010 bound_to 7997
  139.6542  144.7129  151.1989 H   0  0  0  0  0  0  0  0  0  0  0  0  # atno 10167 bound_to 10162
  157.6452  130.9529  150.0792 H   0  0  0  0  0  0  0  0  0  0  0  0  # atno 10718 bound_to 10713
  153.1884  135.4465  155.0118 H   0  0  0  0  0  0  0  0  0  0  0  0  # atno 10763 bound_to 10752
  154.8075  135.3280  154.7396 H   0  0  0  0  0  0  0  0  0  0  0  0  # atno 10764 bound_to 10752
  153.7852  135.6974  153.4936 H   0  0  0  0  0  0  0  0  0  0  0  0  # atno 10765 bound_to 10752
  139.8854  134.8619  156.3298 H   0  0  0  0  0  0  0  0  0  0  0  0  # atno 11005 bound_to 11000
  145.7080  141.0115  143.1468 LP  0  0  0  0  0  0  0  0  0  0  0  0  # atno 17320 bound_to 7965
  144.7019  139.8723  143.7441 LP  0  0  0  0  0  0  0  0  0  0  0  0  # atno 17321 bound_to 7965
  140.7551  143.6099  150.8615 LP  0  0  0  0  0  0  0  0  0  0  0  0  # atno 17342 bound_to 10162
  139.9751  143.6014  152.2961 LP  0  0  0  0  0  0  0  0  0  0  0  0  # atno 17343 bound_to 10162
  156.1773  130.3648  149.9083 LP  0  0  0  0  0  0  0  0  0  0  0  0  # atno 17370 bound_to 10713
  156.7044  130.8945  151.3603 LP  0  0  0  0  0  0  0  0  0  0  0  0  # atno 17371 bound_to 10713
  140.9730  133.7315  156.0562 LP  0  0  0  0  0  0  0  0  0  0  0  0  # atno 17394 bound_to 11000
  140.7846  134.3686  157.5479 LP  0  0  0  0  0  0  0  0  0  0  0  0  # atno 17395 bound_to 11000

$$$$
