AV-unprocessed.smi:1864|AV-procd|sdf|7553|dock8
  -GOLD-   22720 9273D 1   1.00000     0.00000
 Structure written by MMmdl.
 33 34  0  0  0  0  0  0  0  0  2 V2000
  155.3276  134.2895  165.1608 C   0  0  0  0  0  0  0  0  0  0  0  0
  155.2192  135.1945  163.9813 C   0  0  0  0  0  0  0  0  0  0  0  0
  155.6829  134.8373  162.7902 N   0  0  0  0  0  0  0  0  0  0  0  0
  155.3953  135.9487  161.9849 O   0  0  0  0  0  0  0  0  0  0  0  0
  154.7811  136.8480  162.7949 C   0  0  0  0  0  0  0  0  0  0  0  0
  154.3613  138.1713  162.2293 C   0  0  0  0  0  0  0  0  0  0  0  0
  155.5237  139.0010  161.6509 C   0  0  0  0  0  0  0  0  0  0  0  0
  155.0637  140.3563  161.3453 N   0  5  0  0  0  0  0  0  0  0  0  0
  154.2952  140.6967  160.2665 C   0  0  0  0  0  0  0  0  0  0  0  0
  154.2334  140.0845  159.1931 O   0  0  0  0  0  0  0  0  0  0  0  0
  153.4419  141.9205  160.3490 C   0  0  0  0  0  0  0  0  0  0  0  0
  153.1216  142.5543  159.2639 N   0  0  0  0  0  0  0  0  0  0  0  0
  152.3152  143.6737  159.2702 N   0  0  0  0  0  0  0  0  0  0  0  0
  151.8506  144.0647  157.9398 C   0  0  0  0  0  0  0  0  0  0  0  0
  151.9895  144.3789  160.3835 C   0  0  0  0  0  0  0  0  0  0  0  0
  151.2535  145.3657  160.3865 O   0  0  0  0  0  0  0  0  0  0  0  0
  152.6196  143.9078  161.6968 C   0  0  0  0  0  0  0  0  0  0  0  0
  152.9198  142.3967  161.6927 C   0  0  0  0  0  0  0  0  0  0  0  0
  154.6476  136.4271  164.0534 N   0  0  0  0  0  0  0  0  0  0  0  0
  155.8341  133.3606  164.8959 H   0  0  0  0  0  0  0  0  0  0  0  0
  154.3350  134.0452  165.5397 H   0  0  0  0  0  0  0  0  0  0  0  0
  155.8931  134.7753  165.9562 H   0  0  0  0  0  0  0  0  0  0  0  0
  153.6125  137.9899  161.4573 H   0  0  0  0  0  0  0  0  0  0  0  0
  153.8604  138.7350  163.0176 H   0  0  0  0  0  0  0  0  0  0  0  0
  156.3449  139.0058  162.3693 H   0  0  0  0  0  0  0  0  0  0  0  0
  155.9083  138.5030  160.7601 H   0  0  0  0  0  0  0  0  0  0  0  0
  151.2311  144.9623  157.9334 H   0  0  0  0  0  0  0  0  0  0  0  0
  151.2632  143.2588  157.4982 H   0  0  0  0  0  0  0  0  0  0  0  0
  152.7035  144.2527  157.2868 H   0  0  0  0  0  0  0  0  0  0  0  0
  153.5469  144.4656  161.8334 H   0  0  0  0  0  0  0  0  0  0  0  0
  151.9722  144.1619  162.5369 H   0  0  0  0  0  0  0  0  0  0  0  0
  152.0194  141.8362  161.9462 H   0  0  0  0  0  0  0  0  0  0  0  0
  153.6416  142.1952  162.4848 H   0  0  0  0  0  0  0  0  0  0  0  0
  1  2  1  0  0  0  0
  1 20  1  0  0  0  0
  1 21  1  0  0  0  0
  1 22  1  0  0  0  0
  2 19  1  0  0  0  0
  2  3  2  0  0  0  0
  3  4  1  0  0  0  0
  4  5  1  0  0  0  0
  5  6  1  0  0  0  0
  5 19  2  0  0  0  0
  6  7  1  0  0  0  0
  6 23  1  0  0  0  0
  6 24  1  0  0  0  0
  7  8  1  0  0  0  0
  7 25  1  0  0  0  0
  7 26  1  0  0  0  0
  8  9  1  0  0  0  0
  9 10  2  0  0  0  0
  9 11  1  0  0  0  0
 11 18  1  0  0  0  0
 11 12  2  0  0  0  0
 12 13  1  0  0  0  0
 13 14  1  0  0  0  0
 13 15  1  0  0  0  0
 14 27  1  0  0  0  0
 14 28  1  0  0  0  0
 14 29  1  0  0  0  0
 15 16  2  0  0  0  0
 15 17  1  0  0  0  0
 17 18  1  0  0  0  0
 17 30  1  0  0  0  0
 17 31  1  0  0  0  0
 18 32  1  0  0  0  0
 18 33  1  0  0  0  0
M  CHG  1   8  -1
M  END
> <s_m_source_file>
AV-unprocessed.smi

> <i_m_source_file_index>
1864

> <i_lp_mmshare_version>
43012

> <i_f3d_flags>
0

> <s_epik_input>
W0NIM11jMW5vYyhuMSlbQ0gyXVtDSDJdW05IXUMoPU8pQzI9Tk4oW0NIM10pQyg9TylbQ0gyXVtDSDJdMg==

> <s_epik_cmdline>
J2VwaWtfcHl0aG9uJywgJy1waCcsICc3LjAnLCAnLXRuJywgJzgnLCAnLW1hJywgJzIwMCcsICctbWV0YWxfYmluZGluZycsICctaW1hZScsICc8aW5maWxlLm1hZT4nLCAnLW9tYWUnLCAnPG91dGZpbGUubWFlPic=

> <r_lp_tautomer_probability>
1

> <r_epik_Ionization_Penalty>
5.04632

> <r_epik_Ionization_Penalty_Charging>
5.04632

> <r_epik_Ionization_Penalty_Neutral>
3.43742e-09

> <r_epik_State_Penalty>
5.0462

> <r_epik_Charging_Adjusted_Penalty>
10.0925

> <i_epik_Tot_Q>
-1

> <i_epik_Tot_abs_Q>
1

> <r_epik_Metal_State_Penalty>
1.15274

> <b_epik_Metal_Only>
1

> <s_epik_Chemistry_Notes>
This compound has an imine and may undergo hydrolysis.

> <s_lp_Force_Field>
OPLS_2005

> <r_lp_Energy>
22.1734

> <b_lp_Chiralities_Consistent>
1

> <s_lp_Variant>
AV-unprocessed.smi:1864-2

> <Gold.Version>
5.8.1

> <Gold.Id.Protein>
6NUR|6NUR_protein|mol2

> <Gold.PLP.Fitness>
44.9965

> <Gold.PLP.PLP>
-43.1896

> <Gold.PLP.part.hbond>
-1.0000

> <Gold.PLP.part.metal>
0.0000

> <Gold.PLP.part.buried>
-6.9706

> <Gold.PLP.part.nonpolar>
-34.7916

> <Gold.PLP.part.repulsive>
0.2732

> <Gold.PLP.ligand.clash>
0.0000

> <Gold.PLP.ligand.torsion>
0.5778

> <Gold.PLP.Chemscore.Hbond>
0.9833

> <Gold.PLP.Chemscore.CHOScore>
0.0000

> <Gold.PLP.Chemscore.Metal>
0.0000

> <Gold.Chemscore.Hbonds>
donor molecule, donor type, donor heavy atom, donor atom, acceptor molecule, acceptor atom, score
      P1  H  7997  8010       L1    10  0.98

> <Gold.PLP.Chemscore.Internal.Correction>
0.0125

> <Gold.Rescore>
     Score         DG    S(hbond)    S(metal)    S(lipo)     H(rot)  DE(clash)    DE(int)     intcor
     11.72     -12.22       0.98        0.00      68.58       1.77       0.06       0.44       ----

> <Gold.Chemscore.Fitness>
11.7239

> <Gold.Chemscore.DG>
-12.2222

> <Gold.Chemscore.ZeroCoef>
-5.4800

> <Gold.Chemscore.Hbond>
0.9752

> <Gold.Chemscore.Metal>
0.0000

> <Gold.Chemscore.Lipo>
68.5832

> <Gold.Chemscore.Internal_Hbond>
0.0000

> <Gold.Chemscore.DEClash>
0.0632

> <Gold.Chemscore.DEInternal>
0.4351

> <Gold.Chemscore.Rot>
1.7731

> <Gold.Chemscore.Internal.Correction>
   9.000000E+99

> <Gold.Chemscore.Hbonds>
donor molecule, donor type, donor heavy atom, donor atom, acceptor molecule, acceptor atom, score
      P1  H  7997  8010       L1    10  0.87

> <Gold.Chemscore.Hbond.Weighted>
-3.2572

> <Gold.Chemscore.Metal.Weighted>
-0.0000

> <Gold.Chemscore.Lipo.Weighted>
-8.0242

> <Gold.Chemscore.Internal_Hbond.Weighted>
0.0000

> <Gold.Chemscore.DEClash.Weighted>
0.0632

> <Gold.Chemscore.DEInternal.Weighted>
0.4351

> <Gold.Chemscore.Rot.Weighted>
4.5393

> <Gold.Chemscore.Internal.Correction.Weighted>
   9.000000E+99

> <Gold.Protein.RotatedTorsions>
[ 6907 6896 6895 6894 ] final   30.10 input  -60.11 | X-H torsion
[ 7974 7965 7964 7962 ] final -155.76 input  175.53 | X-H torsion
[ 8008 7997 7996 7995 ] final    5.71 input   59.86 | X-H torsion
[ 10167 10162 10161 10158 ] final   12.87 input  -65.29 | X-H torsion
[ 10718 10713 10712 10709 ] final  -21.63 input   66.30 | X-H torsion
[ 10763 10752 10751 10750 ] final  -93.17 input  -60.55 | X-H torsion
[ 11005 11000 10999 10996 ] final   19.05 input  -57.11 | X-H torsion

> <Gold.Protein.ActiveResidues>
 VAL166  LYS551  ARG553  GLY616  TRP617  ASP618  TYR619  PRO620  LYS621  CYS622 
 ASP623  PHE694  ASN695  SER759  ASP760  ASP761  ALA762  ILE779  LEU786  VAL792 
 PHE793  MET794  SER795  GLU796  ALA797  LYS798  CYS799  TRP800  GLU811  SER814 

> <Gold.Protein.RotatedAtoms>
  152.0411  134.9711  160.0573 H   0  0  0  0  0  0  0  0  0  0  0  0  # atno 6907 bound_to 6896
  152.1149  133.4316  159.4656 H   0  0  0  0  0  0  0  0  0  0  0  0  # atno 6908 bound_to 6896
  150.6845  134.2523  159.4559 H   0  0  0  0  0  0  0  0  0  0  0  0  # atno 6909 bound_to 6896
  144.7624  140.4204  143.5966 H   0  0  0  0  0  0  0  0  0  0  0  0  # atno 7974 bound_to 7965
  154.7318  140.2732  155.6449 H   0  0  0  0  0  0  0  0  0  0  0  0  # atno 8008 bound_to 7997
  156.2851  140.2714  156.1945 H   0  0  0  0  0  0  0  0  0  0  0  0  # atno 8009 bound_to 7997
  155.0372  140.0371  157.2486 H   0  0  0  0  0  0  0  0  0  0  0  0  # atno 8010 bound_to 7997
  140.6039  143.8547  150.6994 H   0  0  0  0  0  0  0  0  0  0  0  0  # atno 10167 bound_to 10162
  156.5156  130.4620  149.6624 H   0  0  0  0  0  0  0  0  0  0  0  0  # atno 10718 bound_to 10713
  154.6933  135.5204  153.8423 H   0  0  0  0  0  0  0  0  0  0  0  0  # atno 10763 bound_to 10752
  153.0648  135.6581  154.0388 H   0  0  0  0  0  0  0  0  0  0  0  0  # atno 10764 bound_to 10752
  154.0259  135.2989  155.3354 H   0  0  0  0  0  0  0  0  0  0  0  0  # atno 10765 bound_to 10752
  140.4180  134.1548  155.7671 H   0  0  0  0  0  0  0  0  0  0  0  0  # atno 11005 bound_to 11000
  145.6575  139.1575  143.2827 LP  0  0  0  0  0  0  0  0  0  0  0  0  # atno 17320 bound_to 7965
  146.1701  140.6659  142.9237 LP  0  0  0  0  0  0  0  0  0  0  0  0  # atno 17321 bound_to 7965
  140.2100  143.3891  152.1726 LP  0  0  0  0  0  0  0  0  0  0  0  0  # atno 17342 bound_to 10162
  139.5311  144.7160  151.5053 LP  0  0  0  0  0  0  0  0  0  0  0  0  # atno 17343 bound_to 10162
  156.3199  130.7275  151.2184 LP  0  0  0  0  0  0  0  0  0  0  0  0  # atno 17370 bound_to 10713
  157.7444  131.0458  150.4864 LP  0  0  0  0  0  0  0  0  0  0  0  0  # atno 17371 bound_to 10713
  141.1795  133.8443  157.1307 LP  0  0  0  0  0  0  0  0  0  0  0  0  # atno 17394 bound_to 11000
  140.0220  134.9941  157.0611 LP  0  0  0  0  0  0  0  0  0  0  0  0  # atno 17395 bound_to 11000

$$$$
