AV-unprocessed.smi:2691|AV-procd|sdf|10390|dock1
  -GOLD-   2272014423D 1   1.00000     0.00000
 Structure written by MMmdl.
 49 51  0  0  0  0  0  0  0  0  1 V2000
  153.5358  142.9885  163.5443 C   0  0  0  0  0  0  0  0  0  0  0  0
  153.0978  142.9855  162.0905 C   0  0  0  0  0  0  0  0  0  0  0  0
  152.3178  144.0593  161.6057 C   0  0  0  0  0  0  0  0  0  0  0  0
  151.8860  144.0923  160.2619 C   0  0  0  0  0  0  0  0  0  0  0  0
  151.1274  145.0319  159.5850 N   0  0  0  0  0  0  0  0  0  0  0  0
  151.0617  144.4969  158.3695 C   0  0  0  0  0  0  0  0  0  0  0  0
  151.6809  143.3157  158.1804 N   0  0  0  0  0  0  0  0  0  0  0  0
  151.7319  142.5387  156.9547 C   0  0  0  0  0  0  0  0  0  0  0  0
  151.2923  141.0760  157.1666 C   0  0  2  0  0  0  0  0  0  0  0  0
  152.4677  140.3169  157.3622 O   0  0  0  0  0  0  0  0  0  0  0  0
  150.5111  140.4799  155.9693 C   0  0  0  0  0  0  0  0  0  0  0  0
  149.1876  141.1032  155.8161 N   0  0  0  0  0  0  0  0  0  0  0  0
  148.4703  141.3481  157.0019 C   0  0  0  0  0  0  0  0  0  0  0  0
  147.3003  141.9025  156.9879 N   0  0  0  0  0  0  0  0  0  0  0  0
  146.7210  142.2756  155.7686 C   0  0  0  0  0  0  0  0  0  0  0  0
  145.3463  142.9303  155.8096 C   0  0  0  0  0  0  0  0  0  0  0  0
  144.9920  143.5936  154.4688 C   0  0  0  0  0  0  0  0  0  0  0  0
  145.2366  143.9234  156.9767 C   0  0  0  0  0  0  0  0  0  0  0  0
  147.3763  142.0663  154.6018 C   0  0  0  0  0  0  0  0  0  0  0  0
  148.6991  141.4420  154.5870 C   0  0  0  0  0  0  0  0  0  0  0  0
  149.3266  141.2421  153.5468 O   0  0  0  0  0  0  0  0  0  0  0  0
  152.2571  143.0118  159.4092 C   0  0  0  0  0  0  0  0  0  0  0  0
  153.0378  141.9405  159.8781 C   0  0  0  0  0  0  0  0  0  0  0  0
  153.4613  141.9237  161.2235 C   0  0  0  0  0  0  0  0  0  0  0  0
  154.3006  140.7604  161.7212 C   0  0  0  0  0  0  0  0  0  0  0  0
  153.1446  143.8564  164.0761 H   0  0  0  0  0  0  0  0  0  0  0  0
  154.6233  143.0145  163.6155 H   0  0  0  0  0  0  0  0  0  0  0  0
  153.1753  142.0949  164.0539 H   0  0  0  0  0  0  0  0  0  0  0  0
  152.0418  144.8690  162.2649 H   0  0  0  0  0  0  0  0  0  0  0  0
  150.5221  144.9866  157.5721 H   0  0  0  0  0  0  0  0  0  0  0  0
  151.1022  143.0218  156.2057 H   0  0  0  0  0  0  0  0  0  0  0  0
  152.7545  142.5764  156.5767 H   0  0  0  0  0  0  0  0  0  0  0  0
  150.6995  141.0186  158.0804 H   0  0  0  0  0  0  0  0  0  0  0  0
  152.9919  140.3664  156.5774 H   0  0  0  0  0  0  0  0  0  0  0  0
  151.0585  140.6327  155.0388 H   0  0  0  0  0  0  0  0  0  0  0  0
  150.4485  139.3926  156.0514 H   0  0  0  0  0  0  0  0  0  0  0  0
  148.9690  141.0433  157.9235 H   0  0  0  0  0  0  0  0  0  0  0  0
  144.6099  142.1446  155.9838 H   0  0  0  0  0  0  0  0  0  0  0  0
  145.0490  142.8764  153.6494 H   0  0  0  0  0  0  0  0  0  0  0  0
  145.6662  144.4189  154.2376 H   0  0  0  0  0  0  0  0  0  0  0  0
  143.9774  143.9925  154.4862 H   0  0  0  0  0  0  0  0  0  0  0  0
  145.4644  143.4387  157.9266 H   0  0  0  0  0  0  0  0  0  0  0  0
  144.2282  144.3315  157.0494 H   0  0  0  0  0  0  0  0  0  0  0  0
  145.9251  144.7607  156.8567 H   0  0  0  0  0  0  0  0  0  0  0  0
  146.9256  142.3606  153.6652 H   0  0  0  0  0  0  0  0  0  0  0  0
  153.3049  141.1366  159.2086 H   0  0  0  0  0  0  0  0  0  0  0  0
  154.5376  140.0670  160.9138 H   0  0  0  0  0  0  0  0  0  0  0  0
  153.7646  140.2070  162.4926 H   0  0  0  0  0  0  0  0  0  0  0  0
  155.2416  141.1174  162.1405 H   0  0  0  0  0  0  0  0  0  0  0  0
  1  2  1  0  0  0  0
  1 26  1  0  0  0  0
  1 27  1  0  0  0  0
  1 28  1  0  0  0  0
  2 24  1  0  0  0  0
  2  3  2  0  0  0  0
  3  4  1  0  0  0  0
  3 29  1  0  0  0  0
  4 22  2  0  0  0  0
  4  5  1  0  0  0  0
  5  6  2  0  0  0  0
  6  7  1  0  0  0  0
  6 30  1  0  0  0  0
  7  8  1  0  0  0  0
  7 22  1  0  0  0  0
  8  9  1  0  0  0  0
  8 31  1  0  0  0  0
  8 32  1  0  0  0  0
  9 10  1  0  0  0  0
  9 11  1  0  0  0  0
  9 33  1  0  0  0  0
 10 34  1  0  0  0  0
 11 12  1  0  0  0  0
 11 35  1  0  0  0  0
 11 36  1  0  0  0  0
 12 20  1  0  0  0  0
 12 13  1  0  0  0  0
 13 14  2  0  0  0  0
 13 37  1  0  0  0  0
 14 15  1  0  0  0  0
 15 16  1  0  0  0  0
 15 19  2  0  0  0  0
 16 17  1  0  0  0  0
 16 18  1  0  0  0  0
 16 38  1  0  0  0  0
 17 39  1  0  0  0  0
 17 40  1  0  0  0  0
 17 41  1  0  0  0  0
 18 42  1  0  0  0  0
 18 43  1  0  0  0  0
 18 44  1  0  0  0  0
 19 20  1  0  0  0  0
 19 45  1  0  0  0  0
 20 21  2  0  0  0  0
 22 23  1  0  0  0  0
 23 24  2  0  0  0  0
 23 46  1  0  0  0  0
 24 25  1  0  0  0  0
 25 47  1  0  0  0  0
 25 48  1  0  0  0  0
 25 49  1  0  0  0  0
M  END
> <s_m_source_file>
AV-unprocessed.smi

> <i_m_source_file_index>
2691

> <i_lp_mmshare_version>
43012

> <i_f3d_flags>
0

> <s_epik_input>
W0NIM11jKFtjSF0xKWMoW0NIM10pW2NIXWMoYzEyKW4oW2NIXW4yKVtDSDJdW0NASF0oW09IXSlbQ0gyXW4zW2NIXW5jKFtDSF0oW0NIM10pW0NIM10pW2NIXWMzPU8=

> <s_epik_cmdline>
J2VwaWtfcHl0aG9uJywgJy1waCcsICc3LjAnLCAnLXRuJywgJzgnLCAnLW1hJywgJzIwMCcsICctbWV0YWxfYmluZGluZycsICctaW1hZScsICc8aW5maWxlLm1hZT4nLCAnLW9tYWUnLCAnPG91dGZpbGUubWFlPic=

> <r_lp_tautomer_probability>
1

> <r_epik_Ionization_Penalty>
0.113357

> <r_epik_Ionization_Penalty_Charging>
3.84185e-08

> <r_epik_Ionization_Penalty_Neutral>
0.113357

> <r_epik_State_Penalty>
0.103025

> <r_epik_Charging_Adjusted_Penalty>
0.103025

> <i_epik_Tot_Q>
0

> <i_epik_Tot_abs_Q>
0

> <r_epik_Metal_State_Penalty>
0.0863451

> <b_epik_Metal_Only>
0

> <s_lp_Force_Field>
OPLS_2005

> <r_lp_Energy>
18.3457

> <b_lp_Chiralities_Consistent>
1

> <s_lp_Variant>
AV-unprocessed.smi:2691-1

> <Gold.Version>
5.8.1

> <Gold.Id.Protein>
6NUR|6NUR_protein|mol2

> <Gold.PLP.Fitness>
59.6227

> <Gold.PLP.PLP>
-55.9352

> <Gold.PLP.part.hbond>
-3.0000

> <Gold.PLP.part.metal>
0.0000

> <Gold.PLP.part.buried>
-7.2476

> <Gold.PLP.part.nonpolar>
-48.7693

> <Gold.PLP.part.repulsive>
3.5480

> <Gold.PLP.ligand.clash>
0.0000

> <Gold.PLP.ligand.torsion>
1.2624

> <Gold.PLP.Chemscore.Hbond>
1.1048

> <Gold.PLP.Chemscore.CHOScore>
0.9288

> <Gold.PLP.Chemscore.Metal>
0.0000

> <Gold.Chemscore.Hbonds>
donor molecule, donor type, donor heavy atom, donor atom, acceptor molecule, acceptor atom, score
      P1  H  7989  7998       L1    21  0.07
      P1  H  8011  8017       L1    21  0.98
      L1  C     6    30       P1  8028  0.87
      L1  C     6    30       P1  8029  0.07

> <Gold.PLP.Chemscore.Internal.Correction>
0.1116

> <Gold.Rescore>
     Score         DG    S(hbond)    S(metal)    S(lipo)     H(rot)  DE(clash)    DE(int)     intcor
     14.19     -17.92       0.97        0.00     132.43       2.45       2.81       0.92       ----

> <Gold.Chemscore.Fitness>
14.1948

> <Gold.Chemscore.DG>
-17.9224

> <Gold.Chemscore.ZeroCoef>
-5.4800

> <Gold.Chemscore.Hbond>
0.9667

> <Gold.Chemscore.Metal>
0.0000

> <Gold.Chemscore.Lipo>
132.4332

> <Gold.Chemscore.Internal_Hbond>
0.0000

> <Gold.Chemscore.DEClash>
2.8079

> <Gold.Chemscore.DEInternal>
0.9196

> <Gold.Chemscore.Rot>
2.4536

> <Gold.Chemscore.Internal.Correction>
   9.000000E+99

> <Gold.Chemscore.Hbonds>
donor molecule, donor type, donor heavy atom, donor atom, acceptor molecule, acceptor atom, score
      P1  H  7989  7998       L1    21  0.07
      P1  H  8011  8017       L1    21  0.92

> <Gold.Chemscore.Hbond.Weighted>
-3.2289

> <Gold.Chemscore.Metal.Weighted>
-0.0000

> <Gold.Chemscore.Lipo.Weighted>
-15.4947

> <Gold.Chemscore.Internal_Hbond.Weighted>
0.0000

> <Gold.Chemscore.DEClash.Weighted>
2.8079

> <Gold.Chemscore.DEInternal.Weighted>
0.9196

> <Gold.Chemscore.Rot.Weighted>
6.2812

> <Gold.Chemscore.Internal.Correction.Weighted>
   9.000000E+99

> <Gold.Protein.RotatedTorsions>
[ 6907 6896 6895 6894 ] final -170.11 input  -60.11 | X-H torsion
[ 7974 7965 7964 7962 ] final -167.52 input  175.53 | X-H torsion
[ 8008 7997 7996 7995 ] final   86.34 input   59.86 | X-H torsion
[ 10167 10162 10161 10158 ] final   24.14 input  -65.29 | X-H torsion
[ 10718 10713 10712 10709 ] final  -14.35 input   66.30 | X-H torsion
[ 10763 10752 10751 10750 ] final  -57.33 input  -60.55 | X-H torsion
[ 11005 11000 10999 10996 ] final  -77.10 input  -57.11 | X-H torsion

> <Gold.Protein.ActiveResidues>
 VAL166  LYS551  ARG553  GLY616  TRP617  ASP618  TYR619  PRO620  LYS621  CYS622 
 ASP623  PHE694  ASN695  SER759  ASP760  ASP761  ALA762  ILE779  LEU786  VAL792 
 PHE793  MET794  SER795  GLU796  ALA797  LYS798  CYS799  TRP800  GLU811  SER814 

> <Gold.Protein.RotatedAtoms>
  151.5024  133.3501  159.2870 H   0  0  0  0  0  0  0  0  0  0  0  0  # atno 6907 bound_to 6896
  150.8764  134.8150  159.7204 H   0  0  0  0  0  0  0  0  0  0  0  0  # atno 6908 bound_to 6896
  152.4733  134.4916  159.9749 H   0  0  0  0  0  0  0  0  0  0  0  0  # atno 6909 bound_to 6896
  144.7221  140.2506  143.6279 H   0  0  0  0  0  0  0  0  0  0  0  0  # atno 7974 bound_to 7965
  155.9616  140.3393  155.6495 H   0  0  0  0  0  0  0  0  0  0  0  0  # atno 8008 bound_to 7997
  155.6791  140.0735  157.2509 H   0  0  0  0  0  0  0  0  0  0  0  0  # atno 8009 bound_to 7997
  154.4144  140.1677  156.1950 H   0  0  0  0  0  0  0  0  0  0  0  0  # atno 8010 bound_to 7997
  140.5212  143.9999  150.6418 H   0  0  0  0  0  0  0  0  0  0  0  0  # atno 10167 bound_to 10162
  156.6172  130.4865  149.6178 H   0  0  0  0  0  0  0  0  0  0  0  0  # atno 10718 bound_to 10713
  154.2208  135.6378  153.5144 H   0  0  0  0  0  0  0  0  0  0  0  0  # atno 10763 bound_to 10752
  152.9969  135.5496  154.6116 H   0  0  0  0  0  0  0  0  0  0  0  0  # atno 10764 bound_to 10752
  154.5576  135.2906  155.0924 H   0  0  0  0  0  0  0  0  0  0  0  0  # atno 10765 bound_to 10752
  141.1658  133.7009  156.7770 H   0  0  0  0  0  0  0  0  0  0  0  0  # atno 11005 bound_to 11000
  145.8232  139.2053  143.1926 LP  0  0  0  0  0  0  0  0  0  0  0  0  # atno 17320 bound_to 7965
  146.0496  140.8083  142.9788 LP  0  0  0  0  0  0  0  0  0  0  0  0  # atno 17321 bound_to 7965
  140.3348  143.3055  152.0649 LP  0  0  0  0  0  0  0  0  0  0  0  0  # atno 17342 bound_to 10162
  139.4924  144.6484  151.6730 LP  0  0  0  0  0  0  0  0  0  0  0  0  # atno 17343 bound_to 10162
  156.2341  130.6812  151.1492 LP  0  0  0  0  0  0  0  0  0  0  0  0  # atno 17370 bound_to 10713
  157.7238  131.0664  150.6022 LP  0  0  0  0  0  0  0  0  0  0  0  0  # atno 17371 bound_to 10713
  140.2422  134.8604  157.3585 LP  0  0  0  0  0  0  0  0  0  0  0  0  # atno 17394 bound_to 11000
  140.1784  134.4520  155.7787 LP  0  0  0  0  0  0  0  0  0  0  0  0  # atno 17395 bound_to 11000

$$$$
