AV-unprocessed.smi:2881|AV-procd|sdf|11056|dock4
  -GOLD-   2272015523D 1   1.00000     0.00000
 Structure written by MMmdl.
 40 42  0  0  0  0  0  0  0  0  1 V2000
  146.0197  134.2303  162.6031 C   0  0  0  0  0  0  0  0  0  0  0  0
  146.8471  135.1272  161.7468 C   0  0  0  0  0  0  0  0  0  0  0  0
  147.5695  134.8818  160.6134 C   0  0  0  0  0  0  0  0  0  0  0  0
  148.1256  136.1489  160.2671 C   0  0  0  0  0  0  0  0  0  0  0  0
  148.9943  136.4881  159.0835 C   0  0  0  0  0  0  0  0  0  0  0  0
  148.6418  137.8792  158.5532 C   0  0  0  0  0  0  0  0  0  0  0  0
  147.5862  138.4191  158.8833 O   0  0  0  0  0  0  0  0  0  0  0  0
  149.5423  138.4505  157.7394 N   0  0  0  0  0  0  0  0  0  0  0  0
  149.4540  139.8000  157.1863 C   0  0  1  0  0  0  0  0  0  0  0  0
  150.7247  140.6527  157.4468 C   0  0  1  0  0  0  0  0  0  0  0  0
  152.0059  139.8841  157.0568 C   0  0  0  0  0  0  0  0  0  0  0  0
  151.9116  139.8354  155.5217 C   0  0  0  0  0  0  0  0  0  0  0  0
  150.6159  140.6225  155.2292 C   0  0  2  0  0  0  0  0  0  0  0  0
  150.6561  141.6820  156.3237 C   0  0  0  0  0  0  0  0  0  0  0  0
  149.3518  139.8279  155.6331 C   0  0  1  0  0  0  0  0  0  0  0  0
  149.1644  138.4855  154.8892 C   0  0  0  0  0  0  0  0  0  0  0  0
  149.2556  138.6779  153.4929 O   0  0  0  0  0  0  0  0  0  0  0  0
  147.7817  137.1012  161.1243 N   0  0  0  0  0  0  0  0  0  0  0  0
  147.0014  136.4668  162.0184 N   0  0  0  0  0  0  0  0  0  0  0  0
  146.5870  136.9540  162.8002 H   0  0  0  0  0  0  0  0  0  0  0  0
  146.1654  133.1855  162.3281 H   0  0  0  0  0  0  0  0  0  0  0  0
  144.9602  134.4626  162.4948 H   0  0  0  0  0  0  0  0  0  0  0  0
  146.2857  134.3414  163.6544 H   0  0  0  0  0  0  0  0  0  0  0  0
  147.6778  133.9385  160.0988 H   0  0  0  0  0  0  0  0  0  0  0  0
  150.0516  136.4660  159.3512 H   0  0  0  0  0  0  0  0  0  0  0  0
  148.8578  135.7507  158.2915 H   0  0  0  0  0  0  0  0  0  0  0  0
  150.3743  137.9234  157.5167 H   0  0  0  0  0  0  0  0  0  0  0  0
  148.5783  140.2969  157.6079 H   0  0  0  0  0  0  0  0  0  0  0  0
  150.7652  141.0773  158.4502 H   0  0  0  0  0  0  0  0  0  0  0  0
  152.8911  140.4433  157.3627 H   0  0  0  0  0  0  0  0  0  0  0  0
  152.0825  138.8939  157.5054 H   0  0  0  0  0  0  0  0  0  0  0  0
  152.7725  140.3353  155.0761 H   0  0  0  0  0  0  0  0  0  0  0  0
  151.8935  138.8172  155.1354 H   0  0  0  0  0  0  0  0  0  0  0  0
  150.5698  141.0217  154.2157 H   0  0  0  0  0  0  0  0  0  0  0  0
  149.7603  142.3044  156.3616 H   0  0  0  0  0  0  0  0  0  0  0  0
  151.5346  142.3278  156.2718 H   0  0  0  0  0  0  0  0  0  0  0  0
  148.4956  140.4529  155.3712 H   0  0  0  0  0  0  0  0  0  0  0  0
  149.9462  137.7854  155.1845 H   0  0  0  0  0  0  0  0  0  0  0  0
  148.2105  138.0127  155.1223 H   0  0  0  0  0  0  0  0  0  0  0  0
  149.2988  137.8315  153.0744 H   0  0  0  0  0  0  0  0  0  0  0  0
  1  2  1  0  0  0  0
  1 21  1  0  0  0  0
  1 22  1  0  0  0  0
  1 23  1  0  0  0  0
  2 19  1  0  0  0  0
  2  3  2  0  0  0  0
  3  4  1  0  0  0  0
  3 24  1  0  0  0  0
  4  5  1  0  0  0  0
  4 18  2  0  0  0  0
  5  6  1  0  0  0  0
  5 25  1  0  0  0  0
  5 26  1  0  0  0  0
  6  7  2  0  0  0  0
  6  8  1  0  0  0  0
  8  9  1  0  0  0  0
  8 27  1  0  0  0  0
  9 15  1  0  0  0  0
  9 10  1  0  0  0  0
  9 28  1  0  0  0  0
 10 14  1  0  0  0  0
 10 11  1  0  0  0  0
 10 29  1  0  0  0  0
 11 12  1  0  0  0  0
 11 30  1  0  0  0  0
 11 31  1  0  0  0  0
 12 13  1  0  0  0  0
 12 32  1  0  0  0  0
 12 33  1  0  0  0  0
 13 14  1  0  0  0  0
 13 15  1  0  0  0  0
 13 34  1  0  0  0  0
 14 35  1  0  0  0  0
 14 36  1  0  0  0  0
 15 16  1  0  0  0  0
 15 37  1  0  0  0  0
 16 17  1  0  0  0  0
 16 38  1  0  0  0  0
 16 39  1  0  0  0  0
 17 40  1  0  0  0  0
 18 19  1  0  0  0  0
 19 20  1  0  0  0  0
M  END
> <s_m_source_file>
AV-unprocessed.smi

> <i_m_source_file_index>
2881

> <i_lp_mmshare_version>
43012

> <i_f3d_flags>
0

> <s_epik_input>
W0NIM11jMVtjSF1jKG5bbkhdMSlbQ0gyXUMoPU8pW05IXVtDQEhdKFtDQEBIXTIzKVtDQEhdKFtDSDJdW09IXSlbQ0BASF0oW0NIMl0zKVtDSDJdW0NIMl0y

> <s_epik_cmdline>
J2VwaWtfcHl0aG9uJywgJy1waCcsICc3LjAnLCAnLXRuJywgJzgnLCAnLW1hJywgJzIwMCcsICctbWV0YWxfYmluZGluZycsICctaW1hZScsICc8aW5maWxlLm1hZT4nLCAnLW9tYWUnLCAnPG91dGZpbGUubWFlPic=

> <r_lp_tautomer_probability>
0.5

> <r_epik_Ionization_Penalty>
9.4349e-05

> <r_epik_Ionization_Penalty_Charging>
0

> <r_epik_Ionization_Penalty_Neutral>
9.4349e-05

> <r_epik_State_Penalty>
0.41068

> <r_epik_Charging_Adjusted_Penalty>
0.41068

> <i_epik_Tot_Q>
0

> <i_epik_Tot_abs_Q>
0

> <r_epik_Metal_State_Penalty>
0.4107

> <b_epik_Metal_Only>
0

> <s_lp_Force_Field>
OPLS_2005

> <r_lp_Energy>
48.3908

> <b_lp_Chiralities_Consistent>
1

> <s_lp_Variant>
AV-unprocessed.smi:2881-2

> <Gold.Version>
5.8.1

> <Gold.Id.Protein>
6NUR|6NUR_protein|mol2

> <Gold.PLP.Fitness>
39.1250

> <Gold.PLP.PLP>
-31.8978

> <Gold.PLP.part.hbond>
-5.0000

> <Gold.PLP.part.metal>
0.0000

> <Gold.PLP.part.buried>
-2.0596

> <Gold.PLP.part.nonpolar>
-25.0705

> <Gold.PLP.part.repulsive>
0.2251

> <Gold.PLP.ligand.clash>
0.0000

> <Gold.PLP.ligand.torsion>
0.6051

> <Gold.PLP.Chemscore.Hbond>
2.8080

> <Gold.PLP.Chemscore.CHOScore>
0.0000

> <Gold.PLP.Chemscore.Metal>
0.0000

> <Gold.Chemscore.Hbonds>
donor molecule, donor type, donor heavy atom, donor atom, acceptor molecule, acceptor atom, score
      L1  H    17    40       P1  7948  1.00
      P1  H  6931  6943       L1    18  0.99
      P1  H  6934  6947       L1    18  0.83

> <Gold.PLP.Chemscore.Internal.Correction>
0.0134

> <Gold.Rescore>
     Score         DG    S(hbond)    S(metal)    S(lipo)     H(rot)  DE(clash)    DE(int)     intcor
     14.45     -16.52       2.61        0.00      69.61       2.28       0.01       2.06       ----

> <Gold.Chemscore.Fitness>
14.4513

> <Gold.Chemscore.DG>
-16.5201

> <Gold.Chemscore.ZeroCoef>
-5.4800

> <Gold.Chemscore.Hbond>
2.6109

> <Gold.Chemscore.Metal>
0.0000

> <Gold.Chemscore.Lipo>
69.6147

> <Gold.Chemscore.Internal_Hbond>
0.0000

> <Gold.Chemscore.DEClash>
0.0077

> <Gold.Chemscore.DEInternal>
2.0611

> <Gold.Chemscore.Rot>
2.2755

> <Gold.Chemscore.Internal.Correction>
   9.000000E+99

> <Gold.Chemscore.Hbonds>
donor molecule, donor type, donor heavy atom, donor atom, acceptor molecule, acceptor atom, score
      L1  H    17    40       P1  7948  0.93
      P1  H  6931  6943       L1    18  0.82
      P1  H  6934  6947       L1    18  0.58

> <Gold.Chemscore.Hbond.Weighted>
-8.7204

> <Gold.Chemscore.Metal.Weighted>
-0.0000

> <Gold.Chemscore.Lipo.Weighted>
-8.1449

> <Gold.Chemscore.Internal_Hbond.Weighted>
0.0000

> <Gold.Chemscore.DEClash.Weighted>
0.0077

> <Gold.Chemscore.DEInternal.Weighted>
2.0611

> <Gold.Chemscore.Rot.Weighted>
5.8252

> <Gold.Chemscore.Internal.Correction.Weighted>
   9.000000E+99

> <Gold.Protein.RotatedTorsions>
[ 6907 6896 6895 6894 ] final  -36.64 input  -60.11 | X-H torsion
[ 7974 7965 7964 7962 ] final  141.73 input  175.53 | X-H torsion
[ 8008 7997 7996 7995 ] final  100.13 input   59.86 | X-H torsion
[ 10167 10162 10161 10158 ] final  110.72 input  -65.29 | X-H torsion
[ 10718 10713 10712 10709 ] final  -30.07 input   66.30 | X-H torsion
[ 10763 10752 10751 10750 ] final  104.01 input  -60.55 | X-H torsion
[ 11005 11000 10999 10996 ] final  152.59 input  -57.11 | X-H torsion

> <Gold.Protein.ActiveResidues>
 VAL166  LYS551  ARG553  GLY616  TRP617  ASP618  TYR619  PRO620  LYS621  CYS622 
 ASP623  PHE694  ASN695  SER759  ASP760  ASP761  ALA762  ILE779  LEU786  VAL792 
 PHE793  MET794  SER795  GLU796  ALA797  LYS798  CYS799  TRP800  GLU811  SER814 

> <Gold.Protein.RotatedAtoms>
  151.0246  134.9494  159.8077 H   0  0  0  0  0  0  0  0  0  0  0  0  # atno 6907 bound_to 6896
  152.5332  134.2859  159.9035 H   0  0  0  0  0  0  0  0  0  0  0  0  # atno 6908 bound_to 6896
  151.2867  133.4142  159.2664 H   0  0  0  0  0  0  0  0  0  0  0  0  # atno 6909 bound_to 6896
  144.9070  139.5345  143.5727 H   0  0  0  0  0  0  0  0  0  0  0  0  # atno 7974 bound_to 7965
  156.1173  140.3218  155.8157 H   0  0  0  0  0  0  0  0  0  0  0  0  # atno 8008 bound_to 7997
  155.4567  140.0536  157.3012 H   0  0  0  0  0  0  0  0  0  0  0  0  # atno 8009 bound_to 7997
  154.4802  140.2049  155.9796 H   0  0  0  0  0  0  0  0  0  0  0  0  # atno 8010 bound_to 7997
  139.6666  144.7127  151.1765 H   0  0  0  0  0  0  0  0  0  0  0  0  # atno 10167 bound_to 10162
  156.4044  130.4396  149.7298 H   0  0  0  0  0  0  0  0  0  0  0  0  # atno 10718 bound_to 10713
  153.3603  135.3957  155.1713 H   0  0  0  0  0  0  0  0  0  0  0  0  # atno 10763 bound_to 10752
  154.8678  135.3678  154.5108 H   0  0  0  0  0  0  0  0  0  0  0  0  # atno 10764 bound_to 10752
  153.5567  135.7082  153.5626 H   0  0  0  0  0  0  0  0  0  0  0  0  # atno 10765 bound_to 10752
  140.1321  134.8795  157.2218 H   0  0  0  0  0  0  0  0  0  0  0  0  # atno 11005 bound_to 11000
  146.3139  139.7846  142.8999 LP  0  0  0  0  0  0  0  0  0  0  0  0  # atno 17320 bound_to 7965
  145.3519  141.0309  143.3334 LP  0  0  0  0  0  0  0  0  0  0  0  0  # atno 17321 bound_to 7965
  140.7602  143.5909  150.8797 LP  0  0  0  0  0  0  0  0  0  0  0  0  # atno 17342 bound_to 10162
  139.9571  143.6206  152.3013 LP  0  0  0  0  0  0  0  0  0  0  0  0  # atno 17343 bound_to 10162
  156.4301  130.7811  151.2831 LP  0  0  0  0  0  0  0  0  0  0  0  0  # atno 17370 bound_to 10713
  157.7505  131.0156  150.3512 LP  0  0  0  0  0  0  0  0  0  0  0  0  # atno 17371 bound_to 10713
  140.2829  134.3329  155.7338 LP  0  0  0  0  0  0  0  0  0  0  0  0  # atno 17394 bound_to 11000
  141.2172  133.7489  156.9390 LP  0  0  0  0  0  0  0  0  0  0  0  0  # atno 17395 bound_to 11000

$$$$
