AV-unprocessed.smi:39|AV-procd|sdf|365|dock1
  -GOLD-   2262016203D 1   1.00000     0.00000
 Structure written by MMmdl.
 31 32  0  0  0  0  0  0  0  0  4 V2000
  151.0828  143.4141  158.5004 C   0  0  0  0  0  0  0  0  0  0  0  0
  151.3076  142.1928  157.6261 C   0  0  0  0  0  0  0  0  0  0  0  0
  150.6273  141.9945  156.4750 C   0  0  0  0  0  0  0  0  0  0  0  0
  150.8331  140.8769  155.6826 N   0  0  0  0  0  0  0  0  0  0  0  0
  150.0628  140.6545  154.3953 C   0  0  1  0  0  0  0  0  0  0  0  0
  149.2122  139.3764  154.4885 C   0  0  0  0  0  0  0  0  0  0  0  0
  147.8359  139.8610  154.0616 C   0  0  1  0  0  0  0  0  0  0  0  0
  146.7461  139.0877  154.6616 N   0  0  0  0  0  0  0  0  0  0  0  0
  146.7106  139.0556  155.8984 N   0  3  0  0  0  0  0  0  0  0  0  0
  146.5587  138.9900  157.0242 N   0  5  0  0  0  0  0  0  0  0  0  0
  147.8565  141.3122  154.5415 C   0  0  2  0  0  0  0  0  0  0  0  0
  146.8258  142.2093  153.8392 C   0  0  0  0  0  0  0  0  0  0  0  0
  145.5262  141.9066  154.2997 O   0  0  0  0  0  0  0  0  0  0  0  0
  149.1737  141.7128  154.1788 O   0  0  0  0  0  0  0  0  0  0  0  0
  151.7991  139.9124  156.0724 C   0  0  0  0  0  0  0  0  0  0  0  0
  151.9696  138.9374  155.3396 O   0  0  0  0  0  0  0  0  0  0  0  0
  152.4891  140.1033  157.2324 N   0  5  0  0  0  0  0  0  0  0  0  0
  152.2950  141.1876  158.0365 C   0  0  0  0  0  0  0  0  0  0  0  0
  152.9199  141.3439  159.0852 O   0  0  0  0  0  0  0  0  0  0  0  0
  150.8108  140.6405  153.6008 H   0  0  0  0  0  0  0  0  0  0  0  0
  147.7743  139.8498  152.9712 H   0  0  0  0  0  0  0  0  0  0  0  0
  147.7344  141.3447  155.6262 H   0  0  0  0  0  0  0  0  0  0  0  0
  150.3375  144.0812  158.0665 H   0  0  0  0  0  0  0  0  0  0  0  0
  152.0106  143.9750  158.6175 H   0  0  0  0  0  0  0  0  0  0  0  0
  150.7337  143.1148  159.4892 H   0  0  0  0  0  0  0  0  0  0  0  0
  149.9057  142.7396  156.1781 H   0  0  0  0  0  0  0  0  0  0  0  0
  149.6121  138.5945  153.8423 H   0  0  0  0  0  0  0  0  0  0  0  0
  149.1979  139.0106  155.5170 H   0  0  0  0  0  0  0  0  0  0  0  0
  147.0485  143.2655  153.9929 H   0  0  0  0  0  0  0  0  0  0  0  0
  146.8408  142.0283  152.7640 H   0  0  0  0  0  0  0  0  0  0  0  0
  145.1109  141.3347  153.6728 H   0  0  0  0  0  0  0  0  0  0  0  0
  1  2  1  0  0  0  0
  1 23  1  0  0  0  0
  1 24  1  0  0  0  0
  1 25  1  0  0  0  0
  2 18  1  0  0  0  0
  2  3  2  0  0  0  0
  3  4  1  0  0  0  0
  3 26  1  0  0  0  0
  4  5  1  0  0  0  0
  4 15  1  0  0  0  0
  5 20  1  0  0  0  0
  5 14  1  0  0  0  0
  5  6  1  0  0  0  0
  6  7  1  0  0  0  0
  6 27  1  0  0  0  0
  6 28  1  0  0  0  0
  7 21  1  0  0  0  0
  7  8  1  0  0  0  0
  7 11  1  0  0  0  0
  8  9  2  0  0  0  0
  9 10  2  0  0  0  0
 11 22  1  0  0  0  0
 11 12  1  0  0  0  0
 11 14  1  0  0  0  0
 12 13  1  0  0  0  0
 12 29  1  0  0  0  0
 12 30  1  0  0  0  0
 13 31  1  0  0  0  0
 15 16  2  0  0  0  0
 15 17  1  0  0  0  0
 17 18  1  0  0  0  0
 18 19  2  0  0  0  0
M  CHG  1   9   1
M  CHG  1  10  -1
M  CHG  1  17  -1
M  END
> <s_m_source_file>
AV-unprocessed.smi

> <i_m_source_file_index>
39

> <i_lp_mmshare_version>
43012

> <i_f3d_flags>
0

> <s_epik_input>
Tz1jMVtuSF1jKD1PKW4oW2NIXWMxW0NIM10pW0NASF0yW0NIMl1bQ0BIXShOPVtOK109W04tXSlbQ0BIXShPMilbQ0gyXVtPSF0=

> <s_epik_cmdline>
J2VwaWtfcHl0aG9uJywgJy1waCcsICc3LjAnLCAnLXRuJywgJzgnLCAnLW1hJywgJzIwMCcsICctbWV0YWxfYmluZGluZycsICctaW1hZScsICc8aW5maWxlLm1hZT4nLCAnLW9tYWUnLCAnPG91dGZpbGUubWFlPic=

> <r_lp_tautomer_probability>
0.999537

> <r_epik_Ionization_Penalty>
3.6393

> <r_epik_Ionization_Penalty_Charging>
9.76484e-08

> <r_epik_Ionization_Penalty_Neutral>
3.6393

> <r_epik_State_Penalty>
3.63887

> <r_epik_Charging_Adjusted_Penalty>
3.63887

> <i_epik_Tot_Q>
-1

> <i_epik_Tot_abs_Q>
3

> <r_epik_Metal_State_Penalty>
0.225911

> <b_epik_Metal_Only>
1

> <s_epik_Chemistry_Notes>
This compound contains an acetal/aminal-like group ( X-CH(R)-Y where X, Y are N, S, or O) that may be acid/base labile, releasing an aldehyde.

> <s_lp_Force_Field>
OPLS_2005

> <r_lp_Energy>
32.9978

> <b_lp_Chiralities_Consistent>
1

> <s_lp_Variant>
AV-unprocessed.smi:39-15

> <Gold.Version>
5.8.1

> <Gold.Id.Protein>
6NUR|6NUR_protein|mol2

> <Gold.PLP.Fitness>
41.6019

> <Gold.PLP.PLP>
-28.2156

> <Gold.PLP.part.hbond>
-3.6155

> <Gold.PLP.part.metal>
0.0000

> <Gold.PLP.part.buried>
-1.1172

> <Gold.PLP.part.nonpolar>
-22.5910

> <Gold.PLP.part.repulsive>
0.2961

> <Gold.PLP.ligand.clash>
0.0000

> <Gold.PLP.ligand.torsion>
0.0673

> <Gold.PLP.Chemscore.Hbond>
3.4950

> <Gold.PLP.Chemscore.CHOScore>
1.0000

> <Gold.PLP.Chemscore.Metal>
0.0000

> <Gold.Chemscore.Hbonds>
donor molecule, donor type, donor heavy atom, donor atom, acceptor molecule, acceptor atom, score
      L1  H    13    31       P1 10175  0.99
      P1  H  7997  8010       L1    17  2.00
      P1  H  8011  8017       L1    14  0.50
      L1  C     3    26       P1  8028  1.00

> <Gold.PLP.Chemscore.Internal.Correction>
0.0359

> <Gold.Rescore>
     Score         DG    S(hbond)    S(metal)    S(lipo)     H(rot)  DE(clash)    DE(int)     intcor
      5.93      -8.65       1.26        0.00      50.59       2.72       1.38       1.34       ----

> <Gold.Chemscore.Fitness>
5.9344

> <Gold.Chemscore.DG>
-8.6496

> <Gold.Chemscore.ZeroCoef>
-5.4800

> <Gold.Chemscore.Hbond>
1.2581

> <Gold.Chemscore.Metal>
0.0000

> <Gold.Chemscore.Lipo>
50.5884

> <Gold.Chemscore.Internal_Hbond>
0.0000

> <Gold.Chemscore.DEClash>
1.3790

> <Gold.Chemscore.DEInternal>
1.3362

> <Gold.Chemscore.Rot>
2.7153

> <Gold.Chemscore.Internal.Correction>
   9.000000E+99

> <Gold.Chemscore.Hbonds>
donor molecule, donor type, donor heavy atom, donor atom, acceptor molecule, acceptor atom, score
      L1  H    13    31       P1 10175  0.32
      P1  H  7997  8010       L1    17  0.23
      P1  H  8011  8017       L1    14  0.16

> <Gold.Chemscore.Hbond.Weighted>
-4.2019

> <Gold.Chemscore.Metal.Weighted>
-0.0000

> <Gold.Chemscore.Lipo.Weighted>
-5.9188

> <Gold.Chemscore.Internal_Hbond.Weighted>
0.0000

> <Gold.Chemscore.DEClash.Weighted>
1.3790

> <Gold.Chemscore.DEInternal.Weighted>
1.3362

> <Gold.Chemscore.Rot.Weighted>
6.9512

> <Gold.Chemscore.Internal.Correction.Weighted>
   9.000000E+99

> <Gold.Protein.RotatedTorsions>
[ 6907 6896 6895 6894 ] final   74.45 input  -60.11 | X-H torsion
[ 7974 7965 7964 7962 ] final  -79.38 input  175.53 | X-H torsion
[ 8008 7997 7996 7995 ] final   62.38 input   59.86 | X-H torsion
[ 10167 10162 10161 10158 ] final  -81.04 input  -65.29 | X-H torsion
[ 10718 10713 10712 10709 ] final  -21.96 input   66.30 | X-H torsion
[ 10763 10752 10751 10750 ] final  132.31 input  -60.55 | X-H torsion
[ 11005 11000 10999 10996 ] final  -99.79 input  -57.11 | X-H torsion

> <Gold.Protein.ActiveResidues>
 VAL166  LYS551  ARG553  GLY616  TRP617  ASP618  TYR619  PRO620  LYS621  CYS622 
 ASP623  PHE694  ASN695  SER759  ASP760  ASP761  ALA762  ILE779  LEU786  VAL792 
 PHE793  MET794  SER795  GLU796  ALA797  LYS798  CYS799  TRP800  GLU811  SER814 

> <Gold.Protein.RotatedAtoms>
  152.4976  134.4270  159.9499 H   0  0  0  0  0  0  0  0  0  0  0  0  # atno 6907 bound_to 6896
  151.4246  133.3682  159.2768 H   0  0  0  0  0  0  0  0  0  0  0  0  # atno 6908 bound_to 6896
  150.9198  134.8638  159.7541 H   0  0  0  0  0  0  0  0  0  0  0  0  # atno 6909 bound_to 6896
  145.5740  140.9461  143.1380 H   0  0  0  0  0  0  0  0  0  0  0  0  # atno 7974 bound_to 7965
  155.6134  140.3495  155.4629 H   0  0  0  0  0  0  0  0  0  0  0  0  # atno 8008 bound_to 7997
  156.0136  140.1238  157.0453 H   0  0  0  0  0  0  0  0  0  0  0  0  # atno 8009 bound_to 7997
  154.4289  140.1076  156.5850 H   0  0  0  0  0  0  0  0  0  0  0  0  # atno 8010 bound_to 7997
  140.4448  143.2502  151.8574 H   0  0  0  0  0  0  0  0  0  0  0  0  # atno 10167 bound_to 10162
  156.5110  130.4610  149.6648 H   0  0  0  0  0  0  0  0  0  0  0  0  # atno 10718 bound_to 10713
  153.7887  135.3158  155.3375 H   0  0  0  0  0  0  0  0  0  0  0  0  # atno 10763 bound_to 10752
  154.8134  135.4652  154.0580 H   0  0  0  0  0  0  0  0  0  0  0  0  # atno 10764 bound_to 10752
  153.1891  135.6905  153.8462 H   0  0  0  0  0  0  0  0  0  0  0  0  # atno 10765 bound_to 10752
  141.1295  133.8348  157.1017 H   0  0  0  0  0  0  0  0  0  0  0  0  # atno 11005 bound_to 11000
  144.7424  139.7411  143.7305 LP  0  0  0  0  0  0  0  0  0  0  0  0  # atno 17320 bound_to 7965
  146.1764  139.4936  142.9895 LP  0  0  0  0  0  0  0  0  0  0  0  0  # atno 17321 bound_to 7965
  139.4792  144.5188  151.8831 LP  0  0  0  0  0  0  0  0  0  0  0  0  # atno 17342 bound_to 10162
  140.4276  144.2159  150.5887 LP  0  0  0  0  0  0  0  0  0  0  0  0  # atno 17343 bound_to 10162
  156.3241  130.7296  151.2213 LP  0  0  0  0  0  0  0  0  0  0  0  0  # atno 17370 bound_to 10713
  157.7450  131.0448  150.4810 LP  0  0  0  0  0  0  0  0  0  0  0  0  # atno 17371 bound_to 10713
  140.0329  134.9892  157.0815 LP  0  0  0  0  0  0  0  0  0  0  0  0  # atno 17394 bound_to 11000
  140.4256  134.1834  155.7166 LP  0  0  0  0  0  0  0  0  0  0  0  0  # atno 17395 bound_to 11000

$$$$
