AV-unprocessed.smi:1702|AV-procd|sdf|6849|dock4
  -GOLD-   22720 8 23D 1   1.00000     0.00000
 Structure written by MMmdl.
 45 47  0  0  0  0  0  0  0  0  3 V2000
  144.7794  136.1348  151.1654 C   0  0  0  0  0  0  0  0  0  0  0  0
  145.4351  136.9887  152.2597 C   0  0  2  0  0  0  0  0  0  0  0  0
  146.4351  137.9978  151.6713 C   0  0  0  0  0  0  0  0  0  0  0  0
  147.1076  138.8278  152.7776 C   0  0  0  0  0  0  0  0  0  0  0  0
  147.7857  137.9503  153.7687 N   0  3  1  0  0  0  0  0  0  0  0  0
  148.5561  138.7023  154.7929 C   0  0  0  0  0  0  0  0  0  0  0  0
  150.0745  138.7391  154.5058 C   0  0  2  0  0  0  0  0  0  0  0  0
  150.5000  137.4543  154.0989 O   0  0  0  0  0  0  0  0  0  0  0  0
  150.9239  139.1298  155.7319 C   0  0  0  0  0  0  0  0  0  0  0  0
  150.7837  140.5449  156.1057 N   0  0  0  0  0  0  0  0  0  0  0  0
  150.0822  141.5360  155.4901 C   0  0  0  0  0  0  0  0  0  0  0  0
  150.2719  142.6800  156.2039 N   0  3  0  0  0  0  0  0  0  0  0  0
  151.1115  142.4196  157.2889 C   0  0  0  0  0  0  0  0  0  0  0  0
  151.5917  143.2581  158.2898 C   0  0  0  0  0  0  0  0  0  0  0  0
  152.4374  142.6748  159.2561 C   0  0  0  0  0  0  0  0  0  0  0  0
  152.9333  143.4460  160.2523 F   0  0  0  0  0  0  0  0  0  0  0  0
  152.7745  141.3059  159.2045 C   0  0  0  0  0  0  0  0  0  0  0  0
  153.5872  140.7843  160.1536 F   0  0  0  0  0  0  0  0  0  0  0  0
  152.2812  140.4655  158.1847 C   0  0  0  0  0  0  0  0  0  0  0  0
  151.4469  141.0500  157.2320 C   0  0  0  0  0  0  0  0  0  0  0  0
  146.8340  136.9868  154.3802 C   0  0  0  0  0  0  0  0  0  0  0  0
  146.1509  136.1208  153.3084 C   0  0  0  0  0  0  0  0  0  0  0  0
  145.5196  135.5455  150.6233 H   0  0  0  0  0  0  0  0  0  0  0  0
  144.2564  136.7597  150.4409 H   0  0  0  0  0  0  0  0  0  0  0  0
  144.0506  135.4438  151.5903 H   0  0  0  0  0  0  0  0  0  0  0  0
  144.6438  137.5473  152.7624 H   0  0  0  0  0  0  0  0  0  0  0  0
  147.1982  137.4717  151.0958 H   0  0  0  0  0  0  0  0  0  0  0  0
  145.9263  138.6630  150.9723 H   0  0  0  0  0  0  0  0  0  0  0  0
  147.8218  139.5090  152.3173 H   0  0  0  0  0  0  0  0  0  0  0  0
  146.3650  139.4461  153.2844 H   0  0  0  0  0  0  0  0  0  0  0  0
  148.1468  139.7107  154.8617 H   0  0  0  0  0  0  0  0  0  0  0  0
  148.4060  138.2465  155.7729 H   0  0  0  0  0  0  0  0  0  0  0  0
  150.2985  139.4390  153.7015 H   0  0  0  0  0  0  0  0  0  0  0  0
  149.9580  137.1605  153.3827 H   0  0  0  0  0  0  0  0  0  0  0  0
  150.6906  138.5010  156.5912 H   0  0  0  0  0  0  0  0  0  0  0  0
  151.9807  138.9647  155.5170 H   0  0  0  0  0  0  0  0  0  0  0  0
  149.4860  141.4350  154.5943 H   0  0  0  0  0  0  0  0  0  0  0  0
  151.3363  144.3069  158.3331 H   0  0  0  0  0  0  0  0  0  0  0  0
  152.5496  139.4200  158.1600 H   0  0  0  0  0  0  0  0  0  0  0  0
  147.3646  136.3357  155.0762 H   0  0  0  0  0  0  0  0  0  0  0  0
  146.0858  137.5289  154.9608 H   0  0  0  0  0  0  0  0  0  0  0  0
  145.4384  135.4452  153.7831 H   0  0  0  0  0  0  0  0  0  0  0  0
  146.8963  135.4900  152.8216 H   0  0  0  0  0  0  0  0  0  0  0  0
  148.4562  137.3920  153.2602 H   0  0  0  0  0  0  0  0  0  0  0  0
  149.8628  143.5737  155.9614 H   0  0  0  0  0  0  0  0  0  0  0  0
  1  2  1  0  0  0  0
  1 23  1  0  0  0  0
  1 24  1  0  0  0  0
  1 25  1  0  0  0  0
  2 22  1  0  0  0  0
  2  3  1  0  0  0  0
  2 26  1  0  0  0  0
  3  4  1  0  0  0  0
  3 27  1  0  0  0  0
  3 28  1  0  0  0  0
  4  5  1  0  0  0  0
  4 29  1  0  0  0  0
  4 30  1  0  0  0  0
  5  6  1  0  0  0  0
  5 21  1  0  0  0  0
  5 44  1  0  0  0  0
  6  7  1  0  0  0  0
  6 31  1  0  0  0  0
  6 32  1  0  0  0  0
  7  8  1  0  0  0  0
  7  9  1  0  0  0  0
  7 33  1  0  0  0  0
  8 34  1  0  0  0  0
  9 10  1  0  0  0  0
  9 35  1  0  0  0  0
  9 36  1  0  0  0  0
 10 20  1  0  0  0  0
 10 11  1  0  0  0  0
 11 12  2  0  0  0  0
 11 37  1  0  0  0  0
 12 13  1  0  0  0  0
 12 45  1  0  0  0  0
 13 20  2  0  0  0  0
 13 14  1  0  0  0  0
 14 15  2  0  0  0  0
 14 38  1  0  0  0  0
 15 16  1  0  0  0  0
 15 17  1  0  0  0  0
 17 18  1  0  0  0  0
 17 19  2  0  0  0  0
 19 20  1  0  0  0  0
 19 39  1  0  0  0  0
 21 22  1  0  0  0  0
 21 40  1  0  0  0  0
 21 41  1  0  0  0  0
 22 42  1  0  0  0  0
 22 43  1  0  0  0  0
M  CHG  1   5   1
M  CHG  1  12   1
M  END
> <s_m_source_file>
AV-unprocessed.smi

> <i_m_source_file_index>
1702

> <i_lp_mmshare_version>
43012

> <i_f3d_flags>
0

> <s_epik_input>
W0NIM11bQ0hdMVtDSDJdW0NIMl1OKFtDSDJdW0NIMl0xKVtDSDJdW0NASF0oW09IXSlbQ0gyXW4oW2NIXW4yKWMoYzIzKVtjSF1jKEYpYyhGKVtjSF0z

> <s_epik_cmdline>
J2VwaWtfcHl0aG9uJywgJy1waCcsICc3LjAnLCAnLXRuJywgJzgnLCAnLW1hJywgJzIwMCcsICctbWV0YWxfYmluZGluZycsICctaW1hZScsICc8aW5maWxlLm1hZT4nLCAnLW9tYWUnLCAnPG91dGZpbGUubWFlPic=

> <r_epik_Ionization_Penalty>
2.33291

> <r_epik_Ionization_Penalty_Charging>
2.33291

> <r_epik_Ionization_Penalty_Neutral>
6.90208e-07

> <r_epik_State_Penalty>
2.4838

> <r_epik_Charging_Adjusted_Penalty>
4.81672

> <i_epik_Tot_Q>
2

> <i_epik_Tot_abs_Q>
2

> <r_epik_Metal_State_Penalty>
6.56754

> <b_epik_Metal_Only>
0

> <s_lp_Force_Field>
OPLS_2005

> <r_lp_Energy>
33.9441

> <b_lp_Chiralities_Consistent>
1

> <s_lp_Variant>
AV-unprocessed.smi:1702-5

> <Gold.Version>
5.8.1

> <Gold.Id.Protein>
6NUR|6NUR_protein|mol2

> <Gold.PLP.Fitness>
57.2336

> <Gold.PLP.PLP>
-43.8358

> <Gold.PLP.part.hbond>
-3.9714

> <Gold.PLP.part.metal>
0.0000

> <Gold.PLP.part.buried>
-2.0091

> <Gold.PLP.part.nonpolar>
-39.5568

> <Gold.PLP.part.repulsive>
0.1158

> <Gold.PLP.ligand.clash>
0.0000

> <Gold.PLP.ligand.torsion>
0.8348

> <Gold.PLP.Chemscore.Hbond>
5.0000

> <Gold.PLP.Chemscore.CHOScore>
0.0000

> <Gold.PLP.Chemscore.Metal>
0.0000

> <Gold.Chemscore.Hbonds>
donor molecule, donor type, donor heavy atom, donor atom, acceptor molecule, acceptor atom, score
      L1  H     5    44       P1  7948  2.00
      L1  H     8    34       P1  7948  1.00
      L1  H    12    45       P1  8028  2.00

> <Gold.PLP.Chemscore.Internal.Correction>
0.0675

> <Gold.Rescore>
     Score         DG    S(hbond)    S(metal)    S(lipo)     H(rot)  DE(clash)    DE(int)     intcor
     17.90     -19.96       2.64        0.00      99.14       2.32       1.31       0.76       ----

> <Gold.Chemscore.Fitness>
17.8960

> <Gold.Chemscore.DG>
-19.9640

> <Gold.Chemscore.ZeroCoef>
-5.4800

> <Gold.Chemscore.Hbond>
2.6427

> <Gold.Chemscore.Metal>
0.0000

> <Gold.Chemscore.Lipo>
99.1362

> <Gold.Chemscore.Internal_Hbond>
0.0000

> <Gold.Chemscore.DEClash>
1.3055

> <Gold.Chemscore.DEInternal>
0.7625

> <Gold.Chemscore.Rot>
2.3210

> <Gold.Chemscore.Internal.Correction>
   9.000000E+99

> <Gold.Chemscore.Hbonds>
donor molecule, donor type, donor heavy atom, donor atom, acceptor molecule, acceptor atom, score
      L1  H     5    44       P1  7948  0.97
      L1  H     8    34       P1  7948  0.33
      L1  H    12    45       P1  8028  0.93

> <Gold.Chemscore.Hbond.Weighted>
-8.8267

> <Gold.Chemscore.Metal.Weighted>
-0.0000

> <Gold.Chemscore.Lipo.Weighted>
-11.5989

> <Gold.Chemscore.Internal_Hbond.Weighted>
0.0000

> <Gold.Chemscore.DEClash.Weighted>
1.3055

> <Gold.Chemscore.DEInternal.Weighted>
0.7625

> <Gold.Chemscore.Rot.Weighted>
5.9416

> <Gold.Chemscore.Internal.Correction.Weighted>
   9.000000E+99

> <Gold.Protein.RotatedTorsions>
[ 6907 6896 6895 6894 ] final  -82.38 input  -60.11 | X-H torsion
[ 7974 7965 7964 7962 ] final  -91.19 input  175.53 | X-H torsion
[ 8008 7997 7996 7995 ] final  -85.01 input   59.86 | X-H torsion
[ 10167 10162 10161 10158 ] final  -37.63 input  -65.29 | X-H torsion
[ 10718 10713 10712 10709 ] final   40.16 input   66.30 | X-H torsion
[ 10763 10752 10751 10750 ] final -160.70 input  -60.55 | X-H torsion
[ 11005 11000 10999 10996 ] final   -2.71 input  -57.11 | X-H torsion

> <Gold.Protein.ActiveResidues>
 VAL166  LYS551  ARG553  GLY616  TRP617  ASP618  TYR619  PRO620  LYS621  CYS622 
 ASP623  PHE694  ASN695  SER759  ASP760  ASP761  ALA762  ILE779  LEU786  VAL792 
 PHE793  MET794  SER795  GLU796  ALA797  LYS798  CYS799  TRP800  GLU811  SER814 

> <Gold.Protein.RotatedAtoms>
  150.6898  134.3674  159.4976 H   0  0  0  0  0  0  0  0  0  0  0  0  # atno 6907 bound_to 6896
  152.1494  134.8997  160.0558 H   0  0  0  0  0  0  0  0  0  0  0  0  # atno 6908 bound_to 6896
  152.0100  133.3823  159.4253 H   0  0  0  0  0  0  0  0  0  0  0  0  # atno 6909 bound_to 6896
  145.4165  140.9548  143.2205 H   0  0  0  0  0  0  0  0  0  0  0  0  # atno 7974 bound_to 7965
  154.6361  140.0597  156.9790 H   0  0  0  0  0  0  0  0  0  0  0  0  # atno 8008 bound_to 7997
  155.1590  140.3281  155.4397 H   0  0  0  0  0  0  0  0  0  0  0  0  # atno 8009 bound_to 7997
  156.2507  140.1934  156.6698 H   0  0  0  0  0  0  0  0  0  0  0  0  # atno 8010 bound_to 7997
  140.7113  143.3329  151.2528 H   0  0  0  0  0  0  0  0  0  0  0  0  # atno 10167 bound_to 10162
  157.3789  130.7742  149.7177 H   0  0  0  0  0  0  0  0  0  0  0  0  # atno 10718 bound_to 10713
  154.7367  135.3059  154.8798 H   0  0  0  0  0  0  0  0  0  0  0  0  # atno 10763 bound_to 10752
  153.9625  135.6751  153.4749 H   0  0  0  0  0  0  0  0  0  0  0  0  # atno 10764 bound_to 10752
  153.0970  135.4931  154.8719 H   0  0  0  0  0  0  0  0  0  0  0  0  # atno 10765 bound_to 10752
  140.6613  133.9317  155.8438 H   0  0  0  0  0  0  0  0  0  0  0  0  # atno 11005 bound_to 11000
  144.8274  139.5687  143.6959 LP  0  0  0  0  0  0  0  0  0  0  0  0  # atno 17320 bound_to 7965
  146.2678  139.6562  142.9317 LP  0  0  0  0  0  0  0  0  0  0  0  0  # atno 17321 bound_to 7965
  139.6816  143.9844  152.2811 LP  0  0  0  0  0  0  0  0  0  0  0  0  # atno 17342 bound_to 10162
  139.9476  144.6641  150.8203 LP  0  0  0  0  0  0  0  0  0  0  0  0  # atno 17343 bound_to 10162
  155.9771  130.4067  150.3732 LP  0  0  0  0  0  0  0  0  0  0  0  0  # atno 17370 bound_to 10713
  157.1833  131.0397  151.2737 LP  0  0  0  0  0  0  0  0  0  0  0  0  # atno 17371 bound_to 10713
  141.0463  134.0549  157.3840 LP  0  0  0  0  0  0  0  0  0  0  0  0  # atno 17394 bound_to 11000
  139.9012  135.0165  156.7276 LP  0  0  0  0  0  0  0  0  0  0  0  0  # atno 17395 bound_to 11000

$$$$
