AV-unprocessed.smi:1830|AV-procd|sdf|7440|dock8
  -GOLD-   22720 9123D 1   1.00000     0.00000
 Structure written by MMmdl.
 52 55  0  0  0  0  0  0  0  0  1 V2000
  150.1919  136.9980  159.7582 O   0  0  0  0  0  0  0  0  0  0  0  0
  149.1789  137.4010  159.1885 C   0  0  0  0  0  0  0  0  0  0  0  0
  149.2024  138.2880  158.1839 N   0  0  0  0  0  0  0  0  0  0  0  0
  150.4008  138.9280  157.6514 C   0  0  0  0  0  0  0  0  0  0  0  0
  150.8076  140.1500  158.4920 C   0  0  2  0  0  0  0  0  0  0  0  0
  150.7513  141.4598  157.6721 C   0  0  0  0  0  0  0  0  0  0  0  0
  151.2420  142.5637  158.4750 N   0  0  0  0  0  0  0  0  0  0  0  0
  151.3235  143.8558  157.8346 C   0  0  0  0  0  0  0  0  0  0  0  0
  152.2328  144.6808  158.7627 C   0  0  0  0  0  0  0  0  0  0  0  0
  153.0083  143.6246  159.5814 C   0  0  0  0  0  0  0  0  0  0  0  0
  152.5842  142.3101  158.9244 C   0  0  1  0  0  0  0  0  0  0  0  0
  152.6397  141.0353  159.7779 C   0  0  0  0  0  0  0  0  0  0  0  0
  152.1388  139.9552  158.9873 O   0  0  0  0  0  0  0  0  0  0  0  0
  147.9168  137.0362  159.4726 N   0  0  0  0  0  0  0  0  0  0  0  0
  147.4136  136.1562  160.4778 C   0  0  0  0  0  0  0  0  0  0  0  0
  147.9219  136.0994  161.8001 C   0  0  0  0  0  0  0  0  0  0  0  0
  147.3511  135.2015  162.7198 C   0  0  0  0  0  0  0  0  0  0  0  0
  146.2917  134.3858  162.2886 C   0  0  0  0  0  0  0  0  0  0  0  0
  145.7988  134.4219  161.0349 N   0  0  0  0  0  0  0  0  0  0  0  0
  146.3385  135.2877  160.1421 C   0  0  0  0  0  0  0  0  0  0  0  0
  145.8214  135.2745  158.8295 N   0  0  0  0  0  0  0  0  0  0  0  0
  146.0048  133.9955  158.1488 C   0  0  0  0  0  0  0  0  0  0  0  0
  144.7417  133.7594  157.3181 C   0  0  0  0  0  0  0  0  0  0  0  0
  143.6764  134.5326  158.0850 C   0  0  0  0  0  0  0  0  0  0  0  0
  144.4553  135.7416  158.5993 C   0  0  0  0  0  0  0  0  0  0  0  0
  148.3220  138.5634  157.7743 H   0  0  0  0  0  0  0  0  0  0  0  0
  151.2267  138.2183  157.5776 H   0  0  0  0  0  0  0  0  0  0  0  0
  150.1752  139.2430  156.6323 H   0  0  0  0  0  0  0  0  0  0  0  0
  150.1299  140.2369  159.3434 H   0  0  0  0  0  0  0  0  0  0  0  0
  151.3541  141.3584  156.7682 H   0  0  0  0  0  0  0  0  0  0  0  0
  149.7287  141.6609  157.3509 H   0  0  0  0  0  0  0  0  0  0  0  0
  151.7858  143.7600  156.8508 H   0  0  0  0  0  0  0  0  0  0  0  0
  150.3381  144.3038  157.7037 H   0  0  0  0  0  0  0  0  0  0  0  0
  152.8999  145.3243  158.1885 H   0  0  0  0  0  0  0  0  0  0  0  0
  151.6427  145.3151  159.4252 H   0  0  0  0  0  0  0  0  0  0  0  0
  154.0878  143.7730  159.5455 H   0  0  0  0  0  0  0  0  0  0  0  0
  152.6951  143.6534  160.6260 H   0  0  0  0  0  0  0  0  0  0  0  0
  153.2239  142.1567  158.0525 H   0  0  0  0  0  0  0  0  0  0  0  0
  153.6639  140.8171  160.0804 H   0  0  0  0  0  0  0  0  0  0  0  0
  152.0441  141.1398  160.6861 H   0  0  0  0  0  0  0  0  0  0  0  0
  147.2039  137.4768  158.9099 H   0  0  0  0  0  0  0  0  0  0  0  0
  148.7368  136.7167  162.1397 H   0  0  0  0  0  0  0  0  0  0  0  0
  147.7195  135.1400  163.7330 H   0  0  0  0  0  0  0  0  0  0  0  0
  145.8295  133.6836  162.9665 H   0  0  0  0  0  0  0  0  0  0  0  0
  146.8959  134.0102  157.5210 H   0  0  0  0  0  0  0  0  0  0  0  0
  146.1249  133.1927  158.8784 H   0  0  0  0  0  0  0  0  0  0  0  0
  144.8658  134.1906  156.3239 H   0  0  0  0  0  0  0  0  0  0  0  0
  144.5027  132.7021  157.2009 H   0  0  0  0  0  0  0  0  0  0  0  0
  142.8199  134.8084  157.4695 H   0  0  0  0  0  0  0  0  0  0  0  0
  143.3161  133.9370  158.9249 H   0  0  0  0  0  0  0  0  0  0  0  0
  143.9801  136.1911  159.4714 H   0  0  0  0  0  0  0  0  0  0  0  0
  144.4949  136.5123  157.8290 H   0  0  0  0  0  0  0  0  0  0  0  0
  1  2  2  0  0  0  0
  2  3  1  0  0  0  0
  2 14  1  0  0  0  0
  3  4  1  0  0  0  0
  3 26  1  0  0  0  0
  4  5  1  0  0  0  0
  4 27  1  0  0  0  0
  4 28  1  0  0  0  0
  5 13  1  0  0  0  0
  5  6  1  0  0  0  0
  5 29  1  0  0  0  0
  6  7  1  0  0  0  0
  6 30  1  0  0  0  0
  6 31  1  0  0  0  0
  7 11  1  0  0  0  0
  7  8  1  0  0  0  0
  8  9  1  0  0  0  0
  8 32  1  0  0  0  0
  8 33  1  0  0  0  0
  9 10  1  0  0  0  0
  9 34  1  0  0  0  0
  9 35  1  0  0  0  0
 10 11  1  0  0  0  0
 10 36  1  0  0  0  0
 10 37  1  0  0  0  0
 11 12  1  0  0  0  0
 11 38  1  0  0  0  0
 12 13  1  0  0  0  0
 12 39  1  0  0  0  0
 12 40  1  0  0  0  0
 14 15  1  0  0  0  0
 14 41  1  0  0  0  0
 15 20  1  0  0  0  0
 15 16  2  0  0  0  0
 16 17  1  0  0  0  0
 16 42  1  0  0  0  0
 17 18  2  0  0  0  0
 17 43  1  0  0  0  0
 18 19  1  0  0  0  0
 18 44  1  0  0  0  0
 19 20  2  0  0  0  0
 20 21  1  0  0  0  0
 21 25  1  0  0  0  0
 21 22  1  0  0  0  0
 22 23  1  0  0  0  0
 22 45  1  0  0  0  0
 22 46  1  0  0  0  0
 23 24  1  0  0  0  0
 23 47  1  0  0  0  0
 23 48  1  0  0  0  0
 24 25  1  0  0  0  0
 24 49  1  0  0  0  0
 24 50  1  0  0  0  0
 25 51  1  0  0  0  0
 25 52  1  0  0  0  0
M  END
> <s_m_source_file>
AV-unprocessed.smi

> <i_m_source_file_index>
1830

> <i_lp_mmshare_version>
43012

> <i_f3d_flags>
0

> <s_epik_input>
W0NIMl0xW0NIMl1bQ0gyXVtDQEhdKE4xMilbQ0gyXU9bQ0BASF0oW0NIMl0yKVtDSDJdW05IXUMoPU8pW05IXWMzW2NIXVtjSF1bY0hdbmMzTjRbQ0gyXVtDSDJdW0NIMl1bQ0gyXTQ=

> <s_epik_cmdline>
J2VwaWtfcHl0aG9uJywgJy1waCcsICc3LjAnLCAnLXRuJywgJzgnLCAnLW1hJywgJzIwMCcsICctbWV0YWxfYmluZGluZycsICctaW1hZScsICc8aW5maWxlLm1hZT4nLCAnLW9tYWUnLCAnPG91dGZpbGUubWFlPic=

> <r_lp_tautomer_probability>
1

> <r_epik_Ionization_Penalty>
1.16487

> <r_epik_Ionization_Penalty_Charging>
0

> <r_epik_Ionization_Penalty_Neutral>
1.16487

> <r_epik_State_Penalty>
1.21807

> <r_epik_Charging_Adjusted_Penalty>
1.21807

> <i_epik_Tot_Q>
0

> <i_epik_Tot_abs_Q>
0

> <r_epik_Metal_State_Penalty>
1.19922

> <b_epik_Metal_Only>
0

> <s_lp_Force_Field>
OPLS_2005

> <r_lp_Energy>
77.1598

> <b_lp_Chiralities_Consistent>
1

> <s_lp_Variant>
AV-unprocessed.smi:1830-9

> <Gold.Version>
5.8.1

> <Gold.Id.Protein>
6NUR|6NUR_protein|mol2

> <Gold.PLP.Fitness>
41.2084

> <Gold.PLP.PLP>
-40.6463

> <Gold.PLP.part.hbond>
-1.3982

> <Gold.PLP.part.metal>
0.0000

> <Gold.PLP.part.buried>
-6.3867

> <Gold.PLP.part.nonpolar>
-34.4148

> <Gold.PLP.part.repulsive>
0.3343

> <Gold.PLP.ligand.clash>
0.0000

> <Gold.PLP.ligand.torsion>
1.2768

> <Gold.PLP.Chemscore.Hbond>
1.0000

> <Gold.PLP.Chemscore.CHOScore>
0.0000

> <Gold.PLP.Chemscore.Metal>
0.0000

> <Gold.Chemscore.Hbonds>
donor molecule, donor type, donor heavy atom, donor atom, acceptor molecule, acceptor atom, score
      P1  H  6896  6909       L1     1  0.75

> <Gold.PLP.Chemscore.Internal.Correction>
0.1157

> <Gold.Rescore>
     Score         DG    S(hbond)    S(metal)    S(lipo)     H(rot)  DE(clash)    DE(int)     intcor
     15.90     -17.73       1.00        0.00     106.35       1.37       0.03       1.80       ----

> <Gold.Chemscore.Fitness>
15.9028

> <Gold.Chemscore.DG>
-17.7350

> <Gold.Chemscore.ZeroCoef>
-5.4800

> <Gold.Chemscore.Hbond>
0.9973

> <Gold.Chemscore.Metal>
0.0000

> <Gold.Chemscore.Lipo>
106.3495

> <Gold.Chemscore.Internal_Hbond>
0.0000

> <Gold.Chemscore.DEClash>
0.0311

> <Gold.Chemscore.DEInternal>
1.8011

> <Gold.Chemscore.Rot>
1.3746

> <Gold.Chemscore.Internal.Correction>
   9.000000E+99

> <Gold.Chemscore.Hbonds>
donor molecule, donor type, donor heavy atom, donor atom, acceptor molecule, acceptor atom, score
      P1  H  6896  6909       L1     1  0.75

> <Gold.Chemscore.Hbond.Weighted>
-3.3309

> <Gold.Chemscore.Metal.Weighted>
-0.0000

> <Gold.Chemscore.Lipo.Weighted>
-12.4429

> <Gold.Chemscore.Internal_Hbond.Weighted>
0.0000

> <Gold.Chemscore.DEClash.Weighted>
0.0311

> <Gold.Chemscore.DEInternal.Weighted>
1.8011

> <Gold.Chemscore.Rot.Weighted>
3.5189

> <Gold.Chemscore.Internal.Correction.Weighted>
   9.000000E+99

> <Gold.Protein.RotatedTorsions>
[ 6907 6896 6895 6894 ] final   95.20 input  -60.11 | X-H torsion
[ 7974 7965 7964 7962 ] final  -33.03 input  175.53 | X-H torsion
[ 8008 7997 7996 7995 ] final  153.52 input   59.86 | X-H torsion
[ 10167 10162 10161 10158 ] final  -18.21 input  -65.29 | X-H torsion
[ 10718 10713 10712 10709 ] final  -33.39 input   66.30 | X-H torsion
[ 10763 10752 10751 10750 ] final  -36.49 input  -60.55 | X-H torsion
[ 11005 11000 10999 10996 ] final -104.78 input  -57.11 | X-H torsion

> <Gold.Protein.ActiveResidues>
 VAL166  LYS551  ARG553  GLY616  TRP617  ASP618  TYR619  PRO620  LYS621  CYS622 
 ASP623  PHE694  ASN695  SER759  ASP760  ASP761  ALA762  ILE779  LEU786  VAL792 
 PHE793  MET794  SER795  GLU796  ALA797  LYS798  CYS799  TRP800  GLU811  SER814 

> <Gold.Protein.RotatedAtoms>
  152.5445  134.1077  159.8344 H   0  0  0  0  0  0  0  0  0  0  0  0  # atno 6907 bound_to 6896
  151.1147  133.5140  159.2611 H   0  0  0  0  0  0  0  0  0  0  0  0  # atno 6908 bound_to 6896
  151.1845  135.0385  159.8861 H   0  0  0  0  0  0  0  0  0  0  0  0  # atno 6909 bound_to 6896
  146.0943  140.5866  142.8850 H   0  0  0  0  0  0  0  0  0  0  0  0  # atno 7974 bound_to 7965
  156.2577  140.1991  156.6503 H   0  0  0  0  0  0  0  0  0  0  0  0  # atno 8008 bound_to 7997
  154.6542  140.0568  157.0014 H   0  0  0  0  0  0  0  0  0  0  0  0  # atno 8009 bound_to 7997
  155.1373  140.3239  155.4463 H   0  0  0  0  0  0  0  0  0  0  0  0  # atno 8010 bound_to 7997
  140.7256  143.4939  150.9956 H   0  0  0  0  0  0  0  0  0  0  0  0  # atno 10167 bound_to 10162
  156.3633  130.4327  149.7606 H   0  0  0  0  0  0  0  0  0  0  0  0  # atno 10718 bound_to 10713
  153.8806  135.6822  153.4767 H   0  0  0  0  0  0  0  0  0  0  0  0  # atno 10763 bound_to 10752
  153.1236  135.4729  154.9233 H   0  0  0  0  0  0  0  0  0  0  0  0  # atno 10764 bound_to 10752
  154.7670  135.3227  154.8217 H   0  0  0  0  0  0  0  0  0  0  0  0  # atno 10765 bound_to 10752
  141.1084  133.8752  157.1653 H   0  0  0  0  0  0  0  0  0  0  0  0  # atno 11005 bound_to 11000
  144.7383  140.4871  143.6887 LP  0  0  0  0  0  0  0  0  0  0  0  0  # atno 17320 bound_to 7965
  145.5979  139.1501  143.3145 LP  0  0  0  0  0  0  0  0  0  0  0  0  # atno 17321 bound_to 7965
  139.8645  143.7272  152.3171 LP  0  0  0  0  0  0  0  0  0  0  0  0  # atno 17342 bound_to 10162
  139.7499  144.7537  151.0522 LP  0  0  0  0  0  0  0  0  0  0  0  0  # atno 17343 bound_to 10162
  156.4761  130.8019  151.3035 LP  0  0  0  0  0  0  0  0  0  0  0  0  # atno 17370 bound_to 10713
  157.7476  131.0020  150.2985 LP  0  0  0  0  0  0  0  0  0  0  0  0  # atno 17371 bound_to 10713
  139.9966  135.0044  157.0096 LP  0  0  0  0  0  0  0  0  0  0  0  0  # atno 17394 bound_to 11000
  140.4840  134.1261  155.7221 LP  0  0  0  0  0  0  0  0  0  0  0  0  # atno 17395 bound_to 11000

$$$$
