AV-unprocessed.smi:3068|AV-procd|sdf|11707|dock9
  -GOLD-   2272017113D 1   1.00000     0.00000
 Structure written by MMmdl.
 39 41  0  0  0  0  0  0  0  0  1 V2000
  146.0426  141.6924  159.0120 N   0  0  0  0  0  0  0  0  0  0  0  0
  146.4793  141.5984  157.9445 C   0  0  0  0  0  0  0  0  0  0  0  0
  147.0298  141.4802  156.6001 C   0  0  0  0  0  0  0  0  0  0  0  0
  146.1395  141.4280  155.5822 N   0  0  0  0  0  0  0  0  0  0  0  0
  146.6358  141.3177  154.3316 C   0  0  0  0  0  0  0  0  0  0  0  0
  148.0219  141.2594  154.0910 C   0  0  0  0  0  0  0  0  0  0  0  0
  148.9170  141.3123  155.0999 N   0  0  0  0  0  0  0  0  0  0  0  0
  148.4323  141.4209  156.3624 C   0  0  0  0  0  0  0  0  0  0  0  0
  149.3529  141.4803  157.4253 N   0  0  0  0  0  0  0  0  0  0  0  0
  150.3946  140.4742  157.5961 C   0  0  0  0  0  0  0  0  0  0  0  0
  151.8127  141.0553  157.4083 C   0  0  1  0  0  0  0  0  0  0  0  0
  151.9724  142.4529  158.0362 C   0  0  0  0  0  0  0  0  0  0  0  0
  152.0068  142.4176  159.4933 N   0  0  0  0  0  0  0  0  0  0  0  0
  152.1788  143.7600  160.0475 C   0  0  0  0  0  0  0  0  0  0  0  0
  152.1878  143.7647  161.5839 C   0  0  0  0  0  0  0  0  0  0  0  0
  153.2855  142.8301  162.1111 C   0  0  0  0  0  0  0  0  0  0  0  0
  153.1310  141.4344  161.4880 C   0  0  0  0  0  0  0  0  0  0  0  0
  153.0701  141.5174  159.9482 C   0  0  1  0  0  0  0  0  0  0  0  0
  152.8986  140.1108  159.3415 C   0  0  0  0  0  0  0  0  0  0  0  0
  152.8239  140.1849  157.9199 O   0  0  0  0  0  0  0  0  0  0  0  0
  145.9246  141.2764  153.5201 H   0  0  0  0  0  0  0  0  0  0  0  0
  148.4134  141.1707  153.0884 H   0  0  0  0  0  0  0  0  0  0  0  0
  149.1702  142.1072  158.1960 H   0  0  0  0  0  0  0  0  0  0  0  0
  150.3038  140.0201  158.5832 H   0  0  0  0  0  0  0  0  0  0  0  0
  150.2110  139.6669  156.8881 H   0  0  0  0  0  0  0  0  0  0  0  0
  151.9991  141.1576  156.3390 H   0  0  0  0  0  0  0  0  0  0  0  0
  152.8961  142.8990  157.6643 H   0  0  0  0  0  0  0  0  0  0  0  0
  151.1625  143.1005  157.6984 H   0  0  0  0  0  0  0  0  0  0  0  0
  153.1086  144.1963  159.6790 H   0  0  0  0  0  0  0  0  0  0  0  0
  151.3746  144.4071  159.6956 H   0  0  0  0  0  0  0  0  0  0  0  0
  152.3440  144.7771  161.9568 H   0  0  0  0  0  0  0  0  0  0  0  0
  151.2154  143.4400  161.9569 H   0  0  0  0  0  0  0  0  0  0  0  0
  154.2656  143.2370  161.8591 H   0  0  0  0  0  0  0  0  0  0  0  0
  153.2416  142.7679  163.1988 H   0  0  0  0  0  0  0  0  0  0  0  0
  153.9603  140.7985  161.7993 H   0  0  0  0  0  0  0  0  0  0  0  0
  152.2216  140.9669  161.8686 H   0  0  0  0  0  0  0  0  0  0  0  0
  154.0269  141.9100  159.5991 H   0  0  0  0  0  0  0  0  0  0  0  0
  153.7469  139.4797  159.6077 H   0  0  0  0  0  0  0  0  0  0  0  0
  152.0108  139.6192  159.7398 H   0  0  0  0  0  0  0  0  0  0  0  0
  1  2  3  0  0  0  0
  2  3  1  0  0  0  0
  3  8  1  0  0  0  0
  3  4  2  0  0  0  0
  4  5  1  0  0  0  0
  5  6  2  0  0  0  0
  5 21  1  0  0  0  0
  6  7  1  0  0  0  0
  6 22  1  0  0  0  0
  7  8  2  0  0  0  0
  8  9  1  0  0  0  0
  9 10  1  0  0  0  0
  9 23  1  0  0  0  0
 10 11  1  0  0  0  0
 10 24  1  0  0  0  0
 10 25  1  0  0  0  0
 11 20  1  0  0  0  0
 11 12  1  0  0  0  0
 11 26  1  0  0  0  0
 12 13  1  0  0  0  0
 12 27  1  0  0  0  0
 12 28  1  0  0  0  0
 13 18  1  0  0  0  0
 13 14  1  0  0  0  0
 14 15  1  0  0  0  0
 14 29  1  0  0  0  0
 14 30  1  0  0  0  0
 15 16  1  0  0  0  0
 15 31  1  0  0  0  0
 15 32  1  0  0  0  0
 16 17  1  0  0  0  0
 16 33  1  0  0  0  0
 16 34  1  0  0  0  0
 17 18  1  0  0  0  0
 17 35  1  0  0  0  0
 17 36  1  0  0  0  0
 18 19  1  0  0  0  0
 18 37  1  0  0  0  0
 19 20  1  0  0  0  0
 19 38  1  0  0  0  0
 19 39  1  0  0  0  0
M  END
> <s_m_source_file>
AV-unprocessed.smi

> <i_m_source_file_index>
3068

> <i_lp_mmshare_version>
43012

> <i_f3d_flags>
0

> <s_epik_input>
TiNDYzFuW2NIXVtjSF1uYzFbTkhdW0NIMl1bQ0BIXShbQ0gyXTIpT1tDSDJdW0NAQEhdKE4yMylbQ0gyXVtDSDJdW0NIMl1bQ0gyXTM=

> <s_epik_cmdline>
J2VwaWtfcHl0aG9uJywgJy1waCcsICc3LjAnLCAnLXRuJywgJzgnLCAnLW1hJywgJzIwMCcsICctbWV0YWxfYmluZGluZycsICctaW1hZScsICc8aW5maWxlLm1hZT4nLCAnLW9tYWUnLCAnPG91dGZpbGUubWFlPic=

> <r_epik_Ionization_Penalty>
1.22359

> <r_epik_Ionization_Penalty_Charging>
0

> <r_epik_Ionization_Penalty_Neutral>
1.22359

> <r_epik_State_Penalty>
1.29103

> <r_epik_Charging_Adjusted_Penalty>
1.29103

> <i_epik_Tot_Q>
0

> <i_epik_Tot_abs_Q>
0

> <r_epik_Metal_State_Penalty>
1.29103

> <b_epik_Metal_Only>
0

> <s_lp_Force_Field>
OPLS_2005

> <r_lp_Energy>
49.2936

> <b_lp_Chiralities_Consistent>
1

> <s_lp_Variant>
AV-unprocessed.smi:3068-10

> <Gold.Version>
5.8.1

> <Gold.Id.Protein>
6NUR|6NUR_protein|mol2

> <Gold.PLP.Fitness>
43.6538

> <Gold.PLP.PLP>
-33.6040

> <Gold.PLP.part.hbond>
-2.0000

> <Gold.PLP.part.metal>
0.0000

> <Gold.PLP.part.buried>
-6.4332

> <Gold.PLP.part.nonpolar>
-25.2654

> <Gold.PLP.part.repulsive>
0.2787

> <Gold.PLP.ligand.clash>
0.0000

> <Gold.PLP.ligand.torsion>
0.6447

> <Gold.PLP.Chemscore.Hbond>
1.8723

> <Gold.PLP.Chemscore.CHOScore>
1.9059

> <Gold.PLP.Chemscore.Metal>
0.0000

> <Gold.Chemscore.Hbonds>
donor molecule, donor type, donor heavy atom, donor atom, acceptor molecule, acceptor atom, score
      P1  H  6934  6946       L1     1  0.79
      P1  H  7997  8009       L1    20  1.00
      L1  C     5    21       P1 10175  0.86
      L1  C     6    22       P1  7957  1.00

> <Gold.PLP.Chemscore.Internal.Correction>
0.0047

> <Gold.Rescore>
     Score         DG    S(hbond)    S(metal)    S(lipo)     H(rot)  DE(clash)    DE(int)     intcor
     18.69     -19.37       1.79        0.00      96.16       1.30       0.04       0.65       ----

> <Gold.Chemscore.Fitness>
18.6891

> <Gold.Chemscore.DG>
-19.3735

> <Gold.Chemscore.ZeroCoef>
-5.4800

> <Gold.Chemscore.Hbond>
1.7890

> <Gold.Chemscore.Metal>
0.0000

> <Gold.Chemscore.Lipo>
96.1610

> <Gold.Chemscore.Internal_Hbond>
0.0000

> <Gold.Chemscore.DEClash>
0.0365

> <Gold.Chemscore.DEInternal>
0.6479

> <Gold.Chemscore.Rot>
1.3019

> <Gold.Chemscore.Internal.Correction>
   9.000000E+99

> <Gold.Chemscore.Hbonds>
donor molecule, donor type, donor heavy atom, donor atom, acceptor molecule, acceptor atom, score
      P1  H  6934  6946       L1     1  0.75
      P1  H  7997  8009       L1    20  0.84

> <Gold.Chemscore.Hbond.Weighted>
-5.9754

> <Gold.Chemscore.Metal.Weighted>
-0.0000

> <Gold.Chemscore.Lipo.Weighted>
-11.2508

> <Gold.Chemscore.Internal_Hbond.Weighted>
0.0000

> <Gold.Chemscore.DEClash.Weighted>
0.0365

> <Gold.Chemscore.DEInternal.Weighted>
0.6479

> <Gold.Chemscore.Rot.Weighted>
3.3327

> <Gold.Chemscore.Internal.Correction.Weighted>
   9.000000E+99

> <Gold.Protein.RotatedTorsions>
[ 6907 6896 6895 6894 ] final  155.14 input  -60.11 | X-H torsion
[ 7974 7965 7964 7962 ] final   64.46 input  175.53 | X-H torsion
[ 8008 7997 7996 7995 ] final  166.83 input   59.86 | X-H torsion
[ 10167 10162 10161 10158 ] final -108.54 input  -65.29 | X-H torsion
[ 10718 10713 10712 10709 ] final -150.92 input   66.30 | X-H torsion
[ 10763 10752 10751 10750 ] final -139.09 input  -60.55 | X-H torsion
[ 11005 11000 10999 10996 ] final  -86.58 input  -57.11 | X-H torsion

> <Gold.Protein.ActiveResidues>
 VAL166  LYS551  ARG553  GLY616  TRP617  ASP618  TYR619  PRO620  LYS621  CYS622 
 ASP623  PHE694  ASN695  SER759  ASP760  ASP761  ALA762  ILE779  LEU786  VAL792 
 PHE793  MET794  SER795  GLU796  ALA797  LYS798  CYS799  TRP800  GLU811  SER814 

> <Gold.Protein.RotatedAtoms>
  152.0484  133.4008  159.4366 H   0  0  0  0  0  0  0  0  0  0  0  0  # atno 6907 bound_to 6896
  150.6871  134.3336  159.4847 H   0  0  0  0  0  0  0  0  0  0  0  0  # atno 6908 bound_to 6896
  152.1143  134.9251  160.0616 H   0  0  0  0  0  0  0  0  0  0  0  0  # atno 6909 bound_to 6896
  145.8499  139.3247  143.0881 H   0  0  0  0  0  0  0  0  0  0  0  0  # atno 7974 bound_to 7965
  156.1685  140.1633  156.8488 H   0  0  0  0  0  0  0  0  0  0  0  0  # atno 8008 bound_to 7997
  154.5233  140.0773  156.8246 H   0  0  0  0  0  0  0  0  0  0  0  0  # atno 8009 bound_to 7997
  155.3561  140.3392  155.4242 H   0  0  0  0  0  0  0  0  0  0  0  0  # atno 8010 bound_to 7997
  140.1650  143.4089  152.1397 H   0  0  0  0  0  0  0  0  0  0  0  0  # atno 10167 bound_to 10162
  156.4525  130.8174  151.2405 H   0  0  0  0  0  0  0  0  0  0  0  0  # atno 10718 bound_to 10713
  154.8619  135.3593  154.5490 H   0  0  0  0  0  0  0  0  0  0  0  0  # atno 10763 bound_to 10752
  153.6109  135.7009  153.5352 H   0  0  0  0  0  0  0  0  0  0  0  0  # atno 10764 bound_to 10752
  153.3210  135.4151  155.1378 H   0  0  0  0  0  0  0  0  0  0  0  0  # atno 10765 bound_to 10752
  141.1628  133.7463  156.9183 H   0  0  0  0  0  0  0  0  0  0  0  0  # atno 11005 bound_to 11000
  145.9369  140.9008  143.0327 LP  0  0  0  0  0  0  0  0  0  0  0  0  # atno 17320 bound_to 7965
  144.6729  140.1495  143.7431 LP  0  0  0  0  0  0  0  0  0  0  0  0  # atno 17321 bound_to 7965
  139.5364  144.7213  151.4881 LP  0  0  0  0  0  0  0  0  0  0  0  0  # atno 17342 bound_to 10162
  140.6619  143.8481  150.6897 LP  0  0  0  0  0  0  0  0  0  0  0  0  # atno 17343 bound_to 10162
  157.7502  131.0133  150.3420 LP  0  0  0  0  0  0  0  0  0  0  0  0  # atno 17370 bound_to 10713
  156.3802  130.3879  149.7108 LP  0  0  0  0  0  0  0  0  0  0  0  0  # atno 17371 bound_to 10713
  140.1469  134.9256  157.2542 LP  0  0  0  0  0  0  0  0  0  0  0  0  # atno 17394 bound_to 11000
  140.2769  134.3395  155.7355 LP  0  0  0  0  0  0  0  0  0  0  0  0  # atno 17395 bound_to 11000

$$$$
