AV-unprocessed.smi:2639|AV-procd|sdf|10264|dock3
  -GOLD-   2272014273D 1   1.00000     0.00000
 Structure written by MMmdl.
 43 44  0  0  0  0  0  0  0  0  1 V2000
  144.4015  135.7160  154.1833 C   0  0  0  0  0  0  0  0  0  0  0  0
  144.9058  136.2035  152.8009 C   0  0  1  0  0  0  0  0  0  0  0  0
  143.9443  137.3168  152.2892 C   0  0  0  0  0  0  0  0  0  0  0  0
  143.7469  138.3391  153.2456 O   0  0  0  0  0  0  0  0  0  0  0  0
  146.2638  136.7549  152.9336 N   0  0  0  0  0  0  0  0  0  0  0  0
  146.6882  137.7853  153.6847 C   0  0  0  0  0  0  0  0  0  0  0  0
  145.9582  138.4483  154.4205 O   0  0  0  0  0  0  0  0  0  0  0  0
  148.0111  137.9733  153.5341 N   0  0  0  0  0  0  0  0  0  0  0  0
  148.8400  138.9690  154.1193 C   0  0  0  0  0  0  0  0  0  0  0  0
  150.1389  138.5912  154.5182 C   0  0  0  0  0  0  0  0  0  0  0  0
  150.9859  139.5645  155.0850 C   0  0  0  0  0  0  0  0  0  0  0  0
  150.6226  140.8525  155.2596 N   0  0  0  0  0  0  0  0  0  0  0  0
  149.3846  141.2163  154.8630 C   0  0  0  0  0  0  0  0  0  0  0  0
  148.4601  140.3226  154.2863 C   0  0  0  0  0  0  0  0  0  0  0  0
  144.9852  135.0008  151.7941 C   0  0  0  0  0  0  0  0  0  0  0  0
  143.6302  134.2688  151.5925 C   0  0  0  0  0  0  0  0  0  0  0  0
  143.7282  133.1333  150.5609 C   0  0  0  0  0  0  0  0  0  0  0  0
  144.8136  132.1207  150.9460 C   0  0  0  0  0  0  0  0  0  0  0  0
  146.1652  132.8211  151.1294 C   0  0  0  0  0  0  0  0  0  0  0  0
  146.0726  133.9553  152.1626 C   0  0  0  0  0  0  0  0  0  0  0  0
  143.4897  135.1260  154.0855 H   0  0  0  0  0  0  0  0  0  0  0  0
  144.1695  136.5477  154.8486 H   0  0  0  0  0  0  0  0  0  0  0  0
  145.1396  135.1015  154.6982 H   0  0  0  0  0  0  0  0  0  0  0  0
  144.3325  137.7889  151.3869 H   0  0  0  0  0  0  0  0  0  0  0  0
  142.9725  136.9057  152.0156 H   0  0  0  0  0  0  0  0  0  0  0  0
  144.0257  139.1598  152.8690 H   0  0  0  0  0  0  0  0  0  0  0  0
  146.9660  136.2869  152.3798 H   0  0  0  0  0  0  0  0  0  0  0  0
  148.4924  137.2931  152.9646 H   0  0  0  0  0  0  0  0  0  0  0  0
  150.4829  137.5740  154.3990 H   0  0  0  0  0  0  0  0  0  0  0  0
  151.9833  139.3013  155.4047 H   0  0  0  0  0  0  0  0  0  0  0  0
  149.1233  142.2548  155.0033 H   0  0  0  0  0  0  0  0  0  0  0  0
  147.4957  140.6939  153.9760 H   0  0  0  0  0  0  0  0  0  0  0  0
  145.2576  135.4089  150.8198 H   0  0  0  0  0  0  0  0  0  0  0  0
  143.2758  133.8583  152.5384 H   0  0  0  0  0  0  0  0  0  0  0  0
  142.8627  134.9622  151.2516 H   0  0  0  0  0  0  0  0  0  0  0  0
  142.7657  132.6286  150.4732 H   0  0  0  0  0  0  0  0  0  0  0  0
  143.9488  133.5508  149.5776 H   0  0  0  0  0  0  0  0  0  0  0  0
  144.5333  131.6133  151.8700 H   0  0  0  0  0  0  0  0  0  0  0  0
  144.8937  131.3496  150.1793 H   0  0  0  0  0  0  0  0  0  0  0  0
  146.9185  132.0967  151.4407 H   0  0  0  0  0  0  0  0  0  0  0  0
  146.5015  133.2249  150.1733 H   0  0  0  0  0  0  0  0  0  0  0  0
  147.0535  134.4237  152.2295 H   0  0  0  0  0  0  0  0  0  0  0  0
  145.8686  133.5276  153.1447 H   0  0  0  0  0  0  0  0  0  0  0  0
  1  2  1  0  0  0  0
  1 21  1  0  0  0  0
  1 22  1  0  0  0  0
  1 23  1  0  0  0  0
  2  3  1  0  0  0  0
  2  5  1  0  0  0  0
  2 15  1  0  0  0  0
  3  4  1  0  0  0  0
  3 24  1  0  0  0  0
  3 25  1  0  0  0  0
  4 26  1  0  0  0  0
  5  6  1  0  0  0  0
  5 27  1  0  0  0  0
  6  7  2  0  0  0  0
  6  8  1  0  0  0  0
  8  9  1  0  0  0  0
  8 28  1  0  0  0  0
  9 14  1  0  0  0  0
  9 10  2  0  0  0  0
 10 11  1  0  0  0  0
 10 29  1  0  0  0  0
 11 12  2  0  0  0  0
 11 30  1  0  0  0  0
 12 13  1  0  0  0  0
 13 14  2  0  0  0  0
 13 31  1  0  0  0  0
 14 32  1  0  0  0  0
 15 20  1  0  0  0  0
 15 16  1  0  0  0  0
 15 33  1  0  0  0  0
 16 17  1  0  0  0  0
 16 34  1  0  0  0  0
 16 35  1  0  0  0  0
 17 18  1  0  0  0  0
 17 36  1  0  0  0  0
 17 37  1  0  0  0  0
 18 19  1  0  0  0  0
 18 38  1  0  0  0  0
 18 39  1  0  0  0  0
 19 20  1  0  0  0  0
 19 40  1  0  0  0  0
 19 41  1  0  0  0  0
 20 42  1  0  0  0  0
 20 43  1  0  0  0  0
M  END
> <s_m_source_file>
AV-unprocessed.smi

> <i_m_source_file_index>
2639

> <i_lp_mmshare_version>
43012

> <i_f3d_flags>
0

> <s_epik_input>
W0NIMl0xW0NIMl1bQ0gyXVtDSDJdW0NIMl1bQ0hdMVtDQF0oW0NIM10pKFtDSDJdW09IXSlbTkhdQyg9TylbTkhdYzJbY0hdW2NIXW5bY0hdW2NIXTI=

> <s_epik_cmdline>
J2VwaWtfcHl0aG9uJywgJy1waCcsICc3LjAnLCAnLXRuJywgJzgnLCAnLW1hJywgJzIwMCcsICctbWV0YWxfYmluZGluZycsICctaW1hZScsICc8aW5maWxlLm1hZT4nLCAnLW9tYWUnLCAnPG91dGZpbGUubWFlPic=

> <r_epik_Ionization_Penalty>
0.119032

> <r_epik_Ionization_Penalty_Charging>
0

> <r_epik_Ionization_Penalty_Neutral>
0.119032

> <r_epik_State_Penalty>
0.108564

> <r_epik_Charging_Adjusted_Penalty>
0.108564

> <i_epik_Tot_Q>
0

> <i_epik_Tot_abs_Q>
0

> <r_epik_Metal_State_Penalty>
0.0902516

> <b_epik_Metal_Only>
0

> <s_lp_Force_Field>
OPLS_2005

> <r_lp_Energy>
25.5212

> <b_lp_Chiralities_Consistent>
1

> <s_lp_Variant>
AV-unprocessed.smi:2639-1

> <Gold.Version>
5.8.1

> <Gold.Id.Protein>
6NUR|6NUR_protein|mol2

> <Gold.PLP.Fitness>
44.7259

> <Gold.PLP.PLP>
-33.6574

> <Gold.PLP.part.hbond>
-4.0000

> <Gold.PLP.part.metal>
0.0000

> <Gold.PLP.part.buried>
-2.1683

> <Gold.PLP.part.nonpolar>
-27.1307

> <Gold.PLP.part.repulsive>
0.1866

> <Gold.PLP.ligand.clash>
0.0000

> <Gold.PLP.ligand.torsion>
0.3875

> <Gold.PLP.Chemscore.Hbond>
2.9440

> <Gold.PLP.Chemscore.CHOScore>
0.9884

> <Gold.PLP.Chemscore.Metal>
0.0000

> <Gold.Chemscore.Hbonds>
donor molecule, donor type, donor heavy atom, donor atom, acceptor molecule, acceptor atom, score
      L1  H     4    26       P1 10175  0.62
      L1  H     5    27       P1  7948  0.90
      L1  H     8    28       P1  7948  1.00
      L1  C    13    31       P1  8028  0.95

> <Gold.PLP.Chemscore.Internal.Correction>
0.0463

> <Gold.Rescore>
     Score         DG    S(hbond)    S(metal)    S(lipo)     H(rot)  DE(clash)    DE(int)     intcor
     16.47     -20.18       2.97        0.00      84.24       1.98       1.43       2.28       ----

> <Gold.Chemscore.Fitness>
16.4674

> <Gold.Chemscore.DG>
-20.1847

> <Gold.Chemscore.ZeroCoef>
-5.4800

> <Gold.Chemscore.Hbond>
2.9691

> <Gold.Chemscore.Metal>
0.0000

> <Gold.Chemscore.Lipo>
84.2394

> <Gold.Chemscore.Internal_Hbond>
0.0000

> <Gold.Chemscore.DEClash>
1.4345

> <Gold.Chemscore.DEInternal>
2.2827

> <Gold.Chemscore.Rot>
1.9798

> <Gold.Chemscore.Internal.Correction>
   9.000000E+99

> <Gold.Chemscore.Hbonds>
donor molecule, donor type, donor heavy atom, donor atom, acceptor molecule, acceptor atom, score
      L1  H     4    26       P1 10175  0.60
      L1  H     5    27       P1  7948  0.82
      L1  H     8    28       P1  7948  0.98

> <Gold.Chemscore.Hbond.Weighted>
-9.9168

> <Gold.Chemscore.Metal.Weighted>
-0.0000

> <Gold.Chemscore.Lipo.Weighted>
-9.8560

> <Gold.Chemscore.Internal_Hbond.Weighted>
0.0000

> <Gold.Chemscore.DEClash.Weighted>
1.4345

> <Gold.Chemscore.DEInternal.Weighted>
2.2827

> <Gold.Chemscore.Rot.Weighted>
5.0682

> <Gold.Chemscore.Internal.Correction.Weighted>
   9.000000E+99

> <Gold.Protein.RotatedTorsions>
[ 6907 6896 6895 6894 ] final   61.17 input  -60.11 | X-H torsion
[ 7974 7965 7964 7962 ] final  114.60 input  175.53 | X-H torsion
[ 8008 7997 7996 7995 ] final   97.19 input   59.86 | X-H torsion
[ 10167 10162 10161 10158 ] final  173.48 input  -65.29 | X-H torsion
[ 10718 10713 10712 10709 ] final -119.08 input   66.30 | X-H torsion
[ 10763 10752 10751 10750 ] final  -10.70 input  -60.55 | X-H torsion
[ 11005 11000 10999 10996 ] final -169.84 input  -57.11 | X-H torsion

> <Gold.Protein.ActiveResidues>
 VAL166  LYS551  ARG553  GLY616  TRP617  ASP618  TYR619  PRO620  LYS621  CYS622 
 ASP623  PHE694  ASN695  SER759  ASP760  ASP761  ALA762  ILE779  LEU786  VAL792 
 PHE793  MET794  SER795  GLU796  ALA797  LYS798  CYS799  TRP800  GLU811  SER814 

> <Gold.Protein.RotatedAtoms>
  152.4066  134.6197  160.0047 H   0  0  0  0  0  0  0  0  0  0  0  0  # atno 6907 bound_to 6896
  151.6386  133.3322  159.3133 H   0  0  0  0  0  0  0  0  0  0  0  0  # atno 6908 bound_to 6896
  150.7960  134.7061  159.6622 H   0  0  0  0  0  0  0  0  0  0  0  0  # atno 6909 bound_to 6896
  145.2024  139.2946  143.4311 H   0  0  0  0  0  0  0  0  0  0  0  0  # atno 7974 bound_to 7965
  156.0875  140.3262  155.7773 H   0  0  0  0  0  0  0  0  0  0  0  0  # atno 8008 bound_to 7997
  155.5051  140.0572  157.2950 H   0  0  0  0  0  0  0  0  0  0  0  0  # atno 8009 bound_to 7997
  154.4618  140.1970  156.0241 H   0  0  0  0  0  0  0  0  0  0  0  0  # atno 8010 bound_to 7997
  139.5110  144.3256  152.0161 H   0  0  0  0  0  0  0  0  0  0  0  0  # atno 10167 bound_to 10162
  156.1154  130.6281  150.9371 H   0  0  0  0  0  0  0  0  0  0  0  0  # atno 10718 bound_to 10713
  153.4730  135.7017  153.5982 H   0  0  0  0  0  0  0  0  0  0  0  0  # atno 10763 bound_to 10752
  153.4228  135.3821  155.2122 H   0  0  0  0  0  0  0  0  0  0  0  0  # atno 10764 bound_to 10752
  154.8724  135.3932  154.4170 H   0  0  0  0  0  0  0  0  0  0  0  0  # atno 10765 bound_to 10752
  140.5262  134.5661  157.5062 H   0  0  0  0  0  0  0  0  0  0  0  0  # atno 11005 bound_to 11000
  146.3415  140.2272  142.8592 LP  0  0  0  0  0  0  0  0  0  0  0  0  # atno 17320 bound_to 7965
  144.9935  140.8568  143.5325 LP  0  0  0  0  0  0  0  0  0  0  0  0  # atno 17321 bound_to 7965
  140.2697  144.3978  150.6156 LP  0  0  0  0  0  0  0  0  0  0  0  0  # atno 17342 bound_to 10162
  140.6097  143.2169  151.6910 LP  0  0  0  0  0  0  0  0  0  0  0  0  # atno 17343 bound_to 10162
  157.6337  131.0918  150.8391 LP  0  0  0  0  0  0  0  0  0  0  0  0  # atno 17370 bound_to 10713
  156.8495  130.5075  149.5313 LP  0  0  0  0  0  0  0  0  0  0  0  0  # atno 17371 bound_to 10713
  139.9579  134.7503  156.0301 LP  0  0  0  0  0  0  0  0  0  0  0  0  # atno 17394 bound_to 11000
  141.1307  133.6587  156.3456 LP  0  0  0  0  0  0  0  0  0  0  0  0  # atno 17395 bound_to 11000

$$$$
