#       Name:                AV-unprocessed.smi:3162
#       Creating user name   scv26
#       Creation time:       Fri Mar 27 17:49:25 2020


#       File generated by GOLD software.
#

@<TRIPOS>MOLECULE
AV-unprocessed.smi:3162
    40    40     1
SMALL
NO_CHARGES


@<TRIPOS>ATOM
      1 ****        -4.1380   2.3105   0.4319 C.3            1 S1                 0.0000
      2 ****        -3.5412   0.8949   0.3875 C.3            1 S1                 0.0000
      3 ****        -2.1824   0.7920  -0.3393 C.3            1 S1                 0.0000
      4 ****        -1.6254  -0.5675  -0.1371 N.4            1 S1                 1.0000
      5 ****        -0.1679  -0.7199  -0.3596 C.3            1 S1                 0.0000
      6 ****         0.1419  -2.1882  -0.6947 C.3            1 S1                 0.0000
      7 ****         0.6314  -0.2153   0.8639 C.3            1 S1                 0.0000
      8 ****         2.0668  -0.3440   0.6923 N.pl3          1 S1                 0.0000
      9 ****         2.9425  -1.1732   1.3609 C.2            1 S1                 0.0000
     10 ****         4.1926  -0.9365   0.8633 C.2            1 S1                 0.0000
     11 ****         5.4934  -1.5804   1.2475 C.3            1 S1                 0.0000
     12 ****         3.9735   0.0740  -0.1156 C.2            1 S1                 0.0000
     13 ****         2.7026   0.4288  -0.2130 N.2            1 S1                 0.0000
     14 ****        -2.3246   1.1045  -1.8380 C.2            1 S1                 0.0000
     15 ****        -2.0117   2.3395  -2.2389 N.am           1 S1                 0.0000
     16 ****        -2.7178   0.2424  -2.6219 O.2            1 S1                 0.0000
     17 ****        -5.0542   2.3232   1.0229 H              1 S1                 0.0000
     18 ****        -4.3893   2.6756  -0.5642 H              1 S1                 0.0000
     19 ****        -3.4424   3.0176   0.8849 H              1 S1                 0.0000
     20 ****        -3.4173   0.5523   1.4157 H              1 S1                 0.0000
     21 ****        -4.2622   0.2139  -0.0678 H              1 S1                 0.0000
     22 ****        -1.5052   1.5176   0.1126 H              1 S1                 0.0000
     23 ****        -1.8282  -0.8662   0.8058 H              1 S1                 0.0000
     24 ****         0.1120  -0.1283  -1.2323 H              1 S1                 0.0000
     25 ****         1.1911  -2.3276  -0.9561 H              1 S1                 0.0000
     26 ****        -0.4484  -2.5276  -1.5463 H              1 S1                 0.0000
     27 ****        -0.0814  -2.8440   0.1476 H              1 S1                 0.0000
     28 ****         0.4159   0.8331   1.0703 H              1 S1                 0.0000
     29 ****         0.3415  -0.7713   1.7567 H              1 S1                 0.0000
     30 ****         2.6078  -1.8583   2.1261 H              1 S1                 0.0000
     31 ****         6.3430  -0.9277   1.0459 H              1 S1                 0.0000
     32 ****         5.6609  -2.5058   0.6963 H              1 S1                 0.0000
     33 ****         5.5244  -1.8274   2.3089 H              1 S1                 0.0000
     34 ****         4.6977   0.5585  -0.7540 H              1 S1                 0.0000
     35 ****        -2.0854   2.5923  -3.2140 H              1 S1                 0.0000
     36 ****        -1.6970   3.0203  -1.5621 H              1 S1                 0.0000
     37 ****        -2.1097  -1.1811  -0.7771 H              1 S1                 0.0000
     38 ****         2.3031   1.1152  -0.8207 LP             1 S1                 0.0000
     39 ****        -2.9481  -0.6710  -2.2862 LP             1 S1                 0.0000
     40 ****        -2.8072   0.4548  -3.5950 LP             1 S1                 0.0000
@<TRIPOS>BOND
    1    1    2 1     
    2    1   17 1     
    3    1   18 1     
    4    1   19 1     
    5    2    3 1     
    6    2   20 1     
    7    2   21 1     
    8    3    4 1     
    9    3   14 1     
   10    3   22 1     
   11    4    5 1     
   12    4   23 1     
   13    4   37 1     
   14    5    6 1     
   15    5    7 1     
   16    5   24 1     
   17    6   25 1     
   18    6   26 1     
   19    6   27 1     
   20    7    8 1     
   21    7   28 1     
   22    7   29 1     
   23    8   13 1     
   24    8    9 1     
   25    9   10 2     
   26    9   30 1     
   27   10   11 1     
   28   10   12 1     
   29   11   31 1     
   30   11   32 1     
   31   11   33 1     
   32   12   13 2     
   33   12   34 1     
   34   14   15 am    
   35   14   16 2     
   36   15   35 1     
   37   15   36 1     
   38   13   38 1     
   39   16   39 1     
   40   16   40 1     
@<TRIPOS>SUBSTRUCTURE
      1 S1             1
@<TRIPOS>SET
LONE_PAIRS      STATIC     ATOMS    <user>   **** ""
3 38 39 40
DONOR_HYDROGENS      STATIC     ATOMS    <user>   **** ""
4 23 37 35 36
ATOM$BLUE        STATIC     ATOMS    COLORGROUP SYSTEM
3 38 39 40
ATOM$RED        STATIC     ATOMS    COLORGROUP SYSTEM
4 23 37 35 36
