#       Name:                AV-unprocessed.smi:148
#       Creating user name   scv26
#       Creation time:       Thu Mar 26 18:41:41 2020


#       File generated by GOLD software.
#

@<TRIPOS>MOLECULE
AV-unprocessed.smi:148
    73    77     1
SMALL
NO_CHARGES


@<TRIPOS>ATOM
      1 ****        -3.1876  -1.9741  -1.6938 O.3            1 S1                 0.0000
      2 ****        -1.7783  -2.0586  -1.7352 C.3            1 S1                 0.0000
      3 ****        -1.2107  -1.4110  -3.0235 C.3            1 S1                 0.0000
      4 ****         0.3390  -1.3078  -3.0044 C.3            1 S1                 0.0000
      5 ****         0.8568  -0.7295  -1.7775 N.pl3          1 S1                 0.0000
      6 ****         1.5430  -1.3861  -0.7810 C.2            1 S1                 0.0000
      7 ****         1.8746  -0.6489   0.2435 N.2            1 S1                 0.0000
      8 ****         1.3869   0.6124  -0.0772 C.ar           1 S1                 0.0000
      9 ****         1.3611   1.8691   0.5905 C.ar           1 S1                 0.0000
     10 ****         1.8617   2.0942   1.8241 N.3            1 S1                 0.0000
     11 ****         3.3240   2.1103   1.7453 C.3            1 S1                 0.0000
     12 ****         3.9509   2.6313   3.0417 C.3            1 S1                 0.0000
     13 ****         3.4587   1.7982   4.2253 C.3            1 S1                 0.0000
     14 ****         1.9259   1.8130   4.2696 C.3            1 S1                 0.0000
     15 ****         1.2790   1.3232   2.9446 C.3            1 S1                 0.0000
     16 ****        -0.2853   1.4181   3.0447 C.3            1 S1                 0.0000
     17 ****        -1.1135   0.7021   1.9543 C.3            1 S1                 0.0000
     18 ****        -2.5009   0.4221   2.5491 C.3            1 S1                 0.0000
     19 ****        -2.4053   0.7691   4.0371 C.3            1 S1                 0.0000
     20 ****        -0.9080   0.8496   4.3384 C.3            1 S1                 0.0000
     21 ****        -0.4332  -0.4576   4.6088 O.3            1 S1                 0.0000
     22 ****         0.8003   2.9226  -0.0529 N.ar           1 S1                 0.0000
     23 ****         0.2659   2.7544  -1.2664 C.ar           1 S1                 0.0000
     24 ****         0.1862   1.6398  -1.9970 N.ar           1 S1                 0.0000
     25 ****         0.7656   0.5843  -1.3562 C.ar           1 S1                 0.0000
     26 ****        -1.7711  -2.0946  -4.3023 C.3            1 S1                 0.0000
     27 ****        -1.3456  -1.5034  -5.6342 C.3            1 S1                 0.0000
     28 ****        -1.7675  -2.6091  -6.5939 C.3            1 S1                 0.0000
     29 ****        -1.4890  -3.8202  -5.9002 O.3            1 S1                 0.0000
     30 ****        -1.4412  -3.5807  -4.4948 C.3            1 S1                 0.0000
     31 ****        -3.4897  -2.3723  -0.8918 H              1 S1                 0.0000
     32 ****        -1.4114  -1.5553  -0.8409 H              1 S1                 0.0000
     33 ****        -1.4761  -3.1033  -1.6582 H              1 S1                 0.0000
     34 ****        -1.5807  -0.3846  -3.0388 H              1 S1                 0.0000
     35 ****         0.7965  -2.2883  -3.1307 H              1 S1                 0.0000
     36 ****         0.6963  -0.6890  -3.8267 H              1 S1                 0.0000
     37 ****         1.7754  -2.4401  -0.8299 H              1 S1                 0.0000
     38 ****         3.6899   1.1022   1.5441 H              1 S1                 0.0000
     39 ****         3.6481   2.7368   0.9124 H              1 S1                 0.0000
     40 ****         5.0383   2.5884   2.9766 H              1 S1                 0.0000
     41 ****         3.6857   3.6794   3.1873 H              1 S1                 0.0000
     42 ****         3.8157   0.7719   4.1322 H              1 S1                 0.0000
     43 ****         3.8667   2.1904   5.1572 H              1 S1                 0.0000
     44 ****         1.6143   1.1953   5.1106 H              1 S1                 0.0000
     45 ****         1.5843   2.8257   4.4888 H              1 S1                 0.0000
     46 ****         1.5556   0.2768   2.8109 H              1 S1                 0.0000
     47 ****        -0.5515   2.4763   3.0112 H              1 S1                 0.0000
     48 ****        -1.2071   1.2919   1.0435 H              1 S1                 0.0000
     49 ****        -0.6439  -0.2453   1.6879 H              1 S1                 0.0000
     50 ****        -3.2735   1.0189   2.0630 H              1 S1                 0.0000
     51 ****        -2.7644  -0.6272   2.4101 H              1 S1                 0.0000
     52 ****        -2.8565   1.7481   4.2043 H              1 S1                 0.0000
     53 ****        -2.9345   0.0577   4.6725 H              1 S1                 0.0000
     54 ****        -0.7191   1.4846   5.2044 H              1 S1                 0.0000
     55 ****        -0.6179  -1.0035   3.8599 H              1 S1                 0.0000
     56 ****        -0.1677   3.6374  -1.7123 H              1 S1                 0.0000
     57 ****        -2.8589  -2.0124  -4.2749 H              1 S1                 0.0000
     58 ****        -1.8226  -0.5473  -5.8512 H              1 S1                 0.0000
     59 ****        -0.2661  -1.3722  -5.6958 H              1 S1                 0.0000
     60 ****        -2.8388  -2.5547  -6.7920 H              1 S1                 0.0000
     61 ****        -1.2416  -2.5631  -7.5478 H              1 S1                 0.0000
     62 ****        -0.4405  -3.8306  -4.1457 H              1 S1                 0.0000
     63 ****        -2.1464  -4.2232  -3.9667 H              1 S1                 0.0000
     64 ****        -3.5774  -2.4575  -2.4777 LP             1 S1                 0.0000
     65 ****        -3.4686  -1.0148  -1.7204 LP             1 S1                 0.0000
     66 ****         2.3661  -0.9273   1.0687 LP             1 S1                 0.0000
     67 ****         1.5482   3.0010   2.1058 LP             1 S1                 0.0000
     68 ****        -0.8955  -0.8244   5.4161 LP             1 S1                 0.0000
     69 ****         0.5530  -0.4315   4.7725 LP             1 S1                 0.0000
     70 ****         0.7865   3.8240   0.3798 LP             1 S1                 0.0000
     71 ****        -0.2432   1.5857  -2.8985 LP             1 S1                 0.0000
     72 ****        -0.6071  -4.1803  -6.2045 LP             1 S1                 0.0000
     73 ****        -2.2074  -4.4872  -6.0977 LP             1 S1                 0.0000
@<TRIPOS>BOND
    1    1    2 1     
    2    1   31 1     
    3    2    3 1     
    4    2   32 1     
    5    2   33 1     
    6    3    4 1     
    7    3   26 1     
    8    3   34 1     
    9    4    5 1     
   10    4   35 1     
   11    4   36 1     
   12    5   25 1     
   13    5    6 1     
   14    6    7 2     
   15    6   37 1     
   16    7    8 1     
   17    8   25 ar    
   18    8    9 ar    
   19    9   10 1     
   20    9   22 ar    
   21   10   15 1     
   22   10   11 1     
   23   11   12 1     
   24   11   38 1     
   25   11   39 1     
   26   12   13 1     
   27   12   40 1     
   28   12   41 1     
   29   13   14 1     
   30   13   42 1     
   31   13   43 1     
   32   14   15 1     
   33   14   44 1     
   34   14   45 1     
   35   15   16 1     
   36   15   46 1     
   37   16   20 1     
   38   16   17 1     
   39   16   47 1     
   40   17   18 1     
   41   17   48 1     
   42   17   49 1     
   43   18   19 1     
   44   18   50 1     
   45   18   51 1     
   46   19   20 1     
   47   19   52 1     
   48   19   53 1     
   49   20   21 1     
   50   20   54 1     
   51   21   55 1     
   52   22   23 ar    
   53   23   24 ar    
   54   23   56 1     
   55   24   25 ar    
   56   26   30 1     
   57   26   27 1     
   58   26   57 1     
   59   27   28 1     
   60   27   58 1     
   61   27   59 1     
   62   28   29 1     
   63   28   60 1     
   64   28   61 1     
   65   29   30 1     
   66   30   62 1     
   67   30   63 1     
   68    1   64 1     
   69    1   65 1     
   70    7   66 1     
   71   10   67 1     
   72   21   68 1     
   73   21   69 1     
   74   22   70 1     
   75   24   71 1     
   76   29   72 1     
   77   29   73 1     
@<TRIPOS>SUBSTRUCTURE
      1 S1             1
@<TRIPOS>SET
LONE_PAIRS      STATIC     ATOMS    <user>   **** ""
10 64 65 66 67 68 69 70 71 72 73
DONOR_HYDROGENS      STATIC     ATOMS    <user>   **** ""
2 31 55
ATOM$BLUE        STATIC     ATOMS    COLORGROUP SYSTEM
10 64 65 66 67 68 69 70 71 72 73
ATOM$RED        STATIC     ATOMS    COLORGROUP SYSTEM
2 31 55
