#       Name:                AV-unprocessed.smi:212
#       Creating user name   scv26
#       Creation time:       Thu Mar 26 19:57:20 2020


#       File generated by GOLD software.
#

@<TRIPOS>MOLECULE
AV-unprocessed.smi:212
    74    77     1
SMALL
NO_CHARGES


@<TRIPOS>ATOM
      1 ****        -3.6216  -0.5797   0.7513 C.3            1 S1                 0.0000
      2 ****        -2.2596   0.1345   0.7266 C.3            1 S1                 0.0000
      3 ****        -2.1003   1.1247   1.8996 C.3            1 S1                 0.0000
      4 ****        -2.9423   2.3359   1.7114 N.4            1 S1                 1.0000
      5 ****        -2.9223   3.2555   2.8795 C.3            1 S1                 0.0000
      6 ****        -4.1713   3.1027   3.7793 C.3            1 S1                 0.0000
      7 ****        -4.0937   4.0816   4.9629 C.3            1 S1                 0.0000
      8 ****        -5.4824   3.3139   2.9996 C.3            1 S1                 0.0000
      9 ****        -4.1892   1.8025   4.3340 O.3            1 S1                 0.0000
     10 ****        -2.6579   3.0172   0.4235 C.3            1 S1                 0.0000
     11 ****        -2.8079   2.0439  -0.7602 C.3            1 S1                 0.0000
     12 ****        -2.0310   0.8213  -0.5476 N.pl3          1 S1                 0.0000
     13 ****        -0.7676   0.7532  -1.0439 C.ar           1 S1                 0.0000
     14 ****        -0.0628   1.8946  -1.2658 N.ar           1 S1                 0.0000
     15 ****         1.1845   1.8371  -1.7424 C.ar           1 S1                 0.0000
     16 ****         1.9066   0.7620  -2.0622 N.ar           1 S1                 0.0000
     17 ****         1.2028  -0.3865  -1.8508 C.ar           1 S1                 0.0000
     18 ****        -0.1256  -0.4807  -1.3481 C.ar           1 S1                 0.0000
     19 ****        -0.5099  -1.8148  -1.2754 N.2            1 S1                 0.0000
     20 ****         0.5346  -2.4717  -1.7011 C.2            1 S1                 0.0000
     21 ****         1.6089  -1.6921  -2.0638 N.pl3          1 S1                 0.0000
     22 ****         2.8856  -2.1626  -2.5717 C.3            1 S1                 0.0000
     23 ****         3.7968  -2.7486  -1.4608 C.3            1 S1                 0.0000
     24 ****         4.1444  -1.6860  -0.3906 C.3            1 S1                 0.0000
     25 ****         4.7654  -2.2740   0.7335 O.3            1 S1                 0.0000
     26 ****         5.0696  -3.4419  -2.0257 C.3            1 S1                 0.0000
     27 ****         4.7837  -4.7166  -2.8253 C.3            1 S1                 0.0000
     28 ****         5.5681  -4.5299  -4.1219 C.3            1 S1                 0.0000
     29 ****         5.6226  -3.1224  -4.2759 O.3            1 S1                 0.0000
     30 ****         5.9040  -2.5862  -2.9932 C.3            1 S1                 0.0000
     31 ****        -3.7522  -1.1346   1.6805 H              1 S1                 0.0000
     32 ****        -3.7013  -1.2932  -0.0694 H              1 S1                 0.0000
     33 ****        -4.4543   0.1188   0.6677 H              1 S1                 0.0000
     34 ****        -1.5047  -0.6385   0.8685 H              1 S1                 0.0000
     35 ****        -2.3476   0.6288   2.8383 H              1 S1                 0.0000
     36 ****        -1.0558   1.4312   1.9780 H              1 S1                 0.0000
     37 ****        -2.0082   3.1095   3.4576 H              1 S1                 0.0000
     38 ****        -2.8806   4.2889   2.5310 H              1 S1                 0.0000
     39 ****        -4.0857   5.1165   4.6188 H              1 S1                 0.0000
     40 ****        -3.1900   3.9242   5.5531 H              1 S1                 0.0000
     41 ****        -4.9469   3.9668   5.6327 H              1 S1                 0.0000
     42 ****        -5.5108   4.3017   2.5386 H              1 S1                 0.0000
     43 ****        -6.3504   3.2335   3.6553 H              1 S1                 0.0000
     44 ****        -5.6078   2.5758   2.2068 H              1 S1                 0.0000
     45 ****        -4.9292   1.7334   4.9181 H              1 S1                 0.0000
     46 ****        -3.3430   3.8552   0.2897 H              1 S1                 0.0000
     47 ****        -1.6493   3.4322   0.4509 H              1 S1                 0.0000
     48 ****        -3.8560   1.7680  -0.8767 H              1 S1                 0.0000
     49 ****        -2.5265   2.5308  -1.6949 H              1 S1                 0.0000
     50 ****         1.6744   2.7887  -1.8874 H              1 S1                 0.0000
     51 ****         0.5515  -3.5504  -1.7627 H              1 S1                 0.0000
     52 ****         2.6744  -2.9021  -3.3430 H              1 S1                 0.0000
     53 ****         3.3794  -1.3340  -3.0790 H              1 S1                 0.0000
     54 ****         3.2194  -3.5233  -0.9532 H              1 S1                 0.0000
     55 ****         4.7955  -0.9138  -0.8007 H              1 S1                 0.0000
     56 ****         3.2480  -1.1836  -0.0292 H              1 S1                 0.0000
     57 ****         4.9653  -1.5925   1.3571 H              1 S1                 0.0000
     58 ****         5.7126  -3.7200  -1.1902 H              1 S1                 0.0000
     59 ****         5.0953  -5.6171  -2.2951 H              1 S1                 0.0000
     60 ****         3.7225  -4.8283  -3.0442 H              1 S1                 0.0000
     61 ****         6.5806  -4.9251  -4.0249 H              1 S1                 0.0000
     62 ****         5.0917  -5.0110  -4.9762 H              1 S1                 0.0000
     63 ****         5.6841  -1.5199  -2.9484 H              1 S1                 0.0000
     64 ****         6.9683  -2.7088  -2.7861 H              1 S1                 0.0000
     65 ****        -3.8946   2.0069   1.6406 H              1 S1                 0.0000
     66 ****        -3.3430   1.6414   4.8420 LP             1 S1                 0.0000
     67 ****        -4.2730   1.1255   3.6028 LP             1 S1                 0.0000
     68 ****        -0.4802   2.7822  -1.0712 LP             1 S1                 0.0000
     69 ****         2.8430   0.7942  -2.4117 LP             1 S1                 0.0000
     70 ****        -1.3859  -2.1861  -0.9674 LP             1 S1                 0.0000
     71 ****         5.6089  -2.7314   0.4520 LP             1 S1                 0.0000
     72 ****         4.1474  -2.9411   1.1496 LP             1 S1                 0.0000
     73 ****         4.7453  -2.7774  -4.6094 LP             1 S1                 0.0000
     74 ****         6.3455  -2.8734  -4.9203 LP             1 S1                 0.0000
@<TRIPOS>BOND
    1    1    2 1     
    2    1   31 1     
    3    1   32 1     
    4    1   33 1     
    5    2   12 1     
    6    2    3 1     
    7    2   34 1     
    8    3    4 1     
    9    3   35 1     
   10    3   36 1     
   11    4    5 1     
   12    4   10 1     
   13    4   65 1     
   14    5    6 1     
   15    5   37 1     
   16    5   38 1     
   17    6    7 1     
   18    6    8 1     
   19    6    9 1     
   20    7   39 1     
   21    7   40 1     
   22    7   41 1     
   23    8   42 1     
   24    8   43 1     
   25    8   44 1     
   26    9   45 1     
   27   10   11 1     
   28   10   46 1     
   29   10   47 1     
   30   11   12 1     
   31   11   48 1     
   32   11   49 1     
   33   12   13 1     
   34   13   18 ar    
   35   13   14 ar    
   36   14   15 ar    
   37   15   16 ar    
   38   15   50 1     
   39   16   17 ar    
   40   17   21 1     
   41   17   18 ar    
   42   18   19 1     
   43   19   20 2     
   44   20   21 1     
   45   20   51 1     
   46   21   22 1     
   47   22   23 1     
   48   22   52 1     
   49   22   53 1     
   50   23   24 1     
   51   23   26 1     
   52   23   54 1     
   53   24   25 1     
   54   24   55 1     
   55   24   56 1     
   56   25   57 1     
   57   26   30 1     
   58   26   27 1     
   59   26   58 1     
   60   27   28 1     
   61   27   59 1     
   62   27   60 1     
   63   28   29 1     
   64   28   61 1     
   65   28   62 1     
   66   29   30 1     
   67   30   63 1     
   68   30   64 1     
   69    9   66 1     
   70    9   67 1     
   71   14   68 1     
   72   16   69 1     
   73   19   70 1     
   74   25   71 1     
   75   25   72 1     
   76   29   73 1     
   77   29   74 1     
@<TRIPOS>SUBSTRUCTURE
      1 S1             1
@<TRIPOS>SET
LONE_PAIRS      STATIC     ATOMS    <user>   **** ""
9 66 67 68 69 70 71 72 73 74
DONOR_HYDROGENS      STATIC     ATOMS    <user>   **** ""
3 65 45 57
ATOM$BLUE        STATIC     ATOMS    COLORGROUP SYSTEM
9 66 67 68 69 70 71 72 73 74
ATOM$RED        STATIC     ATOMS    COLORGROUP SYSTEM
3 65 45 57
