AV-unprocessed.smi:2883|AV-procd|sdf|11077|dock4
  -GOLD-   2272015553D 1   1.00000     0.00000
 Structure written by MMmdl.
 40 42  0  0  0  0  0  0  0  0  2 V2000
  147.2919  139.0038  152.7969 C   0  0  0  0  0  0  0  0  0  0  0  0
  147.7823  139.8493  153.9955 C   0  0  0  0  0  0  0  0  0  0  0  0
  147.7661  141.3211  153.5234 C   0  0  0  0  0  0  0  0  0  0  0  0
  146.8185  139.6774  155.1837 C   0  0  0  0  0  0  0  0  0  0  0  0
  149.1962  139.4271  154.4192 C   0  0  0  0  0  0  0  0  0  0  0  0
  149.8030  138.4161  153.7717 N   0  3  0  0  0  0  0  0  0  0  0  0
  151.0890  138.0987  154.0578 C   0  0  0  0  0  0  0  0  0  0  0  0
  151.8117  138.8428  155.0078 C   0  0  0  0  0  0  0  0  0  0  0  0
  151.1403  139.9155  155.6167 C   0  0  0  0  0  0  0  0  0  0  0  0
  151.8108  140.7074  156.5589 N   0  0  0  0  0  0  0  0  0  0  0  0
  151.0698  141.5323  157.5090 C   0  0  2  0  0  0  0  0  0  0  0  0
  151.2980  143.0324  157.3085 C   0  0  0  0  0  0  0  0  0  0  0  0
  151.7219  143.4773  158.7155 C   0  0  2  0  0  0  0  0  0  0  0  0
  153.1599  143.0472  159.0319 C   0  0  0  0  0  0  0  0  0  0  0  0
  152.9970  141.5409  159.2269 C   0  0  0  0  0  0  0  0  0  0  0  0
  151.4904  141.3482  158.9814 C   0  0  1  0  0  0  0  0  0  0  0  0
  150.9961  142.5624  159.5201 O   0  0  0  0  0  0  0  0  0  0  0  0
  149.8590  140.1974  155.2958 N   0  0  0  0  0  0  0  0  0  0  0  0
  146.3056  139.3262  152.4610 H   0  0  0  0  0  0  0  0  0  0  0  0
  147.2083  137.9459  153.0491 H   0  0  0  0  0  0  0  0  0  0  0  0
  147.9704  139.0873  151.9467 H   0  0  0  0  0  0  0  0  0  0  0  0
  148.4597  141.4810  152.6968 H   0  0  0  0  0  0  0  0  0  0  0  0
  148.0381  142.0103  154.3234 H   0  0  0  0  0  0  0  0  0  0  0  0
  146.7741  141.6155  153.1783 H   0  0  0  0  0  0  0  0  0  0  0  0
  145.8021  139.9706  154.9182 H   0  0  0  0  0  0  0  0  0  0  0  0
  147.1249  140.2873  156.0345 H   0  0  0  0  0  0  0  0  0  0  0  0
  146.7841  138.6400  155.5189 H   0  0  0  0  0  0  0  0  0  0  0  0
  151.5008  137.2639  153.5099 H   0  0  0  0  0  0  0  0  0  0  0  0
  152.8379  138.6031  155.2463 H   0  0  0  0  0  0  0  0  0  0  0  0
  152.7919  140.5438  156.7331 H   0  0  0  0  0  0  0  0  0  0  0  0
  150.0023  141.3297  157.4083 H   0  0  0  0  0  0  0  0  0  0  0  0
  152.0569  143.2680  156.5607 H   0  0  0  0  0  0  0  0  0  0  0  0
  150.3685  143.5184  157.0098 H   0  0  0  0  0  0  0  0  0  0  0  0
  151.5174  144.5266  158.9291 H   0  0  0  0  0  0  0  0  0  0  0  0
  153.8555  143.2991  158.2307 H   0  0  0  0  0  0  0  0  0  0  0  0
  153.5125  143.5160  159.9514 H   0  0  0  0  0  0  0  0  0  0  0  0
  153.6210  140.9536  158.5527 H   0  0  0  0  0  0  0  0  0  0  0  0
  153.2556  141.2631  160.2493 H   0  0  0  0  0  0  0  0  0  0  0  0
  151.0784  140.4556  159.4530 H   0  0  0  0  0  0  0  0  0  0  0  0
  149.2984  137.8778  153.0670 H   0  0  0  0  0  0  0  0  0  0  0  0
  1  2  1  0  0  0  0
  1 19  1  0  0  0  0
  1 20  1  0  0  0  0
  1 21  1  0  0  0  0
  2  3  1  0  0  0  0
  2  4  1  0  0  0  0
  2  5  1  0  0  0  0
  3 22  1  0  0  0  0
  3 23  1  0  0  0  0
  3 24  1  0  0  0  0
  4 25  1  0  0  0  0
  4 26  1  0  0  0  0
  4 27  1  0  0  0  0
  5 18  1  0  0  0  0
  5  6  2  0  0  0  0
  6  7  1  0  0  0  0
  6 40  1  0  0  0  0
  7  8  2  0  0  0  0
  7 28  1  0  0  0  0
  8  9  1  0  0  0  0
  8 29  1  0  0  0  0
  9 10  1  0  0  0  0
  9 18  2  0  0  0  0
 10 11  1  0  0  0  0
 10 30  1  0  0  0  0
 11 16  1  0  0  0  0
 11 12  1  0  0  0  0
 11 31  1  0  0  0  0
 12 13  1  0  0  0  0
 12 32  1  0  0  0  0
 12 33  1  0  0  0  0
 13 17  1  0  0  0  0
 13 14  1  0  0  0  0
 13 34  1  0  0  0  0
 14 15  1  0  0  0  0
 14 35  1  0  0  0  0
 14 36  1  0  0  0  0
 15 16  1  0  0  0  0
 15 37  1  0  0  0  0
 15 38  1  0  0  0  0
 16 17  1  0  0  0  0
 16 39  1  0  0  0  0
M  CHG  1   6   1
M  END
> <s_m_source_file>
AV-unprocessed.smi

> <i_m_source_file_index>
2883

> <i_lp_mmshare_version>
43012

> <i_f3d_flags>
0

> <s_epik_input>
W0NIM11DKFtDSDNdKShbQ0gzXSljMW5bY0hdW2NIXWMobjEpW05IXVtDQEhdKFtDSDJdW0NAQEhdMjMpW0NAQEhdKE8zKVtDSDJdW0NIMl0y

> <s_epik_cmdline>
J2VwaWtfcHl0aG9uJywgJy1waCcsICc3LjAnLCAnLXRuJywgJzgnLCAnLW1hJywgJzIwMCcsICctbWV0YWxfYmluZGluZycsICctaW1hZScsICc8aW5maWxlLm1hZT4nLCAnLW9tYWUnLCAnPG91dGZpbGUubWFlPic=

> <r_lp_tautomer_probability>
0.999336

> <r_epik_Ionization_Penalty>
0.371831

> <r_epik_Ionization_Penalty_Charging>
0.371821

> <r_epik_Ionization_Penalty_Neutral>
1.06897e-05

> <r_epik_State_Penalty>
0.369311

> <r_epik_Charging_Adjusted_Penalty>
0.741132

> <i_epik_Tot_Q>
1

> <i_epik_Tot_abs_Q>
1

> <r_epik_Metal_State_Penalty>
0.621338

> <b_epik_Metal_Only>
0

> <s_lp_Force_Field>
OPLS_2005

> <r_lp_Energy>
39.227

> <b_lp_Chiralities_Consistent>
1

> <s_lp_Variant>
AV-unprocessed.smi:2883-3

> <Gold.Version>
5.8.1

> <Gold.Id.Protein>
6NUR|6NUR_protein|mol2

> <Gold.PLP.Fitness>
41.3769

> <Gold.PLP.PLP>
-35.8195

> <Gold.PLP.part.hbond>
-2.7435

> <Gold.PLP.part.metal>
0.0000

> <Gold.PLP.part.buried>
-3.4763

> <Gold.PLP.part.nonpolar>
-29.7348

> <Gold.PLP.part.repulsive>
0.2636

> <Gold.PLP.ligand.clash>
0.0000

> <Gold.PLP.ligand.torsion>
0.2676

> <Gold.PLP.Chemscore.Hbond>
1.9825

> <Gold.PLP.Chemscore.CHOScore>
0.0000

> <Gold.PLP.Chemscore.Metal>
0.0000

> <Gold.Chemscore.Hbonds>
donor molecule, donor type, donor heavy atom, donor atom, acceptor molecule, acceptor atom, score
      L1  H     6    40       P1  7948  1.98

> <Gold.PLP.Chemscore.Internal.Correction>
0.1451

> <Gold.Rescore>
     Score         DG    S(hbond)    S(metal)    S(lipo)     H(rot)  DE(clash)    DE(int)     intcor
     16.53     -17.10       0.95        0.00      97.73       1.16       0.21       0.36       ----

> <Gold.Chemscore.Fitness>
16.5262

> <Gold.Chemscore.DG>
-17.1034

> <Gold.Chemscore.ZeroCoef>
-5.4800

> <Gold.Chemscore.Hbond>
0.9476

> <Gold.Chemscore.Metal>
0.0000

> <Gold.Chemscore.Lipo>
97.7315

> <Gold.Chemscore.Internal_Hbond>
0.0000

> <Gold.Chemscore.DEClash>
0.2133

> <Gold.Chemscore.DEInternal>
0.3640

> <Gold.Chemscore.Rot>
1.1626

> <Gold.Chemscore.Internal.Correction>
   9.000000E+99

> <Gold.Chemscore.Hbonds>
donor molecule, donor type, donor heavy atom, donor atom, acceptor molecule, acceptor atom, score
      L1  H     6    40       P1  7948  0.87

> <Gold.Chemscore.Hbond.Weighted>
-3.1651

> <Gold.Chemscore.Metal.Weighted>
-0.0000

> <Gold.Chemscore.Lipo.Weighted>
-11.4346

> <Gold.Chemscore.Internal_Hbond.Weighted>
0.0000

> <Gold.Chemscore.DEClash.Weighted>
0.2133

> <Gold.Chemscore.DEInternal.Weighted>
0.3640

> <Gold.Chemscore.Rot.Weighted>
2.9763

> <Gold.Chemscore.Internal.Correction.Weighted>
   9.000000E+99

> <Gold.Protein.RotatedTorsions>
[ 6907 6896 6895 6894 ] final  167.02 input  -60.11 | X-H torsion
[ 7974 7965 7964 7962 ] final -110.11 input  175.53 | X-H torsion
[ 8008 7997 7996 7995 ] final -144.63 input   59.86 | X-H torsion
[ 10167 10162 10161 10158 ] final   85.20 input  -65.29 | X-H torsion
[ 10718 10713 10712 10709 ] final   74.51 input   66.30 | X-H torsion
[ 10763 10752 10751 10750 ] final   78.12 input  -60.55 | X-H torsion
[ 11005 11000 10999 10996 ] final  117.63 input  -57.11 | X-H torsion

> <Gold.Protein.ActiveResidues>
 VAL166  LYS551  ARG553  GLY616  TRP617  ASP618  TYR619  PRO620  LYS621  CYS622 
 ASP623  PHE694  ASN695  SER759  ASP760  ASP761  ALA762  ILE779  LEU786  VAL792 
 PHE793  MET794  SER795  GLU796  ALA797  LYS798  CYS799  TRP800  GLU811  SER814 

> <Gold.Protein.RotatedAtoms>
  151.8697  133.3473  159.3730 H   0  0  0  0  0  0  0  0  0  0  0  0  # atno 6907 bound_to 6896
  150.7156  134.5124  159.5623 H   0  0  0  0  0  0  0  0  0  0  0  0  # atno 6908 bound_to 6896
  152.2655  134.7989  160.0474 H   0  0  0  0  0  0  0  0  0  0  0  0  # atno 6909 bound_to 6896
  145.1722  140.8931  143.3528 H   0  0  0  0  0  0  0  0  0  0  0  0  # atno 7974 bound_to 7965
  155.5301  140.0599  157.2890 H   0  0  0  0  0  0  0  0  0  0  0  0  # atno 8008 bound_to 7997
  154.4487  140.1937  156.0530 H   0  0  0  0  0  0  0  0  0  0  0  0  # atno 8009 bound_to 7997
  156.0658  140.3266  155.7520 H   0  0  0  0  0  0  0  0  0  0  0  0  # atno 8010 bound_to 7997
  139.9002  144.6334  150.8645 H   0  0  0  0  0  0  0  0  0  0  0  0  # atno 10167 bound_to 10162
  157.6595  130.9681  150.1221 H   0  0  0  0  0  0  0  0  0  0  0  0  # atno 10718 bound_to 10713
  153.0850  135.4889  154.8578 H   0  0  0  0  0  0  0  0  0  0  0  0  # atno 10763 bound_to 10752
  154.7199  135.3037  154.9067 H   0  0  0  0  0  0  0  0  0  0  0  0  # atno 10764 bound_to 10752
  153.9735  135.6798  153.4801 H   0  0  0  0  0  0  0  0  0  0  0  0  # atno 10765 bound_to 10752
  139.9081  134.9612  156.7380 H   0  0  0  0  0  0  0  0  0  0  0  0  # atno 11005 bound_to 11000
  145.0221  139.3415  143.6067 LP  0  0  0  0  0  0  0  0  0  0  0  0  # atno 17320 bound_to 7965
  146.3467  139.9525  142.8727 LP  0  0  0  0  0  0  0  0  0  0  0  0  # atno 17321 bound_to 7965
  140.7708  143.3442  151.2144 LP  0  0  0  0  0  0  0  0  0  0  0  0  # atno 17342 bound_to 10162
  139.7032  143.9499  152.2915 LP  0  0  0  0  0  0  0  0  0  0  0  0  # atno 17343 bound_to 10162
  156.2089  130.3665  149.8694 LP  0  0  0  0  0  0  0  0  0  0  0  0  # atno 17370 bound_to 10713
  156.6578  130.8770  151.3542 LP  0  0  0  0  0  0  0  0  0  0  0  0  # atno 17371 bound_to 10713
  140.6872  133.9422  155.7945 LP  0  0  0  0  0  0  0  0  0  0  0  0  # atno 17394 bound_to 11000
  141.0468  134.0543  157.3834 LP  0  0  0  0  0  0  0  0  0  0  0  0  # atno 17395 bound_to 11000

$$$$
