#       Name:                AV-unprocessed.smi:743
#       Creating user name   scv26
#       Creation time:       Fri Mar 27 00:56:13 2020


#       File generated by GOLD software.
#

@<TRIPOS>MOLECULE
AV-unprocessed.smi:743
    32    33     1
SMALL
NO_CHARGES


@<TRIPOS>ATOM
      1 ****        -4.3200   0.7588  -0.6148 C.3            1 S1                 0.0000
      2 ****        -3.0877   0.0563  -0.3277 N.pl3          1 S1                 0.0000
      3 ****        -1.7982   0.4174  -0.6516 C.2            1 S1                 0.0000
      4 ****        -0.9635  -0.5586  -0.1798 C.2            1 S1                 0.0000
      5 ****         0.5422  -0.6548  -0.2621 C.3            1 S1                 0.0000
      6 ****         1.0426   0.0531  -1.4451 N.am           1 S1                 0.0000
      7 ****         2.1632   0.7913  -1.5378 C.2            1 S1                 0.0000
      8 ****         2.5084   1.3018  -2.6009 O.2            1 S1                 0.0000
      9 ****         3.0102   1.0253  -0.2787 C.3            1 S1                 0.0000
     10 ****         2.7190   0.0187   0.8438 C.3            1 S1                 0.0000
     11 ****         1.2076  -0.1461   1.0392 C.3            1 S1                 0.0000
     12 ****         0.9532  -1.0526   2.1445 N.3            1 S1                 0.0000
     13 ****        -1.8599  -1.4843   0.4288 C.2            1 S1                 0.0000
     14 ****        -3.1272  -1.1164   0.3362 N.2            1 S1                 0.0000
     15 ****         0.7867   0.8254   1.3026 H              1 S1                 0.0000
     16 ****        -4.1112   1.8105  -0.8136 H              1 S1                 0.0000
     17 ****        -4.9990   0.6892   0.2359 H              1 S1                 0.0000
     18 ****        -4.7963   0.3185  -1.4911 H              1 S1                 0.0000
     19 ****        -1.5820   1.3310  -1.1860 H              1 S1                 0.0000
     20 ****         0.8334  -1.6961  -0.4095 H              1 S1                 0.0000
     21 ****         0.5006  -0.0611  -2.2894 H              1 S1                 0.0000
     22 ****         4.0685   0.9974  -0.5403 H              1 S1                 0.0000
     23 ****         2.8023   2.0355   0.0755 H              1 S1                 0.0000
     24 ****         3.1750  -0.9430   0.6025 H              1 S1                 0.0000
     25 ****         3.1865   0.3613   1.7677 H              1 S1                 0.0000
     26 ****         1.3573  -1.9560   1.9430 H              1 S1                 0.0000
     27 ****         1.4152  -0.7116   2.9754 H              1 S1                 0.0000
     28 ****        -1.6258  -2.4108   0.9321 H              1 S1                 0.0000
     29 ****         1.9519   1.1724  -3.4216 LP             1 S1                 0.0000
     30 ****         3.3457   1.8466  -2.6453 LP             1 S1                 0.0000
     31 ****        -0.0359  -1.1172   2.2768 LP             1 S1                 0.0000
     32 ****        -3.9325  -1.5990   0.6808 LP             1 S1                 0.0000
@<TRIPOS>BOND
    1    1    2 1     
    2    1   16 1     
    3    1   17 1     
    4    1   18 1     
    5    2   14 1     
    6    2    3 1     
    7    3    4 2     
    8    3   19 1     
    9    4    5 1     
   10    4   13 1     
   11    5   11 1     
   12    5    6 1     
   13    5   20 1     
   14    6    7 am    
   15    6   21 1     
   16    7    8 2     
   17    7    9 1     
   18    9   10 1     
   19    9   22 1     
   20    9   23 1     
   21   10   11 1     
   22   10   24 1     
   23   10   25 1     
   24   11   15 1     
   25   11   12 1     
   26   12   26 1     
   27   12   27 1     
   28   13   14 2     
   29   13   28 1     
   30    8   29 1     
   31    8   30 1     
   32   12   31 1     
   33   14   32 1     
@<TRIPOS>SUBSTRUCTURE
      1 S1             1
@<TRIPOS>SET
LONE_PAIRS      STATIC     ATOMS    <user>   **** ""
4 29 30 31 32
DONOR_HYDROGENS      STATIC     ATOMS    <user>   **** ""
3 21 26 27
ATOM$BLUE        STATIC     ATOMS    COLORGROUP SYSTEM
4 29 30 31 32
ATOM$RED        STATIC     ATOMS    COLORGROUP SYSTEM
3 21 26 27
