AV-unprocessed.smi:2045|AV-procd|sdf|8308|dock6
  -GOLD-   2272010573D 1   1.00000     0.00000
 Structure written by MMmdl.
 39 40  0  0  0  0  0  0  0  0  2 V2000
  150.3064  141.9630  157.4494 C   0  0  0  0  0  0  0  0  0  0  0  0
  150.2038  141.0488  156.2769 C   0  0  0  0  0  0  0  0  0  0  0  0
  149.1528  140.3993  155.6928 C   0  0  0  0  0  0  0  0  0  0  0  0
  149.7660  139.6997  154.6198 C   0  0  0  0  0  0  0  0  0  0  0  0
  148.9985  138.8867  153.7470 N   0  0  0  0  0  0  0  0  0  0  0  0
  147.6794  138.9677  153.5031 C   0  0  0  0  0  0  0  0  0  0  0  0
  146.9126  139.7901  154.0053 O   0  0  0  0  0  0  0  0  0  0  0  0
  147.2821  138.0269  152.6338 N   0  0  0  0  0  0  0  0  0  0  0  0
  145.9109  137.8524  152.1684 C   0  0  0  0  0  0  0  0  0  0  0  0
  145.8076  136.7294  151.1173 C   0  0  0  0  0  0  0  0  0  0  0  0
  146.3121  135.4292  151.6260 N   0  3  0  0  0  0  0  0  0  0  0  0
  146.0112  135.2380  153.0693 C   0  0  0  0  0  0  0  0  0  0  0  0
  146.6566  133.9503  153.6091 C   0  0  0  0  0  0  0  0  0  0  0  0
  146.2118  132.7290  152.7947 C   0  0  0  0  0  0  0  0  0  0  0  0
  146.5010  132.9599  151.3063 C   0  0  0  0  0  0  0  0  0  0  0  0
  145.8559  134.2671  150.8158 C   0  0  0  0  0  0  0  0  0  0  0  0
  151.0726  139.9040  154.5541 N   0  0  0  0  0  0  0  0  0  0  0  0
  151.3600  140.7691  155.6165 O   0  0  0  0  0  0  0  0  0  0  0  0
  149.3203  142.3038  157.7655 H   0  0  0  0  0  0  0  0  0  0  0  0
  150.9041  142.8412  157.2049 H   0  0  0  0  0  0  0  0  0  0  0  0
  150.7762  141.4571  158.2929 H   0  0  0  0  0  0  0  0  0  0  0  0
  148.1144  140.4237  155.9885 H   0  0  0  0  0  0  0  0  0  0  0  0
  149.5087  138.1641  153.2611 H   0  0  0  0  0  0  0  0  0  0  0  0
  147.9760  137.3933  152.2639 H   0  0  0  0  0  0  0  0  0  0  0  0
  145.2675  137.6598  153.0274 H   0  0  0  0  0  0  0  0  0  0  0  0
  145.5768  138.7964  151.7372 H   0  0  0  0  0  0  0  0  0  0  0  0
  144.7573  136.6258  150.8407 H   0  0  0  0  0  0  0  0  0  0  0  0
  146.3404  136.9926  150.2024 H   0  0  0  0  0  0  0  0  0  0  0  0
  146.3843  136.0887  153.6410 H   0  0  0  0  0  0  0  0  0  0  0  0
  144.9302  135.2075  153.2155 H   0  0  0  0  0  0  0  0  0  0  0  0
  147.7431  134.0406  153.5718 H   0  0  0  0  0  0  0  0  0  0  0  0
  146.3934  133.8134  154.6584 H   0  0  0  0  0  0  0  0  0  0  0  0
  146.7252  131.8334  153.1456 H   0  0  0  0  0  0  0  0  0  0  0  0
  145.1448  132.5562  152.9411 H   0  0  0  0  0  0  0  0  0  0  0  0
  147.5789  132.9988  151.1427 H   0  0  0  0  0  0  0  0  0  0  0  0
  146.1298  132.1182  150.7208 H   0  0  0  0  0  0  0  0  0  0  0  0
  144.7686  134.1900  150.8693 H   0  0  0  0  0  0  0  0  0  0  0  0
  146.1079  134.4100  149.7656 H   0  0  0  0  0  0  0  0  0  0  0  0
  147.3186  135.4644  151.5518 H   0  0  0  0  0  0  0  0  0  0  0  0
  1  2  1  0  0  0  0
  1 19  1  0  0  0  0
  1 20  1  0  0  0  0
  1 21  1  0  0  0  0
  2 18  1  0  0  0  0
  2  3  2  0  0  0  0
  3  4  1  0  0  0  0
  3 22  1  0  0  0  0
  4  5  1  0  0  0  0
  4 17  2  0  0  0  0
  5  6  1  0  0  0  0
  5 23  1  0  0  0  0
  6  7  2  0  0  0  0
  6  8  1  0  0  0  0
  8  9  1  0  0  0  0
  8 24  1  0  0  0  0
  9 10  1  0  0  0  0
  9 25  1  0  0  0  0
  9 26  1  0  0  0  0
 10 11  1  0  0  0  0
 10 27  1  0  0  0  0
 10 28  1  0  0  0  0
 11 16  1  0  0  0  0
 11 12  1  0  0  0  0
 11 39  1  0  0  0  0
 12 13  1  0  0  0  0
 12 29  1  0  0  0  0
 12 30  1  0  0  0  0
 13 14  1  0  0  0  0
 13 31  1  0  0  0  0
 13 32  1  0  0  0  0
 14 15  1  0  0  0  0
 14 33  1  0  0  0  0
 14 34  1  0  0  0  0
 15 16  1  0  0  0  0
 15 35  1  0  0  0  0
 15 36  1  0  0  0  0
 16 37  1  0  0  0  0
 16 38  1  0  0  0  0
 17 18  1  0  0  0  0
M  CHG  1  11   1
M  END
> <s_m_source_file>
AV-unprocessed.smi

> <i_m_source_file_index>
2045

> <i_lp_mmshare_version>
43012

> <i_f3d_flags>
0

> <s_epik_input>
W0NIM11jMVtjSF1jKG5vMSlbTkhdQyg9TylbTkhdW0NIMl1bQ0gyXU4yW0NIMl1bQ0gyXVtDSDJdW0NIMl1bQ0gyXTI=

> <s_epik_cmdline>
J2VwaWtfcHl0aG9uJywgJy1waCcsICc3LjAnLCAnLXRuJywgJzgnLCAnLW1hJywgJzIwMCcsICctbWV0YWxfYmluZGluZycsICctaW1hZScsICc8aW5maWxlLm1hZT4nLCAnLW9tYWUnLCAnPG91dGZpbGUubWFlPic=

> <r_epik_Ionization_Penalty>
0.00265971

> <r_epik_Ionization_Penalty_Charging>
0.00262393

> <r_epik_Ionization_Penalty_Neutral>
3.57846e-05

> <r_epik_State_Penalty>
0.00182566

> <r_epik_Charging_Adjusted_Penalty>
0.00444959

> <i_epik_Tot_Q>
1

> <i_epik_Tot_abs_Q>
1

> <r_epik_Metal_State_Penalty>
0.0216344

> <b_epik_Metal_Only>
0

> <s_lp_Force_Field>
OPLS_2005

> <r_lp_Energy>
12.4185

> <b_lp_Chiralities_Consistent>
1

> <s_lp_Variant>
AV-unprocessed.smi:2045-1

> <Gold.Version>
5.8.1

> <Gold.Id.Protein>
6NUR|6NUR_protein|mol2

> <Gold.PLP.Fitness>
38.0457

> <Gold.PLP.PLP>
-27.4970

> <Gold.PLP.part.hbond>
-5.3496

> <Gold.PLP.part.metal>
0.0000

> <Gold.PLP.part.buried>
-1.3630

> <Gold.PLP.part.nonpolar>
-21.6556

> <Gold.PLP.part.repulsive>
0.4540

> <Gold.PLP.ligand.clash>
0.0000

> <Gold.PLP.ligand.torsion>
0.3278

> <Gold.PLP.Chemscore.Hbond>
3.7298

> <Gold.PLP.Chemscore.CHOScore>
0.0000

> <Gold.PLP.Chemscore.Metal>
0.0000

> <Gold.Chemscore.Hbonds>
donor molecule, donor type, donor heavy atom, donor atom, acceptor molecule, acceptor atom, score
      L1  H     5    23       P1  7948  0.04
      L1  H     8    24       P1  7948  1.00
      L1  H    11    39       P1  7948  2.00
      P1  H  7989  7998       L1    17  0.70

> <Gold.PLP.Chemscore.Internal.Correction>
0.0151

> <Gold.Rescore>
     Score         DG    S(hbond)    S(metal)    S(lipo)     H(rot)  DE(clash)    DE(int)     intcor
     15.02     -16.87       2.91        0.00      48.98       1.58       0.33       1.52       ----

> <Gold.Chemscore.Fitness>
15.0199

> <Gold.Chemscore.DG>
-16.8696

> <Gold.Chemscore.ZeroCoef>
-5.4800

> <Gold.Chemscore.Hbond>
2.9077

> <Gold.Chemscore.Metal>
0.0000

> <Gold.Chemscore.Lipo>
48.9823

> <Gold.Chemscore.Internal_Hbond>
0.0000

> <Gold.Chemscore.DEClash>
0.3319

> <Gold.Chemscore.DEInternal>
1.5177

> <Gold.Chemscore.Rot>
1.5833

> <Gold.Chemscore.Internal.Correction>
   9.000000E+99

> <Gold.Chemscore.Hbonds>
donor molecule, donor type, donor heavy atom, donor atom, acceptor molecule, acceptor atom, score
      L1  H     5    23       P1  7948  0.07
      L1  H     8    24       P1  7948  0.95
      L1  H    11    39       P1  7948  0.95
      P1  H  7989  7998       L1    17  0.07

> <Gold.Chemscore.Hbond.Weighted>
-9.7119

> <Gold.Chemscore.Metal.Weighted>
-0.0000

> <Gold.Chemscore.Lipo.Weighted>
-5.7309

> <Gold.Chemscore.Internal_Hbond.Weighted>
0.0000

> <Gold.Chemscore.DEClash.Weighted>
0.3319

> <Gold.Chemscore.DEInternal.Weighted>
1.5177

> <Gold.Chemscore.Rot.Weighted>
4.0532

> <Gold.Chemscore.Internal.Correction.Weighted>
   9.000000E+99

> <Gold.Protein.RotatedTorsions>
[ 6907 6896 6895 6894 ] final -113.83 input  -60.11 | X-H torsion
[ 7974 7965 7964 7962 ] final  -30.47 input  175.53 | X-H torsion
[ 8008 7997 7996 7995 ] final -111.85 input   59.86 | X-H torsion
[ 10167 10162 10161 10158 ] final  134.33 input  -65.29 | X-H torsion
[ 10718 10713 10712 10709 ] final  -87.33 input   66.30 | X-H torsion
[ 10763 10752 10751 10750 ] final  -80.07 input  -60.55 | X-H torsion
[ 11005 11000 10999 10996 ] final -161.74 input  -57.11 | X-H torsion

> <Gold.Protein.ActiveResidues>
 VAL166  LYS551  ARG553  GLY616  TRP617  ASP618  TYR619  PRO620  LYS621  CYS622 
 ASP623  PHE694  ASN695  SER759  ASP760  ASP761  ALA762  ILE779  LEU786  VAL792 
 PHE793  MET794  SER795  GLU796  ALA797  LYS798  CYS799  TRP800  GLU811  SER814 

> <Gold.Protein.RotatedAtoms>
  150.7858  133.8888  159.3307 H   0  0  0  0  0  0  0  0  0  0  0  0  # atno 6907 bound_to 6896
  151.6739  135.0970  160.0212 H   0  0  0  0  0  0  0  0  0  0  0  0  # atno 6908 bound_to 6896
  152.3921  133.6655  159.6281 H   0  0  0  0  0  0  0  0  0  0  0  0  # atno 6909 bound_to 6896
  146.1140  140.5544  142.8765 H   0  0  0  0  0  0  0  0  0  0  0  0  # atno 7974 bound_to 7965
  154.9961  140.0394  157.2340 H   0  0  0  0  0  0  0  0  0  0  0  0  # atno 8008 bound_to 7997
  154.7585  140.2780  155.6211 H   0  0  0  0  0  0  0  0  0  0  0  0  # atno 8009 bound_to 7997
  156.2899  140.2633  156.2357 H   0  0  0  0  0  0  0  0  0  0  0  0  # atno 8010 bound_to 7997
  139.5260  144.6572  151.5125 H   0  0  0  0  0  0  0  0  0  0  0  0  # atno 10167 bound_to 10162
  155.9986  130.4796  150.4850 H   0  0  0  0  0  0  0  0  0  0  0  0  # atno 10718 bound_to 10713
  154.5465  135.5674  153.6885 H   0  0  0  0  0  0  0  0  0  0  0  0  # atno 10763 bound_to 10752
  152.9978  135.6240  154.2431 H   0  0  0  0  0  0  0  0  0  0  0  0  # atno 10764 bound_to 10752
  154.2364  135.2864  155.2850 H   0  0  0  0  0  0  0  0  0  0  0  0  # atno 10765 bound_to 10752
  140.6171  134.4789  157.5220 H   0  0  0  0  0  0  0  0  0  0  0  0  # atno 11005 bound_to 11000
  144.7537  140.5254  143.6784 LP  0  0  0  0  0  0  0  0  0  0  0  0  # atno 17320 bound_to 7965
  145.5604  139.1479  143.3344 LP  0  0  0  0  0  0  0  0  0  0  0  0  # atno 17321 bound_to 7965
  140.6404  143.8901  150.6686 LP  0  0  0  0  0  0  0  0  0  0  0  0  # atno 17342 bound_to 10162
  140.2234  143.3791  152.1625 LP  0  0  0  0  0  0  0  0  0  0  0  0  # atno 17343 bound_to 10162
  157.2851  131.0615  151.2171 LP  0  0  0  0  0  0  0  0  0  0  0  0  # atno 17370 bound_to 10713
  157.3204  130.6934  149.6266 LP  0  0  0  0  0  0  0  0  0  0  0  0  # atno 17371 bound_to 10713
  139.9168  134.8229  156.1339 LP  0  0  0  0  0  0  0  0  0  0  0  0  # atno 17394 bound_to 11000
  141.0768  133.6772  156.2253 LP  0  0  0  0  0  0  0  0  0  0  0  0  # atno 17395 bound_to 11000

$$$$
