#       Name:                AV-unprocessed.smi:773
#       Creating user name   scv26
#       Creation time:       Fri Mar 27 01:10:48 2020


#       File generated by GOLD software.
#

@<TRIPOS>MOLECULE
AV-unprocessed.smi:773
    44    45     1
SMALL
NO_CHARGES


@<TRIPOS>ATOM
      1 ****        -1.9630   0.3204  -3.7389 C.3            1 S1                 0.0000
      2 ****        -2.3119   0.5706  -2.3002 C.2            1 S1                 0.0000
      3 ****        -2.7459   1.7655  -1.9368 N.2            1 S1                 0.0000
      4 ****        -2.9734   1.6880  -0.5598 O.3            1 S1                 0.0000
      5 ****        -2.6684   0.4330  -0.1438 C.2            1 S1                 0.0000
      6 ****        -2.8297   0.1600   1.3133 C.3            1 S1                 0.0000
      7 ****        -2.2467  -0.3304  -1.1985 C.2            1 S1                 0.0000
      8 ****        -1.8022  -1.7727  -1.2056 C.3            1 S1                 0.0000
      9 ****        -0.2689  -1.9418  -1.1301 C.3            1 S1                 0.0000
     10 ****         0.1338  -3.4214  -1.0643 C.3            1 S1                 0.0000
     11 ****         0.2892  -1.2384   0.0254 N.am           1 S1                 0.0000
     12 ****         0.9242  -0.0570  -0.0070 C.2            1 S1                 0.0000
     13 ****         1.1364   0.5890  -1.0336 O.2            1 S1                 0.0000
     14 ****         1.2861   0.3455   1.2177 N.am           1 S1                 0.0000
     15 ****         1.9667   1.6033   1.4967 C.3            1 S1                 0.0000
     16 ****         3.4863   1.5396   1.2847 C.3            1 S1                 0.0000
     17 ****         3.6216   2.3684   2.5686 C.3            1 S1                 0.0000
     18 ****         2.2554   1.8104   2.9889 C.3            1 S1                 0.0000
     19 ****        -1.2051  -0.4571  -3.8322 H              1 S1                 0.0000
     20 ****        -1.5692   1.2188  -4.2154 H              1 S1                 0.0000
     21 ****        -2.8394  -0.0001  -4.3023 H              1 S1                 0.0000
     22 ****        -2.8095  -0.9101   1.5184 H              1 S1                 0.0000
     23 ****        -3.7771   0.5551   1.6800 H              1 S1                 0.0000
     24 ****        -2.0247   0.6265   1.8812 H              1 S1                 0.0000
     25 ****        -2.2598  -2.3115  -0.3753 H              1 S1                 0.0000
     26 ****        -2.1675  -2.2731  -2.1029 H              1 S1                 0.0000
     27 ****         0.1620  -1.5313  -2.0447 H              1 S1                 0.0000
     28 ****        -0.2359  -3.9669  -1.9331 H              1 S1                 0.0000
     29 ****        -0.2678  -3.9045  -0.1729 H              1 S1                 0.0000
     30 ****         1.2183  -3.5334  -1.0437 H              1 S1                 0.0000
     31 ****         0.1660  -1.6820   0.9237 H              1 S1                 0.0000
     32 ****         1.0701  -0.2472   2.0058 H              1 S1                 0.0000
     33 ****         1.5113   2.4829   1.0355 H              1 S1                 0.0000
     34 ****         3.9015   0.5348   1.3860 H              1 S1                 0.0000
     35 ****         3.8418   2.0354   0.3809 H              1 S1                 0.0000
     36 ****         4.4520   2.0811   3.2141 H              1 S1                 0.0000
     37 ****         3.6035   3.4440   2.3839 H              1 S1                 0.0000
     38 ****         1.6022   2.5291   3.4846 H              1 S1                 0.0000
     39 ****         2.3373   0.8793   3.5534 H              1 S1                 0.0000
     40 ****        -2.8832   2.5615  -2.5263 LP             1 S1                 0.0000
     41 ****        -3.9345   1.8838  -0.3650 LP             1 S1                 0.0000
     42 ****        -2.3951   2.3509  -0.0844 LP             1 S1                 0.0000
     43 ****         0.8282   0.2381  -1.9179 LP             1 S1                 0.0000
     44 ****         1.6170   1.4645  -0.9831 LP             1 S1                 0.0000
@<TRIPOS>BOND
    1    1    2 1     
    2    1   19 1     
    3    1   20 1     
    4    1   21 1     
    5    2    7 1     
    6    2    3 2     
    7    3    4 1     
    8    4    5 1     
    9    5    6 1     
   10    5    7 2     
   11    6   22 1     
   12    6   23 1     
   13    6   24 1     
   14    7    8 1     
   15    8    9 1     
   16    8   25 1     
   17    8   26 1     
   18    9   10 1     
   19    9   11 1     
   20    9   27 1     
   21   10   28 1     
   22   10   29 1     
   23   10   30 1     
   24   11   12 am    
   25   11   31 1     
   26   12   13 2     
   27   12   14 am    
   28   14   15 1     
   29   14   32 1     
   30   15   18 1     
   31   15   16 1     
   32   15   33 1     
   33   16   17 1     
   34   16   34 1     
   35   16   35 1     
   36   17   18 1     
   37   17   36 1     
   38   17   37 1     
   39   18   38 1     
   40   18   39 1     
   41    3   40 1     
   42    4   41 1     
   43    4   42 1     
   44   13   43 1     
   45   13   44 1     
@<TRIPOS>SUBSTRUCTURE
      1 S1             1
@<TRIPOS>SET
LONE_PAIRS      STATIC     ATOMS    <user>   **** ""
5 40 41 42 43 44
DONOR_HYDROGENS      STATIC     ATOMS    <user>   **** ""
2 31 32
ATOM$BLUE        STATIC     ATOMS    COLORGROUP SYSTEM
5 40 41 42 43 44
ATOM$RED        STATIC     ATOMS    COLORGROUP SYSTEM
2 31 32
