AV-unprocessed.smi:157|AV-procd|sdf|1295|dock3
  -GOLD-   2262018583D 1   1.00000     0.00000
 Structure written by MMmdl.
 35 37  0  0  0  0  0  0  0  0  1 V2000
  147.4712  138.4217  151.6271 O   0  0  0  0  0  0  0  0  0  0  0  0
  146.5489  137.9272  152.5748 C   0  0  0  0  0  0  0  0  0  0  0  0
  145.3319  137.3186  151.8616 C   0  0  1  0  0  0  0  0  0  0  0  0
  145.6364  135.9896  151.4612 O   0  0  0  0  0  0  0  0  0  0  0  0
  144.4344  135.3160  151.3192 C   0  0  1  0  0  0  0  0  0  0  0  0
  144.6982  133.8426  151.3664 N   0  0  0  0  0  0  0  0  0  0  0  0
  143.9146  132.9028  150.8244 C   0  0  0  0  0  0  0  0  0  0  0  0
  144.3460  131.6641  150.9886 N   0  0  0  0  0  0  0  0  0  0  0  0
  145.5355  131.8140  151.6991 C   0  0  0  0  0  0  0  0  0  0  0  0
  145.7791  133.1591  151.9387 C   0  0  0  0  0  0  0  0  0  0  0  0
  146.7641  133.8915  152.5752 N   0  0  0  0  0  0  0  0  0  0  0  0
  147.9058  133.3206  152.7964 C   0  0  0  0  0  0  0  0  0  0  0  0
  148.3084  132.0103  152.5839 N   0  0  0  0  0  0  0  0  0  0  0  0
  147.5268  130.8579  152.9983 C   0  0  0  0  0  0  0  0  0  0  0  0
  146.3093  130.5926  152.1048 C   0  0  2  0  0  0  0  0  0  0  0  0
  146.7338  129.9576  150.9162 O   0  0  0  0  0  0  0  0  0  0  0  0
  143.5516  135.7732  152.4777 C   0  0  0  0  0  0  0  0  0  0  0  0
  144.0985  137.1656  152.7753 C   0  0  2  0  0  0  0  0  0  0  0  0
  143.1292  138.1515  152.4815 O   0  0  0  0  0  0  0  0  0  0  0  0
  145.0683  137.8969  150.9732 H   0  0  0  0  0  0  0  0  0  0  0  0
  143.9977  135.5156  150.3390 H   0  0  0  0  0  0  0  0  0  0  0  0
  145.6506  129.8918  152.6189 H   0  0  0  0  0  0  0  0  0  0  0  0
  144.3709  137.2329  153.8295 H   0  0  0  0  0  0  0  0  0  0  0  0
  147.9192  139.1640  152.0028 H   0  0  0  0  0  0  0  0  0  0  0  0
  147.0284  137.1988  153.2299 H   0  0  0  0  0  0  0  0  0  0  0  0
  146.2379  138.7680  153.1954 H   0  0  0  0  0  0  0  0  0  0  0  0
  142.9987  133.1329  150.3002 H   0  0  0  0  0  0  0  0  0  0  0  0
  148.7101  133.9210  153.2239 H   0  0  0  0  0  0  0  0  0  0  0  0
  149.2968  131.8038  152.5884 H   0  0  0  0  0  0  0  0  0  0  0  0
  148.1664  129.9765  153.0540 H   0  0  0  0  0  0  0  0  0  0  0  0
  147.1815  131.0486  154.0156 H   0  0  0  0  0  0  0  0  0  0  0  0
  147.5922  130.2864  150.6957 H   0  0  0  0  0  0  0  0  0  0  0  0
  142.5003  135.7491  152.1880 H   0  0  0  0  0  0  0  0  0  0  0  0
  143.6880  135.1227  153.3419 H   0  0  0  0  0  0  0  0  0  0  0  0
  143.0395  138.2140  151.5428 H   0  0  0  0  0  0  0  0  0  0  0  0
  1  2  1  0  0  0  0
  1 24  1  0  0  0  0
  2  3  1  0  0  0  0
  2 25  1  0  0  0  0
  2 26  1  0  0  0  0
  3 20  1  0  0  0  0
  3 18  1  0  0  0  0
  3  4  1  0  0  0  0
  4  5  1  0  0  0  0
  5 21  1  0  0  0  0
  5  6  1  0  0  0  0
  5 17  1  0  0  0  0
  6 10  1  0  0  0  0
  6  7  1  0  0  0  0
  7  8  2  0  0  0  0
  7 27  1  0  0  0  0
  8  9  1  0  0  0  0
  9 15  1  0  0  0  0
  9 10  2  0  0  0  0
 10 11  1  0  0  0  0
 11 12  2  0  0  0  0
 12 13  1  0  0  0  0
 12 28  1  0  0  0  0
 13 14  1  0  0  0  0
 13 29  1  0  0  0  0
 14 15  1  0  0  0  0
 14 30  1  0  0  0  0
 14 31  1  0  0  0  0
 15 22  1  0  0  0  0
 15 16  1  0  0  0  0
 16 32  1  0  0  0  0
 17 18  1  0  0  0  0
 17 33  1  0  0  0  0
 17 34  1  0  0  0  0
 18 23  1  0  0  0  0
 18 19  1  0  0  0  0
 19 35  1  0  0  0  0
M  END
> <s_m_source_file>
AV-unprocessed.smi

> <i_m_source_file_index>
157

> <i_lp_mmshare_version>
43012

> <i_f3d_flags>
0

> <s_epik_input>
W09IXVtDSDJdW0NASF0xT1tDQEhdKFtDSDJdW0NAQEhdMVtPSF0pbihbY0hdbjIpYyhjMjMpTj1bQ0hdW05IXVtDSDJdW0NASF0zW09IXQ==

> <s_epik_cmdline>
J2VwaWtfcHl0aG9uJywgJy1waCcsICc3LjAnLCAnLXRuJywgJzgnLCAnLW1hJywgJzIwMCcsICctbWV0YWxfYmluZGluZycsICctaW1hZScsICc8aW5maWxlLm1hZT4nLCAnLW9tYWUnLCAnPG91dGZpbGUubWFlPic=

> <r_lp_tautomer_probability>
1

> <r_epik_Ionization_Penalty>
0.0357149

> <r_epik_Ionization_Penalty_Charging>
0.0355056

> <r_epik_Ionization_Penalty_Neutral>
0.000209255

> <r_epik_State_Penalty>
0.0296046

> <r_epik_Charging_Adjusted_Penalty>
0.0651102

> <i_epik_Tot_Q>
0

> <i_epik_Tot_abs_Q>
0

> <r_epik_Metal_State_Penalty>
3.03559e-05

> <b_epik_Metal_Only>
0

> <s_epik_Chemistry_Notes>
This compound has an imine and may undergo hydrolysis. This compound contains an acetal/aminal-like group ( X-CH(R)-Y where X, Y are N, S, or O) that may be acid/base labile, releasing an aldehyde.

> <s_lp_Force_Field>
OPLS_2005

> <r_lp_Energy>
44.773

> <b_lp_Chiralities_Consistent>
1

> <s_lp_Variant>
AV-unprocessed.smi:157-5

> <Gold.Version>
5.8.1

> <Gold.Id.Protein>
6NUR|6NUR_protein|mol2

> <Gold.PLP.Fitness>
44.0662

> <Gold.PLP.PLP>
-32.2872

> <Gold.PLP.part.hbond>
-6.2999

> <Gold.PLP.part.metal>
0.0000

> <Gold.PLP.part.buried>
-1.6267

> <Gold.PLP.part.nonpolar>
-23.5375

> <Gold.PLP.part.repulsive>
0.4941

> <Gold.PLP.ligand.clash>
0.0000

> <Gold.PLP.ligand.torsion>
0.8955

> <Gold.PLP.Chemscore.Hbond>
3.4369

> <Gold.PLP.Chemscore.CHOScore>
1.0814

> <Gold.PLP.Chemscore.Metal>
0.0000

> <Gold.Chemscore.Hbonds>
donor molecule, donor type, donor heavy atom, donor atom, acceptor molecule, acceptor atom, score
      L1  H     1    24       P1  7957  0.42
      L1  H    16    32       P1 10747  1.00
      L1  H    19    35       P1 10171  0.99
      P1  H  7954  7966       L1     1  1.00
      L1  C     7    27       P1 10186  1.00
      L1  C    12    28       P1  7948  0.27

> <Gold.PLP.Chemscore.Internal.Correction>
0.0154

> <Gold.Rescore>
     Score         DG    S(hbond)    S(metal)    S(lipo)     H(rot)  DE(clash)    DE(int)     intcor
      7.00     -11.03       3.02        0.00      40.89       3.64       1.52       2.51       ----

> <Gold.Chemscore.Fitness>
7.0002

> <Gold.Chemscore.DG>
-11.0278

> <Gold.Chemscore.ZeroCoef>
-5.4800

> <Gold.Chemscore.Hbond>
3.0157

> <Gold.Chemscore.Metal>
0.0000

> <Gold.Chemscore.Lipo>
40.8893

> <Gold.Chemscore.Internal_Hbond>
0.0000

> <Gold.Chemscore.DEClash>
1.5167

> <Gold.Chemscore.DEInternal>
2.5108

> <Gold.Chemscore.Rot>
3.6362

> <Gold.Chemscore.Internal.Correction>
   9.000000E+99

> <Gold.Chemscore.Hbonds>
donor molecule, donor type, donor heavy atom, donor atom, acceptor molecule, acceptor atom, score
      L1  H     1    24       P1  7957  0.39
      L1  H    16    32       P1 10747  0.93
      L1  H    19    35       P1 10171  0.24
      P1  H  7954  7966       L1     1  0.83

> <Gold.Chemscore.Hbond.Weighted>
-10.0724

> <Gold.Chemscore.Metal.Weighted>
-0.0000

> <Gold.Chemscore.Lipo.Weighted>
-4.7841

> <Gold.Chemscore.Internal_Hbond.Weighted>
0.0000

> <Gold.Chemscore.DEClash.Weighted>
1.5167

> <Gold.Chemscore.DEInternal.Weighted>
2.5108

> <Gold.Chemscore.Rot.Weighted>
9.3087

> <Gold.Chemscore.Internal.Correction.Weighted>
   9.000000E+99

> <Gold.Protein.RotatedTorsions>
[ 6907 6896 6895 6894 ] final  -34.93 input  -60.11 | X-H torsion
[ 7974 7965 7964 7962 ] final  149.83 input  175.53 | X-H torsion
[ 8008 7997 7996 7995 ] final    6.18 input   59.86 | X-H torsion
[ 10167 10162 10161 10158 ] final  -99.98 input  -65.29 | X-H torsion
[ 10718 10713 10712 10709 ] final    2.78 input   66.30 | X-H torsion
[ 10763 10752 10751 10750 ] final  176.08 input  -60.55 | X-H torsion
[ 11005 11000 10999 10996 ] final -109.24 input  -57.11 | X-H torsion

> <Gold.Protein.ActiveResidues>
 VAL166  LYS551  ARG553  GLY616  TRP617  ASP618  TYR619  PRO620  LYS621  CYS622 
 ASP623  PHE694  ASN695  SER759  ASP760  ASP761  ALA762  ILE779  LEU786  VAL792 
 PHE793  MET794  SER795  GLU796  ALA797  LYS798  CYS799  TRP800  GLU811  SER814 

> <Gold.Protein.RotatedAtoms>
  151.0462  134.9642  159.8187 H   0  0  0  0  0  0  0  0  0  0  0  0  # atno 6907 bound_to 6896
  152.5373  134.2595  159.8939 H   0  0  0  0  0  0  0  0  0  0  0  0  # atno 6908 bound_to 6896
  151.2609  133.4260  159.2650 H   0  0  0  0  0  0  0  0  0  0  0  0  # atno 6909 bound_to 6896
  144.8409  139.6330  143.6017 H   0  0  0  0  0  0  0  0  0  0  0  0  # atno 7974 bound_to 7965
  154.7377  140.2743  155.6400 H   0  0  0  0  0  0  0  0  0  0  0  0  # atno 8008 bound_to 7997
  156.2866  140.2703  156.2021 H   0  0  0  0  0  0  0  0  0  0  0  0  # atno 8009 bound_to 7997
  155.0299  140.0371  157.2459 H   0  0  0  0  0  0  0  0  0  0  0  0  # atno 8010 bound_to 7997
  140.2567  143.3435  152.0664 H   0  0  0  0  0  0  0  0  0  0  0  0  # atno 10167 bound_to 10162
  156.8680  130.5610  149.5659 H   0  0  0  0  0  0  0  0  0  0  0  0  # atno 10718 bound_to 10713
  154.4763  135.2773  155.1604 H   0  0  0  0  0  0  0  0  0  0  0  0  # atno 10763 bound_to 10752
  154.3333  135.6185  153.5565 H   0  0  0  0  0  0  0  0  0  0  0  0  # atno 10764 bound_to 10752
  152.9870  135.5771  154.5155 H   0  0  0  0  0  0  0  0  0  0  0  0  # atno 10765 bound_to 10752
  141.0858  133.9141  157.2188 H   0  0  0  0  0  0  0  0  0  0  0  0  # atno 11005 bound_to 11000
  146.2702  139.6616  142.9301 LP  0  0  0  0  0  0  0  0  0  0  0  0  # atno 17320 bound_to 7965
  145.4696  141.0435  143.2706 LP  0  0  0  0  0  0  0  0  0  0  0  0  # atno 17321 bound_to 7965
  139.5029  144.6745  151.6163 LP  0  0  0  0  0  0  0  0  0  0  0  0  # atno 17342 bound_to 10162
  140.5998  143.9630  150.6378 LP  0  0  0  0  0  0  0  0  0  0  0  0  # atno 17343 bound_to 10162
  156.0741  130.5767  150.9440 LP  0  0  0  0  0  0  0  0  0  0  0  0  # atno 17370 bound_to 10713
  157.6212  131.0929  150.8619 LP  0  0  0  0  0  0  0  0  0  0  0  0  # atno 17371 bound_to 10713
  139.9676  135.0137  156.9429 LP  0  0  0  0  0  0  0  0  0  0  0  0  # atno 17394 bound_to 11000
  140.5365  134.0761  155.7330 LP  0  0  0  0  0  0  0  0  0  0  0  0  # atno 17395 bound_to 11000

$$$$
