AV-unprocessed.smi:3265|AV-procd|sdf|12497|dock2
  -GOLD-   2272018403D 1   1.00000     0.00000
 Structure written by MMmdl.
 41 42  0  0  0  0  0  0  0  0  2 V2000
  150.1147  144.5790  159.4789 C   0  0  0  0  0  0  0  0  0  0  0  0
  151.5143  144.5266  158.8416 C   0  0  1  0  0  0  0  0  0  0  0  0
  152.6442  144.4802  159.8865 C   0  0  0  0  0  0  0  0  0  0  0  0
  152.7319  143.0985  160.5496 C   0  0  0  0  0  0  0  0  0  0  0  0
  152.8458  141.9866  159.4949 C   0  0  0  0  0  0  0  0  0  0  0  0
  151.7182  142.0435  158.5289 N   0  3  2  0  0  0  0  0  0  0  0  0
  151.7263  140.8902  157.5940 C   0  0  0  0  0  0  0  0  0  0  0  0
  150.6045  140.9743  156.5415 C   0  0  0  0  0  0  0  0  0  0  0  0
  150.6121  139.8120  155.6623 N   0  0  0  0  0  0  0  0  0  0  0  0
  151.7056  139.2888  155.0821 C   0  0  0  0  0  0  0  0  0  0  0  0
  152.8288  139.7730  155.2180 O   0  0  0  0  0  0  0  0  0  0  0  0
  151.5201  138.0496  154.1955 C   0  0  0  0  0  0  0  0  0  0  0  0
  151.1831  136.8506  154.9480 N   0  0  0  0  0  0  0  0  0  0  0  0
  150.0259  136.1017  154.8915 C   0  0  0  0  0  0  0  0  0  0  0  0
  150.1620  135.0750  155.7812 C   0  0  0  0  0  0  0  0  0  0  0  0
  151.4555  135.2792  156.3380 C   0  0  0  0  0  0  0  0  0  0  0  0
  152.0645  136.3420  155.8372 N   0  0  0  0  0  0  0  0  0  0  0  0
  151.6560  143.3618  157.8398 C   0  0  0  0  0  0  0  0  0  0  0  0
  149.8906  143.6764  160.0476 H   0  0  0  0  0  0  0  0  0  0  0  0
  149.3419  144.6866  158.7173 H   0  0  0  0  0  0  0  0  0  0  0  0
  150.0249  145.4284  160.1567 H   0  0  0  0  0  0  0  0  0  0  0  0
  151.6300  145.4550  158.2806 H   0  0  0  0  0  0  0  0  0  0  0  0
  153.5941  144.7000  159.3973 H   0  0  0  0  0  0  0  0  0  0  0  0
  152.5030  145.2553  160.6405 H   0  0  0  0  0  0  0  0  0  0  0  0
  153.5919  143.0640  161.2189 H   0  0  0  0  0  0  0  0  0  0  0  0
  151.8540  142.9269  161.1735 H   0  0  0  0  0  0  0  0  0  0  0  0
  153.7916  142.0714  158.9570 H   0  0  0  0  0  0  0  0  0  0  0  0
  152.8537  141.0198  159.9994 H   0  0  0  0  0  0  0  0  0  0  0  0
  152.7030  140.8082  157.1146 H   0  0  0  0  0  0  0  0  0  0  0  0
  151.5875  139.9724  158.1672 H   0  0  0  0  0  0  0  0  0  0  0  0
  149.6305  141.0721  157.0247 H   0  0  0  0  0  0  0  0  0  0  0  0
  150.7263  141.8525  155.9092 H   0  0  0  0  0  0  0  0  0  0  0  0
  149.7269  139.3529  155.5016 H   0  0  0  0  0  0  0  0  0  0  0  0
  150.7291  138.2448  153.4709 H   0  0  0  0  0  0  0  0  0  0  0  0
  152.4332  137.8616  153.6286 H   0  0  0  0  0  0  0  0  0  0  0  0
  149.2100  136.3602  154.2323 H   0  0  0  0  0  0  0  0  0  0  0  0
  149.4474  134.2954  155.9999 H   0  0  0  0  0  0  0  0  0  0  0  0
  151.9658  134.6912  157.0864 H   0  0  0  0  0  0  0  0  0  0  0  0
  150.8229  143.3937  157.1388 H   0  0  0  0  0  0  0  0  0  0  0  0
  152.5626  143.4944  157.2472 H   0  0  0  0  0  0  0  0  0  0  0  0
  150.8750  141.9582  159.0784 H   0  0  0  0  0  0  0  0  0  0  0  0
  1  2  1  0  0  0  0
  1 19  1  0  0  0  0
  1 20  1  0  0  0  0
  1 21  1  0  0  0  0
  2 18  1  0  0  0  0
  2  3  1  0  0  0  0
  2 22  1  0  0  0  0
  3  4  1  0  0  0  0
  3 23  1  0  0  0  0
  3 24  1  0  0  0  0
  4  5  1  0  0  0  0
  4 25  1  0  0  0  0
  4 26  1  0  0  0  0
  5  6  1  0  0  0  0
  5 27  1  0  0  0  0
  5 28  1  0  0  0  0
  6  7  1  0  0  0  0
  6 18  1  0  0  0  0
  6 41  1  0  0  0  0
  7  8  1  0  0  0  0
  7 29  1  0  0  0  0
  7 30  1  0  0  0  0
  8  9  1  0  0  0  0
  8 31  1  0  0  0  0
  8 32  1  0  0  0  0
  9 10  1  0  0  0  0
  9 33  1  0  0  0  0
 10 11  2  0  0  0  0
 10 12  1  0  0  0  0
 12 13  1  0  0  0  0
 12 34  1  0  0  0  0
 12 35  1  0  0  0  0
 13 17  1  0  0  0  0
 13 14  1  0  0  0  0
 14 15  2  0  0  0  0
 14 36  1  0  0  0  0
 15 16  1  0  0  0  0
 15 37  1  0  0  0  0
 16 17  2  0  0  0  0
 16 38  1  0  0  0  0
 18 39  1  0  0  0  0
 18 40  1  0  0  0  0
M  CHG  1   6   1
M  END
> <s_m_source_file>
AV-unprocessed.smi

> <i_m_source_file_index>
3265

> <i_lp_mmshare_version>
43012

> <i_f3d_flags>
0

> <s_epik_input>
W0NIM11bQ0BASF0xW0NIMl1bQ0gyXVtDSDJdTihbQ0gyXTEpW0NIMl1bQ0gyXVtOSF1DKD1PKVtDSDJdbjJbY0hdW2NIXVtjSF1uMg==

> <s_epik_cmdline>
J2VwaWtfcHl0aG9uJywgJy1waCcsICc3LjAnLCAnLXRuJywgJzgnLCAnLW1hJywgJzIwMCcsICctbWV0YWxfYmluZGluZycsICctaW1hZScsICc8aW5maWxlLm1hZT4nLCAnLW9tYWUnLCAnPG91dGZpbGUubWFlPic=

> <r_lp_tautomer_probability>
1

> <r_epik_Ionization_Penalty>
0.00231455

> <r_epik_Ionization_Penalty_Charging>
0.00230623

> <r_epik_Ionization_Penalty_Neutral>
8.31727e-06

> <r_epik_State_Penalty>
0.00159065

> <r_epik_Charging_Adjusted_Penalty>
0.00389688

> <i_epik_Tot_Q>
1

> <i_epik_Tot_abs_Q>
1

> <r_epik_Metal_State_Penalty>
-0

> <b_epik_Metal_Only>
0

> <s_lp_Force_Field>
OPLS_2005

> <r_lp_Energy>
19.1739

> <b_lp_Chiralities_Consistent>
1

> <s_lp_Variant>
AV-unprocessed.smi:3265-2

> <Gold.Version>
5.8.1

> <Gold.Id.Protein>
6NUR|6NUR_protein|mol2

> <Gold.PLP.Fitness>
46.7387

> <Gold.PLP.PLP>
-38.1425

> <Gold.PLP.part.hbond>
-2.6396

> <Gold.PLP.part.metal>
0.0000

> <Gold.PLP.part.buried>
-4.9304

> <Gold.PLP.part.nonpolar>
-31.3454

> <Gold.PLP.part.repulsive>
0.1709

> <Gold.PLP.ligand.clash>
0.0000

> <Gold.PLP.ligand.torsion>
0.2167

> <Gold.PLP.Chemscore.Hbond>
2.0000

> <Gold.PLP.Chemscore.CHOScore>
1.0000

> <Gold.PLP.Chemscore.Metal>
0.0000

> <Gold.Chemscore.Hbonds>
donor molecule, donor type, donor heavy atom, donor atom, acceptor molecule, acceptor atom, score
      P1  H  7997  8008       L1    11  1.00
      P1  H 10752 10764       L1    17  0.70
      L1  C    14    36       P1  7948  1.00

> <Gold.PLP.Chemscore.Internal.Correction>
0.0296

> <Gold.Rescore>
     Score         DG    S(hbond)    S(metal)    S(lipo)     H(rot)  DE(clash)    DE(int)     intcor
     16.49     -18.52       1.95        0.00      96.05       1.84       0.03       2.01       ----

> <Gold.Chemscore.Fitness>
16.4860

> <Gold.Chemscore.DG>
-18.5231

> <Gold.Chemscore.ZeroCoef>
-5.4800

> <Gold.Chemscore.Hbond>
1.9499

> <Gold.Chemscore.Metal>
0.0000

> <Gold.Chemscore.Lipo>
96.0451

> <Gold.Chemscore.Internal_Hbond>
0.0000

> <Gold.Chemscore.DEClash>
0.0271

> <Gold.Chemscore.DEInternal>
2.0100

> <Gold.Chemscore.Rot>
1.8386

> <Gold.Chemscore.Internal.Correction>
   9.000000E+99

> <Gold.Chemscore.Hbonds>
donor molecule, donor type, donor heavy atom, donor atom, acceptor molecule, acceptor atom, score
      P1  H  7997  8008       L1    11  1.00
      P1  H 10752 10764       L1    17  0.04

> <Gold.Chemscore.Hbond.Weighted>
-6.5127

> <Gold.Chemscore.Metal.Weighted>
-0.0000

> <Gold.Chemscore.Lipo.Weighted>
-11.2373

> <Gold.Chemscore.Internal_Hbond.Weighted>
0.0000

> <Gold.Chemscore.DEClash.Weighted>
0.0271

> <Gold.Chemscore.DEInternal.Weighted>
2.0100

> <Gold.Chemscore.Rot.Weighted>
4.7069

> <Gold.Chemscore.Internal.Correction.Weighted>
   9.000000E+99

> <Gold.Protein.RotatedTorsions>
[ 6907 6896 6895 6894 ] final  133.34 input  -60.11 | X-H torsion
[ 7974 7965 7964 7962 ] final  171.37 input  175.53 | X-H torsion
[ 8008 7997 7996 7995 ] final  -17.05 input   59.86 | X-H torsion
[ 10167 10162 10161 10158 ] final -115.39 input  -65.29 | X-H torsion
[ 10718 10713 10712 10709 ] final   -8.73 input   66.30 | X-H torsion
[ 10763 10752 10751 10750 ] final  -31.87 input  -60.55 | X-H torsion
[ 11005 11000 10999 10996 ] final  -18.52 input  -57.11 | X-H torsion

> <Gold.Protein.ActiveResidues>
 VAL166  LYS551  ARG553  GLY616  TRP617  ASP618  TYR619  PRO620  LYS621  CYS622 
 ASP623  PHE694  ASN695  SER759  ASP760  ASP761  ALA762  ILE779  LEU786  VAL792 
 PHE793  MET794  SER795  GLU796  ALA797  LYS798  CYS799  TRP800  GLU811  SER814 

> <Gold.Protein.RotatedAtoms>
  152.3229  133.5874  159.5756 H   0  0  0  0  0  0  0  0  0  0  0  0  # atno 6907 bound_to 6896
  150.7381  133.9983  159.3639 H   0  0  0  0  0  0  0  0  0  0  0  0  # atno 6908 bound_to 6896
  151.7866  135.0748  160.0432 H   0  0  0  0  0  0  0  0  0  0  0  0  # atno 6909 bound_to 6896
  144.7297  139.9340  143.6426 H   0  0  0  0  0  0  0  0  0  0  0  0  # atno 7974 bound_to 7965
  154.5007  140.2153  155.9352 H   0  0  0  0  0  0  0  0  0  0  0  0  # atno 8008 bound_to 7997
  156.1430  140.3176  155.8493 H   0  0  0  0  0  0  0  0  0  0  0  0  # atno 8009 bound_to 7997
  155.4084  140.0489  157.3024 H   0  0  0  0  0  0  0  0  0  0  0  0  # atno 8010 bound_to 7997
  140.0906  143.4704  152.1872 H   0  0  0  0  0  0  0  0  0  0  0  0  # atno 10167 bound_to 10162
  156.6983  130.5086  149.5924 H   0  0  0  0  0  0  0  0  0  0  0  0  # atno 10718 bound_to 10713
  153.8045  135.6887  153.4850 H   0  0  0  0  0  0  0  0  0  0  0  0  # atno 10763 bound_to 10752
  153.1667  135.4558  154.9846 H   0  0  0  0  0  0  0  0  0  0  0  0  # atno 10764 bound_to 10752
  154.7993  135.3331  154.7530 H   0  0  0  0  0  0  0  0  0  0  0  0  # atno 10765 bound_to 10752
  140.8276  133.8021  155.9724 H   0  0  0  0  0  0  0  0  0  0  0  0  # atno 11005 bound_to 11000
  146.0836  139.3824  143.0449 LP  0  0  0  0  0  0  0  0  0  0  0  0  # atno 17320 bound_to 7965
  145.7808  140.9857  143.1100 LP  0  0  0  0  0  0  0  0  0  0  0  0  # atno 17321 bound_to 7965
  139.5727  144.7471  151.3847 LP  0  0  0  0  0  0  0  0  0  0  0  0  # atno 17342 bound_to 10162
  140.7031  143.7583  150.7435 LP  0  0  0  0  0  0  0  0  0  0  0  0  # atno 17343 bound_to 10162
  156.1747  130.6460  151.0880 LP  0  0  0  0  0  0  0  0  0  0  0  0  # atno 17370 bound_to 10713
  157.6983  131.0786  150.6901 LP  0  0  0  0  0  0  0  0  0  0  0  0  # atno 17371 bound_to 10713
  140.9033  134.2352  157.5029 LP  0  0  0  0  0  0  0  0  0  0  0  0  # atno 17394 bound_to 11000
  139.8706  134.9716  156.4744 LP  0  0  0  0  0  0  0  0  0  0  0  0  # atno 17395 bound_to 11000

$$$$
