#       Name:                AV-unprocessed.smi:1452
#       Creating user name   scv26
#       Creation time:       Fri Mar 27 05:59:22 2020


#       File generated by GOLD software.
#

@<TRIPOS>MOLECULE
AV-unprocessed.smi:1452
    43    45     1
SMALL
NO_CHARGES


@<TRIPOS>ATOM
      1 ****        -2.8159  -1.7753  -0.0907 O.2            1 S1                 0.0000
      2 ****        -1.6492  -1.7999  -0.4782 C.2            1 S1                 0.0000
      3 ****        -0.9542  -2.9557  -0.5317 N.am           1 S1                 0.0000
      4 ****        -1.3291  -4.2908  -0.1989 C.ar           1 S1                 0.0000
      5 ****        -0.2809  -5.2347  -0.2866 C.ar           1 S1                 0.0000
      6 ****        -0.5372  -6.5887   0.0035 C.ar           1 S1                 0.0000
      7 ****        -1.8402  -6.9680   0.3711 C.ar           1 S1                 0.0000
      8 ****        -2.8289  -5.9694   0.4300 C.ar           1 S1                 0.0000
      9 ****        -2.5849  -4.6709   0.1524 N.ar           1 S1                 0.0000
     10 ****        -0.9897  -0.6971  -0.8703 N.am           1 S1                 0.0000
     11 ****        -1.5132   0.6666  -0.8510 C.3            1 S1                 0.0000
     12 ****        -0.9582   1.5340  -1.9978 C.3            1 S1                 0.0000
     13 ****        -0.6453   2.8857  -1.3483 C.3            1 S1                 0.0000
     14 ****        -0.2525   2.5121   0.0152 N.4            1 S1                 1.0000
     15 ****        -0.1118   3.5797   1.0259 C.3            1 S1                 0.0000
     16 ****         0.4781   2.9606   2.3112 C.3            1 S1                 0.0000
     17 ****        -0.3262   1.7309   2.7911 C.3            1 S1                 0.0000
     18 ****        -0.5482   0.7122   1.6527 C.3            1 S1                 0.0000
     19 ****        -1.1654   1.4383   0.4432 C.3            1 S1                 0.0000
     20 ****        -0.0384  -2.8738  -0.9491 H              1 S1                 0.0000
     21 ****         0.7147  -4.9282  -0.5734 H              1 S1                 0.0000
     22 ****         0.2526  -7.3228  -0.0569 H              1 S1                 0.0000
     23 ****        -2.0761  -7.9968   0.5999 H              1 S1                 0.0000
     24 ****        -3.8428  -6.2186   0.7057 H              1 S1                 0.0000
     25 ****        -0.0344  -0.8146  -1.1779 H              1 S1                 0.0000
     26 ****        -2.6000   0.6359  -0.9506 H              1 S1                 0.0000
     27 ****        -0.0352   1.1016  -2.3878 H              1 S1                 0.0000
     28 ****        -1.6555   1.6249  -2.8314 H              1 S1                 0.0000
     29 ****         0.1443   3.4298  -1.8671 H              1 S1                 0.0000
     30 ****        -1.5378   3.5127  -1.3162 H              1 S1                 0.0000
     31 ****         0.5479   4.3611   0.6472 H              1 S1                 0.0000
     32 ****        -1.0808   4.0406   1.2241 H              1 S1                 0.0000
     33 ****         1.5083   2.6572   2.1200 H              1 S1                 0.0000
     34 ****         0.5225   3.7106   3.1015 H              1 S1                 0.0000
     35 ****         0.1840   1.2523   3.6277 H              1 S1                 0.0000
     36 ****        -1.2938   2.0613   3.1712 H              1 S1                 0.0000
     37 ****         0.4003   0.2490   1.3768 H              1 S1                 0.0000
     38 ****        -1.2053  -0.0874   1.9960 H              1 S1                 0.0000
     39 ****        -2.0927   1.9108   0.7751 H              1 S1                 0.0000
     40 ****         0.6569   2.0823  -0.0763 H              1 S1                 0.0000
     41 ****        -3.2668  -2.6219   0.1921 LP             1 S1                 0.0000
     42 ****        -3.3139  -0.9087  -0.0583 LP             1 S1                 0.0000
     43 ****        -3.3210  -3.9960   0.2048 LP             1 S1                 0.0000
@<TRIPOS>BOND
    1    1    2 2     
    2    2    3 am    
    3    2   10 am    
    4    3    4 1     
    5    3   20 1     
    6    4    9 ar    
    7    4    5 ar    
    8    5    6 ar    
    9    5   21 1     
   10    6    7 ar    
   11    6   22 1     
   12    7    8 ar    
   13    7   23 1     
   14    8    9 ar    
   15    8   24 1     
   16   10   11 1     
   17   10   25 1     
   18   11   19 1     
   19   11   12 1     
   20   11   26 1     
   21   12   13 1     
   22   12   27 1     
   23   12   28 1     
   24   13   14 1     
   25   13   29 1     
   26   13   30 1     
   27   14   19 1     
   28   14   15 1     
   29   14   40 1     
   30   15   16 1     
   31   15   31 1     
   32   15   32 1     
   33   16   17 1     
   34   16   33 1     
   35   16   34 1     
   36   17   18 1     
   37   17   35 1     
   38   17   36 1     
   39   18   19 1     
   40   18   37 1     
   41   18   38 1     
   42   19   39 1     
   43    1   41 1     
   44    1   42 1     
   45    9   43 1     
@<TRIPOS>SUBSTRUCTURE
      1 S1             1
@<TRIPOS>SET
LONE_PAIRS      STATIC     ATOMS    <user>   **** ""
3 41 42 43
DONOR_HYDROGENS      STATIC     ATOMS    <user>   **** ""
3 20 25 40
ATOM$BLUE        STATIC     ATOMS    COLORGROUP SYSTEM
3 41 42 43
ATOM$RED        STATIC     ATOMS    COLORGROUP SYSTEM
3 20 25 40
