#       Name:                AV-unprocessed.smi:1641
#       Creating user name   scv26
#       Creation time:       Fri Mar 27 07:24:41 2020


#       File generated by GOLD software.
#

@<TRIPOS>MOLECULE
AV-unprocessed.smi:1641
    48    49     1
SMALL
NO_CHARGES


@<TRIPOS>ATOM
      1 ****        -3.5866   7.5232   2.2944 C.3            1 S1                 0.0000
      2 ****        -3.1168   6.1788   1.8546 C.2            1 S1                 0.0000
      3 ****        -2.8028   5.2024   2.7147 N.2            1 S1                 0.0000
      4 ****        -2.3929   4.0442   2.0694 N.2            1 S1                 0.0000
      5 ****        -2.4098   4.1821   0.7366 C.2            1 S1                 0.0000
      6 ****        -2.0369   3.1522  -0.1675 N.am           1 S1                 0.0000
      7 ****        -1.6050   1.9112   0.1177 C.2            1 S1                 0.0000
      8 ****        -1.4572   1.4490   1.2494 O.2            1 S1                 0.0000
      9 ****        -1.3419   1.2173  -0.9993 N.am           1 S1                 0.0000
     10 ****        -0.8581  -0.1583  -1.0272 C.3            1 S1                 0.0000
     11 ****         0.6482  -0.2333  -0.7127 C.3            1 S1                 0.0000
     12 ****         1.1644  -1.6239  -0.7566 N.4            1 S1                 1.0000
     13 ****         2.6263  -1.6770  -0.9939 C.3            1 S1                 0.0000
     14 ****         3.1221  -3.1331  -1.0966 C.3            1 S1                 0.0000
     15 ****         2.7322  -3.8250  -2.4149 C.3            1 S1                 0.0000
     16 ****         2.7057  -3.8772   0.0481 O.3            1 S1                 0.0000
     17 ****         1.3007  -3.8723   0.2879 C.3            1 S1                 0.0000
     18 ****         1.0354  -4.7060   1.5463 C.3            1 S1                 0.0000
     19 ****         0.8111  -2.4212   0.4428 C.3            1 S1                 0.0000
     20 ****        -2.9341   5.7540   0.1571 S.3            1 S1                 0.0000
     21 ****        -3.6150   7.5843   3.3829 H              1 S1                 0.0000
     22 ****        -4.5881   7.7119   1.9078 H              1 S1                 0.0000
     23 ****        -2.9139   8.2944   1.9190 H              1 S1                 0.0000
     24 ****        -2.1050   3.3911  -1.1458 H              1 S1                 0.0000
     25 ****        -1.4918   1.6690  -1.8899 H              1 S1                 0.0000
     26 ****        -1.4439  -0.7572  -0.3293 H              1 S1                 0.0000
     27 ****        -1.0502  -0.5653  -2.0202 H              1 S1                 0.0000
     28 ****         1.1766   0.3700  -1.4526 H              1 S1                 0.0000
     29 ****         0.8725   0.2083   0.2596 H              1 S1                 0.0000
     30 ****         2.8815  -1.1338  -1.9047 H              1 S1                 0.0000
     31 ****         3.1373  -1.1727  -0.1719 H              1 S1                 0.0000
     32 ****         4.2118  -3.1147  -1.0630 H              1 S1                 0.0000
     33 ****         3.1755  -3.3094  -3.2671 H              1 S1                 0.0000
     34 ****         1.6543  -3.8413  -2.5727 H              1 S1                 0.0000
     35 ****         3.0893  -4.8550  -2.4325 H              1 S1                 0.0000
     36 ****         0.7825  -4.3473  -0.5453 H              1 S1                 0.0000
     37 ****        -0.0303  -4.7478   1.7727 H              1 S1                 0.0000
     38 ****         1.5461  -4.2870   2.4139 H              1 S1                 0.0000
     39 ****         1.3868  -5.7300   1.4160 H              1 S1                 0.0000
     40 ****         1.2576  -1.9648   1.3279 H              1 S1                 0.0000
     41 ****        -0.2676  -2.4206   0.5958 H              1 S1                 0.0000
     42 ****         0.7311  -2.0709  -1.5520 H              1 S1                 0.0000
     43 ****        -2.8574   5.2968   3.7088 LP             1 S1                 0.0000
     44 ****        -2.1179   3.2071   2.5422 LP             1 S1                 0.0000
     45 ****        -1.6647   2.0111   2.0501 LP             1 S1                 0.0000
     46 ****        -1.1298   0.5116   1.3679 LP             1 S1                 0.0000
     47 ****         3.1594  -3.4913   0.8515 LP             1 S1                 0.0000
     48 ****         2.9965  -4.8259  -0.0753 LP             1 S1                 0.0000
@<TRIPOS>BOND
    1    1    2 1     
    2    1   21 1     
    3    1   22 1     
    4    1   23 1     
    5    2   20 1     
    6    2    3 2     
    7    3    4 1     
    8    4    5 2     
    9    5    6 1     
   10    5   20 1     
   11    6    7 am    
   12    6   24 1     
   13    7    8 2     
   14    7    9 am    
   15    9   10 1     
   16    9   25 1     
   17   10   11 1     
   18   10   26 1     
   19   10   27 1     
   20   11   12 1     
   21   11   28 1     
   22   11   29 1     
   23   12   19 1     
   24   12   13 1     
   25   12   42 1     
   26   13   14 1     
   27   13   30 1     
   28   13   31 1     
   29   14   15 1     
   30   14   16 1     
   31   14   32 1     
   32   15   33 1     
   33   15   34 1     
   34   15   35 1     
   35   16   17 1     
   36   17   18 1     
   37   17   19 1     
   38   17   36 1     
   39   18   37 1     
   40   18   38 1     
   41   18   39 1     
   42   19   40 1     
   43   19   41 1     
   44    3   43 1     
   45    4   44 1     
   46    8   45 1     
   47    8   46 1     
   48   16   47 1     
   49   16   48 1     
@<TRIPOS>SUBSTRUCTURE
      1 S1             1
@<TRIPOS>SET
LONE_PAIRS      STATIC     ATOMS    <user>   **** ""
6 43 44 45 46 47 48
DONOR_HYDROGENS      STATIC     ATOMS    <user>   **** ""
3 24 25 42
ATOM$BLUE        STATIC     ATOMS    COLORGROUP SYSTEM
6 43 44 45 46 47 48
ATOM$RED        STATIC     ATOMS    COLORGROUP SYSTEM
3 24 25 42
