AV-unprocessed.smi:333|AV-procd|sdf|2361|dock6
  -GOLD-   2262022273D 1   1.00000     0.00000
 Structure written by MMmdl.
 26 26  0  0  0  0  0  0  0  0  1 V2000
  151.3174  137.6087  154.0344 N   0  0  0  0  0  0  0  0  0  0  0  0
  151.8203  137.7248  155.2698 C   0  0  0  0  0  0  0  0  0  0  0  0
  152.4296  136.7730  155.7575 O   0  0  0  0  0  0  0  0  0  0  0  0
  151.5632  139.0331  155.9087 C   0  0  0  0  0  0  0  0  0  0  0  0
  150.5575  139.8634  155.5315 C   0  0  0  0  0  0  0  0  0  0  0  0
  150.3283  141.1430  156.1792 C   0  0  0  0  0  0  0  0  0  0  0  0
  149.1834  142.0283  155.7032 C   0  0  0  0  0  0  0  0  0  0  0  0
  148.3773  141.4035  154.5522 C   0  0  0  0  0  0  0  0  0  0  0  0
  149.1378  141.3756  153.3631 O   0  0  0  0  0  0  0  0  0  0  0  0
  151.1774  141.4938  157.1728 C   0  0  0  0  0  0  0  0  0  0  0  0
  151.1311  142.7906  157.9787 C   0  0  0  0  0  0  0  0  0  0  0  0
  149.9189  142.9673  158.5040 F   0  0  0  0  0  0  0  0  0  0  0  0
  152.0210  142.7632  158.9701 F   0  0  0  0  0  0  0  0  0  0  0  0
  151.4029  143.8557  157.2211 F   0  0  0  0  0  0  0  0  0  0  0  0
  152.2115  140.6280  157.5568 N   0  0  0  0  0  0  0  0  0  0  0  0
  152.4756  139.4210  157.0095 C   0  0  0  0  0  0  0  0  0  0  0  0
  153.4173  138.7621  157.4506 O   0  0  0  0  0  0  0  0  0  0  0  0
  152.8028  140.9465  158.3112 H   0  0  0  0  0  0  0  0  0  0  0  0
  151.4430  136.7467  153.5237 H   0  0  0  0  0  0  0  0  0  0  0  0
  150.8133  138.3779  153.6185 H   0  0  0  0  0  0  0  0  0  0  0  0
  149.8875  139.5980  154.7273 H   0  0  0  0  0  0  0  0  0  0  0  0
  148.5140  142.2902  156.5209 H   0  0  0  0  0  0  0  0  0  0  0  0
  149.6142  142.9712  155.3650 H   0  0  0  0  0  0  0  0  0  0  0  0
  148.0944  140.3818  154.8064 H   0  0  0  0  0  0  0  0  0  0  0  0
  147.4540  141.9557  154.3754 H   0  0  0  0  0  0  0  0  0  0  0  0
  149.1222  140.4967  153.0159 H   0  0  0  0  0  0  0  0  0  0  0  0
  1  2  1  0  0  0  0
  1 19  1  0  0  0  0
  1 20  1  0  0  0  0
  2  3  2  0  0  0  0
  2  4  1  0  0  0  0
  4 16  1  0  0  0  0
  4  5  2  0  0  0  0
  5  6  1  0  0  0  0
  5 21  1  0  0  0  0
  6  7  1  0  0  0  0
  6 10  2  0  0  0  0
  7  8  1  0  0  0  0
  7 22  1  0  0  0  0
  7 23  1  0  0  0  0
  8  9  1  0  0  0  0
  8 24  1  0  0  0  0
  8 25  1  0  0  0  0
  9 26  1  0  0  0  0
 10 11  1  0  0  0  0
 10 15  1  0  0  0  0
 11 12  1  0  0  0  0
 11 13  1  0  0  0  0
 11 14  1  0  0  0  0
 15 18  1  0  0  0  0
 15 16  1  0  0  0  0
 16 17  2  0  0  0  0
M  END
> <s_m_source_file>
AV-unprocessed.smi

> <i_m_source_file_index>
333

> <i_lp_mmshare_version>
43012

> <i_f3d_flags>
0

> <s_epik_input>
W05IMl1DKD1PKWMxW2NIXWMoW0NIMl1bQ0gyXVtPSF0pYyhDKEYpKEYpRilbbkhdYzE9Tw==

> <s_epik_cmdline>
J2VwaWtfcHl0aG9uJywgJy1waCcsICc3LjAnLCAnLXRuJywgJzgnLCAnLW1hJywgJzIwMCcsICctbWV0YWxfYmluZGluZycsICctaW1hZScsICc8aW5maWxlLm1hZT4nLCAnLW9tYWUnLCAnPG91dGZpbGUubWFlPic=

> <r_lp_tautomer_probability>
0.999

> <r_epik_Ionization_Penalty>
1.33848

> <r_epik_Ionization_Penalty_Charging>
1.33848

> <r_epik_Ionization_Penalty_Neutral>
1.5599e-06

> <r_epik_State_Penalty>
1.41551

> <r_epik_Charging_Adjusted_Penalty>
2.75399

> <i_epik_Tot_Q>
0

> <i_epik_Tot_abs_Q>
0

> <r_epik_Metal_State_Penalty>
1.47649

> <b_epik_Metal_Only>
0

> <s_lp_Force_Field>
OPLS_2005

> <r_lp_Energy>
21.6261

> <b_lp_Chiralities_Consistent>
1

> <s_lp_Variant>
AV-unprocessed.smi:333-2

> <Gold.Version>
5.8.1

> <Gold.Id.Protein>
6NUR|6NUR_protein|mol2

> <Gold.PLP.Fitness>
39.9187

> <Gold.PLP.PLP>
-28.0732

> <Gold.PLP.part.hbond>
-6.0113

> <Gold.PLP.part.metal>
0.0000

> <Gold.PLP.part.buried>
3.0003

> <Gold.PLP.part.nonpolar>
-25.9020

> <Gold.PLP.part.repulsive>
0.2716

> <Gold.PLP.ligand.clash>
0.0000

> <Gold.PLP.ligand.torsion>
0.3510

> <Gold.PLP.Chemscore.Hbond>
4.1782

> <Gold.PLP.Chemscore.CHOScore>
0.0000

> <Gold.PLP.Chemscore.Metal>
0.0000

> <Gold.Chemscore.Hbonds>
donor molecule, donor type, donor heavy atom, donor atom, acceptor molecule, acceptor atom, score
      L1  H     1    19       P1  7949  0.48
      L1  H     9    26       P1  7957  0.46
      P1  H  7997  8009       L1    17  0.70
      P1  H  8011  8017       L1     9  0.96
      P1  H 10752 10765       L1     3  0.91

> <Gold.PLP.Chemscore.Internal.Correction>
0.0130

> <Gold.Rescore>
     Score         DG    S(hbond)    S(metal)    S(lipo)     H(rot)  DE(clash)    DE(int)     intcor
     12.15     -16.00       3.28        0.00      42.82       2.13       1.07       2.78       ----

> <Gold.Chemscore.Fitness>
12.1468

> <Gold.Chemscore.DG>
-15.9974

> <Gold.Chemscore.ZeroCoef>
-5.4800

> <Gold.Chemscore.Hbond>
3.2810

> <Gold.Chemscore.Metal>
0.0000

> <Gold.Chemscore.Lipo>
42.8218

> <Gold.Chemscore.Internal_Hbond>
0.0000

> <Gold.Chemscore.DEClash>
1.0691

> <Gold.Chemscore.DEInternal>
2.7815

> <Gold.Chemscore.Rot>
2.1294

> <Gold.Chemscore.Internal.Correction>
   9.000000E+99

> <Gold.Chemscore.Hbonds>
donor molecule, donor type, donor heavy atom, donor atom, acceptor molecule, acceptor atom, score
      L1  H     1    19       P1  7949  0.39
      L1  H     9    26       P1  7957  0.45
      P1  H  7997  8009       L1    17  0.07
      P1  H  8011  8017       L1     9  0.75
      P1  H 10752 10765       L1     3  0.87

> <Gold.Chemscore.Hbond.Weighted>
-10.9584

> <Gold.Chemscore.Metal.Weighted>
-0.0000

> <Gold.Chemscore.Lipo.Weighted>
-5.0101

> <Gold.Chemscore.Internal_Hbond.Weighted>
0.0000

> <Gold.Chemscore.DEClash.Weighted>
1.0691

> <Gold.Chemscore.DEInternal.Weighted>
2.7815

> <Gold.Chemscore.Rot.Weighted>
5.4512

> <Gold.Chemscore.Internal.Correction.Weighted>
   9.000000E+99

> <Gold.Protein.RotatedTorsions>
[ 6907 6896 6895 6894 ] final   39.52 input  -60.11 | X-H torsion
[ 7974 7965 7964 7962 ] final  131.33 input  175.53 | X-H torsion
[ 8008 7997 7996 7995 ] final  150.28 input   59.86 | X-H torsion
[ 10167 10162 10161 10158 ] final -164.55 input  -65.29 | X-H torsion
[ 10718 10713 10712 10709 ] final  -66.50 input   66.30 | X-H torsion
[ 10763 10752 10751 10750 ] final -163.66 input  -60.55 | X-H torsion
[ 11005 11000 10999 10996 ] final    7.78 input  -57.11 | X-H torsion

> <Gold.Protein.ActiveResidues>
 VAL166  LYS551  ARG553  GLY616  TRP617  ASP618  TYR619  PRO620  LYS621  CYS622 
 ASP623  PHE694  ASN695  SER759  ASP760  ASP761  ALA762  ILE779  LEU786  VAL792 
 PHE793  MET794  SER795  GLU796  ALA797  LYS798  CYS799  TRP800  GLU811  SER814 

> <Gold.Protein.RotatedAtoms>
  152.1707  134.8836  160.0534 H   0  0  0  0  0  0  0  0  0  0  0  0  # atno 6907 bound_to 6896
  151.9798  133.3749  159.4111 H   0  0  0  0  0  0  0  0  0  0  0  0  # atno 6908 bound_to 6896
  150.6901  134.3974  159.5147 H   0  0  0  0  0  0  0  0  0  0  0  0  # atno 6909 bound_to 6896
  145.0084  139.4244  143.5257 H   0  0  0  0  0  0  0  0  0  0  0  0  # atno 7974 bound_to 7965
  156.2722  140.2079  156.5992 H   0  0  0  0  0  0  0  0  0  0  0  0  # atno 8008 bound_to 7997
  154.6920  140.0529  157.0397 H   0  0  0  0  0  0  0  0  0  0  0  0  # atno 8009 bound_to 7997
  155.0853  140.3191  155.4592 H   0  0  0  0  0  0  0  0  0  0  0  0  # atno 8010 bound_to 7997
  139.6243  144.0563  152.1961 H   0  0  0  0  0  0  0  0  0  0  0  0  # atno 10167 bound_to 10162
  156.0609  130.4263  150.1718 H   0  0  0  0  0  0  0  0  0  0  0  0  # atno 10718 bound_to 10713
  154.7101  135.3004  154.9209 H   0  0  0  0  0  0  0  0  0  0  0  0  # atno 10763 bound_to 10752
  154.0114  135.6694  153.4769 H   0  0  0  0  0  0  0  0  0  0  0  0  # atno 10764 bound_to 10752
  153.0748  135.5040  154.8295 H   0  0  0  0  0  0  0  0  0  0  0  0  # atno 10765 bound_to 10752
  140.5444  134.0343  155.7915 H   0  0  0  0  0  0  0  0  0  0  0  0  # atno 11005 bound_to 11000
  146.3465  139.9514  142.8728 LP  0  0  0  0  0  0  0  0  0  0  0  0  # atno 17320 bound_to 7965
  145.2056  140.9874  143.4130 LP  0  0  0  0  0  0  0  0  0  0  0  0  # atno 17321 bound_to 7965
  140.0212  144.6151  150.7565 LP  0  0  0  0  0  0  0  0  0  0  0  0  # atno 17342 bound_to 10162
  140.7401  143.2800  151.3626 LP  0  0  0  0  0  0  0  0  0  0  0  0  # atno 17343 bound_to 10162
  156.9786  130.9857  151.3442 LP  0  0  0  0  0  0  0  0  0  0  0  0  # atno 17370 bound_to 10713
  157.5616  130.8250  149.8274 LP  0  0  0  0  0  0  0  0  0  0  0  0  # atno 17371 bound_to 10713
  141.1208  133.9464  157.2733 LP  0  0  0  0  0  0  0  0  0  0  0  0  # atno 17394 bound_to 11000
  139.9487  135.0179  156.8930 LP  0  0  0  0  0  0  0  0  0  0  0  0  # atno 17395 bound_to 11000

$$$$
