#       Name:                AV-unprocessed.smi:2529
#       Creating user name   scv26
#       Creation time:       Fri Mar 27 14:00:04 2020


#       File generated by GOLD software.
#

@<TRIPOS>MOLECULE
AV-unprocessed.smi:2529
    49    51     1
SMALL
NO_CHARGES


@<TRIPOS>ATOM
      1 ****        -4.7220  -2.2978  -1.8844 C.3            1 S1                 0.0000
      2 ****        -3.1990  -2.1821  -1.7281 C.3            1 S1                 0.0000
      3 ****        -2.8184  -1.1225  -0.6796 C.3            1 S1                 0.0000
      4 ****        -1.2927  -1.0079  -0.5108 C.3            1 S1                 0.0000
      5 ****        -0.5520  -0.7282  -1.8432 C.3            1 S1                 0.0000
      6 ****        -0.9292   0.5505  -2.3235 O.3            1 S1                 0.0000
      7 ****         1.0013  -0.7331  -1.7280 C.3            1 S1                 0.0000
      8 ****         1.5393  -0.0902  -0.5126 N.am           1 S1                 0.0000
      9 ****         1.7255   1.3041  -0.5817 C.2            1 S1                 0.0000
     10 ****         2.2049   1.9810   0.4123 N.2            1 S1                 0.0000
     11 ****         2.5576   1.3233   1.5957 C.2            1 S1                 0.0000
     12 ****         3.0867   2.1741   2.7419 C.3            1 S1                 0.0000
     13 ****         2.5359   1.8402   4.1378 C.3            1 S1                 0.0000
     14 ****         2.5222   3.3463   4.4217 C.3            1 S1                 0.0000
     15 ****         2.4473   3.5633   2.9064 C.3            1 S1                 0.0000
     16 ****         2.4013  -0.0168   1.7114 C.2            1 S1                 0.0000
     17 ****         1.8701  -0.8088   0.6017 C.2            1 S1                 0.0000
     18 ****         1.7278  -2.0295   0.6722 O.2            1 S1                 0.0000
     19 ****        -0.9894  -1.7532  -2.9176 C.3            1 S1                 0.0000
     20 ****        -2.5172  -1.8644  -3.0700 C.3            1 S1                 0.0000
     21 ****        -5.1581  -1.3600  -2.2302 H              1 S1                 0.0000
     22 ****        -5.1952  -2.5548  -0.9363 H              1 S1                 0.0000
     23 ****        -4.9853  -3.0733  -2.6041 H              1 S1                 0.0000
     24 ****        -2.8294  -3.1484  -1.3814 H              1 S1                 0.0000
     25 ****        -3.2297  -0.1539  -0.9670 H              1 S1                 0.0000
     26 ****        -3.2702  -1.3721   0.2811 H              1 S1                 0.0000
     27 ****        -1.0773  -0.2280   0.2203 H              1 S1                 0.0000
     28 ****        -0.9222  -1.9402  -0.0834 H              1 S1                 0.0000
     29 ****        -0.5248   0.6871  -3.1665 H              1 S1                 0.0000
     30 ****         1.3525  -1.7655  -1.7640 H              1 S1                 0.0000
     31 ****         1.4449  -0.2848  -2.6198 H              1 S1                 0.0000
     32 ****         1.4383   1.7674  -1.5271 H              1 S1                 0.0000
     33 ****         4.1769   2.2271   2.7365 H              1 S1                 0.0000
     34 ****         1.5324   1.4108   4.1192 H              1 S1                 0.0000
     35 ****         3.2111   1.2620   4.7691 H              1 S1                 0.0000
     36 ****         1.6538   3.7005   4.9780 H              1 S1                 0.0000
     37 ****         3.4571   3.7045   4.8559 H              1 S1                 0.0000
     38 ****         3.0502   4.3906   2.5317 H              1 S1                 0.0000
     39 ****         1.4180   3.6178   2.5464 H              1 S1                 0.0000
     40 ****         2.6693  -0.5161   2.6310 H              1 S1                 0.0000
     41 ****        -0.5433  -1.5056  -3.8819 H              1 S1                 0.0000
     42 ****        -0.6015  -2.7380  -2.6528 H              1 S1                 0.0000
     43 ****        -2.7521  -2.6415  -3.7981 H              1 S1                 0.0000
     44 ****        -2.9165  -0.9349  -3.4777 H              1 S1                 0.0000
     45 ****        -0.6213   1.2549  -1.6840 LP             1 S1                 0.0000
     46 ****        -1.9239   0.5958  -2.4157 LP             1 S1                 0.0000
     47 ****         2.3228   2.9710   0.3345 LP             1 S1                 0.0000
     48 ****         1.3567  -2.5354  -0.1065 LP             1 S1                 0.0000
     49 ****         1.9834  -2.5152   1.5081 LP             1 S1                 0.0000
@<TRIPOS>BOND
    1    1    2 1     
    2    1   21 1     
    3    1   22 1     
    4    1   23 1     
    5    2   20 1     
    6    2    3 1     
    7    2   24 1     
    8    3    4 1     
    9    3   25 1     
   10    3   26 1     
   11    4    5 1     
   12    4   27 1     
   13    4   28 1     
   14    5    6 1     
   15    5    7 1     
   16    5   19 1     
   17    6   29 1     
   18    7    8 1     
   19    7   30 1     
   20    7   31 1     
   21    8   17 am    
   22    8    9 1     
   23    9   10 2     
   24    9   32 1     
   25   10   11 1     
   26   11   12 1     
   27   11   16 2     
   28   12   15 1     
   29   12   13 1     
   30   12   33 1     
   31   13   14 1     
   32   13   34 1     
   33   13   35 1     
   34   14   15 1     
   35   14   36 1     
   36   14   37 1     
   37   15   38 1     
   38   15   39 1     
   39   16   17 1     
   40   16   40 1     
   41   17   18 2     
   42   19   20 1     
   43   19   41 1     
   44   19   42 1     
   45   20   43 1     
   46   20   44 1     
   47    6   45 1     
   48    6   46 1     
   49   10   47 1     
   50   18   48 1     
   51   18   49 1     
@<TRIPOS>SUBSTRUCTURE
      1 S1             1
@<TRIPOS>SET
LONE_PAIRS      STATIC     ATOMS    <user>   **** ""
5 45 46 47 48 49
DONOR_HYDROGENS      STATIC     ATOMS    <user>   **** ""
1 29
ATOM$BLUE        STATIC     ATOMS    COLORGROUP SYSTEM
5 45 46 47 48 49
ATOM$RED        STATIC     ATOMS    COLORGROUP SYSTEM
1 29
