#       Name:                AV-unprocessed.smi:2224
#       Creating user name   scv26
#       Creation time:       Fri Mar 27 12:20:40 2020


#       File generated by GOLD software.
#

@<TRIPOS>MOLECULE
AV-unprocessed.smi:2224
    49    51     1
SMALL
NO_CHARGES


@<TRIPOS>ATOM
      1 ****        -5.1403   3.6791  -0.2625 C.3            1 S1                 0.0000
      2 ****        -4.4776   2.3216  -0.1586 C.ar           1 S1                 0.0000
      3 ****        -5.2427   1.1395  -0.1665 C.ar           1 S1                 0.0000
      4 ****        -4.5654  -0.0913  -0.0619 C.ar           1 S1                 0.0000
      5 ****        -5.3251  -1.4011  -0.0667 C.3            1 S1                 0.0000
      6 ****        -3.2228  -0.1870   0.0453 N.ar           1 S1                 0.0000
      7 ****        -2.4761   0.9448   0.0538 C.ar           1 S1                 0.0000
      8 ****        -1.0599   0.9532   0.1557 N.am           1 S1                 0.0000
      9 ****        -0.2347  -0.0903   0.3504 C.2            1 S1                 0.0000
     10 ****        -0.5875  -1.2575   0.5221 O.2            1 S1                 0.0000
     11 ****         1.0478   0.2985   0.3405 N.am           1 S1                 0.0000
     12 ****         2.1856  -0.5921   0.5486 C.3            1 S1                 0.0000
     13 ****         3.5266   0.1581   0.5170 C.3            1 S1                 0.0000
     14 ****         4.3728   0.2367   1.7589 C.3            1 S1                 0.0000
     15 ****         5.3601  -0.9188   1.5727 C.3            1 S1                 0.0000
     16 ****         4.7136  -1.7994   0.6569 O.3            1 S1                 0.0000
     17 ****         4.0561  -0.9959  -0.3201 C.3            1 S1                 0.0000
     18 ****         2.6172  -1.4050  -0.6998 C.3            1 S1                 0.0000
     19 ****         2.3184  -2.9050  -0.6657 C.3            1 S1                 0.0000
     20 ****         2.1601  -0.8943  -2.0740 C.3            1 S1                 0.0000
     21 ****        -3.0761   2.2198  -0.0500 C.ar           1 S1                 0.0000
     22 ****        -6.2269   3.5899  -0.2836 H              1 S1                 0.0000
     23 ****        -4.8207   4.1866  -1.1729 H              1 S1                 0.0000
     24 ****        -4.8665   4.2992   0.5914 H              1 S1                 0.0000
     25 ****        -6.3191   1.1746  -0.2507 H              1 S1                 0.0000
     26 ****        -6.4025  -1.2333  -0.0622 H              1 S1                 0.0000
     27 ****        -5.0700  -1.9924   0.8132 H              1 S1                 0.0000
     28 ****        -5.0738  -1.9807  -0.9552 H              1 S1                 0.0000
     29 ****        -0.6242   1.8588   0.0659 H              1 S1                 0.0000
     30 ****         1.2524   1.2755   0.1916 H              1 S1                 0.0000
     31 ****         2.0934  -1.2199   1.4378 H              1 S1                 0.0000
     32 ****         3.4796   1.0821  -0.0622 H              1 S1                 0.0000
     33 ****         4.8878   1.1925   1.8566 H              1 S1                 0.0000
     34 ****         3.7666   0.0890   2.6532 H              1 S1                 0.0000
     35 ****         6.2886  -0.5610   1.1252 H              1 S1                 0.0000
     36 ****         5.6034  -1.4214   2.5090 H              1 S1                 0.0000
     37 ****         4.7042  -0.6894  -1.1426 H              1 S1                 0.0000
     38 ****         2.8713  -3.4410  -1.4377 H              1 S1                 0.0000
     39 ****         1.2575  -3.1057  -0.8185 H              1 S1                 0.0000
     40 ****         2.5912  -3.3480   0.2925 H              1 S1                 0.0000
     41 ****         2.7072  -1.3826  -2.8810 H              1 S1                 0.0000
     42 ****         2.3220   0.1784  -2.1826 H              1 S1                 0.0000
     43 ****         1.0987  -1.0807  -2.2413 H              1 S1                 0.0000
     44 ****        -2.4699   3.1143  -0.0433 H              1 S1                 0.0000
     45 ****        -2.7840  -1.0826   0.1177 LP             1 S1                 0.0000
     46 ****        -1.5599  -1.4908   0.5239 LP             1 S1                 0.0000
     47 ****         0.0984  -1.9720   0.6598 LP             1 S1                 0.0000
     48 ****         4.0448  -2.3639   1.1407 LP             1 S1                 0.0000
     49 ****         5.3899  -2.3888   0.2150 LP             1 S1                 0.0000
@<TRIPOS>BOND
    1    1    2 1     
    2    1   22 1     
    3    1   23 1     
    4    1   24 1     
    5    2   21 ar    
    6    2    3 ar    
    7    3    4 ar    
    8    3   25 1     
    9    4    5 1     
   10    4    6 ar    
   11    5   26 1     
   12    5   27 1     
   13    5   28 1     
   14    6    7 ar    
   15    7    8 1     
   16    7   21 ar    
   17    8    9 am    
   18    8   29 1     
   19    9   10 2     
   20    9   11 am    
   21   11   12 1     
   22   11   30 1     
   23   12   18 1     
   24   12   13 1     
   25   12   31 1     
   26   13   17 1     
   27   13   14 1     
   28   13   32 1     
   29   14   15 1     
   30   14   33 1     
   31   14   34 1     
   32   15   16 1     
   33   15   35 1     
   34   15   36 1     
   35   16   17 1     
   36   17   18 1     
   37   17   37 1     
   38   18   19 1     
   39   18   20 1     
   40   19   38 1     
   41   19   39 1     
   42   19   40 1     
   43   20   41 1     
   44   20   42 1     
   45   20   43 1     
   46   21   44 1     
   47    6   45 1     
   48   10   46 1     
   49   10   47 1     
   50   16   48 1     
   51   16   49 1     
@<TRIPOS>SUBSTRUCTURE
      1 S1             1
@<TRIPOS>SET
LONE_PAIRS      STATIC     ATOMS    <user>   **** ""
5 45 46 47 48 49
DONOR_HYDROGENS      STATIC     ATOMS    <user>   **** ""
2 29 30
ATOM$BLUE        STATIC     ATOMS    COLORGROUP SYSTEM
5 45 46 47 48 49
ATOM$RED        STATIC     ATOMS    COLORGROUP SYSTEM
2 29 30
