#       Name:                AV-unprocessed.smi:3177
#       Creating user name   scv26
#       Creation time:       Fri Mar 27 17:56:57 2020


#       File generated by GOLD software.
#

@<TRIPOS>MOLECULE
AV-unprocessed.smi:3177
    37    38     1
SMALL
NO_CHARGES


@<TRIPOS>ATOM
      1 ****        -5.7440   0.4810   1.2735 C.3            1 S1                 0.0000
      2 ****        -4.9982  -0.2954   0.3422 O.3            1 S1                 0.0000
      3 ****        -3.6391  -0.0776   0.2477 C.ar           1 S1                 0.0000
      4 ****        -2.8970  -0.8409  -0.6754 C.ar           1 S1                 0.0000
      5 ****        -1.5098  -0.6236  -0.7800 C.ar           1 S1                 0.0000
      6 ****        -0.9082   0.3609   0.0394 C.ar           1 S1                 0.0000
      7 ****         0.4817   0.6551   0.0415 N.am           1 S1                 0.0000
      8 ****         1.3838   0.4515  -0.9367 C.2            1 S1                 0.0000
      9 ****         1.1064   0.0175  -2.0546 O.2            1 S1                 0.0000
     10 ****         2.8351   0.8523  -0.6055 C.3            1 S1                 0.0000
     11 ****         3.9023   0.0262  -1.3314 C.3            1 S1                 0.0000
     12 ****         3.9979  -1.2387  -0.4948 C.3            1 S1                 0.0000
     13 ****         3.5291  -0.7940   0.8949 C.3            1 S1                 0.0000
     14 ****         3.1285   0.5692   0.7601 O.3            1 S1                 0.0000
     15 ****        -1.7364   1.0592   0.9424 C.ar           1 S1                 0.0000
     16 ****        -3.0667   0.8564   1.0471 N.ar           1 S1                 0.0000
     17 ****        -6.7941   0.1938   1.2230 H              1 S1                 0.0000
     18 ****        -5.6814   1.5461   1.0458 H              1 S1                 0.0000
     19 ****        -5.4041   0.3119   2.2962 H              1 S1                 0.0000
     20 ****        -3.3828  -1.5848  -1.2896 H              1 S1                 0.0000
     21 ****        -0.9371  -1.2227  -1.4709 H              1 S1                 0.0000
     22 ****         0.8290   1.1146   0.8711 H              1 S1                 0.0000
     23 ****         2.9546   1.9178  -0.8045 H              1 S1                 0.0000
     24 ****         3.6758  -0.1763  -2.3790 H              1 S1                 0.0000
     25 ****         4.8532   0.5595  -1.3019 H              1 S1                 0.0000
     26 ****         3.3275  -2.0046  -0.8871 H              1 S1                 0.0000
     27 ****         5.0076  -1.6499  -0.4854 H              1 S1                 0.0000
     28 ****         2.6861  -1.3986   1.2319 H              1 S1                 0.0000
     29 ****         4.3218  -0.8748   1.6390 H              1 S1                 0.0000
     30 ****        -1.3208   1.8090   1.5998 H              1 S1                 0.0000
     31 ****        -5.3885  -0.1270  -0.5629 LP             1 S1                 0.0000
     32 ****        -5.1275  -1.2562   0.5875 LP             1 S1                 0.0000
     33 ****         0.1592  -0.2080  -2.2825 LP             1 S1                 0.0000
     34 ****         1.8282  -0.1096  -2.7349 LP             1 S1                 0.0000
     35 ****         2.3132   0.7323   1.3158 LP             1 S1                 0.0000
     36 ****         3.8687   1.1653   1.0713 LP             1 S1                 0.0000
     37 ****        -3.6160   1.3813   1.6974 LP             1 S1                 0.0000
@<TRIPOS>BOND
    1    1    2 1     
    2    1   17 1     
    3    1   18 1     
    4    1   19 1     
    5    2    3 1     
    6    3   16 ar    
    7    3    4 ar    
    8    4    5 ar    
    9    4   20 1     
   10    5    6 ar    
   11    5   21 1     
   12    6    7 1     
   13    6   15 ar    
   14    7    8 am    
   15    7   22 1     
   16    8    9 2     
   17    8   10 1     
   18   10   14 1     
   19   10   11 1     
   20   10   23 1     
   21   11   12 1     
   22   11   24 1     
   23   11   25 1     
   24   12   13 1     
   25   12   26 1     
   26   12   27 1     
   27   13   14 1     
   28   13   28 1     
   29   13   29 1     
   30   15   16 ar    
   31   15   30 1     
   32    2   31 1     
   33    2   32 1     
   34    9   33 1     
   35    9   34 1     
   36   14   35 1     
   37   14   36 1     
   38   16   37 1     
@<TRIPOS>SUBSTRUCTURE
      1 S1             1
@<TRIPOS>SET
LONE_PAIRS      STATIC     ATOMS    <user>   **** ""
7 31 32 33 34 35 36 37
DONOR_HYDROGENS      STATIC     ATOMS    <user>   **** ""
1 22
ATOM$BLUE        STATIC     ATOMS    COLORGROUP SYSTEM
7 31 32 33 34 35 36 37
ATOM$RED        STATIC     ATOMS    COLORGROUP SYSTEM
1 22
