AV-unprocessed.smi:1811|AV-procd|sdf|7335|dock4
  -GOLD-   22720 8593D 1   1.00000     0.00000
 Structure written by MMmdl.
 43 44  0  0  0  0  0  0  0  0  1 V2000
  152.5944  144.4677  158.2799 C   0  0  0  0  0  0  0  0  0  0  0  0
  151.5594  143.8792  159.2624 C   0  0  0  0  0  0  0  0  0  0  0  0
  152.3151  143.0757  160.3383 C   0  0  0  0  0  0  0  0  0  0  0  0
  150.8030  145.0328  159.9552 C   0  0  0  0  0  0  0  0  0  0  0  0
  150.5714  142.9134  158.5485 C   0  0  0  0  0  0  0  0  0  0  0  0
  151.2117  141.7100  157.8431 C   0  0  0  0  0  0  0  0  0  0  0  0
  152.2326  141.2064  158.3096 O   0  0  0  0  0  0  0  0  0  0  0  0
  150.5572  141.2576  156.7583 N   0  0  0  0  0  0  0  0  0  0  0  0
  150.8850  140.1801  155.8850 C   0  0  0  0  0  0  0  0  0  0  0  0
  152.1571  139.5567  155.8538 C   0  0  0  0  0  0  0  0  0  0  0  0
  152.3856  138.5095  154.9423 C   0  0  0  0  0  0  0  0  0  0  0  0
  151.3376  138.1247  154.0872 C   0  0  0  0  0  0  0  0  0  0  0  0
  150.1262  138.7167  154.0924 N   0  0  0  0  0  0  0  0  0  0  0  0
  149.9025  139.7269  154.9672 C   0  0  0  0  0  0  0  0  0  0  0  0
  148.6359  140.3348  154.9380 N   0  0  0  0  0  0  0  0  0  0  0  0
  147.6024  139.5219  154.3103 C   0  0  0  0  0  0  0  0  0  0  0  0
  146.2331  140.2059  154.4678 C   0  0  0  0  0  0  0  0  0  0  0  0
  146.2922  141.5244  153.9299 O   0  0  0  0  0  0  0  0  0  0  0  0
  147.2568  142.3337  154.5972 C   0  0  0  0  0  0  0  0  0  0  0  0
  148.6523  141.7052  154.4434 C   0  0  0  0  0  0  0  0  0  0  0  0
  153.3445  145.0602  158.8048 H   0  0  0  0  0  0  0  0  0  0  0  0
  152.1317  145.1242  157.5428 H   0  0  0  0  0  0  0  0  0  0  0  0
  153.1198  143.6803  157.7386 H   0  0  0  0  0  0  0  0  0  0  0  0
  152.8774  142.2520  159.8966 H   0  0  0  0  0  0  0  0  0  0  0  0
  151.6300  142.6488  161.0716 H   0  0  0  0  0  0  0  0  0  0  0  0
  153.0250  143.7011  160.8809 H   0  0  0  0  0  0  0  0  0  0  0  0
  151.4835  145.6659  160.5257 H   0  0  0  0  0  0  0  0  0  0  0  0
  150.0502  144.6541  160.6476 H   0  0  0  0  0  0  0  0  0  0  0  0
  150.2949  145.6768  159.2366 H   0  0  0  0  0  0  0  0  0  0  0  0
  149.8549  142.5247  159.2735 H   0  0  0  0  0  0  0  0  0  0  0  0
  149.9759  143.4692  157.8217 H   0  0  0  0  0  0  0  0  0  0  0  0
  149.6844  141.7215  156.5504 H   0  0  0  0  0  0  0  0  0  0  0  0
  152.9671  139.8650  156.4955 H   0  0  0  0  0  0  0  0  0  0  0  0
  153.3450  138.0159  154.8971 H   0  0  0  0  0  0  0  0  0  0  0  0
  151.4778  137.3250  153.3751 H   0  0  0  0  0  0  0  0  0  0  0  0
  147.8301  139.3869  153.2518 H   0  0  0  0  0  0  0  0  0  0  0  0
  147.5826  138.5315  154.7665 H   0  0  0  0  0  0  0  0  0  0  0  0
  145.4659  139.6398  153.9395 H   0  0  0  0  0  0  0  0  0  0  0  0
  145.9358  140.2436  155.5171 H   0  0  0  0  0  0  0  0  0  0  0  0
  147.2441  143.3337  154.1634 H   0  0  0  0  0  0  0  0  0  0  0  0
  146.9920  142.4388  155.6506 H   0  0  0  0  0  0  0  0  0  0  0  0
  149.3904  142.2888  154.9951 H   0  0  0  0  0  0  0  0  0  0  0  0
  148.9496  141.7156  153.3938 H   0  0  0  0  0  0  0  0  0  0  0  0
  1  2  1  0  0  0  0
  1 21  1  0  0  0  0
  1 22  1  0  0  0  0
  1 23  1  0  0  0  0
  2  3  1  0  0  0  0
  2  4  1  0  0  0  0
  2  5  1  0  0  0  0
  3 24  1  0  0  0  0
  3 25  1  0  0  0  0
  3 26  1  0  0  0  0
  4 27  1  0  0  0  0
  4 28  1  0  0  0  0
  4 29  1  0  0  0  0
  5  6  1  0  0  0  0
  5 30  1  0  0  0  0
  5 31  1  0  0  0  0
  6  7  2  0  0  0  0
  6  8  1  0  0  0  0
  8  9  1  0  0  0  0
  8 32  1  0  0  0  0
  9 14  1  0  0  0  0
  9 10  2  0  0  0  0
 10 11  1  0  0  0  0
 10 33  1  0  0  0  0
 11 12  2  0  0  0  0
 11 34  1  0  0  0  0
 12 13  1  0  0  0  0
 12 35  1  0  0  0  0
 13 14  2  0  0  0  0
 14 15  1  0  0  0  0
 15 20  1  0  0  0  0
 15 16  1  0  0  0  0
 16 17  1  0  0  0  0
 16 36  1  0  0  0  0
 16 37  1  0  0  0  0
 17 18  1  0  0  0  0
 17 38  1  0  0  0  0
 17 39  1  0  0  0  0
 18 19  1  0  0  0  0
 19 20  1  0  0  0  0
 19 40  1  0  0  0  0
 19 41  1  0  0  0  0
 20 42  1  0  0  0  0
 20 43  1  0  0  0  0
M  END
> <s_m_source_file>
AV-unprocessed.smi

> <i_m_source_file_index>
1811

> <i_lp_mmshare_version>
43012

> <i_f3d_flags>
0

> <s_epik_input>
W0NIM11DKFtDSDNdKShbQ0gzXSlbQ0gyXUMoPU8pW05IXWMxW2NIXVtjSF1bY0hdbmMxTjJbQ0gyXVtDSDJdT1tDSDJdW0NIMl0y

> <s_epik_cmdline>
J2VwaWtfcHl0aG9uJywgJy1waCcsICc3LjAnLCAnLXRuJywgJzgnLCAnLW1hJywgJzIwMCcsICctbWV0YWxfYmluZGluZycsICctaW1hZScsICc8aW5maWxlLm1hZT4nLCAnLW9tYWUnLCAnPG91dGZpbGUubWFlPic=

> <r_lp_tautomer_probability>
1

> <r_epik_Ionization_Penalty>
0.000654353

> <r_epik_Ionization_Penalty_Charging>
0

> <r_epik_Ionization_Penalty_Neutral>
0.000654353

> <r_epik_State_Penalty>
0.000408291

> <r_epik_Charging_Adjusted_Penalty>
0.000408291

> <i_epik_Tot_Q>
0

> <i_epik_Tot_abs_Q>
0

> <r_epik_Metal_State_Penalty>
-0

> <b_epik_Metal_Only>
0

> <s_lp_Force_Field>
OPLS_2005

> <r_lp_Energy>
24.8373

> <b_lp_Chiralities_Consistent>
1

> <s_lp_Variant>
AV-unprocessed.smi:1811-1

> <Gold.Version>
5.8.1

> <Gold.Id.Protein>
6NUR|6NUR_protein|mol2

> <Gold.PLP.Fitness>
43.9934

> <Gold.PLP.PLP>
-42.3654

> <Gold.PLP.part.hbond>
0.0000

> <Gold.PLP.part.metal>
0.0000

> <Gold.PLP.part.buried>
-3.8317

> <Gold.PLP.part.nonpolar>
-39.1381

> <Gold.PLP.part.repulsive>
0.6029

> <Gold.PLP.ligand.clash>
0.0000

> <Gold.PLP.ligand.torsion>
0.7595

> <Gold.PLP.Chemscore.Hbond>
0.0000

> <Gold.PLP.Chemscore.CHOScore>
1.0000

> <Gold.PLP.Chemscore.Metal>
0.0000

> <Gold.Chemscore.Hbonds>
donor molecule, donor type, donor heavy atom, donor atom, acceptor molecule, acceptor atom, score
      L1  C    12    35       P1  7949  1.00

> <Gold.PLP.Chemscore.Internal.Correction>
0.1471

> <Gold.Rescore>
     Score         DG    S(hbond)    S(metal)    S(lipo)     H(rot)  DE(clash)    DE(int)     intcor
     11.29     -14.72       0.00        0.00     107.49       1.30       0.13       3.30       ----

> <Gold.Chemscore.Fitness>
11.2896

> <Gold.Chemscore.DG>
-14.7179

> <Gold.Chemscore.ZeroCoef>
-5.4800

> <Gold.Chemscore.Hbond>
0.0000

> <Gold.Chemscore.Metal>
0.0000

> <Gold.Chemscore.Lipo>
107.4939

> <Gold.Chemscore.Internal_Hbond>
0.0000

> <Gold.Chemscore.DEClash>
0.1296

> <Gold.Chemscore.DEInternal>
3.2988

> <Gold.Chemscore.Rot>
1.3042

> <Gold.Chemscore.Internal.Correction>
   9.000000E+99

> <Gold.Chemscore.Hbond.Weighted>
-0.0000

> <Gold.Chemscore.Metal.Weighted>
-0.0000

> <Gold.Chemscore.Lipo.Weighted>
-12.5768

> <Gold.Chemscore.Internal_Hbond.Weighted>
0.0000

> <Gold.Chemscore.DEClash.Weighted>
0.1296

> <Gold.Chemscore.DEInternal.Weighted>
3.2988

> <Gold.Chemscore.Rot.Weighted>
3.3389

> <Gold.Chemscore.Internal.Correction.Weighted>
   9.000000E+99

> <Gold.Protein.RotatedTorsions>
[ 6907 6896 6895 6894 ] final   42.78 input  -60.11 | X-H torsion
[ 7974 7965 7964 7962 ] final  -90.98 input  175.53 | X-H torsion
[ 8008 7997 7996 7995 ] final  -94.21 input   59.86 | X-H torsion
[ 10167 10162 10161 10158 ] final -122.45 input  -65.29 | X-H torsion
[ 10718 10713 10712 10709 ] final  149.16 input   66.30 | X-H torsion
[ 10763 10752 10751 10750 ] final   93.10 input  -60.55 | X-H torsion
[ 11005 11000 10999 10996 ] final   35.02 input  -57.11 | X-H torsion

> <Gold.Protein.ActiveResidues>
 VAL166  LYS551  ARG553  GLY616  TRP617  ASP618  TYR619  PRO620  LYS621  CYS622 
 ASP623  PHE694  ASN695  SER759  ASP760  ASP761  ALA762  ILE779  LEU786  VAL792 
 PHE793  MET794  SER795  GLU796  ALA797  LYS798  CYS799  TRP800  GLU811  SER814 

> <Gold.Protein.RotatedAtoms>
  152.2121  134.8492  160.0495 H   0  0  0  0  0  0  0  0  0  0  0  0  # atno 6907 bound_to 6896
  151.9307  133.3605  159.3938 H   0  0  0  0  0  0  0  0  0  0  0  0  # atno 6908 bound_to 6896
  150.6979  134.4465  159.5360 H   0  0  0  0  0  0  0  0  0  0  0  0  # atno 6909 bound_to 6896
  145.4192  140.9550  143.2190 H   0  0  0  0  0  0  0  0  0  0  0  0  # atno 7974 bound_to 7965
  154.7455  140.0491  157.0848 H   0  0  0  0  0  0  0  0  0  0  0  0  # atno 8008 bound_to 7997
  155.0124  140.3137  155.4805 H   0  0  0  0  0  0  0  0  0  0  0  0  # atno 8009 bound_to 7997
  156.2874  140.2182  156.5239 H   0  0  0  0  0  0  0  0  0  0  0  0  # atno 8010 bound_to 7997
  140.0141  143.5411  152.2250 H   0  0  0  0  0  0  0  0  0  0  0  0  # atno 10167 bound_to 10162
  157.2996  131.0868  151.1400 H   0  0  0  0  0  0  0  0  0  0  0  0  # atno 10718 bound_to 10713
  153.2265  135.4338  155.0547 H   0  0  0  0  0  0  0  0  0  0  0  0  # atno 10763 bound_to 10752
  154.8276  135.3369  154.6850 H   0  0  0  0  0  0  0  0  0  0  0  0  # atno 10764 bound_to 10752
  153.7279  135.7013  153.5052 H   0  0  0  0  0  0  0  0  0  0  0  0  # atno 10765 bound_to 10752
  140.2469  134.3349  155.7904 H   0  0  0  0  0  0  0  0  0  0  0  0  # atno 11005 bound_to 11000
  144.8256  139.5715  143.6967 LP  0  0  0  0  0  0  0  0  0  0  0  0  # atno 17320 bound_to 7965
  146.2665  139.6532  142.9326 LP  0  0  0  0  0  0  0  0  0  0  0  0  # atno 17321 bound_to 7965
  139.6184  144.7624  151.2794 LP  0  0  0  0  0  0  0  0  0  0  0  0  # atno 17342 bound_to 10162
  140.7369  143.6693  150.8095 LP  0  0  0  0  0  0  0  0  0  0  0  0  # atno 17343 bound_to 10162
  157.2764  130.6729  149.6044 LP  0  0  0  0  0  0  0  0  0  0  0  0  # atno 17370 bound_to 10713
  155.9671  130.4463  150.5536 LP  0  0  0  0  0  0  0  0  0  0  0  0  # atno 17371 bound_to 10713
  141.2205  133.7331  156.8975 LP  0  0  0  0  0  0  0  0  0  0  0  0  # atno 17394 bound_to 11000
  140.1597  134.9174  157.2699 LP  0  0  0  0  0  0  0  0  0  0  0  0  # atno 17395 bound_to 11000

$$$$
