AV-unprocessed.smi:3085|AV-procd|sdf|11759|dock1
  -GOLD-   2272017143D 1   1.00000     0.00000
 Structure written by MMmdl.
 28 29  0  0  0  0  0  0  0  0  2 V2000
  152.4519  144.1189  158.4639 C   0  0  0  0  0  0  0  0  0  0  0  0
  151.0165  143.5818  158.4453 C   0  0  0  0  0  0  0  0  0  0  0  0
  150.8585  142.3962  157.5510 C   0  0  0  0  0  0  0  0  0  0  0  0
  150.0514  142.4154  156.4803 N   0  0  0  0  0  0  0  0  0  0  0  0
  150.1820  141.1761  155.9838 C   0  0  0  0  0  0  0  0  0  0  0  0
  149.4566  140.7346  154.7517 C   0  0  1  0  0  0  0  0  0  0  0  0
  149.7049  139.2493  154.4242 C   0  0  0  0  0  0  0  0  0  0  0  0
  148.8851  138.8435  153.2660 N   0  3  0  0  0  0  0  0  0  0  0  0
  147.4550  139.1374  153.4865 C   0  0  0  0  0  0  0  0  0  0  0  0
  147.2691  140.6211  153.8500 C   0  0  0  0  0  0  0  0  0  0  0  0
  148.0656  140.9423  154.9858 O   0  0  0  0  0  0  0  0  0  0  0  0
  151.0223  140.4150  156.6932 N   0  0  0  0  0  0  0  0  0  0  0  0
  151.4642  141.2186  157.7299 N   0  0  0  0  0  0  0  0  0  0  0  0
  149.4831  143.1764  156.1376 H   0  0  0  0  0  0  0  0  0  0  0  0
  152.5356  144.9808  159.1260 H   0  0  0  0  0  0  0  0  0  0  0  0
  152.7673  144.4325  157.4683 H   0  0  0  0  0  0  0  0  0  0  0  0
  153.1517  143.3598  158.8143 H   0  0  0  0  0  0  0  0  0  0  0  0
  150.7071  143.3107  159.4553 H   0  0  0  0  0  0  0  0  0  0  0  0
  150.3338  144.3641  158.1114 H   0  0  0  0  0  0  0  0  0  0  0  0
  149.7774  141.3612  153.9169 H   0  0  0  0  0  0  0  0  0  0  0  0
  150.7578  139.0735  154.2020 H   0  0  0  0  0  0  0  0  0  0  0  0
  149.4465  138.6213  155.2782 H   0  0  0  0  0  0  0  0  0  0  0  0
  149.1985  139.3531  152.4521 H   0  0  0  0  0  0  0  0  0  0  0  0
  146.8906  138.8875  152.5878 H   0  0  0  0  0  0  0  0  0  0  0  0
  147.0779  138.5036  154.2904 H   0  0  0  0  0  0  0  0  0  0  0  0
  147.5372  141.2648  153.0107 H   0  0  0  0  0  0  0  0  0  0  0  0
  146.2235  140.8224  154.0838 H   0  0  0  0  0  0  0  0  0  0  0  0
  149.0029  137.8538  153.1008 H   0  0  0  0  0  0  0  0  0  0  0  0
  1  2  1  0  0  0  0
  1 15  1  0  0  0  0
  1 16  1  0  0  0  0
  1 17  1  0  0  0  0
  2 18  1  0  0  0  0
  2 19  1  0  0  0  0
  2  3  1  0  0  0  0
  3  4  1  0  0  0  0
  3 13  2  0  0  0  0
  4 14  1  0  0  0  0
  4  5  1  0  0  0  0
  5 12  2  0  0  0  0
  5  6  1  0  0  0  0
  6 11  1  0  0  0  0
  6  7  1  0  0  0  0
  6 20  1  0  0  0  0
  7  8  1  0  0  0  0
  7 21  1  0  0  0  0
  7 22  1  0  0  0  0
  8  9  1  0  0  0  0
  8 23  1  0  0  0  0
  8 28  1  0  0  0  0
  9 10  1  0  0  0  0
  9 24  1  0  0  0  0
  9 25  1  0  0  0  0
 10 11  1  0  0  0  0
 10 26  1  0  0  0  0
 10 27  1  0  0  0  0
 12 13  1  0  0  0  0
M  CHG  1   8   1
M  END
> <s_m_source_file>
AV-unprocessed.smi

> <i_m_source_file_index>
3085

> <i_lp_mmshare_version>
43012

> <i_f3d_flags>
0

> <s_epik_input>
W0NIM11bQ0gyXWMxbmMobltuSF0xKVtDQEBIXTJbQ0gyXVtOSF1bQ0gyXVtDSDJdTzI=

> <s_epik_cmdline>
J2VwaWtfcHl0aG9uJywgJy1waCcsICc3LjAnLCAnLXRuJywgJzgnLCAnLW1hJywgJzIwMCcsICctbWV0YWxfYmluZGluZycsICctaW1hZScsICc8aW5maWxlLm1hZT4nLCAnLW9tYWUnLCAnPG91dGZpbGUubWFlPic=

> <r_lp_tautomer_probability>
0.0517155

> <r_epik_Ionization_Penalty>
0.290065

> <r_epik_Ionization_Penalty_Charging>
0.125708

> <r_epik_Ionization_Penalty_Neutral>
0.164357

> <r_epik_State_Penalty>
2.26879

> <r_epik_Charging_Adjusted_Penalty>
2.39449

> <i_epik_Tot_Q>
1

> <i_epik_Tot_abs_Q>
1

> <r_epik_Metal_State_Penalty>
2.49092

> <b_epik_Metal_Only>
0

> <s_lp_Force_Field>
OPLS_2005

> <r_lp_Energy>
12.4164

> <b_lp_Chiralities_Consistent>
1

> <s_lp_Variant>
AV-unprocessed.smi:3085-10

> <Gold.Version>
5.8.1

> <Gold.Id.Protein>
6NUR|6NUR_protein|mol2

> <Gold.PLP.Fitness>
38.3253

> <Gold.PLP.PLP>
-26.6695

> <Gold.PLP.part.hbond>
-2.9219

> <Gold.PLP.part.metal>
0.0000

> <Gold.PLP.part.buried>
-4.5999

> <Gold.PLP.part.nonpolar>
-20.9761

> <Gold.PLP.part.repulsive>
0.2857

> <Gold.PLP.ligand.clash>
0.0000

> <Gold.PLP.ligand.torsion>
0.0383

> <Gold.PLP.Chemscore.Hbond>
3.9103

> <Gold.PLP.Chemscore.CHOScore>
0.0000

> <Gold.PLP.Chemscore.Metal>
0.0000

> <Gold.Chemscore.Hbonds>
donor molecule, donor type, donor heavy atom, donor atom, acceptor molecule, acceptor atom, score
      L1  H     4    14       P1  8028  1.00
      L1  H     8    23       P1  7957  0.96
      L1  H     8    28       P1  7948  2.00

> <Gold.PLP.Chemscore.Internal.Correction>
0.0017

> <Gold.Rescore>
     Score         DG    S(hbond)    S(metal)    S(lipo)     H(rot)  DE(clash)    DE(int)     intcor
     17.86     -18.01       2.90        0.00      52.72       1.30       0.08       0.08       ----

> <Gold.Chemscore.Fitness>
17.8585

> <Gold.Chemscore.DG>
-18.0124

> <Gold.Chemscore.ZeroCoef>
-5.4800

> <Gold.Chemscore.Hbond>
2.9025

> <Gold.Chemscore.Metal>
0.0000

> <Gold.Chemscore.Lipo>
52.7249

> <Gold.Chemscore.Internal_Hbond>
0.0000

> <Gold.Chemscore.DEClash>
0.0756

> <Gold.Chemscore.DEInternal>
0.0783

> <Gold.Chemscore.Rot>
1.3011

> <Gold.Chemscore.Internal.Correction>
   9.000000E+99

> <Gold.Chemscore.Hbonds>
donor molecule, donor type, donor heavy atom, donor atom, acceptor molecule, acceptor atom, score
      L1  H     4    14       P1  8028  1.00
      L1  H     8    23       P1  7957  0.90
      L1  H     8    28       P1  7948  0.89

> <Gold.Chemscore.Hbond.Weighted>
-9.6944

> <Gold.Chemscore.Metal.Weighted>
-0.0000

> <Gold.Chemscore.Lipo.Weighted>
-6.1688

> <Gold.Chemscore.Internal_Hbond.Weighted>
0.0000

> <Gold.Chemscore.DEClash.Weighted>
0.0756

> <Gold.Chemscore.DEInternal.Weighted>
0.0783

> <Gold.Chemscore.Rot.Weighted>
3.3308

> <Gold.Chemscore.Internal.Correction.Weighted>
   9.000000E+99

> <Gold.Protein.RotatedTorsions>
[ 6907 6896 6895 6894 ] final  111.84 input  -60.11 | X-H torsion
[ 7974 7965 7964 7962 ] final   63.96 input  175.53 | X-H torsion
[ 8008 7997 7996 7995 ] final -102.86 input   59.86 | X-H torsion
[ 10167 10162 10161 10158 ] final   41.83 input  -65.29 | X-H torsion
[ 10718 10713 10712 10709 ] final -154.44 input   66.30 | X-H torsion
[ 10763 10752 10751 10750 ] final -141.28 input  -60.55 | X-H torsion
[ 11005 11000 10999 10996 ] final  137.25 input  -57.11 | X-H torsion

> <Gold.Protein.ActiveResidues>
 VAL166  LYS551  ARG553  GLY616  TRP617  ASP618  TYR619  PRO620  LYS621  CYS622 
 ASP623  PHE694  ASN695  SER759  ASP760  ASP761  ALA762  ILE779  LEU786  VAL792 
 PHE793  MET794  SER795  GLU796  ALA797  LYS798  CYS799  TRP800  GLU811  SER814 

> <Gold.Protein.RotatedAtoms>
  152.4948  133.8600  159.7244 H   0  0  0  0  0  0  0  0  0  0  0  0  # atno 6907 bound_to 6896
  150.9114  133.6984  159.2860 H   0  0  0  0  0  0  0  0  0  0  0  0  # atno 6908 bound_to 6896
  151.4392  135.1022  159.9717 H   0  0  0  0  0  0  0  0  0  0  0  0  # atno 6909 bound_to 6896
  145.8558  139.3283  143.0848 H   0  0  0  0  0  0  0  0  0  0  0  0  # atno 7974 bound_to 7965
  154.8627  140.0426  157.1675 H   0  0  0  0  0  0  0  0  0  0  0  0  # atno 8008 bound_to 7997
  154.8823  140.2974  155.5397 H   0  0  0  0  0  0  0  0  0  0  0  0  # atno 8009 bound_to 7997
  156.2998  140.2409  156.3827 H   0  0  0  0  0  0  0  0  0  0  0  0  # atno 8010 bound_to 7997
  140.3605  144.2235  150.6138 H   0  0  0  0  0  0  0  0  0  0  0  0  # atno 10167 bound_to 10162
  156.4994  130.8384  151.2603 H   0  0  0  0  0  0  0  0  0  0  0  0  # atno 10718 bound_to 10713
  154.8550  135.3529  154.5843 H   0  0  0  0  0  0  0  0  0  0  0  0  # atno 10763 bound_to 10752
  153.6453  135.6996  153.5232 H   0  0  0  0  0  0  0  0  0  0  0  0  # atno 10764 bound_to 10752
  153.2938  135.4227  155.1149 H   0  0  0  0  0  0  0  0  0  0  0  0  # atno 10765 bound_to 10752
  140.0101  134.9442  157.0260 H   0  0  0  0  0  0  0  0  0  0  0  0  # atno 11005 bound_to 11000
  145.9305  140.9052  143.0359 LP  0  0  0  0  0  0  0  0  0  0  0  0  # atno 17320 bound_to 7965
  144.6728  140.1412  143.7437 LP  0  0  0  0  0  0  0  0  0  0  0  0  # atno 17321 bound_to 7965
  140.5132  143.2285  151.8504 LP  0  0  0  0  0  0  0  0  0  0  0  0  # atno 17342 bound_to 10162
  139.4815  144.4925  151.9166 LP  0  0  0  0  0  0  0  0  0  0  0  0  # atno 17343 bound_to 10162
  157.7464  130.9987  150.2861 LP  0  0  0  0  0  0  0  0  0  0  0  0  # atno 17370 bound_to 10713
  156.3348  130.3806  149.7460 LP  0  0  0  0  0  0  0  0  0  0  0  0  # atno 17371 bound_to 10713
  140.4569  134.1524  155.7187 LP  0  0  0  0  0  0  0  0  0  0  0  0  # atno 17394 bound_to 11000
  141.1705  133.8618  157.1585 LP  0  0  0  0  0  0  0  0  0  0  0  0  # atno 17395 bound_to 11000

$$$$
