AV-unprocessed.smi:774|AV-procd|sdf|3692|dock9
  -GOLD-   22720 1113D 1   1.00000     0.00000
 Structure written by MMmdl.
 37 38  0  0  0  0  0  0  0  0  1 V2000
  146.1098  130.7888  151.0723 C   0  0  0  0  0  0  0  0  0  0  0  0
  144.7386  131.2302  150.5536 C   0  0  0  0  0  0  0  0  0  0  0  0
  144.8085  132.8857  149.8164 S   0  0  0  0  0  0  0  0  0  0  0  0
  144.2931  133.8961  151.2353 C   0  0  1  0  0  0  0  0  0  0  0  0
  144.9573  133.4556  152.5376 C   0  0  0  0  0  0  0  0  0  0  0  0
  144.8152  134.6686  153.4570 C   0  0  0  0  0  0  0  0  0  0  0  0
  144.8646  135.9010  152.5364 C   0  0  1  0  0  0  0  0  0  0  0  0
  146.1417  136.5989  152.6736 N   0  0  0  0  0  0  0  0  0  0  0  0
  146.3734  137.6662  153.4513 C   0  0  0  0  0  0  0  0  0  0  0  0
  145.5166  138.1848  154.1652 O   0  0  0  0  0  0  0  0  0  0  0  0
  147.6501  138.0722  153.3374 N   0  0  0  0  0  0  0  0  0  0  0  0
  148.3086  139.1810  153.9394 C   0  0  0  0  0  0  0  0  0  0  0  0
  147.5287  140.3225  154.2199 C   0  0  0  0  0  0  0  0  0  0  0  0
  148.1346  141.4418  154.8208 C   0  0  0  0  0  0  0  0  0  0  0  0
  149.5084  141.3773  155.1211 C   0  0  0  0  0  0  0  0  0  0  0  0
  150.2718  140.2959  154.8597 N   0  0  0  0  0  0  0  0  0  0  0  0
  149.6840  139.2252  154.2829 C   0  0  0  0  0  0  0  0  0  0  0  0
  144.6835  135.3721  151.1004 C   0  0  0  0  0  0  0  0  0  0  0  0
  146.0557  129.7950  151.5172 H   0  0  0  0  0  0  0  0  0  0  0  0
  146.4817  131.4742  151.8341 H   0  0  0  0  0  0  0  0  0  0  0  0
  146.8421  130.7530  150.2653 H   0  0  0  0  0  0  0  0  0  0  0  0
  144.3788  130.5213  149.8077 H   0  0  0  0  0  0  0  0  0  0  0  0
  144.0153  131.2362  151.3692 H   0  0  0  0  0  0  0  0  0  0  0  0
  143.2110  133.8179  151.3505 H   0  0  0  0  0  0  0  0  0  0  0  0
  144.5049  132.5568  152.9575 H   0  0  0  0  0  0  0  0  0  0  0  0
  146.0152  133.2494  152.3683 H   0  0  0  0  0  0  0  0  0  0  0  0
  143.8440  134.6303  153.9525 H   0  0  0  0  0  0  0  0  0  0  0  0
  145.5732  134.6815  154.2414 H   0  0  0  0  0  0  0  0  0  0  0  0
  144.0306  136.5603  152.7837 H   0  0  0  0  0  0  0  0  0  0  0  0
  146.9099  136.2396  152.1258 H   0  0  0  0  0  0  0  0  0  0  0  0
  148.2264  137.5225  152.7173 H   0  0  0  0  0  0  0  0  0  0  0  0
  146.4754  140.3430  153.9801 H   0  0  0  0  0  0  0  0  0  0  0  0
  147.5599  142.3276  155.0470 H   0  0  0  0  0  0  0  0  0  0  0  0
  150.0071  142.2158  155.5843 H   0  0  0  0  0  0  0  0  0  0  0  0
  150.3546  138.4004  154.1069 H   0  0  0  0  0  0  0  0  0  0  0  0
  145.6177  135.4546  150.5419 H   0  0  0  0  0  0  0  0  0  0  0  0
  143.9324  135.9406  150.5511 H   0  0  0  0  0  0  0  0  0  0  0  0
  1  2  1  0  0  0  0
  1 19  1  0  0  0  0
  1 20  1  0  0  0  0
  1 21  1  0  0  0  0
  2  3  1  0  0  0  0
  2 22  1  0  0  0  0
  2 23  1  0  0  0  0
  3  4  1  0  0  0  0
  4 18  1  0  0  0  0
  4  5  1  0  0  0  0
  4 24  1  0  0  0  0
  5  6  1  0  0  0  0
  5 25  1  0  0  0  0
  5 26  1  0  0  0  0
  6  7  1  0  0  0  0
  6 27  1  0  0  0  0
  6 28  1  0  0  0  0
  7  8  1  0  0  0  0
  7 18  1  0  0  0  0
  7 29  1  0  0  0  0
  8  9  1  0  0  0  0
  8 30  1  0  0  0  0
  9 10  2  0  0  0  0
  9 11  1  0  0  0  0
 11 12  1  0  0  0  0
 11 31  1  0  0  0  0
 12 17  1  0  0  0  0
 12 13  2  0  0  0  0
 13 14  1  0  0  0  0
 13 32  1  0  0  0  0
 14 15  2  0  0  0  0
 14 33  1  0  0  0  0
 15 16  1  0  0  0  0
 15 34  1  0  0  0  0
 16 17  2  0  0  0  0
 17 35  1  0  0  0  0
 18 36  1  0  0  0  0
 18 37  1  0  0  0  0
M  END
> <s_m_source_file>
AV-unprocessed.smi

> <i_m_source_file_index>
774

> <i_lp_mmshare_version>
43012

> <i_f3d_flags>
0

> <s_epik_input>
W0NIM11bQ0gyXVNbQ0BASF0xW0NIMl1bQ0gyXVtDQEhdKFtDSDJdMSlbTkhdQyg9TylbTkhdYzJbY0hdW2NIXVtjSF1uW2NIXTI=

> <s_epik_cmdline>
J2VwaWtfcHl0aG9uJywgJy1waCcsICc3LjAnLCAnLXRuJywgJzgnLCAnLW1hJywgJzIwMCcsICctbWV0YWxfYmluZGluZycsICctaW1hZScsICc8aW5maWxlLm1hZT4nLCAnLW9tYWUnLCAnPG91dGZpbGUubWFlPic=

> <r_epik_Ionization_Penalty>
0.00485718

> <r_epik_Ionization_Penalty_Charging>
0

> <r_epik_Ionization_Penalty_Neutral>
0.00485718

> <r_epik_State_Penalty>
0.00349461

> <r_epik_Charging_Adjusted_Penalty>
0.00349461

> <i_epik_Tot_Q>
0

> <i_epik_Tot_abs_Q>
0

> <r_epik_Metal_State_Penalty>
-0

> <b_epik_Metal_Only>
0

> <s_lp_Force_Field>
OPLS_2005

> <r_lp_Energy>
20.4228

> <b_lp_Chiralities_Consistent>
1

> <s_lp_Variant>
AV-unprocessed.smi:774-2

> <Gold.Version>
5.8.1

> <Gold.Id.Protein>
6NUR|6NUR_protein|mol2

> <Gold.PLP.Fitness>
41.6243

> <Gold.PLP.PLP>
-31.8167

> <Gold.PLP.part.hbond>
-3.0000

> <Gold.PLP.part.metal>
0.0000

> <Gold.PLP.part.buried>
-2.7730

> <Gold.PLP.part.nonpolar>
-27.9939

> <Gold.PLP.part.repulsive>
1.9781

> <Gold.PLP.ligand.clash>
0.0000

> <Gold.PLP.ligand.torsion>
0.9257

> <Gold.PLP.Chemscore.Hbond>
2.9520

> <Gold.PLP.Chemscore.CHOScore>
0.9325

> <Gold.PLP.Chemscore.Metal>
0.0000

> <Gold.Chemscore.Hbonds>
donor molecule, donor type, donor heavy atom, donor atom, acceptor molecule, acceptor atom, score
      L1  H     8    30       P1  7948  0.92
      L1  H    11    31       P1  7948  1.00
      P1  H  7989  7998       L1    16  1.00
      L1  C    15    34       P1  8028  0.39

> <Gold.PLP.Chemscore.Internal.Correction>
0.0054

> <Gold.Rescore>
     Score         DG    S(hbond)    S(metal)    S(lipo)     H(rot)  DE(clash)    DE(int)     intcor
     17.32     -19.58       2.28        0.00      83.97       1.30       0.11       2.15       ----

> <Gold.Chemscore.Fitness>
17.3216

> <Gold.Chemscore.DG>
-19.5789

> <Gold.Chemscore.ZeroCoef>
-5.4800

> <Gold.Chemscore.Hbond>
2.2792

> <Gold.Chemscore.Metal>
0.0000

> <Gold.Chemscore.Lipo>
83.9737

> <Gold.Chemscore.Internal_Hbond>
0.0000

> <Gold.Chemscore.DEClash>
0.1113

> <Gold.Chemscore.DEInternal>
2.1460

> <Gold.Chemscore.Rot>
1.3041

> <Gold.Chemscore.Internal.Correction>
   9.000000E+99

> <Gold.Chemscore.Hbonds>
donor molecule, donor type, donor heavy atom, donor atom, acceptor molecule, acceptor atom, score
      L1  H     8    30       P1  7948  0.83
      L1  H    11    31       P1  7948  1.00
      P1  H  7989  7998       L1    16  0.23

> <Gold.Chemscore.Hbond.Weighted>
-7.6125

> <Gold.Chemscore.Metal.Weighted>
-0.0000

> <Gold.Chemscore.Lipo.Weighted>
-9.8249

> <Gold.Chemscore.Internal_Hbond.Weighted>
0.0000

> <Gold.Chemscore.DEClash.Weighted>
0.1113

> <Gold.Chemscore.DEInternal.Weighted>
2.1460

> <Gold.Chemscore.Rot.Weighted>
3.3384

> <Gold.Chemscore.Internal.Correction.Weighted>
   9.000000E+99

> <Gold.Protein.RotatedTorsions>
[ 6907 6896 6895 6894 ] final   94.57 input  -60.11 | X-H torsion
[ 7974 7965 7964 7962 ] final   71.47 input  175.53 | X-H torsion
[ 8008 7997 7996 7995 ] final  -21.97 input   59.86 | X-H torsion
[ 10167 10162 10161 10158 ] final   71.18 input  -65.29 | X-H torsion
[ 10718 10713 10712 10709 ] final  128.81 input   66.30 | X-H torsion
[ 10763 10752 10751 10750 ] final  167.71 input  -60.55 | X-H torsion
[ 11005 11000 10999 10996 ] final  162.56 input  -57.11 | X-H torsion

> <Gold.Protein.ActiveResidues>
 VAL166  LYS551  ARG553  GLY616  TRP617  ASP618  TYR619  PRO620  LYS621  CYS622 
 ASP623  PHE694  ASN695  SER759  ASP760  ASP761  ALA762  ILE779  LEU786  VAL792 
 PHE793  MET794  SER795  GLU796  ALA797  LYS798  CYS799  TRP800  GLU811  SER814 

> <Gold.Protein.RotatedAtoms>
  152.5449  134.1174  159.8384 H   0  0  0  0  0  0  0  0  0  0  0  0  # atno 6907 bound_to 6896
  151.1234  133.5081  159.2609 H   0  0  0  0  0  0  0  0  0  0  0  0  # atno 6908 bound_to 6896
  151.1754  135.0347  159.8824 H   0  0  0  0  0  0  0  0  0  0  0  0  # atno 6909 bound_to 6896
  145.7654  139.2819  143.1352 H   0  0  0  0  0  0  0  0  0  0  0  0  # atno 7974 bound_to 7965
  154.4672  140.2020  156.0087 H   0  0  0  0  0  0  0  0  0  0  0  0  # atno 8008 bound_to 7997
  156.0948  140.3252  155.7834 H   0  0  0  0  0  0  0  0  0  0  0  0  # atno 8009 bound_to 7997
  155.4896  140.0545  157.2946 H   0  0  0  0  0  0  0  0  0  0  0  0  # atno 8010 bound_to 7997
  140.0489  144.5328  150.7378 H   0  0  0  0  0  0  0  0  0  0  0  0  # atno 10167 bound_to 10162
  157.5211  131.1098  150.9152 H   0  0  0  0  0  0  0  0  0  0  0  0  # atno 10718 bound_to 10713
  154.3578  135.2753  155.2336 H   0  0  0  0  0  0  0  0  0  0  0  0  # atno 10763 bound_to 10752
  154.4538  135.5924  153.6213 H   0  0  0  0  0  0  0  0  0  0  0  0  # atno 10764 bound_to 10752
  152.9845  135.6048  154.3796 H   0  0  0  0  0  0  0  0  0  0  0  0  # atno 10765 bound_to 10752
  140.2269  134.8153  157.3278 H   0  0  0  0  0  0  0  0  0  0  0  0  # atno 11005 bound_to 11000
  146.0222  140.8337  142.9917 LP  0  0  0  0  0  0  0  0  0  0  0  0  # atno 17320 bound_to 7965
  144.6822  140.2646  143.7314 LP  0  0  0  0  0  0  0  0  0  0  0  0  # atno 17321 bound_to 7965
  140.7226  143.2603  151.4229 LP  0  0  0  0  0  0  0  0  0  0  0  0  # atno 17342 bound_to 10162
  139.5965  144.1385  152.2150 LP  0  0  0  0  0  0  0  0  0  0  0  0  # atno 17343 bound_to 10162
  156.9762  130.5509  149.5293 LP  0  0  0  0  0  0  0  0  0  0  0  0  # atno 17370 bound_to 10713
  156.0354  130.5442  150.8641 LP  0  0  0  0  0  0  0  0  0  0  0  0  # atno 17371 bound_to 10713
  140.1791  134.4513  155.7783 LP  0  0  0  0  0  0  0  0  0  0  0  0  # atno 17394 bound_to 11000
  141.2220  133.6975  156.7837 LP  0  0  0  0  0  0  0  0  0  0  0  0  # atno 17395 bound_to 11000

$$$$
