#       Name:                AV-unprocessed.smi:1239
#       Creating user name   scv26
#       Creation time:       Fri Mar 27 04:26:56 2020


#       File generated by GOLD software.
#

@<TRIPOS>MOLECULE
AV-unprocessed.smi:1239
    53    54     1
SMALL
NO_CHARGES


@<TRIPOS>ATOM
      1 ****        -2.2908   2.1481   0.1897 C.3            1 S1                 0.0000
      2 ****        -2.6728   1.5208  -1.1755 C.3            1 S1                 0.0000
      3 ****        -2.0138   0.1176  -1.2899 C.3            1 S1                 0.0000
      4 ****        -0.5618   0.1566  -1.1269 N.am           1 S1                 0.0000
      5 ****         0.1368  -0.5058  -0.1936 C.2            1 S1                 0.0000
      6 ****        -0.3779  -1.2272   0.6603 O.2            1 S1                 0.0000
      7 ****         1.4535  -0.2590  -0.3075 N.am           1 S1                 0.0000
      8 ****         2.5252  -0.8009   0.4535 C.ar           1 S1                 0.0000
      9 ****         3.7695  -0.1385   0.4046 C.ar           1 S1                 0.0000
     10 ****         4.8665  -0.6491   1.1288 C.ar           1 S1                 0.0000
     11 ****         4.7166  -1.8309   1.8952 C.ar           1 S1                 0.0000
     12 ****         5.7662  -2.4056   2.6442 N.pl3          1 S1                 0.0000
     13 ****         5.5315  -3.6313   3.3994 C.3            1 S1                 0.0000
     14 ****         7.0774  -1.7705   2.6616 C.3            1 S1                 0.0000
     15 ****         3.5047  -2.4378   1.9020 N.pl3          1 S1                 1.0000
     16 ****         2.4281  -1.9829   1.2255 C.ar           1 S1                 0.0000
     17 ****        -4.1369   1.4977  -1.4044 N.3            1 S1                 0.0000
     18 ****        -4.7426   2.8318  -1.3172 C.3            1 S1                 0.0000
     19 ****        -6.2590   2.8192  -1.5773 C.3            1 S1                 0.0000
     20 ****        -6.5205   2.2495  -2.8520 O.3            1 S1                 0.0000
     21 ****        -6.0202   0.9239  -2.9546 C.3            1 S1                 0.0000
     22 ****        -4.5022   0.9198  -2.7033 C.3            1 S1                 0.0000
     23 ****        -1.2160   2.1393   0.3657 H              1 S1                 0.0000
     24 ****        -2.7618   1.6122   1.0143 H              1 S1                 0.0000
     25 ****        -2.5772   3.1961   0.2610 H              1 S1                 0.0000
     26 ****        -2.2231   2.1463  -1.9484 H              1 S1                 0.0000
     27 ****        -2.4815  -0.5694  -0.5825 H              1 S1                 0.0000
     28 ****        -2.1656  -0.3104  -2.2790 H              1 S1                 0.0000
     29 ****        -0.0522   0.7317  -1.7815 H              1 S1                 0.0000
     30 ****         1.7172   0.4213  -1.0054 H              1 S1                 0.0000
     31 ****         3.8870   0.7609  -0.1823 H              1 S1                 0.0000
     32 ****         5.8087  -0.1237   1.0816 H              1 S1                 0.0000
     33 ****         5.2315  -4.4408   2.7330 H              1 S1                 0.0000
     34 ****         4.7449  -3.4808   4.1395 H              1 S1                 0.0000
     35 ****         6.4299  -3.9510   3.9278 H              1 S1                 0.0000
     36 ****         7.0077  -0.7583   3.0612 H              1 S1                 0.0000
     37 ****         7.4928  -1.7211   1.6547 H              1 S1                 0.0000
     38 ****         7.7790  -2.3263   3.2838 H              1 S1                 0.0000
     39 ****         1.5433  -2.5937   1.3230 H              1 S1                 0.0000
     40 ****        -4.5951   3.2580  -0.3267 H              1 S1                 0.0000
     41 ****        -4.2596   3.5042  -2.0278 H              1 S1                 0.0000
     42 ****        -6.7800   2.2542  -0.8025 H              1 S1                 0.0000
     43 ****        -6.6556   3.8341  -1.5537 H              1 S1                 0.0000
     44 ****        -6.5318   0.2766  -2.2405 H              1 S1                 0.0000
     45 ****        -6.2400   0.5378  -3.9500 H              1 S1                 0.0000
     46 ****        -4.0003   1.4639  -3.5048 H              1 S1                 0.0000
     47 ****        -4.1765  -0.1163  -2.7697 H              1 S1                 0.0000
     48 ****         3.3984  -3.2925   2.4487 H              1 S1                 0.0000
     49 ****        -1.3708  -1.3445   0.6833 LP             1 S1                 0.0000
     50 ****         0.1967  -1.6960   1.3311 LP             1 S1                 0.0000
     51 ****        -4.4933   0.9181  -0.6716 LP             1 S1                 0.0000
     52 ****        -6.0855   2.8141  -3.5535 LP             1 S1                 0.0000
     53 ****        -7.5091   2.2342  -3.0023 LP             1 S1                 0.0000
@<TRIPOS>BOND
    1    1    2 1     
    2    1   23 1     
    3    1   24 1     
    4    1   25 1     
    5    2    3 1     
    6    2   17 1     
    7    2   26 1     
    8    3    4 1     
    9    3   27 1     
   10    3   28 1     
   11    4    5 am    
   12    4   29 1     
   13    5    6 2     
   14    5    7 am    
   15    7    8 1     
   16    7   30 1     
   17    8   16 ar    
   18    8    9 ar    
   19    9   10 ar    
   20    9   31 1     
   21   10   11 ar    
   22   10   32 1     
   23   11   12 1     
   24   11   15 ar    
   25   12   13 1     
   26   12   14 1     
   27   13   33 1     
   28   13   34 1     
   29   13   35 1     
   30   14   36 1     
   31   14   37 1     
   32   14   38 1     
   33   15   16 ar    
   34   15   48 1     
   35   16   39 1     
   36   17   22 1     
   37   17   18 1     
   38   18   19 1     
   39   18   40 1     
   40   18   41 1     
   41   19   20 1     
   42   19   42 1     
   43   19   43 1     
   44   20   21 1     
   45   21   22 1     
   46   21   44 1     
   47   21   45 1     
   48   22   46 1     
   49   22   47 1     
   50    6   49 1     
   51    6   50 1     
   52   17   51 1     
   53   20   52 1     
   54   20   53 1     
@<TRIPOS>SUBSTRUCTURE
      1 S1             1
@<TRIPOS>SET
LONE_PAIRS      STATIC     ATOMS    <user>   **** ""
5 49 50 51 52 53
DONOR_HYDROGENS      STATIC     ATOMS    <user>   **** ""
3 29 30 48
ATOM$BLUE        STATIC     ATOMS    COLORGROUP SYSTEM
5 49 50 51 52 53
ATOM$RED        STATIC     ATOMS    COLORGROUP SYSTEM
3 29 30 48
