AV-unprocessed.smi:287|AV-procd|sdf|2185|dock1
  -GOLD-   2262021563D 1   1.00000     0.00000
 Structure written by MMmdl.
 55 58  0  0  0  0  0  0  0  0  1 V2000
  152.4727  138.9573  155.0997 C   0  0  0  0  0  0  0  0  0  0  0  0
  151.0387  139.3148  154.9083 C   0  0  0  0  0  0  0  0  0  0  0  0
  150.0804  138.9333  154.0148 C   0  0  0  0  0  0  0  0  0  0  0  0
  148.8848  139.6404  154.3436 C   0  0  0  0  0  0  0  0  0  0  0  0
  147.5439  139.5352  153.6287 C   0  0  1  0  0  0  0  0  0  0  0  0
  147.0333  140.9418  153.2770 C   0  0  0  0  0  0  0  0  0  0  0  0
  147.6387  138.8481  152.3957 O   0  0  0  0  0  0  0  0  0  0  0  0
  146.4774  138.7749  154.4511 C   0  0  0  0  0  0  0  0  0  0  0  0
  145.2527  138.5198  153.7000 N   0  0  0  0  0  0  0  0  0  0  0  0
  144.6749  137.3011  153.7375 C   0  0  0  0  0  0  0  0  0  0  0  0
  143.8573  136.9443  154.7624 N   0  0  0  0  0  0  0  0  0  0  0  0
  143.2904  135.7340  154.7727 C   0  0  0  0  0  0  0  0  0  0  0  0
  143.4067  134.7508  153.8774 N   0  0  0  0  0  0  0  0  0  0  0  0
  144.2308  135.1033  152.8484 C   0  0  0  0  0  0  0  0  0  0  0  0
  144.8981  136.3517  152.7075 C   0  0  0  0  0  0  0  0  0  0  0  0
  145.6492  136.3559  151.5397 N   0  0  0  0  0  0  0  0  0  0  0  0
  145.4326  135.1767  151.0215 C   0  0  0  0  0  0  0  0  0  0  0  0
  144.5929  134.3586  151.7447 N   0  0  0  0  0  0  0  0  0  0  0  0
  144.1589  132.9707  151.4055 C   0  0  2  0  0  0  0  0  0  0  0  0
  144.9943  132.0812  152.0753 O   0  0  0  0  0  0  0  0  0  0  0  0
  145.1624  130.9269  151.2677 C   0  0  2  0  0  0  0  0  0  0  0  0
  146.3590  130.0847  151.7451 C   0  0  0  0  0  0  0  0  0  0  0  0
  146.8605  129.3004  150.6838 O   0  0  0  0  0  0  0  0  0  0  0  0
  145.2243  131.4904  149.8394 C   0  0  2  0  0  0  0  0  0  0  0  0
  146.5350  131.8966  149.4940 O   0  0  0  0  0  0  0  0  0  0  0  0
  144.2884  132.6975  149.8948 C   0  0  1  0  0  0  0  0  0  0  0  0
  143.0380  132.3488  149.3353 O   0  0  0  0  0  0  0  0  0  0  0  0
  149.2155  140.3919  155.4454 C   0  0  0  0  0  0  0  0  0  0  0  0
  148.4577  141.3349  156.3204 C   0  0  0  0  0  0  0  0  0  0  0  0
  150.5206  140.2067  155.7891 O   0  0  0  0  0  0  0  0  0  0  0  0
  143.1374  132.8908  151.7812 H   0  0  0  0  0  0  0  0  0  0  0  0
  144.2494  130.3370  151.3701 H   0  0  0  0  0  0  0  0  0  0  0  0
  144.9089  130.7464  149.1064 H   0  0  0  0  0  0  0  0  0  0  0  0
  144.6900  133.5630  149.3647 H   0  0  0  0  0  0  0  0  0  0  0  0
  152.7999  138.2409  154.3459 H   0  0  0  0  0  0  0  0  0  0  0  0
  152.6322  138.5115  156.0816 H   0  0  0  0  0  0  0  0  0  0  0  0
  153.1054  139.8417  155.0223 H   0  0  0  0  0  0  0  0  0  0  0  0
  150.2224  138.2288  153.2086 H   0  0  0  0  0  0  0  0  0  0  0  0
  146.8951  141.5464  154.1743 H   0  0  0  0  0  0  0  0  0  0  0  0
  146.0744  140.9022  152.7586 H   0  0  0  0  0  0  0  0  0  0  0  0
  147.7365  141.4697  152.6315 H   0  0  0  0  0  0  0  0  0  0  0  0
  148.1017  138.0371  152.5396 H   0  0  0  0  0  0  0  0  0  0  0  0
  146.8817  137.8032  154.7383 H   0  0  0  0  0  0  0  0  0  0  0  0
  146.2549  139.3057  155.3784 H   0  0  0  0  0  0  0  0  0  0  0  0
  144.9139  139.2827  153.1310 H   0  0  0  0  0  0  0  0  0  0  0  0
  142.6505  135.5244  155.6172 H   0  0  0  0  0  0  0  0  0  0  0  0
  145.8844  134.8696  150.0897 H   0  0  0  0  0  0  0  0  0  0  0  0
  147.1543  130.7078  152.1547 H   0  0  0  0  0  0  0  0  0  0  0  0
  146.0428  129.4134  152.5438 H   0  0  0  0  0  0  0  0  0  0  0  0
  147.6318  129.7222  150.3370 H   0  0  0  0  0  0  0  0  0  0  0  0
  147.1492  131.3724  149.9866 H   0  0  0  0  0  0  0  0  0  0  0  0
  142.4414  133.0705  149.4619 H   0  0  0  0  0  0  0  0  0  0  0  0
  147.5198  140.8875  156.6495 H   0  0  0  0  0  0  0  0  0  0  0  0
  148.2253  142.2559  155.7860 H   0  0  0  0  0  0  0  0  0  0  0  0
  149.0326  141.5971  157.2089 H   0  0  0  0  0  0  0  0  0  0  0  0
  1  2  1  0  0  0  0
  1 35  1  0  0  0  0
  1 36  1  0  0  0  0
  1 37  1  0  0  0  0
  2 30  1  0  0  0  0
  2  3  2  0  0  0  0
  3  4  1  0  0  0  0
  3 38  1  0  0  0  0
  4  5  1  0  0  0  0
  4 28  2  0  0  0  0
  5  6  1  0  0  0  0
  5  7  1  0  0  0  0
  5  8  1  0  0  0  0
  6 39  1  0  0  0  0
  6 40  1  0  0  0  0
  6 41  1  0  0  0  0
  7 42  1  0  0  0  0
  8  9  1  0  0  0  0
  8 43  1  0  0  0  0
  8 44  1  0  0  0  0
  9 10  1  0  0  0  0
  9 45  1  0  0  0  0
 10 15  1  0  0  0  0
 10 11  2  0  0  0  0
 11 12  1  0  0  0  0
 12 13  2  0  0  0  0
 12 46  1  0  0  0  0
 13 14  1  0  0  0  0
 14 18  1  0  0  0  0
 14 15  2  0  0  0  0
 15 16  1  0  0  0  0
 16 17  2  0  0  0  0
 17 18  1  0  0  0  0
 17 47  1  0  0  0  0
 18 19  1  0  0  0  0
 19 31  1  0  0  0  0
 19 26  1  0  0  0  0
 19 20  1  0  0  0  0
 20 21  1  0  0  0  0
 21 32  1  0  0  0  0
 21 22  1  0  0  0  0
 21 24  1  0  0  0  0
 22 23  1  0  0  0  0
 22 48  1  0  0  0  0
 22 49  1  0  0  0  0
 23 50  1  0  0  0  0
 24 33  1  0  0  0  0
 24 25  1  0  0  0  0
 24 26  1  0  0  0  0
 25 51  1  0  0  0  0
 26 34  1  0  0  0  0
 26 27  1  0  0  0  0
 27 52  1  0  0  0  0
 28 29  1  0  0  0  0
 28 30  1  0  0  0  0
 29 53  1  0  0  0  0
 29 54  1  0  0  0  0
 29 55  1  0  0  0  0
M  END
> <s_m_source_file>
AV-unprocessed.smi

> <i_m_source_file_index>
287

> <i_lp_mmshare_version>
43012

> <i_f3d_flags>
0

> <s_epik_input>
W0NIM11jMVtjSF1jKGMobzEpW0NIM10pW0NAQF0oW0NIM10pKFtPSF0pW0NIMl1bTkhdYyhuW2NIXW4yKWMoYzIzKW5bY0hdbjNbQ0BASF00T1tDQEhdKFtDSDJdW09IXSlbQ0BASF0oW09IXSlbQ0BIXTRbT0hd

> <s_epik_cmdline>
J2VwaWtfcHl0aG9uJywgJy1waCcsICc3LjAnLCAnLXRuJywgJzgnLCAnLW1hJywgJzIwMCcsICctbWV0YWxfYmluZGluZycsICctaW1hZScsICc8aW5maWxlLm1hZT4nLCAnLW9tYWUnLCAnPG91dGZpbGUubWFlPic=

> <r_lp_tautomer_probability>
1

> <r_epik_Ionization_Penalty>
0.000992612

> <r_epik_Ionization_Penalty_Charging>
0

> <r_epik_Ionization_Penalty_Neutral>
0.000992612

> <r_epik_State_Penalty>
-0

> <r_epik_Charging_Adjusted_Penalty>
0

> <i_epik_Tot_Q>
0

> <i_epik_Tot_abs_Q>
0

> <r_epik_Metal_State_Penalty>
-0

> <b_epik_Metal_Only>
0

> <s_epik_Chemistry_Notes>
This compound contains an acetal/aminal-like group ( X-CH(R)-Y where X, Y are N, S, or O) that may be acid/base labile, releasing an aldehyde.

> <s_lp_Force_Field>
OPLS_2005

> <r_lp_Energy>
37.4731

> <b_lp_Chiralities_Consistent>
1

> <s_lp_Variant>
AV-unprocessed.smi:287-9

> <Gold.Version>
5.8.1

> <Gold.Id.Protein>
6NUR|6NUR_protein|mol2

> <Gold.PLP.Fitness>
62.8300

> <Gold.PLP.PLP>
-48.2712

> <Gold.PLP.part.hbond>
-7.5303

> <Gold.PLP.part.metal>
0.0000

> <Gold.PLP.part.buried>
-8.2761

> <Gold.PLP.part.nonpolar>
-34.0917

> <Gold.PLP.part.repulsive>
0.5568

> <Gold.PLP.ligand.clash>
0.0000

> <Gold.PLP.ligand.torsion>
2.1067

> <Gold.PLP.Chemscore.Hbond>
5.1340

> <Gold.PLP.Chemscore.CHOScore>
1.0000

> <Gold.PLP.Chemscore.Metal>
0.0000

> <Gold.Chemscore.Hbonds>
donor molecule, donor type, donor heavy atom, donor atom, acceptor molecule, acceptor atom, score
      L1  H     7    42       P1  7948  0.86
      L1  H     9    45       P1 10175  1.00
      L1  H    23    50       P1 10747  1.00
      L1  H    25    51       P1 10747  0.94
      L1  H    27    52       P1 10186  1.00
      P1  H 10785 10796       L1    27  0.36
      L1  C    17    47       P1  7921  1.00

> <Gold.PLP.Chemscore.Internal.Correction>
0.3701

> <Gold.Rescore>
     Score         DG    S(hbond)    S(metal)    S(lipo)     H(rot)  DE(clash)    DE(int)     intcor
     17.11     -20.23       4.87        0.00     102.29       5.27       0.76       2.37       ----

> <Gold.Chemscore.Fitness>
17.1093

> <Gold.Chemscore.DG>
-20.2345

> <Gold.Chemscore.ZeroCoef>
-5.4800

> <Gold.Chemscore.Hbond>
4.8713

> <Gold.Chemscore.Metal>
0.0000

> <Gold.Chemscore.Lipo>
102.2946

> <Gold.Chemscore.Internal_Hbond>
0.0000

> <Gold.Chemscore.DEClash>
0.7589

> <Gold.Chemscore.DEInternal>
2.3663

> <Gold.Chemscore.Rot>
5.2672

> <Gold.Chemscore.Internal.Correction>
   9.000000E+99

> <Gold.Chemscore.Hbonds>
donor molecule, donor type, donor heavy atom, donor atom, acceptor molecule, acceptor atom, score
      L1  H     7    42       P1  7948  0.80
      L1  H     9    45       P1 10175  0.99
      L1  H    23    50       P1 10747  0.96
      L1  H    25    51       P1 10747  0.91
      L1  H    27    52       P1 10186  0.98
      P1  H 10785 10796       L1    27  0.19

> <Gold.Chemscore.Hbond.Weighted>
-16.2700

> <Gold.Chemscore.Metal.Weighted>
-0.0000

> <Gold.Chemscore.Lipo.Weighted>
-11.9685

> <Gold.Chemscore.Internal_Hbond.Weighted>
0.0000

> <Gold.Chemscore.DEClash.Weighted>
0.7589

> <Gold.Chemscore.DEInternal.Weighted>
2.3663

> <Gold.Chemscore.Rot.Weighted>
13.4839

> <Gold.Chemscore.Internal.Correction.Weighted>
   9.000000E+99

> <Gold.Protein.RotatedTorsions>
[ 6907 6896 6895 6894 ] final   69.66 input  -60.11 | X-H torsion
[ 7974 7965 7964 7962 ] final   31.59 input  175.53 | X-H torsion
[ 8008 7997 7996 7995 ] final   -9.43 input   59.86 | X-H torsion
[ 10167 10162 10161 10158 ] final  -28.03 input  -65.29 | X-H torsion
[ 10718 10713 10712 10709 ] final  -90.60 input   66.30 | X-H torsion
[ 10763 10752 10751 10750 ] final  -19.89 input  -60.55 | X-H torsion
[ 11005 11000 10999 10996 ] final   90.70 input  -57.11 | X-H torsion

> <Gold.Protein.ActiveResidues>
 VAL166  LYS551  ARG553  GLY616  TRP617  ASP618  TYR619  PRO620  LYS621  CYS622 
 ASP623  PHE694  ASN695  SER759  ASP760  ASP761  ALA762  ILE779  LEU786  VAL792 
 PHE793  MET794  SER795  GLU796  ALA797  LYS798  CYS799  TRP800  GLU811  SER814 

> <Gold.Protein.RotatedAtoms>
  152.4700  134.4983  159.9716 H   0  0  0  0  0  0  0  0  0  0  0  0  # atno 6907 bound_to 6896
  151.5012  133.3498  159.2877 H   0  0  0  0  0  0  0  0  0  0  0  0  # atno 6908 bound_to 6896
  150.8705  134.8105  159.7213 H   0  0  0  0  0  0  0  0  0  0  0  0  # atno 6909 bound_to 6896
  146.1540  139.6637  142.9079 H   0  0  0  0  0  0  0  0  0  0  0  0  # atno 7974 bound_to 7965
  154.5647  140.2355  155.8281 H   0  0  0  0  0  0  0  0  0  0  0  0  # atno 8008 bound_to 7997
  156.2059  140.3040  155.9584 H   0  0  0  0  0  0  0  0  0  0  0  0  # atno 8009 bound_to 7997
  155.2823  140.0423  157.3007 H   0  0  0  0  0  0  0  0  0  0  0  0  # atno 8010 bound_to 7997
  140.7273  143.4043  151.1211 H   0  0  0  0  0  0  0  0  0  0  0  0  # atno 10167 bound_to 10162
  155.9988  130.4916  150.5348 H   0  0  0  0  0  0  0  0  0  0  0  0  # atno 10718 bound_to 10713
  153.6119  135.6996  153.5343 H   0  0  0  0  0  0  0  0  0  0  0  0  # atno 10763 bound_to 10752
  153.3009  135.4129  155.1251 H   0  0  0  0  0  0  0  0  0  0  0  0  # atno 10764 bound_to 10752
  154.8561  135.3648  154.5658 H   0  0  0  0  0  0  0  0  0  0  0  0  # atno 10765 bound_to 10752
  139.8851  134.8629  156.3322 H   0  0  0  0  0  0  0  0  0  0  0  0  # atno 11005 bound_to 11000
  145.4753  141.0437  143.2676 LP  0  0  0  0  0  0  0  0  0  0  0  0  # atno 17320 bound_to 7965
  144.7940  139.6271  143.7101 LP  0  0  0  0  0  0  0  0  0  0  0  0  # atno 17321 bound_to 7965
  139.7668  143.8554  152.3112 LP  0  0  0  0  0  0  0  0  0  0  0  0  # atno 17342 bound_to 10162
  139.8458  144.7188  150.9274 LP  0  0  0  0  0  0  0  0  0  0  0  0  # atno 17343 bound_to 10162
  157.3292  131.0696  151.1874 LP  0  0  0  0  0  0  0  0  0  0  0  0  # atno 17370 bound_to 10713
  157.2760  130.6727  149.6042 LP  0  0  0  0  0  0  0  0  0  0  0  0  # atno 17371 bound_to 10713
  140.9715  133.7324  156.0541 LP  0  0  0  0  0  0  0  0  0  0  0  0  # atno 17394 bound_to 11000
  140.7865  134.3666  157.5475 LP  0  0  0  0  0  0  0  0  0  0  0  0  # atno 17395 bound_to 11000

$$$$
