#       Name:                AV-unprocessed.smi:671
#       Creating user name   scv26
#       Creation time:       Fri Mar 27 00:23:59 2020


#       File generated by GOLD software.
#

@<TRIPOS>MOLECULE
AV-unprocessed.smi:671
    52    53     1
SMALL
NO_CHARGES


@<TRIPOS>ATOM
      1 ****         3.1457  -5.3463  -3.7579 C.3            1 S1                 0.0000
      2 ****         3.3752  -4.2646  -4.7748 C.2            1 S1                 0.0000
      3 ****         3.6252  -4.5937  -6.0311 N.2            1 S1                 0.0000
      4 ****         3.7790  -3.4167  -6.6705 N.pl3          1 S1                 0.0000
      5 ****         4.0682  -3.4124  -8.0915 C.3            1 S1                 0.0000
      6 ****         3.6215  -2.3414  -5.8175 C.2            1 S1                 0.0000
      7 ****         3.7383  -0.9279  -6.2894 C.3            1 S1                 0.0000
      8 ****         3.3567  -2.8534  -4.5754 C.2            1 S1                 0.0000
      9 ****         3.1002  -2.1276  -3.2808 C.3            1 S1                 0.0000
     10 ****         1.5934  -2.0307  -2.9563 C.3            1 S1                 0.0000
     11 ****         0.8521  -1.0686  -3.8973 C.3            1 S1                 0.0000
     12 ****         1.4004  -1.5860  -1.5741 N.am           1 S1                 0.0000
     13 ****         1.4698  -2.3209  -0.4484 C.2            1 S1                 0.0000
     14 ****         1.7191  -3.5244  -0.4744 O.2            1 S1                 0.0000
     15 ****         1.2448  -1.6330   0.6839 N.am           1 S1                 0.0000
     16 ****         1.2173  -2.1954   2.0304 C.3            1 S1                 0.0000
     17 ****         1.7102  -1.1582   3.0584 C.3            1 S1                 0.0000
     18 ****         0.5096  -0.8253   3.9461 C.3            1 S1                 0.0000
     19 ****        -0.3570  -2.0789   3.8948 C.3            1 S1                 0.0000
     20 ****        -0.2220  -2.5675   2.4502 C.3            1 S1                 0.0000
     21 ****        -0.5577  -4.0548   2.2737 C.3            1 S1                 0.0000
     22 ****         2.0867  -5.4344  -3.5153 H              1 S1                 0.0000
     23 ****         3.6802  -5.1320  -2.8323 H              1 S1                 0.0000
     24 ****         3.4867  -6.3181  -4.1163 H              1 S1                 0.0000
     25 ****         3.2042  -3.0349  -8.6389 H              1 S1                 0.0000
     26 ****         4.2965  -4.4205  -8.4413 H              1 S1                 0.0000
     27 ****         4.9259  -2.7696  -8.2913 H              1 S1                 0.0000
     28 ****         3.4644  -0.2231  -5.5048 H              1 S1                 0.0000
     29 ****         3.0811  -0.7473  -7.1402 H              1 S1                 0.0000
     30 ****         4.7604  -0.7065  -6.5970 H              1 S1                 0.0000
     31 ****         3.6162  -2.6453  -2.4716 H              1 S1                 0.0000
     32 ****         3.5360  -1.1282  -3.2944 H              1 S1                 0.0000
     33 ****         1.1366  -3.0146  -3.0750 H              1 S1                 0.0000
     34 ****         0.9130  -1.4010  -4.9338 H              1 S1                 0.0000
     35 ****         1.2679  -0.0619  -3.8459 H              1 S1                 0.0000
     36 ****        -0.2056  -1.0059  -3.6394 H              1 S1                 0.0000
     37 ****         1.2172  -0.6003  -1.4542 H              1 S1                 0.0000
     38 ****         1.0548  -0.6449   0.6028 H              1 S1                 0.0000
     39 ****         1.8710  -3.0680   2.0890 H              1 S1                 0.0000
     40 ****         2.4974  -1.6037   3.6681 H              1 S1                 0.0000
     41 ****         2.1320  -0.2621   2.6006 H              1 S1                 0.0000
     42 ****         0.8010  -0.5574   4.9619 H              1 S1                 0.0000
     43 ****        -0.0392   0.0175   3.5251 H              1 S1                 0.0000
     44 ****         0.0410  -2.8247   4.5844 H              1 S1                 0.0000
     45 ****        -1.3923  -1.8834   4.1761 H              1 S1                 0.0000
     46 ****        -0.9255  -1.9859   1.8511 H              1 S1                 0.0000
     47 ****         0.1127  -4.6859   2.8579 H              1 S1                 0.0000
     48 ****        -0.4705  -4.3537   1.2288 H              1 S1                 0.0000
     49 ****        -1.5784  -4.2651   2.5939 H              1 S1                 0.0000
     50 ****         3.6867  -5.5127  -6.4208 LP             1 S1                 0.0000
     51 ****         1.8769  -3.9835  -1.3486 LP             1 S1                 0.0000
     52 ****         1.7640  -4.0442   0.3787 LP             1 S1                 0.0000
@<TRIPOS>BOND
    1    1    2 1     
    2    1   22 1     
    3    1   23 1     
    4    1   24 1     
    5    2    8 1     
    6    2    3 2     
    7    3    4 1     
    8    4    5 1     
    9    4    6 1     
   10    5   25 1     
   11    5   26 1     
   12    5   27 1     
   13    6    7 1     
   14    6    8 2     
   15    7   28 1     
   16    7   29 1     
   17    7   30 1     
   18    8    9 1     
   19    9   10 1     
   20    9   31 1     
   21    9   32 1     
   22   10   11 1     
   23   10   12 1     
   24   10   33 1     
   25   11   34 1     
   26   11   35 1     
   27   11   36 1     
   28   12   13 am    
   29   12   37 1     
   30   13   14 2     
   31   13   15 am    
   32   15   16 1     
   33   15   38 1     
   34   16   20 1     
   35   16   17 1     
   36   16   39 1     
   37   17   18 1     
   38   17   40 1     
   39   17   41 1     
   40   18   19 1     
   41   18   42 1     
   42   18   43 1     
   43   19   20 1     
   44   19   44 1     
   45   19   45 1     
   46   20   21 1     
   47   20   46 1     
   48   21   47 1     
   49   21   48 1     
   50   21   49 1     
   51    3   50 1     
   52   14   51 1     
   53   14   52 1     
@<TRIPOS>SUBSTRUCTURE
      1 S1             1
@<TRIPOS>SET
LONE_PAIRS      STATIC     ATOMS    <user>   **** ""
3 50 51 52
DONOR_HYDROGENS      STATIC     ATOMS    <user>   **** ""
2 37 38
ATOM$BLUE        STATIC     ATOMS    COLORGROUP SYSTEM
3 50 51 52
ATOM$RED        STATIC     ATOMS    COLORGROUP SYSTEM
2 37 38
