AV-unprocessed.smi:1988|AV-procd|sdf|8058|dock8
  -GOLD-   2272010263D 1   1.00000     0.00000
 Structure written by MMmdl.
 37 38  0  0  0  0  0  0  0  0  1 V2000
  152.6553  136.3873  157.4480 C   0  0  0  0  0  0  0  0  0  0  0  0
  151.3694  137.0916  157.7731 C   0  0  0  0  0  0  0  0  0  0  0  0
  150.8514  136.9693  158.9835 N   0  0  0  0  0  0  0  0  0  0  0  0
  149.6674  137.7125  158.9713 O   0  0  0  0  0  0  0  0  0  0  0  0
  149.5159  138.2575  157.7375 C   0  0  0  0  0  0  0  0  0  0  0  0
  148.2942  139.0825  157.5123 C   0  0  0  0  0  0  0  0  0  0  0  0
  150.5608  137.9064  156.9282 C   0  0  0  0  0  0  0  0  0  0  0  0
  150.7914  138.2742  155.4850 C   0  0  0  0  0  0  0  0  0  0  0  0
  150.5719  139.7759  155.3153 C   0  0  0  0  0  0  0  0  0  0  0  0
  150.0680  140.2103  154.2798 O   0  0  0  0  0  0  0  0  0  0  0  0
  150.9908  140.5557  156.3241 N   0  0  0  0  0  0  0  0  0  0  0  0
  151.0140  142.0143  156.3139 C   0  0  0  0  0  0  0  0  0  0  0  0
  151.0816  142.5821  157.7447 C   0  0  2  0  0  0  0  0  0  0  0  0
  151.8840  143.8956  157.8189 C   0  0  0  0  0  0  0  0  0  0  0  0
  152.1145  144.2462  159.2924 C   0  0  0  0  0  0  0  0  0  0  0  0
  152.2922  142.6431  160.1599 S   0  0  0  0  0  0  0  0  0  0  0  0
  153.7184  142.3580  160.3786 O   0  0  0  0  0  0  0  0  0  0  0  0
  151.3300  142.5916  161.2708 O   0  0  0  0  0  0  0  0  0  0  0  0
  151.6844  141.6096  158.7744 C   0  0  0  0  0  0  0  0  0  0  0  0
  153.2333  136.9409  156.7085 H   0  0  0  0  0  0  0  0  0  0  0  0
  152.4615  135.3941  157.0423 H   0  0  0  0  0  0  0  0  0  0  0  0
  153.2817  136.2691  158.3326 H   0  0  0  0  0  0  0  0  0  0  0  0
  147.6425  138.6100  156.7773 H   0  0  0  0  0  0  0  0  0  0  0  0
  148.5600  140.0722  157.1412 H   0  0  0  0  0  0  0  0  0  0  0  0
  147.7275  139.2087  158.4352 H   0  0  0  0  0  0  0  0  0  0  0  0
  151.8054  138.0280  155.1675 H   0  0  0  0  0  0  0  0  0  0  0  0
  150.1247  137.7263  154.8179 H   0  0  0  0  0  0  0  0  0  0  0  0
  151.3851  140.1023  157.1357 H   0  0  0  0  0  0  0  0  0  0  0  0
  151.8430  142.3917  155.7127 H   0  0  0  0  0  0  0  0  0  0  0  0
  150.1025  142.3596  155.8254 H   0  0  0  0  0  0  0  0  0  0  0  0
  150.0652  142.8092  158.0708 H   0  0  0  0  0  0  0  0  0  0  0  0
  152.8516  143.7522  157.3359 H   0  0  0  0  0  0  0  0  0  0  0  0
  151.3823  144.7073  157.2912 H   0  0  0  0  0  0  0  0  0  0  0  0
  152.9982  144.8639  159.4531 H   0  0  0  0  0  0  0  0  0  0  0  0
  151.2476  144.7602  159.7083 H   0  0  0  0  0  0  0  0  0  0  0  0
  150.9672  140.8754  159.1419 H   0  0  0  0  0  0  0  0  0  0  0  0
  152.5400  141.0775  158.3572 H   0  0  0  0  0  0  0  0  0  0  0  0
  1  2  1  0  0  0  0
  1 20  1  0  0  0  0
  1 21  1  0  0  0  0
  1 22  1  0  0  0  0
  2  7  1  0  0  0  0
  2  3  2  0  0  0  0
  3  4  1  0  0  0  0
  4  5  1  0  0  0  0
  5  6  1  0  0  0  0
  5  7  2  0  0  0  0
  6 23  1  0  0  0  0
  6 24  1  0  0  0  0
  6 25  1  0  0  0  0
  7  8  1  0  0  0  0
  8  9  1  0  0  0  0
  8 26  1  0  0  0  0
  8 27  1  0  0  0  0
  9 10  2  0  0  0  0
  9 11  1  0  0  0  0
 11 12  1  0  0  0  0
 11 28  1  0  0  0  0
 12 13  1  0  0  0  0
 12 29  1  0  0  0  0
 12 30  1  0  0  0  0
 13 19  1  0  0  0  0
 13 14  1  0  0  0  0
 13 31  1  0  0  0  0
 14 15  1  0  0  0  0
 14 32  1  0  0  0  0
 14 33  1  0  0  0  0
 15 16  1  0  0  0  0
 15 34  1  0  0  0  0
 15 35  1  0  0  0  0
 16 17  2  0  0  0  0
 16 18  2  0  0  0  0
 16 19  1  0  0  0  0
 19 36  1  0  0  0  0
 19 37  1  0  0  0  0
M  END
> <s_m_source_file>
AV-unprocessed.smi

> <i_m_source_file_index>
1988

> <i_lp_mmshare_version>
43012

> <i_f3d_flags>
0

> <s_epik_input>
W0NIM11jMW5vYyhbQ0gzXSljMVtDSDJdQyg9TylbTkhdW0NIMl1bQ0BASF0oW0NIMl0yKVtDSDJdW0NIMl1TMig9Tyk9Tw==

> <s_epik_cmdline>
J2VwaWtfcHl0aG9uJywgJy1waCcsICc3LjAnLCAnLXRuJywgJzgnLCAnLW1hJywgJzIwMCcsICctbWV0YWxfYmluZGluZycsICctaW1hZScsICc8aW5maWxlLm1hZT4nLCAnLW9tYWUnLCAnPG91dGZpbGUubWFlPic=

> <r_lp_tautomer_probability>
1

> <r_epik_Ionization_Penalty>
2.7503e-08

> <r_epik_Ionization_Penalty_Charging>
0

> <r_epik_Ionization_Penalty_Neutral>
2.7503e-08

> <r_epik_State_Penalty>
-0

> <r_epik_Charging_Adjusted_Penalty>
0

> <i_epik_Tot_Q>
0

> <i_epik_Tot_abs_Q>
0

> <r_epik_Metal_State_Penalty>
-0

> <b_epik_Metal_Only>
0

> <s_lp_Force_Field>
OPLS_2005

> <r_lp_Energy>
-3.10021

> <b_lp_Chiralities_Consistent>
1

> <s_lp_Variant>
AV-unprocessed.smi:1988-1

> <Gold.Version>
5.8.1

> <Gold.Id.Protein>
6NUR|6NUR_protein|mol2

> <Gold.PLP.Fitness>
35.5851

> <Gold.PLP.PLP>
-30.6301

> <Gold.PLP.part.hbond>
-3.0414

> <Gold.PLP.part.metal>
0.0000

> <Gold.PLP.part.buried>
-5.2620

> <Gold.PLP.part.nonpolar>
-22.1442

> <Gold.PLP.part.repulsive>
0.3210

> <Gold.PLP.ligand.clash>
0.0000

> <Gold.PLP.ligand.torsion>
1.0733

> <Gold.PLP.Chemscore.Hbond>
2.3640

> <Gold.PLP.Chemscore.CHOScore>
0.0000

> <Gold.PLP.Chemscore.Metal>
0.0000

> <Gold.Chemscore.Hbonds>
donor molecule, donor type, donor heavy atom, donor atom, acceptor molecule, acceptor atom, score
      P1  H  6896  6908       L1     3  0.84
      P1  H  6933  6945       L1    18  0.37
      P1  H  7989  7998       L1    10  0.91

> <Gold.PLP.Chemscore.Internal.Correction>
0.0095

> <Gold.Rescore>
     Score         DG    S(hbond)    S(metal)    S(lipo)     H(rot)  DE(clash)    DE(int)     intcor
     15.19     -16.47       2.17        0.00      69.22       1.70       0.36       0.93       ----

> <Gold.Chemscore.Fitness>
15.1873

> <Gold.Chemscore.DG>
-16.4738

> <Gold.Chemscore.ZeroCoef>
-5.4800

> <Gold.Chemscore.Hbond>
2.1667

> <Gold.Chemscore.Metal>
0.0000

> <Gold.Chemscore.Lipo>
69.2170

> <Gold.Chemscore.Internal_Hbond>
0.0000

> <Gold.Chemscore.DEClash>
0.3552

> <Gold.Chemscore.DEInternal>
0.9313

> <Gold.Chemscore.Rot>
1.6958

> <Gold.Chemscore.Internal.Correction>
   9.000000E+99

> <Gold.Chemscore.Hbonds>
donor molecule, donor type, donor heavy atom, donor atom, acceptor molecule, acceptor atom, score
      P1  H  6896  6908       L1     3  0.69
      P1  H  6933  6945       L1    18  0.36
      P1  H  7989  7998       L1    10  0.20

> <Gold.Chemscore.Hbond.Weighted>
-7.2366

> <Gold.Chemscore.Metal.Weighted>
-0.0000

> <Gold.Chemscore.Lipo.Weighted>
-8.0984

> <Gold.Chemscore.Internal_Hbond.Weighted>
0.0000

> <Gold.Chemscore.DEClash.Weighted>
0.3552

> <Gold.Chemscore.DEInternal.Weighted>
0.9313

> <Gold.Chemscore.Rot.Weighted>
4.3413

> <Gold.Chemscore.Internal.Correction.Weighted>
   9.000000E+99

> <Gold.Protein.RotatedTorsions>
[ 6907 6896 6895 6894 ] final -136.47 input  -60.11 | X-H torsion
[ 7974 7965 7964 7962 ] final  -24.55 input  175.53 | X-H torsion
[ 8008 7997 7996 7995 ] final -154.75 input   59.86 | X-H torsion
[ 10167 10162 10161 10158 ] final   12.42 input  -65.29 | X-H torsion
[ 10718 10713 10712 10709 ] final -106.74 input   66.30 | X-H torsion
[ 10763 10752 10751 10750 ] final   85.56 input  -60.55 | X-H torsion
[ 11005 11000 10999 10996 ] final   82.17 input  -57.11 | X-H torsion

> <Gold.Protein.ActiveResidues>
 VAL166  LYS551  ARG553  GLY616  TRP617  ASP618  TYR619  PRO620  LYS621  CYS622 
 ASP623  PHE694  ASN695  SER759  ASP760  ASP761  ALA762  ILE779  LEU786  VAL792 
 PHE793  MET794  SER795  GLU796  ALA797  LYS798  CYS799  TRP800  GLU811  SER814 

> <Gold.Protein.RotatedAtoms>
  151.0105  133.5970  159.2683 H   0  0  0  0  0  0  0  0  0  0  0  0  # atno 6907 bound_to 6896
  151.3123  135.0796  159.9286 H   0  0  0  0  0  0  0  0  0  0  0  0  # atno 6908 bound_to 6896
  152.5298  133.9767  159.7842 H   0  0  0  0  0  0  0  0  0  0  0  0  # atno 6909 bound_to 6896
  146.1547  140.4767  142.8596 H   0  0  0  0  0  0  0  0  0  0  0  0  # atno 7974 bound_to 7965
  155.6911  140.0755  157.2447 H   0  0  0  0  0  0  0  0  0  0  0  0  # atno 8008 bound_to 7997
  154.4088  140.1664  156.2140 H   0  0  0  0  0  0  0  0  0  0  0  0  # atno 8009 bound_to 7997
  155.9451  140.3381  155.6363 H   0  0  0  0  0  0  0  0  0  0  0  0  # atno 8010 bound_to 7997
  140.6069  143.8489  150.7023 H   0  0  0  0  0  0  0  0  0  0  0  0  # atno 10167 bound_to 10162
  156.0404  130.5627  150.7723 H   0  0  0  0  0  0  0  0  0  0  0  0  # atno 10718 bound_to 10713
  153.1487  135.4612  154.9604 H   0  0  0  0  0  0  0  0  0  0  0  0  # atno 10763 bound_to 10752
  154.7807  135.3187  154.7998 H   0  0  0  0  0  0  0  0  0  0  0  0  # atno 10764 bound_to 10752
  153.8507  135.6921  153.4847 H   0  0  0  0  0  0  0  0  0  0  0  0  # atno 10765 bound_to 10752
  139.9072  134.8052  156.2139 H   0  0  0  0  0  0  0  0  0  0  0  0  # atno 11005 bound_to 11000
  144.7949  140.6103  143.6517 LP  0  0  0  0  0  0  0  0  0  0  0  0  # atno 17320 bound_to 7965
  145.4736  139.1501  143.3800 LP  0  0  0  0  0  0  0  0  0  0  0  0  # atno 17321 bound_to 7965
  140.2049  143.3930  152.1763 LP  0  0  0  0  0  0  0  0  0  0  0  0  # atno 17342 bound_to 10162
  139.5331  144.7181  151.4985 LP  0  0  0  0  0  0  0  0  0  0  0  0  # atno 17343 bound_to 10162
  157.5213  131.0931  151.0075 LP  0  0  0  0  0  0  0  0  0  0  0  0  # atno 17370 bound_to 10713
  157.0404  130.5747  149.5355 LP  0  0  0  0  0  0  0  0  0  0  0  0  # atno 17371 bound_to 10713
  141.0448  133.6919  156.1663 LP  0  0  0  0  0  0  0  0  0  0  0  0  # atno 17394 bound_to 11000
  140.6901  134.4675  157.5588 LP  0  0  0  0  0  0  0  0  0  0  0  0  # atno 17395 bound_to 11000

$$$$
