#       Name:                AV-unprocessed.smi:1351
#       Creating user name   scv26
#       Creation time:       Fri Mar 27 05:11:39 2020


#       File generated by GOLD software.
#

@<TRIPOS>MOLECULE
AV-unprocessed.smi:1351
    39    40     1
SMALL
NO_CHARGES


@<TRIPOS>ATOM
      1 ****        -5.2470  -1.1390   0.0026 C.3            1 S1                 0.0000
      2 ****        -4.4774  -0.0870  -0.6539 N.pl3          1 S1                 0.0000
      3 ****        -5.1680   0.9879  -1.3556 C.3            1 S1                 0.0000
      4 ****        -3.0657  -0.0958  -0.5781 C.ar           1 S1                 0.0000
      5 ****        -2.2859   0.9207  -1.1835 C.ar           1 S1                 0.0000
      6 ****        -0.8834   0.8669  -1.0759 C.ar           1 S1                 0.0000
      7 ****        -0.2847  -0.1891  -0.3630 C.ar           1 S1                 0.0000
      8 ****         1.1340  -0.2214  -0.2868 N.am           1 S1                 0.0000
      9 ****         1.9198  -0.8676   0.5957 C.2            1 S1                 0.0000
     10 ****         1.4999  -1.5732   1.5124 O.2            1 S1                 0.0000
     11 ****         3.4359  -0.6945   0.4127 C.3            1 S1                 0.0000
     12 ****         4.2191  -0.4869   1.7242 C.3            1 S1                 0.0000
     13 ****         4.9922   0.8022   1.4981 C.3            1 S1                 0.0000
     14 ****         5.0006   0.9340  -0.0183 C.3            1 S1                 0.0000
     15 ****         3.7110   0.4656  -0.3712 O.3            1 S1                 0.0000
     16 ****        -1.1400  -1.1674   0.1957 C.ar           1 S1                 0.0000
     17 ****        -2.4850  -1.1199   0.0937 N.ar           1 S1                 0.0000
     18 ****        -4.9884  -2.1158  -0.4075 H              1 S1                 0.0000
     19 ****        -6.3185  -0.9936  -0.1341 H              1 S1                 0.0000
     20 ****        -5.0460  -1.1485   1.0744 H              1 S1                 0.0000
     21 ****        -4.8682   1.0160  -2.4036 H              1 S1                 0.0000
     22 ****        -4.9400   1.9517  -0.8995 H              1 S1                 0.0000
     23 ****        -6.2491   0.8529  -1.3241 H              1 S1                 0.0000
     24 ****        -2.7330   1.7389  -1.7273 H              1 S1                 0.0000
     25 ****        -0.2767   1.6342  -1.5345 H              1 S1                 0.0000
     26 ****         1.6179   0.3743  -0.9434 H              1 S1                 0.0000
     27 ****         3.8278  -1.5655  -0.1146 H              1 S1                 0.0000
     28 ****         3.5874  -0.4072   2.6100 H              1 S1                 0.0000
     29 ****         4.9026  -1.3215   1.8840 H              1 S1                 0.0000
     30 ****         4.4500   1.6408   1.9369 H              1 S1                 0.0000
     31 ****         5.9935   0.7822   1.9289 H              1 S1                 0.0000
     32 ****         5.1639   1.9585  -0.3533 H              1 S1                 0.0000
     33 ****         5.7630   0.2946  -0.4659 H              1 S1                 0.0000
     34 ****        -0.7602  -2.0278   0.7235 H              1 S1                 0.0000
     35 ****         0.5154  -1.6959   1.6383 LP             1 S1                 0.0000
     36 ****         2.1431  -2.0239   2.1314 LP             1 S1                 0.0000
     37 ****         3.0293   1.1726  -0.1825 LP             1 S1                 0.0000
     38 ****         3.6886   0.2319  -1.3432 LP             1 S1                 0.0000
     39 ****        -3.0481  -1.8338   0.5100 LP             1 S1                 0.0000
@<TRIPOS>BOND
    1    1    2 1     
    2    1   18 1     
    3    1   19 1     
    4    1   20 1     
    5    2    3 1     
    6    2    4 1     
    7    3   21 1     
    8    3   22 1     
    9    3   23 1     
   10    4   17 ar    
   11    4    5 ar    
   12    5    6 ar    
   13    5   24 1     
   14    6    7 ar    
   15    6   25 1     
   16    7    8 1     
   17    7   16 ar    
   18    8    9 am    
   19    8   26 1     
   20    9   10 2     
   21    9   11 1     
   22   11   15 1     
   23   11   12 1     
   24   11   27 1     
   25   12   13 1     
   26   12   28 1     
   27   12   29 1     
   28   13   14 1     
   29   13   30 1     
   30   13   31 1     
   31   14   15 1     
   32   14   32 1     
   33   14   33 1     
   34   16   17 ar    
   35   16   34 1     
   36   10   35 1     
   37   10   36 1     
   38   15   37 1     
   39   15   38 1     
   40   17   39 1     
@<TRIPOS>SUBSTRUCTURE
      1 S1             1
@<TRIPOS>SET
LONE_PAIRS      STATIC     ATOMS    <user>   **** ""
5 35 36 37 38 39
DONOR_HYDROGENS      STATIC     ATOMS    <user>   **** ""
1 26
ATOM$BLUE        STATIC     ATOMS    COLORGROUP SYSTEM
5 35 36 37 38 39
ATOM$RED        STATIC     ATOMS    COLORGROUP SYSTEM
1 26
