AV-unprocessed.smi:2988|AV-procd|sdf|11390|dock5
  -GOLD-   2272016313D 1   1.00000     0.00000
 Structure written by MMmdl.
 37 38  0  0  0  0  0  0  0  0  1 V2000
  153.9035  142.3138  161.4564 C   0  0  0  0  0  0  0  0  0  0  0  0
  152.7407  142.7707  160.5566 C   0  0  1  0  0  0  0  0  0  0  0  0
  152.7981  144.2953  160.3295 C   0  0  0  0  0  0  0  0  0  0  0  0
  151.6446  144.7857  159.4418 C   0  0  0  0  0  0  0  0  0  0  0  0
  151.6320  144.0464  158.0971 C   0  0  0  0  0  0  0  0  0  0  0  0
  151.5613  142.5266  158.3041 C   0  0  0  0  0  0  0  0  0  0  0  0
  152.7076  142.0187  159.2027 C   0  0  2  0  0  0  0  0  0  0  0  0
  152.5550  140.5823  159.4233 N   0  0  0  0  0  0  0  0  0  0  0  0
  153.5325  139.6693  159.3214 C   0  0  0  0  0  0  0  0  0  0  0  0
  154.6863  139.9455  158.9905 O   0  0  0  0  0  0  0  0  0  0  0  0
  153.1340  138.2175  159.6210 C   0  0  0  0  0  0  0  0  0  0  0  0
  154.0389  137.5629  160.5767 N   0  0  0  0  0  0  0  0  0  0  0  0
  154.3978  138.3571  161.6517 N   0  0  0  0  0  0  0  0  0  0  0  0
  155.1742  137.8787  162.5620 C   0  0  0  0  0  0  0  0  0  0  0  0
  155.6955  136.5312  162.5001 C   0  0  0  0  0  0  0  0  0  0  0  0
  156.7332  135.9444  163.7516 Cl  0  0  0  0  0  0  0  0  0  0  0  0
  155.3429  135.7632  161.4385 C   0  0  0  0  0  0  0  0  0  0  0  0
  155.9265  134.1406  161.2945 Cl  0  0  0  0  0  0  0  0  0  0  0  0
  154.4600  136.2752  160.3811 C   0  0  0  0  0  0  0  0  0  0  0  0
  154.1205  135.6122  159.3998 O   0  0  0  0  0  0  0  0  0  0  0  0
  154.8666  142.4831  160.9739 H   0  0  0  0  0  0  0  0  0  0  0  0
  153.8356  141.2530  161.6984 H   0  0  0  0  0  0  0  0  0  0  0  0
  153.9054  142.8598  162.4002 H   0  0  0  0  0  0  0  0  0  0  0  0
  151.8125  142.5528  161.0873 H   0  0  0  0  0  0  0  0  0  0  0  0
  152.7650  144.8161  161.2870 H   0  0  0  0  0  0  0  0  0  0  0  0
  153.7491  144.5630  159.8670 H   0  0  0  0  0  0  0  0  0  0  0  0
  150.6951  144.6308  159.9555 H   0  0  0  0  0  0  0  0  0  0  0  0
  151.7348  145.8594  159.2745 H   0  0  0  0  0  0  0  0  0  0  0  0
  150.7847  144.3795  157.4973 H   0  0  0  0  0  0  0  0  0  0  0  0
  152.5303  144.2976  157.5319 H   0  0  0  0  0  0  0  0  0  0  0  0
  150.5997  142.2687  158.7505 H   0  0  0  0  0  0  0  0  0  0  0  0
  151.5946  142.0262  157.3355 H   0  0  0  0  0  0  0  0  0  0  0  0
  153.6547  142.2081  158.6933 H   0  0  0  0  0  0  0  0  0  0  0  0
  151.6364  140.2616  159.6934 H   0  0  0  0  0  0  0  0  0  0  0  0
  152.1087  138.1806  159.9949 H   0  0  0  0  0  0  0  0  0  0  0  0
  153.1194  137.6711  158.6763 H   0  0  0  0  0  0  0  0  0  0  0  0
  155.4799  138.4651  163.4287 H   0  0  0  0  0  0  0  0  0  0  0  0
  1  2  1  0  0  0  0
  1 21  1  0  0  0  0
  1 22  1  0  0  0  0
  1 23  1  0  0  0  0
  2  7  1  0  0  0  0
  2  3  1  0  0  0  0
  2 24  1  0  0  0  0
  3  4  1  0  0  0  0
  3 25  1  0  0  0  0
  3 26  1  0  0  0  0
  4  5  1  0  0  0  0
  4 27  1  0  0  0  0
  4 28  1  0  0  0  0
  5  6  1  0  0  0  0
  5 29  1  0  0  0  0
  5 30  1  0  0  0  0
  6  7  1  0  0  0  0
  6 31  1  0  0  0  0
  6 32  1  0  0  0  0
  7  8  1  0  0  0  0
  7 33  1  0  0  0  0
  8  9  1  0  0  0  0
  8 34  1  0  0  0  0
  9 10  2  0  0  0  0
  9 11  1  0  0  0  0
 11 12  1  0  0  0  0
 11 35  1  0  0  0  0
 11 36  1  0  0  0  0
 12 19  1  0  0  0  0
 12 13  1  0  0  0  0
 13 14  2  0  0  0  0
 14 15  1  0  0  0  0
 14 37  1  0  0  0  0
 15 16  1  0  0  0  0
 15 17  2  0  0  0  0
 17 18  1  0  0  0  0
 17 19  1  0  0  0  0
 19 20  2  0  0  0  0
M  END
> <s_m_source_file>
AV-unprocessed.smi

> <i_m_source_file_index>
2988

> <i_lp_mmshare_version>
43012

> <i_f3d_flags>
0

> <s_epik_input>
W0NIM11bQ0BASF0xW0NIMl1bQ0gyXVtDSDJdW0NIMl1bQ0BIXTFbTkhdQyg9TylbQ0gyXW4ybltjSF1jKENsKWMoQ2wpYzI9Tw==

> <s_epik_cmdline>
J2VwaWtfcHl0aG9uJywgJy1waCcsICc3LjAnLCAnLXRuJywgJzgnLCAnLW1hJywgJzIwMCcsICctbWV0YWxfYmluZGluZycsICctaW1hZScsICc8aW5maWxlLm1hZT4nLCAnLW9tYWUnLCAnPG91dGZpbGUubWFlPic=

> <r_lp_tautomer_probability>
1

> <r_epik_Ionization_Penalty>
1.90782e-08

> <r_epik_Ionization_Penalty_Charging>
3.13143e-11

> <r_epik_Ionization_Penalty_Neutral>
1.90469e-08

> <r_epik_State_Penalty>
-0

> <r_epik_Charging_Adjusted_Penalty>
3.13143e-11

> <i_epik_Tot_Q>
0

> <i_epik_Tot_abs_Q>
0

> <r_epik_Metal_State_Penalty>
-0

> <b_epik_Metal_Only>
0

> <s_lp_Force_Field>
OPLS_2005

> <r_lp_Energy>
24.109

> <b_lp_Chiralities_Consistent>
1

> <s_lp_Variant>
AV-unprocessed.smi:2988-4

> <Gold.Version>
5.8.1

> <Gold.Id.Protein>
6NUR|6NUR_protein|mol2

> <Gold.PLP.Fitness>
44.0740

> <Gold.PLP.PLP>
-39.1073

> <Gold.PLP.part.hbond>
-2.0000

> <Gold.PLP.part.metal>
0.0000

> <Gold.PLP.part.buried>
-4.4409

> <Gold.PLP.part.nonpolar>
-32.7582

> <Gold.PLP.part.repulsive>
0.1272

> <Gold.PLP.ligand.clash>
0.0000

> <Gold.PLP.ligand.torsion>
0.5075

> <Gold.PLP.Chemscore.Hbond>
1.9920

> <Gold.PLP.Chemscore.CHOScore>
0.0000

> <Gold.PLP.Chemscore.Metal>
0.0000

> <Gold.Chemscore.Hbonds>
donor molecule, donor type, donor heavy atom, donor atom, acceptor molecule, acceptor atom, score
      P1  H  6896  6907       L1    20  0.92
      P1  H  7997  8009       L1    10  1.00

> <Gold.PLP.Chemscore.Internal.Correction>
0.0057

> <Gold.Rescore>
     Score         DG    S(hbond)    S(metal)    S(lipo)     H(rot)  DE(clash)    DE(int)     intcor
     20.23     -20.91       1.94        0.00     109.20       1.50       0.10       0.58       ----

> <Gold.Chemscore.Fitness>
20.2277

> <Gold.Chemscore.DG>
-20.9100

> <Gold.Chemscore.ZeroCoef>
-5.4800

> <Gold.Chemscore.Hbond>
1.9423

> <Gold.Chemscore.Metal>
0.0000

> <Gold.Chemscore.Lipo>
109.2039

> <Gold.Chemscore.Internal_Hbond>
0.0000

> <Gold.Chemscore.DEClash>
0.0994

> <Gold.Chemscore.DEInternal>
0.5830

> <Gold.Chemscore.Rot>
1.4977

> <Gold.Chemscore.Internal.Correction>
   9.000000E+99

> <Gold.Chemscore.Hbonds>
donor molecule, donor type, donor heavy atom, donor atom, acceptor molecule, acceptor atom, score
      P1  H  6896  6907       L1    20  0.65
      P1  H  7997  8009       L1    10  0.96

> <Gold.Chemscore.Hbond.Weighted>
-6.4872

> <Gold.Chemscore.Metal.Weighted>
-0.0000

> <Gold.Chemscore.Lipo.Weighted>
-12.7769

> <Gold.Chemscore.Internal_Hbond.Weighted>
0.0000

> <Gold.Chemscore.DEClash.Weighted>
0.0994

> <Gold.Chemscore.DEInternal.Weighted>
0.5830

> <Gold.Chemscore.Rot.Weighted>
3.8341

> <Gold.Chemscore.Internal.Correction.Weighted>
   9.000000E+99

> <Gold.Protein.RotatedTorsions>
[ 6907 6896 6895 6894 ] final   84.03 input  -60.11 | X-H torsion
[ 7974 7965 7964 7962 ] final  -89.10 input  175.53 | X-H torsion
[ 8008 7997 7996 7995 ] final  113.57 input   59.86 | X-H torsion
[ 10167 10162 10161 10158 ] final  -25.83 input  -65.29 | X-H torsion
[ 10718 10713 10712 10709 ] final   63.54 input   66.30 | X-H torsion
[ 10763 10752 10751 10750 ] final -125.95 input  -60.55 | X-H torsion
[ 11005 11000 10999 10996 ] final -141.22 input  -57.11 | X-H torsion

> <Gold.Protein.ActiveResidues>
 VAL166  LYS551  ARG553  GLY616  TRP617  ASP618  TYR619  PRO620  LYS621  CYS622 
 ASP623  PHE694  ASN695  SER759  ASP760  ASP761  ALA762  ILE779  LEU786  VAL792 
 PHE793  MET794  SER795  GLU796  ALA797  LYS798  CYS799  TRP800  GLU811  SER814 

> <Gold.Protein.RotatedAtoms>
  152.5342  134.2803  159.9004 H   0  0  0  0  0  0  0  0  0  0  0  0  # atno 6907 bound_to 6896
  151.2758  133.4227  159.2631 H   0  0  0  0  0  0  0  0  0  0  0  0  # atno 6908 bound_to 6896
  151.0327  134.9566  159.8176 H   0  0  0  0  0  0  0  0  0  0  0  0  # atno 6909 bound_to 6896
  145.4444  140.9559  143.2057 H   0  0  0  0  0  0  0  0  0  0  0  0  # atno 7974 bound_to 7965
  156.2267  140.2977  156.0084 H   0  0  0  0  0  0  0  0  0  0  0  0  # atno 8008 bound_to 7997
  155.2338  140.0420  157.2983 H   0  0  0  0  0  0  0  0  0  0  0  0  # atno 8009 bound_to 7997
  154.5927  140.2405  155.7907 H   0  0  0  0  0  0  0  0  0  0  0  0  # atno 8010 bound_to 7997
  140.7285  143.4230  151.0921 H   0  0  0  0  0  0  0  0  0  0  0  0  # atno 10167 bound_to 10162
  157.5978  130.9111  149.9729 H   0  0  0  0  0  0  0  0  0  0  0  0  # atno 10718 bound_to 10713
  154.8741  135.4012  154.3351 H   0  0  0  0  0  0  0  0  0  0  0  0  # atno 10763 bound_to 10752
  153.4159  135.7022  153.6332 H   0  0  0  0  0  0  0  0  0  0  0  0  # atno 10764 bound_to 10752
  153.5015  135.3726  155.2513 H   0  0  0  0  0  0  0  0  0  0  0  0  # atno 10765 bound_to 10752
  140.8346  134.2475  157.4840 H   0  0  0  0  0  0  0  0  0  0  0  0  # atno 11005 bound_to 11000
  144.8101  139.5978  143.7033 LP  0  0  0  0  0  0  0  0  0  0  0  0  # atno 17320 bound_to 7965
  146.2539  139.6259  142.9408 LP  0  0  0  0  0  0  0  0  0  0  0  0  # atno 17321 bound_to 7965
  139.7878  143.8262  152.3147 LP  0  0  0  0  0  0  0  0  0  0  0  0  # atno 17342 bound_to 10162
  139.8235  144.7285  150.9542 LP  0  0  0  0  0  0  0  0  0  0  0  0  # atno 17343 bound_to 10162
  156.1044  130.3653  150.0160 LP  0  0  0  0  0  0  0  0  0  0  0  0  # atno 17370 bound_to 10713
  156.8269  130.9378  151.3639 LP  0  0  0  0  0  0  0  0  0  0  0  0  # atno 17371 bound_to 10713
  139.8704  134.9604  156.4363 LP  0  0  0  0  0  0  0  0  0  0  0  0  # atno 17394 bound_to 11000
  140.8961  133.7813  155.9627 LP  0  0  0  0  0  0  0  0  0  0  0  0  # atno 17395 bound_to 11000

$$$$
