AV-unprocessed.smi:224|AV-procd|sdf|1717|dock1
  -GOLD-   2262020193D 1   1.00000     0.00000
 Structure written by MMmdl.
 56 59  0  0  0  0  0  0  0  0  2 V2000
  144.2647  132.4352  150.4731 C   0  0  0  0  0  0  0  0  0  0  0  0
  145.7404  132.2367  150.8429 C   0  0  2  0  0  0  0  0  0  0  0  0
  146.4595  132.0156  149.6459 O   0  0  0  0  0  0  0  0  0  0  0  0
  145.9391  131.0336  151.7865 C   0  0  0  0  0  0  0  0  0  0  0  0
  147.3039  131.0039  152.3853 N   0  3  1  0  0  0  0  0  0  0  0  0
  147.5446  132.2123  153.2242 C   0  0  0  0  0  0  0  0  0  0  0  0
  148.9666  132.2408  153.7990 C   0  0  0  0  0  0  0  0  0  0  0  0
  149.2260  131.0215  154.5512 N   0  0  0  0  0  0  0  0  0  0  0  0
  148.8593  131.0295  155.8608 C   0  0  0  0  0  0  0  0  0  0  0  0
  148.4280  129.8821  156.4497 N   0  0  0  0  0  0  0  0  0  0  0  0
  148.0480  129.8789  157.7305 C   0  0  0  0  0  0  0  0  0  0  0  0
  148.0241  130.8940  158.5948 N   0  0  0  0  0  0  0  0  0  0  0  0
  148.4728  132.0456  158.0190 C   0  0  0  0  0  0  0  0  0  0  0  0
  148.9017  132.2012  156.6701 C   0  0  0  0  0  0  0  0  0  0  0  0
  149.2882  133.5179  156.4487 N   0  0  0  0  0  0  0  0  0  0  0  0
  149.0883  134.1080  157.5952 C   0  0  0  0  0  0  0  0  0  0  0  0
  148.6114  133.2953  158.5986 N   0  0  0  0  0  0  0  0  0  0  0  0
  148.3013  133.6868  159.9659 C   0  0  0  0  0  0  0  0  0  0  0  0
  147.4522  134.9789  160.0831 C   0  0  1  0  0  0  0  0  0  0  0  0
  146.5004  135.0119  159.0357 O   0  0  0  0  0  0  0  0  0  0  0  0
  146.7268  135.1350  161.4219 C   0  0  0  0  0  0  0  0  0  0  0  0
  147.6280  136.0886  162.1927 C   0  0  0  0  0  0  0  0  0  0  0  0
  148.0376  136.9961  161.1859 O   0  0  0  0  0  0  0  0  0  0  0  0
  148.3344  136.2428  160.0166 C   0  0  0  0  0  0  0  0  0  0  0  0
  149.0392  129.8077  153.7620 C   0  0  0  0  0  0  0  0  0  0  0  0
  147.6410  129.7295  153.0980 C   0  0  2  0  0  0  0  0  0  0  0  0
  147.6302  128.5028  152.1624 C   0  0  0  0  0  0  0  0  0  0  0  0
  143.6620  132.6347  151.3597 H   0  0  0  0  0  0  0  0  0  0  0  0
  143.8537  131.5514  149.9834 H   0  0  0  0  0  0  0  0  0  0  0  0
  144.1392  133.2798  149.7947 H   0  0  0  0  0  0  0  0  0  0  0  0
  146.1061  133.1563  151.2986 H   0  0  0  0  0  0  0  0  0  0  0  0
  147.3852  132.0507  149.8306 H   0  0  0  0  0  0  0  0  0  0  0  0
  145.1990  131.0552  152.5881 H   0  0  0  0  0  0  0  0  0  0  0  0
  145.7159  130.1304  151.2240 H   0  0  0  0  0  0  0  0  0  0  0  0
  147.3825  133.1179  152.6409 H   0  0  0  0  0  0  0  0  0  0  0  0
  146.8226  132.2348  154.0424 H   0  0  0  0  0  0  0  0  0  0  0  0
  149.6949  132.3125  152.9902 H   0  0  0  0  0  0  0  0  0  0  0  0
  149.0978  133.1339  154.4082 H   0  0  0  0  0  0  0  0  0  0  0  0
  147.7162  128.9272  158.1189 H   0  0  0  0  0  0  0  0  0  0  0  0
  149.2902  135.1592  157.7424 H   0  0  0  0  0  0  0  0  0  0  0  0
  147.7846  132.8548  160.4462 H   0  0  0  0  0  0  0  0  0  0  0  0
  149.2429  133.8094  160.5030 H   0  0  0  0  0  0  0  0  0  0  0  0
  145.7706  134.4622  159.2769 H   0  0  0  0  0  0  0  0  0  0  0  0
  145.7555  135.6126  161.2815 H   0  0  0  0  0  0  0  0  0  0  0  0
  146.5528  134.2023  161.9554 H   0  0  0  0  0  0  0  0  0  0  0  0
  147.1100  136.5957  163.0070 H   0  0  0  0  0  0  0  0  0  0  0  0
  148.4960  135.5685  162.6011 H   0  0  0  0  0  0  0  0  0  0  0  0
  149.3947  135.9864  160.0338 H   0  0  0  0  0  0  0  0  0  0  0  0
  148.1607  136.8449  159.1239 H   0  0  0  0  0  0  0  0  0  0  0  0
  149.8087  129.8030  152.9888 H   0  0  0  0  0  0  0  0  0  0  0  0
  149.2283  128.9225  154.3714 H   0  0  0  0  0  0  0  0  0  0  0  0
  146.8919  129.5775  153.8761 H   0  0  0  0  0  0  0  0  0  0  0  0
  148.0235  127.6243  152.6752 H   0  0  0  0  0  0  0  0  0  0  0  0
  148.2503  128.6711  151.2813 H   0  0  0  0  0  0  0  0  0  0  0  0
  146.6320  128.2298  151.8248 H   0  0  0  0  0  0  0  0  0  0  0  0
  147.9531  131.0562  151.6137 H   0  0  0  0  0  0  0  0  0  0  0  0
  1  2  1  0  0  0  0
  1 28  1  0  0  0  0
  1 29  1  0  0  0  0
  1 30  1  0  0  0  0
  2  3  1  0  0  0  0
  2  4  1  0  0  0  0
  2 31  1  0  0  0  0
  3 32  1  0  0  0  0
  4  5  1  0  0  0  0
  4 33  1  0  0  0  0
  4 34  1  0  0  0  0
  5 26  1  0  0  0  0
  5  6  1  0  0  0  0
  5 56  1  0  0  0  0
  6  7  1  0  0  0  0
  6 35  1  0  0  0  0
  6 36  1  0  0  0  0
  7  8  1  0  0  0  0
  7 37  1  0  0  0  0
  7 38  1  0  0  0  0
  8  9  1  0  0  0  0
  8 25  1  0  0  0  0
  9 14  1  0  0  0  0
  9 10  2  0  0  0  0
 10 11  1  0  0  0  0
 11 12  2  0  0  0  0
 11 39  1  0  0  0  0
 12 13  1  0  0  0  0
 13 17  1  0  0  0  0
 13 14  2  0  0  0  0
 14 15  1  0  0  0  0
 15 16  2  0  0  0  0
 16 17  1  0  0  0  0
 16 40  1  0  0  0  0
 17 18  1  0  0  0  0
 18 19  1  0  0  0  0
 18 41  1  0  0  0  0
 18 42  1  0  0  0  0
 19 24  1  0  0  0  0
 19 20  1  0  0  0  0
 19 21  1  0  0  0  0
 20 43  1  0  0  0  0
 21 22  1  0  0  0  0
 21 44  1  0  0  0  0
 21 45  1  0  0  0  0
 22 23  1  0  0  0  0
 22 46  1  0  0  0  0
 22 47  1  0  0  0  0
 23 24  1  0  0  0  0
 24 48  1  0  0  0  0
 24 49  1  0  0  0  0
 25 26  1  0  0  0  0
 25 50  1  0  0  0  0
 25 51  1  0  0  0  0
 26 27  1  0  0  0  0
 26 52  1  0  0  0  0
 27 53  1  0  0  0  0
 27 54  1  0  0  0  0
 27 55  1  0  0  0  0
M  CHG  1   5   1
M  END
> <s_m_source_file>
AV-unprocessed.smi

> <i_m_source_file_index>
224

> <i_lp_mmshare_version>
43012

> <i_f3d_flags>
0

> <s_epik_input>
W0NIM11bQ0BIXShbT0hdKVtDSDJdTjFbQ0gyXVtDSDJdTihbQ0gyXVtDQEhdMVtDSDNdKWMobltjSF1uMiljKGMyMyluW2NIXW4zW0NIMl1bQ0BAXTQoW09IXSlbQ0gyXVtDSDJdT1tDSDJdNA==

> <s_epik_cmdline>
J2VwaWtfcHl0aG9uJywgJy1waCcsICc3LjAnLCAnLXRuJywgJzgnLCAnLW1hJywgJzIwMCcsICctbWV0YWxfYmluZGluZycsICctaW1hZScsICc8aW5maWxlLm1hZT4nLCAnLW9tYWUnLCAnPG91dGZpbGUubWFlPic=

> <r_lp_tautomer_probability>
1

> <r_epik_Ionization_Penalty>
0.00516958

> <r_epik_Ionization_Penalty_Charging>
0.00509693

> <r_epik_Ionization_Penalty_Neutral>
7.26542e-05

> <r_epik_State_Penalty>
-0

> <r_epik_Charging_Adjusted_Penalty>
0.00509693

> <i_epik_Tot_Q>
1

> <i_epik_Tot_abs_Q>
1

> <r_epik_Metal_State_Penalty>
-0

> <b_epik_Metal_Only>
0

> <s_lp_Force_Field>
OPLS_2005

> <r_lp_Energy>
50.0315

> <b_lp_Chiralities_Consistent>
1

> <s_lp_Variant>
AV-unprocessed.smi:224-11

> <Gold.Version>
5.8.1

> <Gold.Id.Protein>
6NUR|6NUR_protein|mol2

> <Gold.PLP.Fitness>
45.8750

> <Gold.PLP.PLP>
-35.9475

> <Gold.PLP.part.hbond>
-4.0000

> <Gold.PLP.part.metal>
0.0000

> <Gold.PLP.part.buried>
-6.6083

> <Gold.PLP.part.nonpolar>
-26.6088

> <Gold.PLP.part.repulsive>
0.0433

> <Gold.PLP.ligand.clash>
0.0000

> <Gold.PLP.ligand.torsion>
0.9791

> <Gold.PLP.Chemscore.Hbond>
3.7600

> <Gold.PLP.Chemscore.CHOScore>
0.0000

> <Gold.PLP.Chemscore.Metal>
0.0000

> <Gold.Chemscore.Hbonds>
donor molecule, donor type, donor heavy atom, donor atom, acceptor molecule, acceptor atom, score
      L1  H     3    32       P1 10747  0.85
      L1  H     5    56       P1 10747  1.00
      P1  H  6931  6943       L1    23  1.00
      P1  H  6934  6947       L1    23  0.41

> <Gold.PLP.Chemscore.Internal.Correction>
0.6056

> <Gold.Rescore>
     Score         DG    S(hbond)    S(metal)    S(lipo)     H(rot)  DE(clash)    DE(int)     intcor
     16.61     -18.48       3.28        0.00      91.03       3.36       0.07       1.80       ----

> <Gold.Chemscore.Fitness>
16.6115

> <Gold.Chemscore.DG>
-18.4806

> <Gold.Chemscore.ZeroCoef>
-5.4800

> <Gold.Chemscore.Hbond>
3.2799

> <Gold.Chemscore.Metal>
0.0000

> <Gold.Chemscore.Lipo>
91.0287

> <Gold.Chemscore.Internal_Hbond>
0.0000

> <Gold.Chemscore.DEClash>
0.0689

> <Gold.Chemscore.DEInternal>
1.8002

> <Gold.Chemscore.Rot>
3.3611

> <Gold.Chemscore.Internal.Correction>
   9.000000E+99

> <Gold.Chemscore.Hbonds>
donor molecule, donor type, donor heavy atom, donor atom, acceptor molecule, acceptor atom, score
      L1  H     3    32       P1 10747  0.79
      L1  H     5    56       P1 10747  1.00
      P1  H  6931  6943       L1    23  0.69
      P1  H  6934  6947       L1    23  0.40

> <Gold.Chemscore.Hbond.Weighted>
-10.9547

> <Gold.Chemscore.Metal.Weighted>
-0.0000

> <Gold.Chemscore.Lipo.Weighted>
-10.6504

> <Gold.Chemscore.Internal_Hbond.Weighted>
0.0000

> <Gold.Chemscore.DEClash.Weighted>
0.0689

> <Gold.Chemscore.DEInternal.Weighted>
1.8002

> <Gold.Chemscore.Rot.Weighted>
8.6045

> <Gold.Chemscore.Internal.Correction.Weighted>
   9.000000E+99

> <Gold.Protein.RotatedTorsions>
[ 6907 6896 6895 6894 ] final  -51.94 input  -60.11 | X-H torsion
[ 7974 7965 7964 7962 ] final   40.18 input  175.53 | X-H torsion
[ 8008 7997 7996 7995 ] final -100.80 input   59.86 | X-H torsion
[ 10167 10162 10161 10158 ] final   75.19 input  -65.29 | X-H torsion
[ 10718 10713 10712 10709 ] final   76.27 input   66.30 | X-H torsion
[ 10763 10752 10751 10750 ] final   95.46 input  -60.55 | X-H torsion
[ 11005 11000 10999 10996 ] final -177.12 input  -57.11 | X-H torsion

> <Gold.Protein.ActiveResidues>
 VAL166  LYS551  ARG553  GLY616  TRP617  ASP618  TYR619  PRO620  LYS621  CYS622 
 ASP623  PHE694  ASN695  SER759  ASP760  ASP761  ALA762  ILE779  LEU786  VAL792 
 PHE793  MET794  SER795  GLU796  ALA797  LYS798  CYS799  TRP800  GLU811  SER814 

> <Gold.Protein.RotatedAtoms>
  150.8564  134.7904  159.7048 H   0  0  0  0  0  0  0  0  0  0  0  0  # atno 6907 bound_to 6896
  152.4614  134.5172  159.9781 H   0  0  0  0  0  0  0  0  0  0  0  0  # atno 6908 bound_to 6896
  151.5283  133.3415  159.2949 H   0  0  0  0  0  0  0  0  0  0  0  0  # atno 6909 bound_to 6896
  146.0925  139.5563  142.9466 H   0  0  0  0  0  0  0  0  0  0  0  0  # atno 7974 bound_to 7965
  154.8336  140.0438  157.1494 H   0  0  0  0  0  0  0  0  0  0  0  0  # atno 8008 bound_to 7997
  154.9125  140.3015  155.5238 H   0  0  0  0  0  0  0  0  0  0  0  0  # atno 8009 bound_to 7997
  156.2988  140.2355  156.4166 H   0  0  0  0  0  0  0  0  0  0  0  0  # atno 8010 bound_to 7997
  140.0056  144.5653  150.7701 H   0  0  0  0  0  0  0  0  0  0  0  0  # atno 10167 bound_to 10162
  157.6667  130.9766  150.1473 H   0  0  0  0  0  0  0  0  0  0  0  0  # atno 10718 bound_to 10713
  153.2535  135.4253  155.0822 H   0  0  0  0  0  0  0  0  0  0  0  0  # atno 10763 bound_to 10752
  154.8391  135.3431  154.6479 H   0  0  0  0  0  0  0  0  0  0  0  0  # atno 10764 bound_to 10752
  153.6900  135.7034  153.5149 H   0  0  0  0  0  0  0  0  0  0  0  0  # atno 10765 bound_to 10752
  140.4444  134.6401  157.4773 H   0  0  0  0  0  0  0  0  0  0  0  0  # atno 11005 bound_to 11000
  145.6011  141.0355  143.2017 LP  0  0  0  0  0  0  0  0  0  0  0  0  # atno 17320 bound_to 7965
  144.7371  139.7555  143.7325 LP  0  0  0  0  0  0  0  0  0  0  0  0  # atno 17321 bound_to 7965
  140.7401  143.2801  151.3625 LP  0  0  0  0  0  0  0  0  0  0  0  0  # atno 17342 bound_to 10162
  139.6241  144.0849  152.2418 LP  0  0  0  0  0  0  0  0  0  0  0  0  # atno 17343 bound_to 10162
  156.2281  130.3679  149.8477 LP  0  0  0  0  0  0  0  0  0  0  0  0  # atno 17370 bound_to 10713
  156.6311  130.8666  151.3495 LP  0  0  0  0  0  0  0  0  0  0  0  0  # atno 17371 bound_to 10713
  140.0048  134.6781  155.9472 LP  0  0  0  0  0  0  0  0  0  0  0  0  # atno 17394 bound_to 11000
  141.1691  133.6537  156.4587 LP  0  0  0  0  0  0  0  0  0  0  0  0  # atno 17395 bound_to 11000

$$$$
