AV-unprocessed.smi:39|AV-procd|sdf|358|dock1
  -GOLD-   2262016193D 1   1.00000     0.00000
 Structure written by MMmdl.
 32 33  0  0  0  0  0  0  0  0  3 V2000
  152.5329  142.5320  159.8955 C   0  0  0  0  0  0  0  0  0  0  0  0
  151.9062  142.1802  158.5564 C   0  0  0  0  0  0  0  0  0  0  0  0
  152.0802  140.9698  157.9668 C   0  0  0  0  0  0  0  0  0  0  0  0
  151.5171  140.6186  156.7471 N   0  0  0  0  0  0  0  0  0  0  0  0
  151.7311  139.2473  156.1475 C   0  0  2  0  0  0  0  0  0  0  0  0
  150.9955  138.1820  156.9692 C   0  0  0  0  0  0  0  0  0  0  0  0
  152.1388  137.5273  157.7283 C   0  0  1  0  0  0  0  0  0  0  0  0
  151.8537  136.1590  158.1916 N   0  0  0  0  0  0  0  0  0  0  0  0
  152.4802  135.2203  157.6787 N   0  3  0  0  0  0  0  0  0  0  0  0
  152.9764  134.3678  157.1111 N   0  5  0  0  0  0  0  0  0  0  0  0
  153.2950  137.6481  156.7253 C   0  0  2  0  0  0  0  0  0  0  0  0
  154.6844  137.5606  157.3749 C   0  0  0  0  0  0  0  0  0  0  0  0
  154.8575  138.6213  158.2895 O   0  0  0  0  0  0  0  0  0  0  0  0
  153.0964  138.9482  156.1783 O   0  0  0  0  0  0  0  0  0  0  0  0
  150.6933  141.5449  156.0744 C   0  0  0  0  0  0  0  0  0  0  0  0
  150.1322  141.2930  155.0089 O   0  0  0  0  0  0  0  0  0  0  0  0
  150.5200  142.7901  156.6758 N   0  0  0  0  0  0  0  0  0  0  0  0
  151.0794  143.1913  157.8915 C   0  0  0  0  0  0  0  0  0  0  0  0
  150.8535  144.3219  158.3202 O   0  0  0  0  0  0  0  0  0  0  0  0
  151.4070  139.2936  155.1064 H   0  0  0  0  0  0  0  0  0  0  0  0
  152.3664  138.1521  158.5930 H   0  0  0  0  0  0  0  0  0  0  0  0
  153.1862  136.9131  155.9254 H   0  0  0  0  0  0  0  0  0  0  0  0
  149.9359  143.4579  156.1941 H   0  0  0  0  0  0  0  0  0  0  0  0
  153.1288  141.7095  160.2921 H   0  0  0  0  0  0  0  0  0  0  0  0
  151.7595  142.7673  160.6276 H   0  0  0  0  0  0  0  0  0  0  0  0
  153.1857  143.3999  159.7954 H   0  0  0  0  0  0  0  0  0  0  0  0
  152.6879  140.2415  158.4833 H   0  0  0  0  0  0  0  0  0  0  0  0
  150.2319  138.6143  157.6173 H   0  0  0  0  0  0  0  0  0  0  0  0
  150.5143  137.4911  156.2758 H   0  0  0  0  0  0  0  0  0  0  0  0
  154.8319  136.6007  157.8708 H   0  0  0  0  0  0  0  0  0  0  0  0
  155.4610  137.6560  156.6156 H   0  0  0  0  0  0  0  0  0  0  0  0
  154.7756  138.2789  159.1666 H   0  0  0  0  0  0  0  0  0  0  0  0
  1  2  1  0  0  0  0
  1 24  1  0  0  0  0
  1 25  1  0  0  0  0
  1 26  1  0  0  0  0
  2 18  1  0  0  0  0
  2  3  2  0  0  0  0
  3  4  1  0  0  0  0
  3 27  1  0  0  0  0
  4  5  1  0  0  0  0
  4 15  1  0  0  0  0
  5 20  1  0  0  0  0
  5 14  1  0  0  0  0
  5  6  1  0  0  0  0
  6  7  1  0  0  0  0
  6 28  1  0  0  0  0
  6 29  1  0  0  0  0
  7 21  1  0  0  0  0
  7  8  1  0  0  0  0
  7 11  1  0  0  0  0
  8  9  2  0  0  0  0
  9 10  2  0  0  0  0
 11 22  1  0  0  0  0
 11 12  1  0  0  0  0
 11 14  1  0  0  0  0
 12 13  1  0  0  0  0
 12 30  1  0  0  0  0
 12 31  1  0  0  0  0
 13 32  1  0  0  0  0
 15 16  2  0  0  0  0
 15 17  1  0  0  0  0
 17 23  1  0  0  0  0
 17 18  1  0  0  0  0
 18 19  2  0  0  0  0
M  CHG  1   9   1
M  CHG  1  10  -1
M  END
> <s_m_source_file>
AV-unprocessed.smi

> <i_m_source_file_index>
39

> <i_lp_mmshare_version>
43012

> <i_f3d_flags>
0

> <s_epik_input>
Tz1jMVtuSF1jKD1PKW4oW2NIXWMxW0NIM10pW0NASF0yW0NIMl1bQ0BIXShOPVtOK109W04tXSlbQ0BIXShPMilbQ0gyXVtPSF0=

> <s_epik_cmdline>
J2VwaWtfcHl0aG9uJywgJy1waCcsICc3LjAnLCAnLXRuJywgJzgnLCAnLW1hJywgJzIwMCcsICctbWV0YWxfYmluZGluZycsICctaW1hZScsICc8aW5maWxlLm1hZT4nLCAnLW9tYWUnLCAnPG91dGZpbGUubWFlPic=

> <r_lp_tautomer_probability>
0.999537

> <r_epik_Ionization_Penalty>
0.00127512

> <r_epik_Ionization_Penalty_Charging>
0.00127507

> <r_epik_Ionization_Penalty_Neutral>
5.43433e-08

> <r_epik_State_Penalty>
0.000844892

> <r_epik_Charging_Adjusted_Penalty>
0.00211996

> <i_epik_Tot_Q>
0

> <i_epik_Tot_abs_Q>
2

> <r_epik_Metal_State_Penalty>
0.680636

> <b_epik_Metal_Only>
0

> <s_epik_Chemistry_Notes>
This compound contains an acetal/aminal-like group ( X-CH(R)-Y where X, Y are N, S, or O) that may be acid/base labile, releasing an aldehyde.

> <s_lp_Force_Field>
OPLS_2005

> <r_lp_Energy>
25.9236

> <b_lp_Chiralities_Consistent>
1

> <s_lp_Variant>
AV-unprocessed.smi:39-8

> <Gold.Version>
5.8.1

> <Gold.Id.Protein>
6NUR|6NUR_protein|mol2

> <Gold.PLP.Fitness>
39.0509

> <Gold.PLP.PLP>
-27.5635

> <Gold.PLP.part.hbond>
-7.7375

> <Gold.PLP.part.metal>
0.0000

> <Gold.PLP.part.buried>
-2.6076

> <Gold.PLP.part.nonpolar>
-16.7546

> <Gold.PLP.part.repulsive>
0.3493

> <Gold.PLP.ligand.clash>
0.0000

> <Gold.PLP.ligand.torsion>
0.2883

> <Gold.PLP.Chemscore.Hbond>
4.0145

> <Gold.PLP.Chemscore.CHOScore>
0.0000

> <Gold.PLP.Chemscore.Metal>
0.0000

> <Gold.Chemscore.Hbonds>
donor molecule, donor type, donor heavy atom, donor atom, acceptor molecule, acceptor atom, score
      L1  H    17    23       P1  8028  1.00
      P1  H  6896  6908       L1     8  0.20
      P1  H  7989  7998       L1    16  0.39
      P1  H  7997  8009       L1    13  0.74
      P1  H  7997  8010       L1    14  0.98
      P1  H 10752 10763       L1    10  0.73

> <Gold.PLP.Chemscore.Internal.Correction>
0.0205

> <Gold.Rescore>
     Score         DG    S(hbond)    S(metal)    S(lipo)     H(rot)  DE(clash)    DE(int)     intcor
     12.21     -14.23       3.25        0.00      42.16       2.75       1.81       0.22       ----

> <Gold.Chemscore.Fitness>
12.2067

> <Gold.Chemscore.DG>
-14.2333

> <Gold.Chemscore.ZeroCoef>
-5.4800

> <Gold.Chemscore.Hbond>
3.2535

> <Gold.Chemscore.Metal>
0.0000

> <Gold.Chemscore.Lipo>
42.1610

> <Gold.Chemscore.Internal_Hbond>
0.0000

> <Gold.Chemscore.DEClash>
1.8067

> <Gold.Chemscore.DEInternal>
0.2199

> <Gold.Chemscore.Rot>
2.7524

> <Gold.Chemscore.Internal.Correction>
   9.000000E+99

> <Gold.Chemscore.Hbonds>
donor molecule, donor type, donor heavy atom, donor atom, acceptor molecule, acceptor atom, score
      L1  H    17    23       P1  8028  1.00
      P1  H  6896  6908       L1     8  0.03
      P1  H  7989  7998       L1    16  0.27
      P1  H  7997  8009       L1    13  0.40
      P1  H  7997  8010       L1    14  0.92
      P1  H 10752 10763       L1    10  0.25

> <Gold.Chemscore.Hbond.Weighted>
-10.8666

> <Gold.Chemscore.Metal.Weighted>
-0.0000

> <Gold.Chemscore.Lipo.Weighted>
-4.9328

> <Gold.Chemscore.Internal_Hbond.Weighted>
0.0000

> <Gold.Chemscore.DEClash.Weighted>
1.8067

> <Gold.Chemscore.DEInternal.Weighted>
0.2199

> <Gold.Chemscore.Rot.Weighted>
7.0461

> <Gold.Chemscore.Internal.Correction.Weighted>
   9.000000E+99

> <Gold.Protein.RotatedTorsions>
[ 6907 6896 6895 6894 ] final -148.15 input  -60.11 | X-H torsion
[ 7974 7965 7964 7962 ] final   -5.36 input  175.53 | X-H torsion
[ 8008 7997 7996 7995 ] final   93.99 input   59.86 | X-H torsion
[ 10167 10162 10161 10158 ] final  -85.92 input  -65.29 | X-H torsion
[ 10718 10713 10712 10709 ] final  -16.07 input   66.30 | X-H torsion
[ 10763 10752 10751 10750 ] final  120.60 input  -60.55 | X-H torsion
[ 11005 11000 10999 10996 ] final    1.91 input  -57.11 | X-H torsion

> <Gold.Protein.ActiveResidues>
 VAL166  LYS551  ARG553  GLY616  TRP617  ASP618  TYR619  PRO620  LYS621  CYS622 
 ASP623  PHE694  ASN695  SER759  ASP760  ASP761  ALA762  ILE779  LEU786  VAL792 
 PHE793  MET794  SER795  GLU796  ALA797  LYS798  CYS799  TRP800  GLU811  SER814 

> <Gold.Protein.RotatedAtoms>
  151.1658  133.4816  159.2593 H   0  0  0  0  0  0  0  0  0  0  0  0  # atno 6907 bound_to 6896
  151.1407  135.0178  159.8634 H   0  0  0  0  0  0  0  0  0  0  0  0  # atno 6908 bound_to 6896
  152.5462  134.1551  159.8588 H   0  0  0  0  0  0  0  0  0  0  0  0  # atno 6909 bound_to 6896
  146.2354  140.2010  142.8333 H   0  0  0  0  0  0  0  0  0  0  0  0  # atno 7974 bound_to 7965
  156.0529  140.3306  155.7372 H   0  0  0  0  0  0  0  0  0  0  0  0  # atno 8008 bound_to 7997
  155.5574  140.0616  157.2854 H   0  0  0  0  0  0  0  0  0  0  0  0  # atno 8009 bound_to 7997
  154.4444  140.1883  156.0736 H   0  0  0  0  0  0  0  0  0  0  0  0  # atno 8010 bound_to 7997
  140.3991  143.2671  151.9166 H   0  0  0  0  0  0  0  0  0  0  0  0  # atno 10167 bound_to 10162
  156.5928  130.4803  149.6272 H   0  0  0  0  0  0  0  0  0  0  0  0  # atno 10718 bound_to 10713
  153.6010  135.3448  155.2945 H   0  0  0  0  0  0  0  0  0  0  0  0  # atno 10763 bound_to 10752
  154.8636  135.4227  154.2413 H   0  0  0  0  0  0  0  0  0  0  0  0  # atno 10764 bound_to 10752
  153.3241  135.7040  153.7076 H   0  0  0  0  0  0  0  0  0  0  0  0  # atno 10765 bound_to 10752
  140.6102  133.9755  155.8174 H   0  0  0  0  0  0  0  0  0  0  0  0  # atno 11005 bound_to 11000
  144.9782  140.8434  143.5413 LP  0  0  0  0  0  0  0  0  0  0  0  0  # atno 17320 bound_to 7965
  145.2000  139.2257  143.5198 LP  0  0  0  0  0  0  0  0  0  0  0  0  # atno 17321 bound_to 7965
  139.4785  144.5652  151.8177 LP  0  0  0  0  0  0  0  0  0  0  0  0  # atno 17342 bound_to 10162
  140.4759  144.1520  150.5925 LP  0  0  0  0  0  0  0  0  0  0  0  0  # atno 17343 bound_to 10162
  156.2535  130.6921  151.1666 LP  0  0  0  0  0  0  0  0  0  0  0  0  # atno 17370 bound_to 10713
  157.7299  131.0620  150.5751 LP  0  0  0  0  0  0  0  0  0  0  0  0  # atno 17371 bound_to 10713
  141.0813  134.0058  157.3381 LP  0  0  0  0  0  0  0  0  0  0  0  0  # atno 17394 bound_to 11000
  139.9195  135.0199  156.8011 LP  0  0  0  0  0  0  0  0  0  0  0  0  # atno 17395 bound_to 11000

$$$$
