#       Name:                AV-unprocessed.smi:3185
#       Creating user name   scv26
#       Creation time:       Fri Mar 27 18:00:15 2020


#       File generated by GOLD software.
#

@<TRIPOS>MOLECULE
AV-unprocessed.smi:3185
    40    41     1
SMALL
NO_CHARGES


@<TRIPOS>ATOM
      1 ****        -6.0372   3.2452   0.5027 N.1            1 S1                 0.0000
      2 ****        -4.8999   3.1807   0.7017 C.1            1 S1                 0.0000
      3 ****        -3.4536   3.0977   0.9540 C.3            1 S1                 0.0000
      4 ****        -2.8068   1.8827   0.2794 C.3            1 S1                 0.0000
      5 ****        -1.2993   1.8021   0.5477 C.3            1 S1                 0.0000
      6 ****        -0.7086   0.6231  -0.1192 N.4            1 S1                 1.0000
      7 ****         0.7648   0.4974  -0.0186 C.3            1 S1                 0.0000
      8 ****         1.2275   0.1610   1.4216 C.3            1 S1                 0.0000
      9 ****         2.7489  -0.0424   1.5027 C.3            1 S1                 0.0000
     10 ****         3.2382  -1.0865   0.4891 C.3            1 S1                 0.0000
     11 ****         2.8297  -0.6937  -0.9394 C.3            1 S1                 0.0000
     12 ****         1.3062  -0.4981  -1.0866 C.3            1 S1                 0.0000
     13 ****         0.6084  -1.7844  -1.1590 N.pl3          1 S1                 0.0000
     14 ****         0.3451  -2.5239  -2.2950 C.2            1 S1                 0.0000
     15 ****        -0.2882  -3.6699  -1.9086 C.2            1 S1                 0.0000
     16 ****        -0.3546  -3.5559  -0.4934 C.2            1 S1                 0.0000
     17 ****         0.1871  -2.4340  -0.0498 N.2            1 S1                 0.0000
     18 ****        -2.9988   4.0214   0.5950 H              1 S1                 0.0000
     19 ****        -3.3054   3.0606   2.0336 H              1 S1                 0.0000
     20 ****        -3.2913   0.9725   0.6356 H              1 S1                 0.0000
     21 ****        -2.9867   1.9295  -0.7957 H              1 S1                 0.0000
     22 ****        -0.8109   2.7073   0.1844 H              1 S1                 0.0000
     23 ****        -1.1248   1.7476   1.6221 H              1 S1                 0.0000
     24 ****        -1.1282  -0.2167   0.2548 H              1 S1                 0.0000
     25 ****         1.1846   1.4727  -0.2707 H              1 S1                 0.0000
     26 ****         0.9541   0.9660   2.1033 H              1 S1                 0.0000
     27 ****         0.7214  -0.7265   1.7988 H              1 S1                 0.0000
     28 ****         3.2531   0.9067   1.3168 H              1 S1                 0.0000
     29 ****         3.0282  -0.3458   2.5122 H              1 S1                 0.0000
     30 ****         4.3231  -1.1770   0.5499 H              1 S1                 0.0000
     31 ****         2.8356  -2.0679   0.7411 H              1 S1                 0.0000
     32 ****         3.3360   0.2346  -1.2072 H              1 S1                 0.0000
     33 ****         3.1849  -1.4430  -1.6478 H              1 S1                 0.0000
     34 ****         1.1438  -0.0288  -2.0584 H              1 S1                 0.0000
     35 ****         0.6279  -2.1765  -3.2780 H              1 S1                 0.0000
     36 ****        -0.6413  -4.4718  -2.5400 H              1 S1                 0.0000
     37 ****        -0.7734  -4.2508   0.2197 H              1 S1                 0.0000
     38 ****        -0.9412   0.6840  -1.1001 H              1 S1                 0.0000
     39 ****        -7.0207   3.3010   0.3306 LP             1 S1                 0.0000
     40 ****         0.2678  -2.1314   0.8999 LP             1 S1                 0.0000
@<TRIPOS>BOND
    1    1    2 3     
    2    2    3 1     
    3    3    4 1     
    4    3   18 1     
    5    3   19 1     
    6    4    5 1     
    7    4   20 1     
    8    4   21 1     
    9    5    6 1     
   10    5   22 1     
   11    5   23 1     
   12    6    7 1     
   13    6   24 1     
   14    6   38 1     
   15    7   12 1     
   16    7    8 1     
   17    7   25 1     
   18    8    9 1     
   19    8   26 1     
   20    8   27 1     
   21    9   10 1     
   22    9   28 1     
   23    9   29 1     
   24   10   11 1     
   25   10   30 1     
   26   10   31 1     
   27   11   12 1     
   28   11   32 1     
   29   11   33 1     
   30   12   13 1     
   31   12   34 1     
   32   13   17 1     
   33   13   14 1     
   34   14   15 2     
   35   14   35 1     
   36   15   16 1     
   37   15   36 1     
   38   16   17 2     
   39   16   37 1     
   40    1   39 1     
   41   17   40 1     
@<TRIPOS>SUBSTRUCTURE
      1 S1             1
@<TRIPOS>SET
LONE_PAIRS      STATIC     ATOMS    <user>   **** ""
2 39 40
DONOR_HYDROGENS      STATIC     ATOMS    <user>   **** ""
2 24 38
ATOM$BLUE        STATIC     ATOMS    COLORGROUP SYSTEM
2 39 40
ATOM$RED        STATIC     ATOMS    COLORGROUP SYSTEM
2 24 38
