AV-unprocessed.smi:3303|AV-procd|sdf|12692|dock1
  -GOLD-   2272019 23D 1   1.00000     0.00000
 Structure written by MMmdl.
 44 45  0  0  0  0  0  0  0  0  2 V2000
  149.9595  137.9654  155.4346 C   0  0  0  0  0  0  0  0  0  0  0  0
  149.5887  139.1971  154.5904 C   0  0  1  0  0  0  0  0  0  0  0  0
  148.3008  138.9156  153.7880 C   0  0  0  0  0  0  0  0  0  0  0  0
  147.8879  140.0901  152.9796 N   0  3  1  0  0  0  0  0  0  0  0  0
  146.7863  139.7828  152.0393 C   0  0  0  0  0  0  0  0  0  0  0  0
  147.6707  141.3194  153.7932 C   0  0  1  0  0  0  0  0  0  0  0  0
  146.4240  141.2530  154.7017 C   0  0  0  0  0  0  0  0  0  0  0  0
  148.9509  141.6518  154.5816 C   0  0  0  0  0  0  0  0  0  0  0  0
  149.4285  140.4727  155.4510 C   0  0  2  0  0  0  0  0  0  0  0  0
  150.7157  140.8496  156.0244 N   0  0  0  0  0  0  0  0  0  0  0  0
  150.5442  141.7307  157.1691 C   0  0  0  0  0  0  0  0  0  0  0  0
  151.8417  141.7758  157.9872 C   0  0  0  0  0  0  0  0  0  0  0  0
  151.9202  143.0110  158.8637 C   0  0  0  0  0  0  0  0  0  0  0  0
  152.1453  142.8976  160.2523 C   0  0  0  0  0  0  0  0  0  0  0  0
  152.2052  144.0766  161.0203 C   0  0  0  0  0  0  0  0  0  0  0  0
  152.0366  145.3163  160.3740 C   0  0  0  0  0  0  0  0  0  0  0  0
  151.8151  145.3222  158.9824 C   0  0  0  0  0  0  0  0  0  0  0  0
  151.7568  144.1978  158.2364 N   0  0  0  0  0  0  0  0  0  0  0  0
  149.2048  137.7651  156.1958 H   0  0  0  0  0  0  0  0  0  0  0  0
  150.9156  138.0993  155.9412 H   0  0  0  0  0  0  0  0  0  0  0  0
  150.0477  137.0750  154.8116 H   0  0  0  0  0  0  0  0  0  0  0  0
  150.3935  139.3646  153.8723 H   0  0  0  0  0  0  0  0  0  0  0  0
  148.4743  138.0713  153.1189 H   0  0  0  0  0  0  0  0  0  0  0  0
  147.4898  138.6176  154.4535 H   0  0  0  0  0  0  0  0  0  0  0  0
  145.8951  139.4378  152.5643 H   0  0  0  0  0  0  0  0  0  0  0  0
  147.0898  138.9985  151.3454 H   0  0  0  0  0  0  0  0  0  0  0  0
  146.5223  140.6612  151.4495 H   0  0  0  0  0  0  0  0  0  0  0  0
  147.5090  142.1394  153.0919 H   0  0  0  0  0  0  0  0  0  0  0  0
  146.3114  142.1796  155.2649 H   0  0  0  0  0  0  0  0  0  0  0  0
  146.4789  140.4413  155.4265 H   0  0  0  0  0  0  0  0  0  0  0  0
  145.5086  141.1233  154.1252 H   0  0  0  0  0  0  0  0  0  0  0  0
  149.7354  141.9211  153.8720 H   0  0  0  0  0  0  0  0  0  0  0  0
  148.7890  142.5355  155.2007 H   0  0  0  0  0  0  0  0  0  0  0  0
  148.6920  140.2882  156.2353 H   0  0  0  0  0  0  0  0  0  0  0  0
  151.2773  141.3171  155.3267 H   0  0  0  0  0  0  0  0  0  0  0  0
  150.2860  142.7325  156.8224 H   0  0  0  0  0  0  0  0  0  0  0  0
  149.7215  141.3743  157.7902 H   0  0  0  0  0  0  0  0  0  0  0  0
  151.9209  140.8859  158.6137 H   0  0  0  0  0  0  0  0  0  0  0  0
  152.7068  141.7623  157.3223 H   0  0  0  0  0  0  0  0  0  0  0  0
  152.2690  141.9318  160.7199 H   0  0  0  0  0  0  0  0  0  0  0  0
  152.3766  144.0308  162.0858 H   0  0  0  0  0  0  0  0  0  0  0  0
  152.0756  146.2406  160.9312 H   0  0  0  0  0  0  0  0  0  0  0  0
  151.6811  146.2544  158.4541 H   0  0  0  0  0  0  0  0  0  0  0  0
  148.6832  140.3014  152.3936 H   0  0  0  0  0  0  0  0  0  0  0  0
  1  2  1  0  0  0  0
  1 19  1  0  0  0  0
  1 20  1  0  0  0  0
  1 21  1  0  0  0  0
  2  9  1  0  0  0  0
  2  3  1  0  0  0  0
  2 22  1  0  0  0  0
  3  4  1  0  0  0  0
  3 23  1  0  0  0  0
  3 24  1  0  0  0  0
  4  5  1  0  0  0  0
  4  6  1  0  0  0  0
  4 44  1  0  0  0  0
  5 25  1  0  0  0  0
  5 26  1  0  0  0  0
  5 27  1  0  0  0  0
  6  7  1  0  0  0  0
  6  8  1  0  0  0  0
  6 28  1  0  0  0  0
  7 29  1  0  0  0  0
  7 30  1  0  0  0  0
  7 31  1  0  0  0  0
  8  9  1  0  0  0  0
  8 32  1  0  0  0  0
  8 33  1  0  0  0  0
  9 10  1  0  0  0  0
  9 34  1  0  0  0  0
 10 11  1  0  0  0  0
 10 35  1  0  0  0  0
 11 12  1  0  0  0  0
 11 36  1  0  0  0  0
 11 37  1  0  0  0  0
 12 13  1  0  0  0  0
 12 38  1  0  0  0  0
 12 39  1  0  0  0  0
 13 18  1  0  0  0  0
 13 14  2  0  0  0  0
 14 15  1  0  0  0  0
 14 40  1  0  0  0  0
 15 16  2  0  0  0  0
 15 41  1  0  0  0  0
 16 17  1  0  0  0  0
 16 42  1  0  0  0  0
 17 18  2  0  0  0  0
 17 43  1  0  0  0  0
M  CHG  1   4   1
M  END
> <s_m_source_file>
AV-unprocessed.smi

> <i_m_source_file_index>
3303

> <i_lp_mmshare_version>
43012

> <i_f3d_flags>
0

> <s_epik_input>
W0NIM11bQ0BASF0xW0NIMl1OKFtDSDNdKVtDQEBIXShbQ0gzXSlbQ0gyXVtDQEhdMVtOSF1bQ0gyXVtDSDJdYzJbY0hdW2NIXVtjSF1bY0hdbjI=

> <s_epik_cmdline>
J2VwaWtfcHl0aG9uJywgJy1waCcsICc3LjAnLCAnLXRuJywgJzgnLCAnLW1hJywgJzIwMCcsICctbWV0YWxfYmluZGluZycsICctaW1hZScsICc8aW5maWxlLm1hZT4nLCAnLW9tYWUnLCAnPG91dGZpbGUubWFlPic=

> <r_epik_Ionization_Penalty>
2.31085

> <r_epik_Ionization_Penalty_Charging>
0.000313057

> <r_epik_Ionization_Penalty_Neutral>
2.31054

> <r_epik_State_Penalty>
2.4087

> <r_epik_Charging_Adjusted_Penalty>
2.40902

> <i_epik_Tot_Q>
1

> <i_epik_Tot_abs_Q>
1

> <r_epik_Metal_State_Penalty>
2.30979

> <b_epik_Metal_Only>
0

> <s_lp_Force_Field>
OPLS_2005

> <r_lp_Energy>
24.34

> <b_lp_Chiralities_Consistent>
1

> <s_lp_Variant>
AV-unprocessed.smi:3303-36

> <Gold.Version>
5.8.1

> <Gold.Id.Protein>
6NUR|6NUR_protein|mol2

> <Gold.PLP.Fitness>
42.4724

> <Gold.PLP.PLP>
-40.2257

> <Gold.PLP.part.hbond>
-0.8579

> <Gold.PLP.part.metal>
0.0000

> <Gold.PLP.part.buried>
-3.0670

> <Gold.PLP.part.nonpolar>
-36.9761

> <Gold.PLP.part.repulsive>
0.2003

> <Gold.PLP.ligand.clash>
0.0000

> <Gold.PLP.ligand.torsion>
0.3787

> <Gold.PLP.Chemscore.Hbond>
1.0000

> <Gold.PLP.Chemscore.CHOScore>
0.0000

> <Gold.PLP.Chemscore.Metal>
0.0000

> <Gold.Chemscore.Hbonds>
donor molecule, donor type, donor heavy atom, donor atom, acceptor molecule, acceptor atom, score
      L1  H     4    44       P1  7957  1.00

> <Gold.PLP.Chemscore.Internal.Correction>
0.0042

> <Gold.Rescore>
     Score         DG    S(hbond)    S(metal)    S(lipo)     H(rot)  DE(clash)    DE(int)     intcor
     19.05     -20.00       0.97        0.00     125.39       1.33       0.60       0.35       ----

> <Gold.Chemscore.Fitness>
19.0473

> <Gold.Chemscore.DG>
-19.9981

> <Gold.Chemscore.ZeroCoef>
-5.4800

> <Gold.Chemscore.Hbond>
0.9715

> <Gold.Chemscore.Metal>
0.0000

> <Gold.Chemscore.Lipo>
125.3920

> <Gold.Chemscore.Internal_Hbond>
0.0000

> <Gold.Chemscore.DEClash>
0.5966

> <Gold.Chemscore.DEInternal>
0.3541

> <Gold.Chemscore.Rot>
1.3272

> <Gold.Chemscore.Internal.Correction>
   9.000000E+99

> <Gold.Chemscore.Hbonds>
donor molecule, donor type, donor heavy atom, donor atom, acceptor molecule, acceptor atom, score
      L1  H     4    44       P1  7957  0.92

> <Gold.Chemscore.Hbond.Weighted>
-3.2449

> <Gold.Chemscore.Metal.Weighted>
-0.0000

> <Gold.Chemscore.Lipo.Weighted>
-14.6709

> <Gold.Chemscore.Internal_Hbond.Weighted>
0.0000

> <Gold.Chemscore.DEClash.Weighted>
0.5966

> <Gold.Chemscore.DEInternal.Weighted>
0.3541

> <Gold.Chemscore.Rot.Weighted>
3.3976

> <Gold.Chemscore.Internal.Correction.Weighted>
   9.000000E+99

> <Gold.Protein.RotatedTorsions>
[ 6907 6896 6895 6894 ] final  -46.37 input  -60.11 | X-H torsion
[ 7974 7965 7964 7962 ] final -120.61 input  175.53 | X-H torsion
[ 8008 7997 7996 7995 ] final  114.90 input   59.86 | X-H torsion
[ 10167 10162 10161 10158 ] final  -78.20 input  -65.29 | X-H torsion
[ 10718 10713 10712 10709 ] final  -60.81 input   66.30 | X-H torsion
[ 10763 10752 10751 10750 ] final   58.27 input  -60.55 | X-H torsion
[ 11005 11000 10999 10996 ] final  161.21 input  -57.11 | X-H torsion

> <Gold.Protein.ActiveResidues>
 VAL166  LYS551  ARG553  GLY616  TRP617  ASP618  TYR619  PRO620  LYS621  CYS622 
 ASP623  PHE694  ASN695  SER759  ASP760  ASP761  ALA762  ILE779  LEU786  VAL792 
 PHE793  MET794  SER795  GLU796  ALA797  LYS798  CYS799  TRP800  GLU811  SER814 

> <Gold.Protein.RotatedAtoms>
  150.9120  134.8537  159.7431 H   0  0  0  0  0  0  0  0  0  0  0  0  # atno 6907 bound_to 6896
  152.4949  134.4345  159.9533 H   0  0  0  0  0  0  0  0  0  0  0  0  # atno 6908 bound_to 6896
  151.4387  133.3610  159.2814 H   0  0  0  0  0  0  0  0  0  0  0  0  # atno 6909 bound_to 6896
  145.0495  140.8207  143.4218 H   0  0  0  0  0  0  0  0  0  0  0  0  # atno 7974 bound_to 7965
  156.2349  140.2949  156.0286 H   0  0  0  0  0  0  0  0  0  0  0  0  # atno 8008 bound_to 7997
  155.2120  140.0413  157.2952 H   0  0  0  0  0  0  0  0  0  0  0  0  # atno 8009 bound_to 7997
  154.6061  140.2439  155.7736 H   0  0  0  0  0  0  0  0  0  0  0  0  # atno 8010 bound_to 7997
  140.4703  143.2428  151.8215 H   0  0  0  0  0  0  0  0  0  0  0  0  # atno 10167 bound_to 10162
  156.0965  130.4192  150.0906 H   0  0  0  0  0  0  0  0  0  0  0  0  # atno 10718 bound_to 10713
  152.9867  135.5612  154.5525 H   0  0  0  0  0  0  0  0  0  0  0  0  # atno 10763 bound_to 10752
  154.4960  135.2795  155.1461 H   0  0  0  0  0  0  0  0  0  0  0  0  # atno 10764 bound_to 10752
  154.2911  135.6326  153.5439 H   0  0  0  0  0  0  0  0  0  0  0  0  # atno 10765 bound_to 10752
  140.2136  134.8249  157.3146 H   0  0  0  0  0  0  0  0  0  0  0  0  # atno 11005 bound_to 11000
  145.1545  139.2494  143.5423 LP  0  0  0  0  0  0  0  0  0  0  0  0  # atno 17320 bound_to 7965
  146.3516  140.1257  142.8599 LP  0  0  0  0  0  0  0  0  0  0  0  0  # atno 17321 bound_to 7965
  139.4817  144.4900  151.9198 LP  0  0  0  0  0  0  0  0  0  0  0  0  # atno 17342 bound_to 10162
  140.3985  144.2524  150.5894 LP  0  0  0  0  0  0  0  0  0  0  0  0  # atno 17343 bound_to 10162
  156.8904  130.9586  151.3589 LP  0  0  0  0  0  0  0  0  0  0  0  0  # atno 17370 bound_to 10713
  157.6126  130.8594  149.8977 LP  0  0  0  0  0  0  0  0  0  0  0  0  # atno 17371 bound_to 10713
  140.1925  134.4354  155.7708 LP  0  0  0  0  0  0  0  0  0  0  0  0  # atno 17394 bound_to 11000
  141.2225  133.7033  156.8050 LP  0  0  0  0  0  0  0  0  0  0  0  0  # atno 17395 bound_to 11000

$$$$
