#       Name:                AV-unprocessed.smi:1205
#       Creating user name   scv26
#       Creation time:       Fri Mar 27 04:06:35 2020


#       File generated by GOLD software.
#

@<TRIPOS>MOLECULE
AV-unprocessed.smi:1205
    52    53     1
SMALL
NO_CHARGES


@<TRIPOS>ATOM
      1 ****        -6.0723   3.6783   1.8418 C.3            1 S1                 0.0000
      2 ****        -5.4686   2.3614   1.4526 C.2            1 S1                 0.0000
      3 ****        -4.0874   2.0244   1.3529 C.2            1 S1                 0.0000
      4 ****        -4.1245   0.7131   0.9641 C.2            1 S1                 0.0000
      5 ****        -3.0909  -0.1324   0.7076 N.am           1 S1                 0.0000
      6 ****        -1.7710   0.1005   0.8130 C.2            1 S1                 0.0000
      7 ****        -1.2575   1.1562   1.1840 O.2            1 S1                 0.0000
      8 ****        -1.0565  -0.9764   0.4558 N.am           1 S1                 0.0000
      9 ****         0.4016  -1.0453   0.4579 C.3            1 S1                 0.0000
     10 ****         1.0351  -0.3151  -0.7499 C.3            1 S1                 0.0000
     11 ****         0.5419  -0.8652  -2.1058 C.3            1 S1                 0.0000
     12 ****         2.5226  -0.2979  -0.6338 N.4            1 S1                 1.0000
     13 ****         3.1605   0.8413  -1.3449 C.3            1 S1                 0.0000
     14 ****         4.6428   0.9640  -0.9580 C.3            1 S1                 0.0000
     15 ****         5.3941  -0.3497  -1.2195 C.3            1 S1                 0.0000
     16 ****         4.6936  -1.5433  -0.5423 C.3            1 S1                 0.0000
     17 ****         4.8923  -1.5649   0.9834 C.3            1 S1                 0.0000
     18 ****         3.2032  -1.5880  -0.9365 C.3            1 S1                 0.0000
     19 ****        -5.4394   0.3212   0.8465 N.pl3          1 S1                 0.0000
     20 ****        -5.9864  -0.9651   0.4614 C.3            1 S1                 0.0000
     21 ****        -6.2674   1.3442   1.1499 N.2            1 S1                 0.0000
     22 ****        -5.3000   4.4206   2.0447 H              1 S1                 0.0000
     23 ****        -6.6829   3.5806   2.7398 H              1 S1                 0.0000
     24 ****        -6.7070   4.0698   1.0463 H              1 S1                 0.0000
     25 ****        -3.2315   2.6554   1.5388 H              1 S1                 0.0000
     26 ****        -3.3584  -1.0555   0.3991 H              1 S1                 0.0000
     27 ****        -1.5540  -1.8059   0.1657 H              1 S1                 0.0000
     28 ****         0.7838  -0.6337   1.3938 H              1 S1                 0.0000
     29 ****         0.6717  -2.1008   0.4554 H              1 S1                 0.0000
     30 ****         0.7073   0.7234  -0.6882 H              1 S1                 0.0000
     31 ****        -0.5341  -0.7293  -2.2171 H              1 S1                 0.0000
     32 ****         0.7438  -1.9313  -2.2090 H              1 S1                 0.0000
     33 ****         1.0129  -0.3514  -2.9437 H              1 S1                 0.0000
     34 ****         3.0646   0.7079  -2.4232 H              1 S1                 0.0000
     35 ****         2.6526   1.7731  -1.0936 H              1 S1                 0.0000
     36 ****         5.1072   1.7741  -1.5211 H              1 S1                 0.0000
     37 ****         4.7265   1.2381   0.0943 H              1 S1                 0.0000
     38 ****         5.4388  -0.5241  -2.2954 H              1 S1                 0.0000
     39 ****         6.4278  -0.2693  -0.8811 H              1 S1                 0.0000
     40 ****         5.1604  -2.4520  -0.9249 H              1 S1                 0.0000
     41 ****         4.4342  -0.7022   1.4670 H              1 S1                 0.0000
     42 ****         5.9521  -1.5646   1.2401 H              1 S1                 0.0000
     43 ****         4.4507  -2.4601   1.4222 H              1 S1                 0.0000
     44 ****         2.7170  -2.4136  -0.4179 H              1 S1                 0.0000
     45 ****         3.1220  -1.8002  -2.0034 H              1 S1                 0.0000
     46 ****        -5.5595  -1.7481   1.0890 H              1 S1                 0.0000
     47 ****        -5.7406  -1.1688  -0.5811 H              1 S1                 0.0000
     48 ****        -7.0711  -0.9722   0.5785 H              1 S1                 0.0000
     49 ****         2.6999  -0.1204   0.3446 H              1 S1                 0.0000
     50 ****        -1.8359   1.9314   1.4378 LP             1 S1                 0.0000
     51 ****        -0.2620   1.2384   1.2315 LP             1 S1                 0.0000
     52 ****        -7.2674   1.3373   1.1472 LP             1 S1                 0.0000
@<TRIPOS>BOND
    1    1    2 1     
    2    1   22 1     
    3    1   23 1     
    4    1   24 1     
    5    2   21 2     
    6    2    3 1     
    7    3    4 2     
    8    3   25 1     
    9    4    5 1     
   10    4   19 1     
   11    5    6 am    
   12    5   26 1     
   13    6    7 2     
   14    6    8 am    
   15    8    9 1     
   16    8   27 1     
   17    9   10 1     
   18    9   28 1     
   19    9   29 1     
   20   10   11 1     
   21   10   12 1     
   22   10   30 1     
   23   11   31 1     
   24   11   32 1     
   25   11   33 1     
   26   12   18 1     
   27   12   13 1     
   28   12   49 1     
   29   13   14 1     
   30   13   34 1     
   31   13   35 1     
   32   14   15 1     
   33   14   36 1     
   34   14   37 1     
   35   15   16 1     
   36   15   38 1     
   37   15   39 1     
   38   16   17 1     
   39   16   18 1     
   40   16   40 1     
   41   17   41 1     
   42   17   42 1     
   43   17   43 1     
   44   18   44 1     
   45   18   45 1     
   46   19   20 1     
   47   19   21 1     
   48   20   46 1     
   49   20   47 1     
   50   20   48 1     
   51    7   50 1     
   52    7   51 1     
   53   21   52 1     
@<TRIPOS>SUBSTRUCTURE
      1 S1             1
@<TRIPOS>SET
LONE_PAIRS      STATIC     ATOMS    <user>   **** ""
3 50 51 52
DONOR_HYDROGENS      STATIC     ATOMS    <user>   **** ""
3 26 27 49
ATOM$BLUE        STATIC     ATOMS    COLORGROUP SYSTEM
3 50 51 52
ATOM$RED        STATIC     ATOMS    COLORGROUP SYSTEM
3 26 27 49
