AV-unprocessed.smi:2038|AV-procd|sdf|8281|dock6
  -GOLD-   2272010553D 1   1.00000     0.00000
 Structure written by MMmdl.
 33 34  0  0  0  0  0  0  0  0  1 V2000
  148.9281  136.5529  158.7339 O   0  0  0  0  0  0  0  0  0  0  0  0
  149.3882  136.2035  157.6466 C   0  0  0  0  0  0  0  0  0  0  0  0
  150.0519  137.0152  156.8030 N   0  0  0  0  0  0  0  0  0  0  0  0
  150.3409  138.3982  156.9540 C   0  0  0  0  0  0  0  0  0  0  0  0
  151.0261  139.0514  155.9100 C   0  0  0  0  0  0  0  0  0  0  0  0
  151.3061  140.4260  156.0269 C   0  0  0  0  0  0  0  0  0  0  0  0
  150.8804  141.1096  157.1829 C   0  0  0  0  0  0  0  0  0  0  0  0
  151.1581  142.4564  157.2927 O   0  0  0  0  0  0  0  0  0  0  0  0
  150.7267  143.1464  158.4629 C   0  0  0  0  0  0  0  0  0  0  0  0
  151.8494  144.0711  158.9477 C   0  0  0  0  0  0  0  0  0  0  0  0
  152.8512  143.3342  159.4263 F   0  0  0  0  0  0  0  0  0  0  0  0
  152.3071  144.8093  157.9369 F   0  0  0  0  0  0  0  0  0  0  0  0
  151.4033  144.8681  159.9181 F   0  0  0  0  0  0  0  0  0  0  0  0
  150.2058  140.4946  158.1855 N   0  0  0  0  0  0  0  0  0  0  0  0
  149.9425  139.1754  158.0686 C   0  0  0  0  0  0  0  0  0  0  0  0
  149.2280  134.7504  157.1843 C   0  0  1  0  0  0  0  0  0  0  0  0
  148.7877  134.6090  155.7151 C   0  0  0  0  0  0  0  0  0  0  0  0
  150.0247  134.0769  155.0190 C   0  0  0  0  0  0  0  0  0  0  0  0
  150.6932  133.2878  156.1350 C   0  0  0  0  0  0  0  0  0  0  0  0
  150.5024  134.1147  157.2724 O   0  0  0  0  0  0  0  0  0  0  0  0
  150.4479  136.5740  155.9856 H   0  0  0  0  0  0  0  0  0  0  0  0
  151.3398  138.5076  155.0309 H   0  0  0  0  0  0  0  0  0  0  0  0
  151.8365  140.9469  155.2435 H   0  0  0  0  0  0  0  0  0  0  0  0
  149.8341  143.7359  158.2459 H   0  0  0  0  0  0  0  0  0  0  0  0
  150.4735  142.4343  159.2502 H   0  0  0  0  0  0  0  0  0  0  0  0
  149.3788  138.7539  158.8863 H   0  0  0  0  0  0  0  0  0  0  0  0
  148.5233  134.2233  157.8301 H   0  0  0  0  0  0  0  0  0  0  0  0
  147.9779  133.8817  155.6438 H   0  0  0  0  0  0  0  0  0  0  0  0
  148.4317  135.5364  155.2639 H   0  0  0  0  0  0  0  0  0  0  0  0
  149.7967  133.4706  154.1421 H   0  0  0  0  0  0  0  0  0  0  0  0
  150.6662  134.9033  154.7098 H   0  0  0  0  0  0  0  0  0  0  0  0
  150.1927  132.3308  156.2903 H   0  0  0  0  0  0  0  0  0  0  0  0
  151.7504  133.1004  155.9463 H   0  0  0  0  0  0  0  0  0  0  0  0
  1  2  2  0  0  0  0
  2  3  1  0  0  0  0
  2 16  1  0  0  0  0
  3  4  1  0  0  0  0
  3 21  1  0  0  0  0
  4 15  1  0  0  0  0
  4  5  2  0  0  0  0
  5  6  1  0  0  0  0
  5 22  1  0  0  0  0
  6  7  2  0  0  0  0
  6 23  1  0  0  0  0
  7  8  1  0  0  0  0
  7 14  1  0  0  0  0
  8  9  1  0  0  0  0
  9 10  1  0  0  0  0
  9 24  1  0  0  0  0
  9 25  1  0  0  0  0
 10 11  1  0  0  0  0
 10 12  1  0  0  0  0
 10 13  1  0  0  0  0
 14 15  2  0  0  0  0
 15 26  1  0  0  0  0
 16 20  1  0  0  0  0
 16 17  1  0  0  0  0
 16 27  1  0  0  0  0
 17 18  1  0  0  0  0
 17 28  1  0  0  0  0
 17 29  1  0  0  0  0
 18 19  1  0  0  0  0
 18 30  1  0  0  0  0
 18 31  1  0  0  0  0
 19 20  1  0  0  0  0
 19 32  1  0  0  0  0
 19 33  1  0  0  0  0
M  END
> <s_m_source_file>
AV-unprocessed.smi

> <i_m_source_file_index>
2038

> <i_lp_mmshare_version>
43012

> <i_f3d_flags>
0

> <s_epik_input>
TzFbQ0gyXVtDSDJdW0NIMl1bQ0BIXTFDKD1PKVtOSF1jMltjSF1bY0hdYyhuW2NIXTIpT1tDSDJdQyhGKShGKUY=

> <s_epik_cmdline>
J2VwaWtfcHl0aG9uJywgJy1waCcsICc3LjAnLCAnLXRuJywgJzgnLCAnLW1hJywgJzIwMCcsICctbWV0YWxfYmluZGluZycsICctaW1hZScsICc8aW5maWxlLm1hZT4nLCAnLW9tYWUnLCAnPG91dGZpbGUubWFlPic=

> <r_lp_tautomer_probability>
1

> <r_epik_Ionization_Penalty>
2.73305e-06

> <r_epik_Ionization_Penalty_Charging>
0

> <r_epik_Ionization_Penalty_Neutral>
2.73305e-06

> <r_epik_State_Penalty>
-0

> <r_epik_Charging_Adjusted_Penalty>
0

> <i_epik_Tot_Q>
0

> <i_epik_Tot_abs_Q>
0

> <r_epik_Metal_State_Penalty>
-0

> <b_epik_Metal_Only>
0

> <s_lp_Force_Field>
OPLS_2005

> <r_lp_Energy>
22.8429

> <b_lp_Chiralities_Consistent>
1

> <s_lp_Variant>
AV-unprocessed.smi:2038-2

> <Gold.Version>
5.8.1

> <Gold.Id.Protein>
6NUR|6NUR_protein|mol2

> <Gold.PLP.Fitness>
34.8488

> <Gold.PLP.PLP>
-34.2321

> <Gold.PLP.part.hbond>
-1.0000

> <Gold.PLP.part.metal>
0.0000

> <Gold.PLP.part.buried>
-5.0687

> <Gold.PLP.part.nonpolar>
-28.8188

> <Gold.PLP.part.repulsive>
0.1044

> <Gold.PLP.ligand.clash>
0.0000

> <Gold.PLP.ligand.torsion>
0.6876

> <Gold.PLP.Chemscore.Hbond>
0.6560

> <Gold.PLP.Chemscore.CHOScore>
0.0000

> <Gold.PLP.Chemscore.Metal>
0.0000

> <Gold.Chemscore.Hbonds>
donor molecule, donor type, donor heavy atom, donor atom, acceptor molecule, acceptor atom, score
      P1  H  6896  6907       L1    20  0.65

> <Gold.PLP.Chemscore.Internal.Correction>
0.0239

> <Gold.Rescore>
     Score         DG    S(hbond)    S(metal)    S(lipo)     H(rot)  DE(clash)    DE(int)     intcor
      8.25     -10.27       0.84        0.00      54.00       1.69       0.01       2.01       ----

> <Gold.Chemscore.Fitness>
8.2473

> <Gold.Chemscore.DG>
-10.2682

> <Gold.Chemscore.ZeroCoef>
-5.4800

> <Gold.Chemscore.Hbond>
0.8386

> <Gold.Chemscore.Metal>
0.0000

> <Gold.Chemscore.Lipo>
54.0046

> <Gold.Chemscore.Internal_Hbond>
0.0000

> <Gold.Chemscore.DEClash>
0.0062

> <Gold.Chemscore.DEInternal>
2.0147

> <Gold.Chemscore.Rot>
1.6919

> <Gold.Chemscore.Internal.Correction>
   9.000000E+99

> <Gold.Chemscore.Hbonds>
donor molecule, donor type, donor heavy atom, donor atom, acceptor molecule, acceptor atom, score
      P1  H  6896  6907       L1    20  0.45

> <Gold.Chemscore.Hbond.Weighted>
-2.8010

> <Gold.Chemscore.Metal.Weighted>
-0.0000

> <Gold.Chemscore.Lipo.Weighted>
-6.3185

> <Gold.Chemscore.Internal_Hbond.Weighted>
0.0000

> <Gold.Chemscore.DEClash.Weighted>
0.0062

> <Gold.Chemscore.DEInternal.Weighted>
2.0147

> <Gold.Chemscore.Rot.Weighted>
4.3313

> <Gold.Chemscore.Internal.Correction.Weighted>
   9.000000E+99

> <Gold.Protein.RotatedTorsions>
[ 6907 6896 6895 6894 ] final -131.61 input  -60.11 | X-H torsion
[ 7974 7965 7964 7962 ] final -165.78 input  175.53 | X-H torsion
[ 8008 7997 7996 7995 ] final  -59.95 input   59.86 | X-H torsion
[ 10167 10162 10161 10158 ] final  -95.14 input  -65.29 | X-H torsion
[ 10718 10713 10712 10709 ] final -114.28 input   66.30 | X-H torsion
[ 10763 10752 10751 10750 ] final -153.76 input  -60.55 | X-H torsion
[ 11005 11000 10999 10996 ] final   51.74 input  -57.11 | X-H torsion

> <Gold.Protein.ActiveResidues>
 VAL166  LYS551  ARG553  GLY616  TRP617  ASP618  TYR619  PRO620  LYS621  CYS622 
 ASP623  PHE694  ASN695  SER759  ASP760  ASP761  ALA762  ILE779  LEU786  VAL792 
 PHE793  MET794  SER795  GLU796  ALA797  LYS798  CYS799  TRP800  GLU811  SER814 

> <Gold.Protein.RotatedAtoms>
  150.9530  133.6529  159.2768 H   0  0  0  0  0  0  0  0  0  0  0  0  # atno 6907 bound_to 6896
  151.3878  135.0950  159.9526 H   0  0  0  0  0  0  0  0  0  0  0  0  # atno 6908 bound_to 6896
  152.5117  133.9050  159.7514 H   0  0  0  0  0  0  0  0  0  0  0  0  # atno 6909 bound_to 6896
  144.7261  140.2763  143.6243 H   0  0  0  0  0  0  0  0  0  0  0  0  # atno 7974 bound_to 7965
  154.4376  140.1050  156.6197 H   0  0  0  0  0  0  0  0  0  0  0  0  # atno 8008 bound_to 7997
  155.5721  140.3489  155.4499 H   0  0  0  0  0  0  0  0  0  0  0  0  # atno 8009 bound_to 7997
  156.0382  140.1276  157.0174 H   0  0  0  0  0  0  0  0  0  0  0  0  # atno 8010 bound_to 7997
  140.3073  143.3126  152.0186 H   0  0  0  0  0  0  0  0  0  0  0  0  # atno 10167 bound_to 10162
  156.0820  130.6018  150.8753 H   0  0  0  0  0  0  0  0  0  0  0  0  # atno 10718 bound_to 10713
  154.7906  135.3205  154.7787 H   0  0  0  0  0  0  0  0  0  0  0  0  # atno 10763 bound_to 10752
  153.8477  135.6865  153.4800 H   0  0  0  0  0  0  0  0  0  0  0  0  # atno 10764 bound_to 10752
  153.1574  135.4674  154.9664 H   0  0  0  0  0  0  0  0  0  0  0  0  # atno 10765 bound_to 10752
  140.0907  134.5213  155.8855 H   0  0  0  0  0  0  0  0  0  0  0  0  # atno 11005 bound_to 11000
  145.7993  139.1958  143.2057 LP  0  0  0  0  0  0  0  0  0  0  0  0  # atno 17320 bound_to 7965
  146.0690  140.7890  142.9697 LP  0  0  0  0  0  0  0  0  0  0  0  0  # atno 17321 bound_to 7965
  139.4901  144.6411  151.6874 LP  0  0  0  0  0  0  0  0  0  0  0  0  # atno 17342 bound_to 10162
  140.5599  144.0285  150.6165 LP  0  0  0  0  0  0  0  0  0  0  0  0  # atno 17343 bound_to 10162
  157.5940  131.0943  150.9072 LP  0  0  0  0  0  0  0  0  0  0  0  0  # atno 17370 bound_to 10713
  156.9242  130.5326  149.5279 LP  0  0  0  0  0  0  0  0  0  0  0  0  # atno 17371 bound_to 10713
  141.2077  133.6666  156.6321 LP  0  0  0  0  0  0  0  0  0  0  0  0  # atno 17394 bound_to 11000
  140.3356  134.7892  157.4359 LP  0  0  0  0  0  0  0  0  0  0  0  0  # atno 17395 bound_to 11000

$$$$
