#       Name:                AV-unprocessed.smi:2959
#       Creating user name   scv26
#       Creation time:       Fri Mar 27 16:21:00 2020


#       File generated by GOLD software.
#

@<TRIPOS>MOLECULE
AV-unprocessed.smi:2959
    50    52     1
SMALL
NO_CHARGES


@<TRIPOS>ATOM
      1 ****        -5.1722   3.5641  -1.1695 C.3            1 S1                 0.0000
      2 ****        -3.6530   3.6346  -1.2801 C.2            1 S1                 0.0000
      3 ****        -3.0926   4.7203  -1.4255 O.2            1 S1                 0.0000
      4 ****        -2.9972   2.4679  -1.2090 N.am           1 S1                 0.0000
      5 ****        -1.5490   2.3365  -1.2867 C.3            1 S1                 0.0000
      6 ****        -1.1358   0.8599  -1.2399 C.3            1 S1                 0.0000
      7 ****         0.3499   0.7053  -1.2895 C.2            1 S1                 0.0000
      8 ****         1.0925   0.4833  -2.4109 N.pl3          1 S1                 1.0000
      9 ****         2.4440   0.3962  -2.0736 C.ar           1 S1                 0.0000
     10 ****         3.5686   0.1753  -2.8628 C.ar           1 S1                 0.0000
     11 ****         4.8119   0.1417  -2.1976 C.ar           1 S1                 0.0000
     12 ****         4.9034   0.3230  -0.8021 C.ar           1 S1                 0.0000
     13 ****         3.7560   0.5461  -0.0124 C.ar           1 S1                 0.0000
     14 ****         2.5313   0.5795  -0.6785 C.ar           1 S1                 0.0000
     15 ****         1.2176   0.7716  -0.2382 N.pl3          1 S1                 0.0000
     16 ****         0.9658   0.9846   1.1945 C.3            1 S1                 0.0000
     17 ****         0.8796  -0.3380   1.9690 C.3            1 S1                 0.0000
     18 ****        -0.1187  -1.1563   1.3736 O.3            1 S1                 0.0000
     19 ****        -0.3256  -2.4177   1.8866 C.ar           1 S1                 0.0000
     20 ****        -1.2919  -3.2173   1.2420 C.ar           1 S1                 0.0000
     21 ****        -1.5682  -4.5208   1.6969 C.ar           1 S1                 0.0000
     22 ****        -0.8777  -5.0389   2.8079 C.ar           1 S1                 0.0000
     23 ****         0.0882  -4.2513   3.4614 C.ar           1 S1                 0.0000
     24 ****         0.3650  -2.9473   3.0061 C.ar           1 S1                 0.0000
     25 ****        -5.5841   2.9401  -1.9631 H              1 S1                 0.0000
     26 ****        -5.6134   4.5577  -1.2532 H              1 S1                 0.0000
     27 ****        -5.4652   3.1406  -0.2085 H              1 S1                 0.0000
     28 ****        -3.5342   1.6217  -1.0855 H              1 S1                 0.0000
     29 ****        -1.1897   2.7965  -2.2088 H              1 S1                 0.0000
     30 ****        -1.0966   2.8818  -0.4570 H              1 S1                 0.0000
     31 ****        -1.5142   0.3891  -0.3320 H              1 S1                 0.0000
     32 ****        -1.5762   0.3186  -2.0782 H              1 S1                 0.0000
     33 ****         3.5014   0.0347  -3.9317 H              1 S1                 0.0000
     34 ****         5.7133  -0.0277  -2.7687 H              1 S1                 0.0000
     35 ****         5.8733   0.2900  -0.3272 H              1 S1                 0.0000
     36 ****         3.8361   0.6817   1.0560 H              1 S1                 0.0000
     37 ****         1.7448   1.6303   1.6009 H              1 S1                 0.0000
     38 ****         0.0291   1.5340   1.2912 H              1 S1                 0.0000
     39 ****         1.8468  -0.8425   1.9428 H              1 S1                 0.0000
     40 ****         0.6319  -0.1355   3.0119 H              1 S1                 0.0000
     41 ****        -1.8267  -2.8270   0.3885 H              1 S1                 0.0000
     42 ****        -2.3102  -5.1229   1.1935 H              1 S1                 0.0000
     43 ****        -1.0885  -6.0386   3.1580 H              1 S1                 0.0000
     44 ****         0.6182  -4.6478   4.3149 H              1 S1                 0.0000
     45 ****         1.1105  -2.3727   3.5340 H              1 S1                 0.0000
     46 ****         0.6995   0.3936  -3.3391 H              1 S1                 0.0000
     47 ****        -3.6336   5.5601  -1.4715 LP             1 S1                 0.0000
     48 ****        -2.0961   4.7630  -1.4977 LP             1 S1                 0.0000
     49 ****         0.1252  -1.2657   0.4100 LP             1 S1                 0.0000
     50 ****        -0.9856  -0.6629   1.4441 LP             1 S1                 0.0000
@<TRIPOS>BOND
    1    1    2 1     
    2    1   25 1     
    3    1   26 1     
    4    1   27 1     
    5    2    3 2     
    6    2    4 am    
    7    4    5 1     
    8    4   28 1     
    9    5    6 1     
   10    5   29 1     
   11    5   30 1     
   12    6    7 1     
   13    6   31 1     
   14    6   32 1     
   15    7   15 1     
   16    7    8 2     
   17    8    9 1     
   18    8   46 1     
   19    9   14 ar    
   20    9   10 ar    
   21   10   11 ar    
   22   10   33 1     
   23   11   12 ar    
   24   11   34 1     
   25   12   13 ar    
   26   12   35 1     
   27   13   14 ar    
   28   13   36 1     
   29   14   15 1     
   30   15   16 1     
   31   16   17 1     
   32   16   37 1     
   33   16   38 1     
   34   17   18 1     
   35   17   39 1     
   36   17   40 1     
   37   18   19 1     
   38   19   24 ar    
   39   19   20 ar    
   40   20   21 ar    
   41   20   41 1     
   42   21   22 ar    
   43   21   42 1     
   44   22   23 ar    
   45   22   43 1     
   46   23   24 ar    
   47   23   44 1     
   48   24   45 1     
   49    3   47 1     
   50    3   48 1     
   51   18   49 1     
   52   18   50 1     
@<TRIPOS>SUBSTRUCTURE
      1 S1             1
@<TRIPOS>SET
LONE_PAIRS      STATIC     ATOMS    <user>   **** ""
4 47 48 49 50
DONOR_HYDROGENS      STATIC     ATOMS    <user>   **** ""
2 28 46
ATOM$BLUE        STATIC     ATOMS    COLORGROUP SYSTEM
4 47 48 49 50
ATOM$RED        STATIC     ATOMS    COLORGROUP SYSTEM
2 28 46
