AV-unprocessed.smi:1525|AV-procd|sdf|6141|dock10
  -GOLD-   22720 6283D 1   1.00000     0.00000
 Structure written by MMmdl.
 48 50  0  0  0  0  0  0  0  0  1 V2000
  149.7412  133.5648  155.4256 O   0  0  0  0  0  0  0  0  0  0  0  0
  149.3428  134.2469  154.4817 C   0  0  0  0  0  0  0  0  0  0  0  0
  149.5726  135.5629  154.3679 N   0  0  0  0  0  0  0  0  0  0  0  0
  150.2785  136.3843  155.3464 C   0  0  0  0  0  0  0  0  0  0  0  0
  149.4257  137.5864  155.7985 C   0  0  0  0  0  0  0  0  0  0  0  0
  150.1689  138.7036  156.3816 N   0  0  0  0  0  0  0  0  0  0  0  0
  151.0354  138.2918  157.4838 C   0  0  0  0  0  0  0  0  0  0  0  0
  151.8055  139.4832  158.0788 C   0  0  0  0  0  0  0  0  0  0  0  0
  152.5585  140.1251  157.0545 O   0  0  0  0  0  0  0  0  0  0  0  0
  151.7454  140.5772  155.9764 C   0  0  0  0  0  0  0  0  0  0  0  0
  150.9752  139.3874  155.3772 C   0  0  0  0  0  0  0  0  0  0  0  0
  148.6125  133.7940  153.4488 N   0  0  0  0  0  0  0  0  0  0  0  0
  148.0824  132.4887  153.2368 C   0  0  0  0  0  0  0  0  0  0  0  0
  148.5911  131.3520  153.9130 C   0  0  0  0  0  0  0  0  0  0  0  0
  148.0089  130.0937  153.6832 C   0  0  0  0  0  0  0  0  0  0  0  0
  146.9373  130.0127  152.7792 C   0  0  0  0  0  0  0  0  0  0  0  0
  146.4557  131.0794  152.1109 N   0  0  0  0  0  0  0  0  0  0  0  0
  147.0163  132.2977  152.3107 C   0  0  0  0  0  0  0  0  0  0  0  0
  146.4848  133.3741  151.5635 N   0  0  0  0  0  0  0  0  0  0  0  0
  145.6259  133.0589  150.4259 C   0  0  0  0  0  0  0  0  0  0  0  0
  144.5316  134.1315  150.3983 C   0  0  0  0  0  0  0  0  0  0  0  0
  145.1410  135.2881  151.1840 C   0  0  0  0  0  0  0  0  0  0  0  0
  145.9721  134.5624  152.2379 C   0  0  0  0  0  0  0  0  0  0  0  0
  149.2047  136.0399  153.5581 H   0  0  0  0  0  0  0  0  0  0  0  0
  150.6243  135.7886  156.1917 H   0  0  0  0  0  0  0  0  0  0  0  0
  151.1813  136.7567  154.8620 H   0  0  0  0  0  0  0  0  0  0  0  0
  148.8384  137.9459  154.9524 H   0  0  0  0  0  0  0  0  0  0  0  0
  148.6999  137.2220  156.5270 H   0  0  0  0  0  0  0  0  0  0  0  0
  150.4511  137.8253  158.2758 H   0  0  0  0  0  0  0  0  0  0  0  0
  151.7455  137.5398  157.1363 H   0  0  0  0  0  0  0  0  0  0  0  0
  151.1178  140.1962  158.5366 H   0  0  0  0  0  0  0  0  0  0  0  0
  152.4837  139.1440  158.8618 H   0  0  0  0  0  0  0  0  0  0  0  0
  151.0552  141.3452  156.3290 H   0  0  0  0  0  0  0  0  0  0  0  0
  152.3800  141.0388  155.2198 H   0  0  0  0  0  0  0  0  0  0  0  0
  151.6826  138.6871  154.9302 H   0  0  0  0  0  0  0  0  0  0  0  0
  150.3359  139.7447  154.5692 H   0  0  0  0  0  0  0  0  0  0  0  0
  148.2972  134.4942  152.7938 H   0  0  0  0  0  0  0  0  0  0  0  0
  149.4214  131.4191  154.5984 H   0  0  0  0  0  0  0  0  0  0  0  0
  148.3741  129.2130  154.1906 H   0  0  0  0  0  0  0  0  0  0  0  0
  146.4587  129.0655  152.5803 H   0  0  0  0  0  0  0  0  0  0  0  0
  146.2195  133.1128  149.5133 H   0  0  0  0  0  0  0  0  0  0  0  0
  145.2005  132.0568  150.4957 H   0  0  0  0  0  0  0  0  0  0  0  0
  144.2378  134.4111  149.3866 H   0  0  0  0  0  0  0  0  0  0  0  0
  143.6449  133.7649  150.9174 H   0  0  0  0  0  0  0  0  0  0  0  0
  145.7906  135.8778  150.5359 H   0  0  0  0  0  0  0  0  0  0  0  0
  144.3939  135.9546  151.6158 H   0  0  0  0  0  0  0  0  0  0  0  0
  145.3310  134.2885  153.0769 H   0  0  0  0  0  0  0  0  0  0  0  0
  146.7832  135.1864  152.6139 H   0  0  0  0  0  0  0  0  0  0  0  0
  1  2  2  0  0  0  0
  2  3  1  0  0  0  0
  2 12  1  0  0  0  0
  3  4  1  0  0  0  0
  3 24  1  0  0  0  0
  4  5  1  0  0  0  0
  4 25  1  0  0  0  0
  4 26  1  0  0  0  0
  5  6  1  0  0  0  0
  5 27  1  0  0  0  0
  5 28  1  0  0  0  0
  6 11  1  0  0  0  0
  6  7  1  0  0  0  0
  7  8  1  0  0  0  0
  7 29  1  0  0  0  0
  7 30  1  0  0  0  0
  8  9  1  0  0  0  0
  8 31  1  0  0  0  0
  8 32  1  0  0  0  0
  9 10  1  0  0  0  0
 10 11  1  0  0  0  0
 10 33  1  0  0  0  0
 10 34  1  0  0  0  0
 11 35  1  0  0  0  0
 11 36  1  0  0  0  0
 12 13  1  0  0  0  0
 12 37  1  0  0  0  0
 13 18  1  0  0  0  0
 13 14  2  0  0  0  0
 14 15  1  0  0  0  0
 14 38  1  0  0  0  0
 15 16  2  0  0  0  0
 15 39  1  0  0  0  0
 16 17  1  0  0  0  0
 16 40  1  0  0  0  0
 17 18  2  0  0  0  0
 18 19  1  0  0  0  0
 19 23  1  0  0  0  0
 19 20  1  0  0  0  0
 20 21  1  0  0  0  0
 20 41  1  0  0  0  0
 20 42  1  0  0  0  0
 21 22  1  0  0  0  0
 21 43  1  0  0  0  0
 21 44  1  0  0  0  0
 22 23  1  0  0  0  0
 22 45  1  0  0  0  0
 22 46  1  0  0  0  0
 23 47  1  0  0  0  0
 23 48  1  0  0  0  0
M  END
> <s_m_source_file>
AV-unprocessed.smi

> <i_m_source_file_index>
1525

> <i_lp_mmshare_version>
43012

> <i_f3d_flags>
0

> <s_epik_input>
W0NIMl0xW0NIMl1PW0NIMl1bQ0gyXU4xW0NIMl1bQ0gyXVtOSF1DKD1PKVtOSF1jMltjSF1bY0hdW2NIXW5jMk4zW0NIMl1bQ0gyXVtDSDJdW0NIMl0z

> <s_epik_cmdline>
J2VwaWtfcHl0aG9uJywgJy1waCcsICc3LjAnLCAnLXRuJywgJzgnLCAnLW1hJywgJzIwMCcsICctbWV0YWxfYmluZGluZycsICctaW1hZScsICc8aW5maWxlLm1hZT4nLCAnLW9tYWUnLCAnPG91dGZpbGUubWFlPic=

> <r_lp_tautomer_probability>
1

> <r_epik_Ionization_Penalty>
0.363951

> <r_epik_Ionization_Penalty_Charging>
0

> <r_epik_Ionization_Penalty_Neutral>
0.363951

> <r_epik_State_Penalty>
0.349372

> <r_epik_Charging_Adjusted_Penalty>
0.349372

> <i_epik_Tot_Q>
0

> <i_epik_Tot_abs_Q>
0

> <r_epik_Metal_State_Penalty>
0.33306

> <b_epik_Metal_Only>
0

> <s_lp_Force_Field>
OPLS_2005

> <r_lp_Energy>
53.9404

> <b_lp_Chiralities_Consistent>
1

> <s_lp_Variant>
AV-unprocessed.smi:1525-1

> <Gold.Version>
5.8.1

> <Gold.Id.Protein>
6NUR|6NUR_protein|mol2

> <Gold.PLP.Fitness>
42.0682

> <Gold.PLP.PLP>
-34.0955

> <Gold.PLP.part.hbond>
-3.0127

> <Gold.PLP.part.metal>
0.0000

> <Gold.PLP.part.buried>
-2.6425

> <Gold.PLP.part.nonpolar>
-27.3082

> <Gold.PLP.part.repulsive>
0.4866

> <Gold.PLP.ligand.clash>
0.0000

> <Gold.PLP.ligand.torsion>
0.4151

> <Gold.PLP.Chemscore.Hbond>
2.8089

> <Gold.PLP.Chemscore.CHOScore>
0.0000

> <Gold.PLP.Chemscore.Metal>
0.0000

> <Gold.Chemscore.Hbonds>
donor molecule, donor type, donor heavy atom, donor atom, acceptor molecule, acceptor atom, score
      L1  H     3    24       P1  7948  1.00
      L1  H    12    37       P1  7948  0.79
      P1  H  7997  8010       L1     9  1.00

> <Gold.PLP.Chemscore.Internal.Correction>
0.3765

> <Gold.Rescore>
     Score         DG    S(hbond)    S(metal)    S(lipo)     H(rot)  DE(clash)    DE(int)     intcor
     15.10     -16.98       2.12        0.00      72.87       1.60       0.01       1.87       ----

> <Gold.Chemscore.Fitness>
15.0978

> <Gold.Chemscore.DG>
-16.9818

> <Gold.Chemscore.ZeroCoef>
-5.4800

> <Gold.Chemscore.Hbond>
2.1171

> <Gold.Chemscore.Metal>
0.0000

> <Gold.Chemscore.Lipo>
72.8739

> <Gold.Chemscore.Internal_Hbond>
0.0000

> <Gold.Chemscore.DEClash>
0.0136

> <Gold.Chemscore.DEInternal>
1.8704

> <Gold.Chemscore.Rot>
1.5998

> <Gold.Chemscore.Internal.Correction>
   9.000000E+99

> <Gold.Chemscore.Hbonds>
donor molecule, donor type, donor heavy atom, donor atom, acceptor molecule, acceptor atom, score
      L1  H     3    24       P1  7948  0.82
      L1  H    12    37       P1  7948  0.26
      P1  H  7997  8010       L1     9  0.86

> <Gold.Chemscore.Hbond.Weighted>
-7.0712

> <Gold.Chemscore.Metal.Weighted>
-0.0000

> <Gold.Chemscore.Lipo.Weighted>
-8.5262

> <Gold.Chemscore.Internal_Hbond.Weighted>
0.0000

> <Gold.Chemscore.DEClash.Weighted>
0.0136

> <Gold.Chemscore.DEInternal.Weighted>
1.8704

> <Gold.Chemscore.Rot.Weighted>
4.0956

> <Gold.Chemscore.Internal.Correction.Weighted>
   9.000000E+99

> <Gold.Protein.RotatedTorsions>
[ 6907 6896 6895 6894 ] final -161.54 input  -60.11 | X-H torsion
[ 7974 7965 7964 7962 ] final -171.57 input  175.53 | X-H torsion
[ 8008 7997 7996 7995 ] final   58.31 input   59.86 | X-H torsion
[ 10167 10162 10161 10158 ] final  131.79 input  -65.29 | X-H torsion
[ 10718 10713 10712 10709 ] final   78.01 input   66.30 | X-H torsion
[ 10763 10752 10751 10750 ] final -124.37 input  -60.55 | X-H torsion
[ 11005 11000 10999 10996 ] final  175.74 input  -57.11 | X-H torsion

> <Gold.Protein.ActiveResidues>
 VAL166  LYS551  ARG553  GLY616  TRP617  ASP618  TYR619  PRO620  LYS621  CYS622 
 ASP623  PHE694  ASN695  SER759  ASP760  ASP761  ALA762  ILE779  LEU786  VAL792 
 PHE793  MET794  SER795  GLU796  ALA797  LYS798  CYS799  TRP800  GLU811  SER814 

> <Gold.Protein.RotatedAtoms>
  151.3663  133.3871  159.2694 H   0  0  0  0  0  0  0  0  0  0  0  0  # atno 6907 bound_to 6896
  150.9686  134.9064  159.7785 H   0  0  0  0  0  0  0  0  0  0  0  0  # atno 6908 bound_to 6896
  152.5176  134.3624  159.9341 H   0  0  0  0  0  0  0  0  0  0  0  0  # atno 6909 bound_to 6896
  144.7155  140.1902  143.6349 H   0  0  0  0  0  0  0  0  0  0  0  0  # atno 7974 bound_to 7965
  155.5479  140.3485  155.4462 H   0  0  0  0  0  0  0  0  0  0  0  0  # atno 8008 bound_to 7997
  156.0604  140.1339  156.9974 H   0  0  0  0  0  0  0  0  0  0  0  0  # atno 8009 bound_to 7997
  154.4477  140.0986  156.6493 H   0  0  0  0  0  0  0  0  0  0  0  0  # atno 8010 bound_to 7997
  139.5368  144.6691  151.4758 H   0  0  0  0  0  0  0  0  0  0  0  0  # atno 10167 bound_to 10162
  157.6730  130.9848  150.1724 H   0  0  0  0  0  0  0  0  0  0  0  0  # atno 10718 bound_to 10713
  154.8722  135.4066  154.3095 H   0  0  0  0  0  0  0  0  0  0  0  0  # atno 10763 bound_to 10752
  153.3941  135.7016  153.6478 H   0  0  0  0  0  0  0  0  0  0  0  0  # atno 10764 bound_to 10752
  153.5249  135.3679  155.2620 H   0  0  0  0  0  0  0  0  0  0  0  0  # atno 10765 bound_to 10752
  140.3655  134.7075  157.4359 H   0  0  0  0  0  0  0  0  0  0  0  0  # atno 11005 bound_to 11000
  145.8776  139.2305  143.1624 LP  0  0  0  0  0  0  0  0  0  0  0  0  # atno 17320 bound_to 7965
  146.0026  140.8507  143.0011 LP  0  0  0  0  0  0  0  0  0  0  0  0  # atno 17321 bound_to 7965
  140.6579  143.8561  150.6855 LP  0  0  0  0  0  0  0  0  0  0  0  0  # atno 17342 bound_to 10162
  140.1946  143.4008  152.1838 LP  0  0  0  0  0  0  0  0  0  0  0  0  # atno 17343 bound_to 10162
  156.2475  130.3697  149.8268 LP  0  0  0  0  0  0  0  0  0  0  0  0  # atno 17370 bound_to 10713
  156.6051  130.8563  151.3441 LP  0  0  0  0  0  0  0  0  0  0  0  0  # atno 17371 bound_to 10713
  140.0593  134.6019  155.8768 LP  0  0  0  0  0  0  0  0  0  0  0  0  # atno 17394 bound_to 11000
  141.1971  133.6594  156.5723 LP  0  0  0  0  0  0  0  0  0  0  0  0  # atno 17395 bound_to 11000

$$$$
