#       Name:                AV-unprocessed.smi:1745
#       Creating user name   scv26
#       Creation time:       Fri Mar 27 08:25:12 2020


#       File generated by GOLD software.
#

@<TRIPOS>MOLECULE
AV-unprocessed.smi:1745
    55    57     1
SMALL
NO_CHARGES


@<TRIPOS>ATOM
      1 ****        -3.8424  -3.0432   1.8545 C.3            1 S1                 0.0000
      2 ****        -3.4648  -2.2134   0.6175 C.3            1 S1                 0.0000
      3 ****        -2.0149  -2.0316   0.6020 N.am           1 S1                 0.0000
      4 ****        -1.3711  -0.8584   0.5162 C.2            1 S1                 0.0000
      5 ****        -1.9413   0.2300   0.4469 O.2            1 S1                 0.0000
      6 ****        -0.0395  -1.0392   0.5337 N.am           1 S1                 0.0000
      7 ****         0.9934  -0.0635   0.4944 C.ar           1 S1                 0.0000
      8 ****         0.8265   1.2642   0.0331 C.ar           1 S1                 0.0000
      9 ****         1.9371   2.1299   0.0357 C.ar           1 S1                 0.0000
     10 ****         3.1825   1.6398   0.4909 C.ar           1 S1                 0.0000
     11 ****         4.3249   2.4505   0.5220 N.3            1 S1                 0.0000
     12 ****         4.7663   2.8909  -0.7952 C.3            1 S1                 0.0000
     13 ****         6.0896   3.6663  -0.6733 C.3            1 S1                 0.0000
     14 ****         5.9257   4.7504   0.2370 O.3            1 S1                 0.0000
     15 ****         5.5688   4.3034   1.5422 C.3            1 S1                 0.0000
     16 ****         4.2318   3.5447   1.4799 C.3            1 S1                 0.0000
     17 ****         3.3502   0.3705   0.9196 N.ar           1 S1                 0.0000
     18 ****         2.2815  -0.4538   0.9144 C.ar           1 S1                 0.0000
     19 ****        -3.9153  -2.8785  -0.6984 C.3            1 S1                 0.0000
     20 ****        -5.4270  -3.0721  -0.8289 C.3            1 S1                 0.0000
     21 ****        -5.5978  -3.1476  -2.3282 C.3            1 S1                 0.0000
     22 ****        -4.5901  -2.1081  -2.8083 C.3            1 S1                 0.0000
     23 ****        -3.5655  -2.0659  -1.8182 O.3            1 S1                 0.0000
     24 ****        -4.9228  -3.1601   1.9401 H              1 S1                 0.0000
     25 ****        -3.4961  -2.5612   2.7694 H              1 S1                 0.0000
     26 ****        -3.4010  -4.0396   1.8151 H              1 S1                 0.0000
     27 ****        -3.9643  -1.2468   0.7030 H              1 S1                 0.0000
     28 ****        -1.4572  -2.8712   0.6542 H              1 S1                 0.0000
     29 ****         0.2735  -1.9912   0.6552 H              1 S1                 0.0000
     30 ****        -0.1186   1.6343  -0.3318 H              1 S1                 0.0000
     31 ****         1.8289   3.1479  -0.3088 H              1 S1                 0.0000
     32 ****         4.8961   2.0274  -1.4486 H              1 S1                 0.0000
     33 ****         4.0064   3.5287  -1.2483 H              1 S1                 0.0000
     34 ****         6.8951   3.0121  -0.3351 H              1 S1                 0.0000
     35 ****         6.3856   4.0598  -1.6457 H              1 S1                 0.0000
     36 ****         6.3580   3.6691   1.9495 H              1 S1                 0.0000
     37 ****         5.4805   5.1662   2.2022 H              1 S1                 0.0000
     38 ****         3.4331   4.2274   1.1866 H              1 S1                 0.0000
     39 ****         3.9771   3.1522   2.4653 H              1 S1                 0.0000
     40 ****         2.4621  -1.4599   1.2641 H              1 S1                 0.0000
     41 ****        -3.4208  -3.8436  -0.8233 H              1 S1                 0.0000
     42 ****        -5.7897  -3.9627  -0.3150 H              1 S1                 0.0000
     43 ****        -5.9626  -2.2062  -0.4361 H              1 S1                 0.0000
     44 ****        -5.3170  -4.1388  -2.6868 H              1 S1                 0.0000
     45 ****        -6.6162  -2.9396  -2.6571 H              1 S1                 0.0000
     46 ****        -4.1850  -2.3483  -3.7915 H              1 S1                 0.0000
     47 ****        -5.0548  -1.1231  -2.8651 H              1 S1                 0.0000
     48 ****        -2.9404   0.2724   0.4528 LP             1 S1                 0.0000
     49 ****        -1.4055   1.0721   0.3846 LP             1 S1                 0.0000
     50 ****         5.0513   1.8525   0.8606 LP             1 S1                 0.0000
     51 ****         5.2054   5.3535  -0.1058 LP             1 S1                 0.0000
     52 ****         6.7859   5.2573   0.2934 LP             1 S1                 0.0000
     53 ****         4.2438   0.0493   1.2331 LP             1 S1                 0.0000
     54 ****        -2.7114  -2.4026  -2.2146 LP             1 S1                 0.0000
     55 ****        -3.4419  -1.1216  -1.5132 LP             1 S1                 0.0000
@<TRIPOS>BOND
    1    1    2 1     
    2    1   24 1     
    3    1   25 1     
    4    1   26 1     
    5    2    3 1     
    6    2   19 1     
    7    2   27 1     
    8    3    4 am    
    9    3   28 1     
   10    4    5 2     
   11    4    6 am    
   12    6    7 1     
   13    6   29 1     
   14    7   18 ar    
   15    7    8 ar    
   16    8    9 ar    
   17    8   30 1     
   18    9   10 ar    
   19    9   31 1     
   20   10   11 1     
   21   10   17 ar    
   22   11   16 1     
   23   11   12 1     
   24   12   13 1     
   25   12   32 1     
   26   12   33 1     
   27   13   14 1     
   28   13   34 1     
   29   13   35 1     
   30   14   15 1     
   31   15   16 1     
   32   15   36 1     
   33   15   37 1     
   34   16   38 1     
   35   16   39 1     
   36   17   18 ar    
   37   18   40 1     
   38   19   23 1     
   39   19   20 1     
   40   19   41 1     
   41   20   21 1     
   42   20   42 1     
   43   20   43 1     
   44   21   22 1     
   45   21   44 1     
   46   21   45 1     
   47   22   23 1     
   48   22   46 1     
   49   22   47 1     
   50    5   48 1     
   51    5   49 1     
   52   11   50 1     
   53   14   51 1     
   54   14   52 1     
   55   17   53 1     
   56   23   54 1     
   57   23   55 1     
@<TRIPOS>SUBSTRUCTURE
      1 S1             1
@<TRIPOS>SET
LONE_PAIRS      STATIC     ATOMS    <user>   **** ""
8 48 49 50 51 52 53 54 55
DONOR_HYDROGENS      STATIC     ATOMS    <user>   **** ""
2 28 29
ATOM$BLUE        STATIC     ATOMS    COLORGROUP SYSTEM
8 48 49 50 51 52 53 54 55
ATOM$RED        STATIC     ATOMS    COLORGROUP SYSTEM
2 28 29
