#       Name:                AV-unprocessed.smi:1404
#       Creating user name   scv26
#       Creation time:       Fri Mar 27 05:33:45 2020


#       File generated by GOLD software.
#

@<TRIPOS>MOLECULE
AV-unprocessed.smi:1404
    56    57     1
SMALL
NO_CHARGES


@<TRIPOS>ATOM
      1 ****        -3.4713   1.0544  -4.0714 C.3            1 S1                 0.0000
      2 ****        -3.4652   1.8328  -2.8505 N.am           1 S1                 0.0000
      3 ****        -4.1469   3.0737  -2.8172 C.2            1 S1                 0.0000
      4 ****        -4.7525   3.5265  -3.7891 O.2            1 S1                 0.0000
      5 ****        -4.0734   3.7671  -1.5368 C.2            1 S1                 0.0000
      6 ****        -3.4019   3.2317  -0.4940 C.2            1 S1                 0.0000
      7 ****        -2.7476   2.0147  -0.5527 N.am           1 S1                 0.0000
      8 ****        -2.0364   1.5105   0.6289 C.3            1 S1                 0.0000
      9 ****        -0.5214   1.7407   0.5562 C.2            1 S1                 0.0000
     10 ****        -0.0602   2.7091  -0.0494 O.2            1 S1                 0.0000
     11 ****         0.2410   0.8456   1.1975 N.am           1 S1                 0.0000
     12 ****         1.6999   0.8672   1.2269 C.3            1 S1                 0.0000
     13 ****         2.2976  -0.4742   1.7392 C.3            1 S1                 0.0000
     14 ****         3.8377  -0.3479   1.6545 C.3            1 S1                 0.0000
     15 ****         1.9247  -0.5723   3.2403 C.3            1 S1                 0.0000
     16 ****         1.7639  -1.6404   0.9800 N.3            1 S1                 0.0000
     17 ****         1.9705  -1.5804  -0.4720 C.3            1 S1                 0.0000
     18 ****         1.2899  -2.7505  -1.2023 C.3            1 S1                 0.0000
     19 ****         1.7679  -3.9844  -0.6802 O.3            1 S1                 0.0000
     20 ****         1.5319  -4.1095   0.7167 C.3            1 S1                 0.0000
     21 ****         2.2131  -2.9506   1.4644 C.3            1 S1                 0.0000
     22 ****        -2.7671   1.2773  -1.7559 C.2            1 S1                 0.0000
     23 ****        -2.1922   0.1884  -1.8376 O.2            1 S1                 0.0000
     24 ****        -3.9891   1.5773  -4.8747 H              1 S1                 0.0000
     25 ****        -3.9785   0.1137  -3.8499 H              1 S1                 0.0000
     26 ****        -2.4307   0.8880  -4.3560 H              1 S1                 0.0000
     27 ****        -4.5635   4.7228  -1.4230 H              1 S1                 0.0000
     28 ****        -3.3748   3.7873   0.4321 H              1 S1                 0.0000
     29 ****        -2.4110   2.0006   1.5284 H              1 S1                 0.0000
     30 ****        -2.2455   0.4474   0.7631 H              1 S1                 0.0000
     31 ****        -0.2139   0.0780   1.6705 H              1 S1                 0.0000
     32 ****         2.0856   1.1085   0.2353 H              1 S1                 0.0000
     33 ****         2.0153   1.6943   1.8651 H              1 S1                 0.0000
     34 ****         4.1903   0.5143   2.2220 H              1 S1                 0.0000
     35 ****         4.1828  -0.2112   0.6298 H              1 S1                 0.0000
     36 ****         4.3470  -1.2204   2.0628 H              1 S1                 0.0000
     37 ****         2.1557   0.3517   3.7716 H              1 S1                 0.0000
     38 ****         2.4753  -1.3611   3.7526 H              1 S1                 0.0000
     39 ****         0.8610  -0.7694   3.3793 H              1 S1                 0.0000
     40 ****         1.5678  -0.6573  -0.8848 H              1 S1                 0.0000
     41 ****         3.0357  -1.5934  -0.7029 H              1 S1                 0.0000
     42 ****         0.2054  -2.6955  -1.0935 H              1 S1                 0.0000
     43 ****         1.5070  -2.7079  -2.2697 H              1 S1                 0.0000
     44 ****         0.4586  -4.1182   0.9130 H              1 S1                 0.0000
     45 ****         1.9280  -5.0653   1.0599 H              1 S1                 0.0000
     46 ****         3.2927  -3.0459   1.3480 H              1 S1                 0.0000
     47 ****         1.9968  -3.0687   2.5244 H              1 S1                 0.0000
     48 ****        -4.7765   3.0131  -4.6469 LP             1 S1                 0.0000
     49 ****        -5.2203   4.4077  -3.7206 LP             1 S1                 0.0000
     50 ****        -0.6752   3.3558  -0.5006 LP             1 S1                 0.0000
     51 ****         0.9292   2.8486  -0.0898 LP             1 S1                 0.0000
     52 ****         0.7843  -1.5557   1.1622 LP             1 S1                 0.0000
     53 ****         2.7522  -4.0436  -0.8462 LP             1 S1                 0.0000
     54 ****         1.3045  -4.7341  -1.1526 LP             1 S1                 0.0000
     55 ****        -2.2131  -0.3249  -2.6955 LP             1 S1                 0.0000
     56 ****        -1.7054  -0.1806  -1.0458 LP             1 S1                 0.0000
@<TRIPOS>BOND
    1    1    2 1     
    2    1   24 1     
    3    1   25 1     
    4    1   26 1     
    5    2   22 am    
    6    2    3 am    
    7    3    4 2     
    8    3    5 1     
    9    5    6 2     
   10    5   27 1     
   11    6    7 1     
   12    6   28 1     
   13    7    8 1     
   14    7   22 am    
   15    8    9 1     
   16    8   29 1     
   17    8   30 1     
   18    9   10 2     
   19    9   11 am    
   20   11   12 1     
   21   11   31 1     
   22   12   13 1     
   23   12   32 1     
   24   12   33 1     
   25   13   14 1     
   26   13   15 1     
   27   13   16 1     
   28   14   34 1     
   29   14   35 1     
   30   14   36 1     
   31   15   37 1     
   32   15   38 1     
   33   15   39 1     
   34   16   21 1     
   35   16   17 1     
   36   17   18 1     
   37   17   40 1     
   38   17   41 1     
   39   18   19 1     
   40   18   42 1     
   41   18   43 1     
   42   19   20 1     
   43   20   21 1     
   44   20   44 1     
   45   20   45 1     
   46   21   46 1     
   47   21   47 1     
   48   22   23 2     
   49    4   48 1     
   50    4   49 1     
   51   10   50 1     
   52   10   51 1     
   53   16   52 1     
   54   19   53 1     
   55   19   54 1     
   56   23   55 1     
   57   23   56 1     
@<TRIPOS>SUBSTRUCTURE
      1 S1             1
@<TRIPOS>SET
LONE_PAIRS      STATIC     ATOMS    <user>   **** ""
9 48 49 50 51 52 53 54 55 56
DONOR_HYDROGENS      STATIC     ATOMS    <user>   **** ""
1 31
ATOM$BLUE        STATIC     ATOMS    COLORGROUP SYSTEM
9 48 49 50 51 52 53 54 55 56
ATOM$RED        STATIC     ATOMS    COLORGROUP SYSTEM
1 31
