AV-unprocessed.smi:1114|AV-procd|sdf|4800|dock3
  -GOLD-   22720 3343D 1   1.00000     0.00000
 Structure written by MMmdl.
 52 54  0  0  0  0  0  0  0  0  1 V2000
  145.1043  131.7446  150.5659 C   0  0  0  0  0  0  0  0  0  0  0  0
  144.4763  133.1361  150.4598 C   0  0  0  0  0  0  0  0  0  0  0  0
  144.0844  133.5107  149.3545 O   0  0  0  0  0  0  0  0  0  0  0  0
  144.3682  133.9007  151.5729 N   0  0  0  0  0  0  0  0  0  0  0  0
  144.9076  133.4893  152.8740 C   0  0  0  0  0  0  0  0  0  0  0  0
  146.1372  134.3576  153.1971 C   0  0  0  0  0  0  0  0  0  0  0  0
  145.7920  135.8622  153.1585 C   0  0  0  0  0  0  0  0  0  0  0  0
  147.0167  136.6475  153.2769 N   0  0  0  0  0  0  0  0  0  0  0  0
  147.3476  137.4151  154.3249 C   0  0  0  0  0  0  0  0  0  0  0  0
  146.6417  137.5348  155.3256 O   0  0  0  0  0  0  0  0  0  0  0  0
  148.5363  138.0111  154.1271 N   0  0  0  0  0  0  0  0  0  0  0  0
  149.2466  138.9126  154.9675 C   0  0  0  0  0  0  0  0  0  0  0  0
  149.1322  138.7320  156.3595 C   0  0  0  0  0  0  0  0  0  0  0  0
  149.8262  139.5944  157.2284 C   0  0  0  0  0  0  0  0  0  0  0  0
  150.6259  140.6255  156.6829 C   0  0  0  0  0  0  0  0  0  0  0  0
  151.3290  141.5060  157.5344 N   0  0  0  0  0  0  0  0  0  0  0  0
  151.5744  141.0091  158.8902 C   0  0  0  0  0  0  0  0  0  0  0  0
  152.6730  141.8257  159.5915 C   0  0  0  0  0  0  0  0  0  0  0  0
  152.3486  143.3266  159.5643 C   0  0  0  0  0  0  0  0  0  0  0  0
  152.1109  143.7854  158.1185 C   0  0  0  0  0  0  0  0  0  0  0  0
  151.0224  142.9361  157.4404 C   0  0  0  0  0  0  0  0  0  0  0  0
  150.7465  140.7923  155.3433 N   0  0  0  0  0  0  0  0  0  0  0  0
  150.0797  139.9631  154.5126 C   0  0  0  0  0  0  0  0  0  0  0  0
  145.0303  136.2354  151.8653 C   0  0  0  0  0  0  0  0  0  0  0  0
  143.8545  135.2754  151.6127 C   0  0  0  0  0  0  0  0  0  0  0  0
  144.5537  131.1241  151.2736 H   0  0  0  0  0  0  0  0  0  0  0  0
  146.1440  131.8134  150.8868 H   0  0  0  0  0  0  0  0  0  0  0  0
  145.0873  131.2406  149.5990 H   0  0  0  0  0  0  0  0  0  0  0  0
  144.1432  133.6191  153.6413 H   0  0  0  0  0  0  0  0  0  0  0  0
  145.1806  132.4336  152.9037 H   0  0  0  0  0  0  0  0  0  0  0  0
  146.5341  134.0896  154.1770 H   0  0  0  0  0  0  0  0  0  0  0  0
  146.9249  134.1394  152.4742 H   0  0  0  0  0  0  0  0  0  0  0  0
  145.1453  136.0737  154.0125 H   0  0  0  0  0  0  0  0  0  0  0  0
  147.6582  136.6051  152.4984 H   0  0  0  0  0  0  0  0  0  0  0  0
  149.0054  137.7737  153.2654 H   0  0  0  0  0  0  0  0  0  0  0  0
  148.5205  137.9380  156.7627 H   0  0  0  0  0  0  0  0  0  0  0  0
  149.7499  139.4467  158.2953 H   0  0  0  0  0  0  0  0  0  0  0  0
  150.6451  141.0763  159.4571 H   0  0  0  0  0  0  0  0  0  0  0  0
  151.8627  139.9590  158.8911 H   0  0  0  0  0  0  0  0  0  0  0  0
  152.7896  141.4865  160.6208 H   0  0  0  0  0  0  0  0  0  0  0  0
  153.6290  141.6493  159.0966 H   0  0  0  0  0  0  0  0  0  0  0  0
  151.4593  143.5230  160.1644 H   0  0  0  0  0  0  0  0  0  0  0  0
  153.1623  143.8974  160.0124 H   0  0  0  0  0  0  0  0  0  0  0  0
  151.8274  144.8379  158.1005 H   0  0  0  0  0  0  0  0  0  0  0  0
  153.0403  143.7051  157.5531 H   0  0  0  0  0  0  0  0  0  0  0  0
  150.9391  143.2363  156.3951 H   0  0  0  0  0  0  0  0  0  0  0  0
  150.0557  143.1256  157.9091 H   0  0  0  0  0  0  0  0  0  0  0  0
  150.2451  140.1612  153.4663 H   0  0  0  0  0  0  0  0  0  0  0  0
  144.6640  137.2610  151.9256 H   0  0  0  0  0  0  0  0  0  0  0  0
  145.7091  136.2003  151.0116 H   0  0  0  0  0  0  0  0  0  0  0  0
  143.3217  135.5693  150.7094 H   0  0  0  0  0  0  0  0  0  0  0  0
  143.1251  135.3624  152.4195 H   0  0  0  0  0  0  0  0  0  0  0  0
  1  2  1  0  0  0  0
  1 26  1  0  0  0  0
  1 27  1  0  0  0  0
  1 28  1  0  0  0  0
  2  3  2  0  0  0  0
  2  4  1  0  0  0  0
  4 25  1  0  0  0  0
  4  5  1  0  0  0  0
  5  6  1  0  0  0  0
  5 29  1  0  0  0  0
  5 30  1  0  0  0  0
  6  7  1  0  0  0  0
  6 31  1  0  0  0  0
  6 32  1  0  0  0  0
  7  8  1  0  0  0  0
  7 24  1  0  0  0  0
  7 33  1  0  0  0  0
  8  9  1  0  0  0  0
  8 34  1  0  0  0  0
  9 10  2  0  0  0  0
  9 11  1  0  0  0  0
 11 12  1  0  0  0  0
 11 35  1  0  0  0  0
 12 23  1  0  0  0  0
 12 13  2  0  0  0  0
 13 14  1  0  0  0  0
 13 36  1  0  0  0  0
 14 15  2  0  0  0  0
 14 37  1  0  0  0  0
 15 16  1  0  0  0  0
 15 22  1  0  0  0  0
 16 21  1  0  0  0  0
 16 17  1  0  0  0  0
 17 18  1  0  0  0  0
 17 38  1  0  0  0  0
 17 39  1  0  0  0  0
 18 19  1  0  0  0  0
 18 40  1  0  0  0  0
 18 41  1  0  0  0  0
 19 20  1  0  0  0  0
 19 42  1  0  0  0  0
 19 43  1  0  0  0  0
 20 21  1  0  0  0  0
 20 44  1  0  0  0  0
 20 45  1  0  0  0  0
 21 46  1  0  0  0  0
 21 47  1  0  0  0  0
 22 23  2  0  0  0  0
 23 48  1  0  0  0  0
 24 25  1  0  0  0  0
 24 49  1  0  0  0  0
 24 50  1  0  0  0  0
 25 51  1  0  0  0  0
 25 52  1  0  0  0  0
M  END
> <s_m_source_file>
AV-unprocessed.smi

> <i_m_source_file_index>
1114

> <i_lp_mmshare_version>
43012

> <i_f3d_flags>
0

> <s_epik_input>
W0NIM11DKD1PKU4xW0NIMl1bQ0gyXVtDSF0oW0NIMl1bQ0gyXTEpW05IXUMoPU8pW05IXWMyW2NIXVtjSF1jKG5bY0hdMilOM1tDSDJdW0NIMl1bQ0gyXVtDSDJdW0NIMl0z

> <s_epik_cmdline>
J2VwaWtfcHl0aG9uJywgJy1waCcsICc3LjAnLCAnLXRuJywgJzgnLCAnLW1hJywgJzIwMCcsICctbWV0YWxfYmluZGluZycsICctaW1hZScsICc8aW5maWxlLm1hZT4nLCAnLW9tYWUnLCAnPG91dGZpbGUubWFlPic=

> <r_lp_tautomer_probability>
1

> <r_epik_Ionization_Penalty>
0.108876

> <r_epik_Ionization_Penalty_Charging>
0

> <r_epik_Ionization_Penalty_Neutral>
0.108876

> <r_epik_State_Penalty>
0.0925502

> <r_epik_Charging_Adjusted_Penalty>
0.0925502

> <i_epik_Tot_Q>
0

> <i_epik_Tot_abs_Q>
0

> <r_epik_Metal_State_Penalty>
0.0787426

> <b_epik_Metal_Only>
0

> <s_lp_Force_Field>
OPLS_2005

> <r_lp_Energy>
37.4481

> <b_lp_Chiralities_Consistent>
1

> <s_lp_Variant>
AV-unprocessed.smi:1114-1

> <Gold.Version>
5.8.1

> <Gold.Id.Protein>
6NUR|6NUR_protein|mol2

> <Gold.PLP.Fitness>
46.3201

> <Gold.PLP.PLP>
-39.1739

> <Gold.PLP.part.hbond>
-2.6716

> <Gold.PLP.part.metal>
0.0000

> <Gold.PLP.part.buried>
-4.7765

> <Gold.PLP.part.nonpolar>
-33.0258

> <Gold.PLP.part.repulsive>
1.3758

> <Gold.PLP.ligand.clash>
0.0000

> <Gold.PLP.ligand.torsion>
0.5801

> <Gold.PLP.Chemscore.Hbond>
1.6199

> <Gold.PLP.Chemscore.CHOScore>
1.0000

> <Gold.PLP.Chemscore.Metal>
0.0000

> <Gold.Chemscore.Hbonds>
donor molecule, donor type, donor heavy atom, donor atom, acceptor molecule, acceptor atom, score
      L1  H     8    34       P1  7948  0.89
      L1  H    11    35       P1  7948  0.73
      L1  C    23    48       P1  7957  1.00

> <Gold.PLP.Chemscore.Internal.Correction>
0.4466

> <Gold.Rescore>
     Score         DG    S(hbond)    S(metal)    S(lipo)     H(rot)  DE(clash)    DE(int)     intcor
     17.49     -19.31       1.76        0.00      94.15       1.20       0.12       1.69       ----

> <Gold.Chemscore.Fitness>
17.4938

> <Gold.Chemscore.DG>
-19.3059

> <Gold.Chemscore.ZeroCoef>
-5.4800

> <Gold.Chemscore.Hbond>
1.7613

> <Gold.Chemscore.Metal>
0.0000

> <Gold.Chemscore.Lipo>
94.1538

> <Gold.Chemscore.Internal_Hbond>
0.0000

> <Gold.Chemscore.DEClash>
0.1203

> <Gold.Chemscore.DEInternal>
1.6917

> <Gold.Chemscore.Rot>
1.2003

> <Gold.Chemscore.Internal.Correction>
   9.000000E+99

> <Gold.Chemscore.Hbonds>
donor molecule, donor type, donor heavy atom, donor atom, acceptor molecule, acceptor atom, score
      L1  H     8    34       P1  7948  0.83
      L1  H    11    35       P1  7948  0.69

> <Gold.Chemscore.Hbond.Weighted>
-5.8827

> <Gold.Chemscore.Metal.Weighted>
-0.0000

> <Gold.Chemscore.Lipo.Weighted>
-11.0160

> <Gold.Chemscore.Internal_Hbond.Weighted>
0.0000

> <Gold.Chemscore.DEClash.Weighted>
0.1203

> <Gold.Chemscore.DEInternal.Weighted>
1.6917

> <Gold.Chemscore.Rot.Weighted>
3.0728

> <Gold.Chemscore.Internal.Correction.Weighted>
   9.000000E+99

> <Gold.Protein.RotatedTorsions>
[ 6907 6896 6895 6894 ] final  108.93 input  -60.11 | X-H torsion
[ 7974 7965 7964 7962 ] final  -38.59 input  175.53 | X-H torsion
[ 8008 7997 7996 7995 ] final  108.71 input   59.86 | X-H torsion
[ 10167 10162 10161 10158 ] final  -74.11 input  -65.29 | X-H torsion
[ 10718 10713 10712 10709 ] final  -49.43 input   66.30 | X-H torsion
[ 10763 10752 10751 10750 ] final  127.41 input  -60.55 | X-H torsion
[ 11005 11000 10999 10996 ] final   75.90 input  -57.11 | X-H torsion

> <Gold.Protein.ActiveResidues>
 VAL166  LYS551  ARG553  GLY616  TRP617  ASP618  TYR619  PRO620  LYS621  CYS622 
 ASP623  PHE694  ASN695  SER759  ASP760  ASP761  ALA762  ILE779  LEU786  VAL792 
 PHE793  MET794  SER795  GLU796  ALA797  LYS798  CYS799  TRP800  GLU811  SER814 

> <Gold.Protein.RotatedAtoms>
  152.5090  133.9017  159.7444 H   0  0  0  0  0  0  0  0  0  0  0  0  # atno 6907 bound_to 6896
  150.9432  133.6625  159.2793 H   0  0  0  0  0  0  0  0  0  0  0  0  # atno 6908 bound_to 6896
  151.3929  135.0964  159.9584 H   0  0  0  0  0  0  0  0  0  0  0  0  # atno 6909 bound_to 6896
  146.0473  140.6529  142.9059 H   0  0  0  0  0  0  0  0  0  0  0  0  # atno 7974 bound_to 7965
  156.1924  140.3071  155.9359 H   0  0  0  0  0  0  0  0  0  0  0  0  # atno 8008 bound_to 7997
  155.3143  140.0452  157.3053 H   0  0  0  0  0  0  0  0  0  0  0  0  # atno 8009 bound_to 7997
  154.5468  140.2279  155.8559 H   0  0  0  0  0  0  0  0  0  0  0  0  # atno 8010 bound_to 7997
  140.5055  143.2353  151.7682 H   0  0  0  0  0  0  0  0  0  0  0  0  # atno 10167 bound_to 10162
  156.1894  130.4152  149.9392 H   0  0  0  0  0  0  0  0  0  0  0  0  # atno 10718 bound_to 10713
  153.7090  135.3271  155.3242 H   0  0  0  0  0  0  0  0  0  0  0  0  # atno 10763 bound_to 10752
  154.8390  135.4472  154.1333 H   0  0  0  0  0  0  0  0  0  0  0  0  # atno 10764 bound_to 10752
  153.2421  135.6972  153.7850 H   0  0  0  0  0  0  0  0  0  0  0  0  # atno 10765 bound_to 10752
  139.9322  134.7556  156.1328 H   0  0  0  0  0  0  0  0  0  0  0  0  # atno 11005 bound_to 11000
  144.7104  140.4017  143.7085 LP  0  0  0  0  0  0  0  0  0  0  0  0  # atno 17320 bound_to 7965
  145.6784  139.1613  143.2714 LP  0  0  0  0  0  0  0  0  0  0  0  0  # atno 17321 bound_to 7965
  139.4882  144.4464  151.9705 LP  0  0  0  0  0  0  0  0  0  0  0  0  # atno 17342 bound_to 10162
  140.3554  144.3038  150.5942 LP  0  0  0  0  0  0  0  0  0  0  0  0  # atno 17343 bound_to 10162
  156.7137  130.8980  151.3612 LP  0  0  0  0  0  0  0  0  0  0  0  0  # atno 17370 bound_to 10713
  157.6920  130.9243  150.0539 LP  0  0  0  0  0  0  0  0  0  0  0  0  # atno 17371 bound_to 10713
  141.0917  133.6711  156.2556 LP  0  0  0  0  0  0  0  0  0  0  0  0  # atno 17394 bound_to 11000
  140.6170  134.5400  157.5542 LP  0  0  0  0  0  0  0  0  0  0  0  0  # atno 17395 bound_to 11000

$$$$
