AV-unprocessed.smi:2812|AV-procd|sdf|10836|dock2
  -GOLD-   2272015273D 1   1.00000     0.00000
 Structure written by MMmdl.
 55 56  0  0  0  0  0  0  0  0  2 V2000
  151.3939  140.5219  156.9018 C   0  0  0  0  0  0  0  0  0  0  0  0
  151.6187  141.5058  158.0389 C   0  0  0  0  0  0  0  0  0  0  0  0
  152.8093  141.3806  158.8541 C   0  0  0  0  0  0  0  0  0  0  0  0
  153.0093  142.2366  159.8652 C   0  0  0  0  0  0  0  0  0  0  0  0
  152.1010  143.2666  160.1485 N   0  0  0  0  0  0  0  0  0  0  0  0
  152.4166  144.1612  161.2654 C   0  0  0  0  0  0  0  0  0  0  0  0
  150.9742  143.4695  159.4072 C   0  0  0  0  0  0  0  0  0  0  0  0
  150.2342  144.4300  159.6334 O   0  0  0  0  0  0  0  0  0  0  0  0
  150.7229  142.4871  158.3242 C   0  0  0  0  0  0  0  0  0  0  0  0
  149.5770  142.6174  157.5233 N   0  0  0  0  0  0  0  0  0  0  0  0
  148.4617  141.8711  157.6109 C   0  0  0  0  0  0  0  0  0  0  0  0
  148.2931  140.9475  158.4083 O   0  0  0  0  0  0  0  0  0  0  0  0
  147.5425  142.2485  156.7116 N   0  0  0  0  0  0  0  0  0  0  0  0
  146.2189  141.6484  156.5812 C   0  0  0  0  0  0  0  0  0  0  0  0
  145.7941  141.4679  155.0969 C   0  0  1  0  0  0  0  0  0  0  0  0
  146.8690  141.9316  154.0864 C   0  0  0  0  0  0  0  0  0  0  0  0
  148.0680  140.9724  154.0422 C   0  0  0  0  0  0  0  0  0  0  0  0
  147.5880  139.5427  153.7615 C   0  0  0  0  0  0  0  0  0  0  0  0
  146.5067  139.1082  154.7646 C   0  0  0  0  0  0  0  0  0  0  0  0
  145.3733  140.0726  154.7752 N   0  3  1  0  0  0  0  0  0  0  0  0
  144.1943  139.6047  155.5500 C   0  0  0  0  0  0  0  0  0  0  0  0
  144.0808  138.0662  155.5835 C   0  0  0  0  0  0  0  0  0  0  0  0
  143.8525  137.4804  154.1797 C   0  0  0  0  0  0  0  0  0  0  0  0
  142.9592  137.6276  156.5367 C   0  0  0  0  0  0  0  0  0  0  0  0
  152.1788  139.7659  156.8732 H   0  0  0  0  0  0  0  0  0  0  0  0
  151.3918  141.0414  155.9433 H   0  0  0  0  0  0  0  0  0  0  0  0
  150.4395  140.0079  157.0204 H   0  0  0  0  0  0  0  0  0  0  0  0
  153.5306  140.6008  158.6582 H   0  0  0  0  0  0  0  0  0  0  0  0
  153.8760  142.1908  160.5084 H   0  0  0  0  0  0  0  0  0  0  0  0
  151.5834  144.2114  161.9682 H   0  0  0  0  0  0  0  0  0  0  0  0
  152.6157  145.1697  160.9007 H   0  0  0  0  0  0  0  0  0  0  0  0
  153.2921  143.8373  161.8290 H   0  0  0  0  0  0  0  0  0  0  0  0
  149.6505  143.2624  156.7505 H   0  0  0  0  0  0  0  0  0  0  0  0
  147.7661  143.0103  156.0876 H   0  0  0  0  0  0  0  0  0  0  0  0
  146.2430  140.6915  157.1011 H   0  0  0  0  0  0  0  0  0  0  0  0
  145.5023  142.2667  157.1235 H   0  0  0  0  0  0  0  0  0  0  0  0
  144.9190  142.0963  154.9248 H   0  0  0  0  0  0  0  0  0  0  0  0
  146.4220  141.9814  153.0926 H   0  0  0  0  0  0  0  0  0  0  0  0
  147.2058  142.9443  154.3089 H   0  0  0  0  0  0  0  0  0  0  0  0
  148.7718  141.2878  153.2713 H   0  0  0  0  0  0  0  0  0  0  0  0
  148.6114  141.0048  154.9868 H   0  0  0  0  0  0  0  0  0  0  0  0
  147.1868  139.4864  152.7487 H   0  0  0  0  0  0  0  0  0  0  0  0
  148.4310  138.8521  153.7981 H   0  0  0  0  0  0  0  0  0  0  0  0
  146.1515  138.1165  154.4868 H   0  0  0  0  0  0  0  0  0  0  0  0
  146.9302  139.0116  155.7646 H   0  0  0  0  0  0  0  0  0  0  0  0
  144.2451  140.0099  156.5620 H   0  0  0  0  0  0  0  0  0  0  0  0
  143.2791  140.0033  155.1092 H   0  0  0  0  0  0  0  0  0  0  0  0
  145.0085  137.6479  155.9732 H   0  0  0  0  0  0  0  0  0  0  0  0
  142.9300  137.8575  153.7370 H   0  0  0  0  0  0  0  0  0  0  0  0
  143.7815  136.3930  154.2160 H   0  0  0  0  0  0  0  0  0  0  0  0
  144.6714  137.7281  153.5039 H   0  0  0  0  0  0  0  0  0  0  0  0
  141.9907  138.0108  156.2136 H   0  0  0  0  0  0  0  0  0  0  0  0
  143.1389  137.9893  157.5495 H   0  0  0  0  0  0  0  0  0  0  0  0
  142.8869  136.5406  156.5856 H   0  0  0  0  0  0  0  0  0  0  0  0
  145.0504  140.1218  153.8194 H   0  0  0  0  0  0  0  0  0  0  0  0
  1  2  1  0  0  0  0
  1 25  1  0  0  0  0
  1 26  1  0  0  0  0
  1 27  1  0  0  0  0
  2  9  2  0  0  0  0
  2  3  1  0  0  0  0
  3  4  2  0  0  0  0
  3 28  1  0  0  0  0
  4  5  1  0  0  0  0
  4 29  1  0  0  0  0
  5  6  1  0  0  0  0
  5  7  1  0  0  0  0
  6 30  1  0  0  0  0
  6 31  1  0  0  0  0
  6 32  1  0  0  0  0
  7  8  2  0  0  0  0
  7  9  1  0  0  0  0
  9 10  1  0  0  0  0
 10 11  1  0  0  0  0
 10 33  1  0  0  0  0
 11 12  2  0  0  0  0
 11 13  1  0  0  0  0
 13 14  1  0  0  0  0
 13 34  1  0  0  0  0
 14 15  1  0  0  0  0
 14 35  1  0  0  0  0
 14 36  1  0  0  0  0
 15 20  1  0  0  0  0
 15 16  1  0  0  0  0
 15 37  1  0  0  0  0
 16 17  1  0  0  0  0
 16 38  1  0  0  0  0
 16 39  1  0  0  0  0
 17 18  1  0  0  0  0
 17 40  1  0  0  0  0
 17 41  1  0  0  0  0
 18 19  1  0  0  0  0
 18 42  1  0  0  0  0
 18 43  1  0  0  0  0
 19 20  1  0  0  0  0
 19 44  1  0  0  0  0
 19 45  1  0  0  0  0
 20 21  1  0  0  0  0
 20 55  1  0  0  0  0
 21 22  1  0  0  0  0
 21 46  1  0  0  0  0
 21 47  1  0  0  0  0
 22 23  1  0  0  0  0
 22 24  1  0  0  0  0
 22 48  1  0  0  0  0
 23 49  1  0  0  0  0
 23 50  1  0  0  0  0
 23 51  1  0  0  0  0
 24 52  1  0  0  0  0
 24 53  1  0  0  0  0
 24 54  1  0  0  0  0
M  CHG  1  20   1
M  END
> <s_m_source_file>
AV-unprocessed.smi

> <i_m_source_file_index>
2812

> <i_lp_mmshare_version>
43012

> <i_f3d_flags>
0

> <s_epik_input>
W0NIM11jMVtjSF1bY0hdbihbQ0gzXSljKD1PKWMxW05IXUMoPU8pW05IXVtDSDJdW0NAQEhdMltDSDJdW0NIMl1bQ0gyXVtDSDJdTjJbQ0gyXVtDSF0oW0NIM10pW0NIM10=

> <s_epik_cmdline>
J2VwaWtfcHl0aG9uJywgJy1waCcsICc3LjAnLCAnLXRuJywgJzgnLCAnLW1hJywgJzIwMCcsICctbWV0YWxfYmluZGluZycsICctaW1hZScsICc8aW5maWxlLm1hZT4nLCAnLW9tYWUnLCAnPG91dGZpbGUubWFlPic=

> <r_lp_tautomer_probability>
1

> <r_epik_Ionization_Penalty>
0.0010902

> <r_epik_Ionization_Penalty_Charging>
0.00107091

> <r_epik_Ionization_Penalty_Neutral>
1.92854e-05

> <r_epik_State_Penalty>
0.000697184

> <r_epik_Charging_Adjusted_Penalty>
0.0017681

> <i_epik_Tot_Q>
1

> <i_epik_Tot_abs_Q>
1

> <r_epik_Metal_State_Penalty>
-0

> <b_epik_Metal_Only>
0

> <s_lp_Force_Field>
OPLS_2005

> <r_lp_Energy>
38.3811

> <b_lp_Chiralities_Consistent>
1

> <s_lp_Variant>
AV-unprocessed.smi:2812-4

> <Gold.Version>
5.8.1

> <Gold.Id.Protein>
6NUR|6NUR_protein|mol2

> <Gold.PLP.Fitness>
43.9633

> <Gold.PLP.PLP>
-36.1441

> <Gold.PLP.part.hbond>
-4.0000

> <Gold.PLP.part.metal>
0.0000

> <Gold.PLP.part.buried>
-4.2077

> <Gold.PLP.part.nonpolar>
-28.9433

> <Gold.PLP.part.repulsive>
0.2230

> <Gold.PLP.ligand.clash>
0.7702

> <Gold.PLP.ligand.torsion>
1.9057

> <Gold.PLP.Chemscore.Hbond>
3.8880

> <Gold.PLP.Chemscore.CHOScore>
0.0000

> <Gold.PLP.Chemscore.Metal>
0.0000

> <Gold.Chemscore.Hbonds>
donor molecule, donor type, donor heavy atom, donor atom, acceptor molecule, acceptor atom, score
      L1  H    10    33       P1  8028  0.99
      L1  H    13    34       P1  8028  0.93
      L1  H    20    55       P1 10175  2.00

> <Gold.PLP.Chemscore.Internal.Correction>
0.7369

> <Gold.Rescore>
     Score         DG    S(hbond)    S(metal)    S(lipo)     H(rot)  DE(clash)    DE(int)     intcor
     16.60     -18.44       2.13        0.00      83.11       1.52       0.04       1.80       ----

> <Gold.Chemscore.Fitness>
16.6015

> <Gold.Chemscore.DG>
-18.4403

> <Gold.Chemscore.ZeroCoef>
-5.4800

> <Gold.Chemscore.Hbond>
2.1309

> <Gold.Chemscore.Metal>
0.0000

> <Gold.Chemscore.Lipo>
83.1068

> <Gold.Chemscore.Internal_Hbond>
0.0000

> <Gold.Chemscore.DEClash>
0.0402

> <Gold.Chemscore.DEInternal>
1.7985

> <Gold.Chemscore.Rot>
1.5157

> <Gold.Chemscore.Internal.Correction>
   9.000000E+99

> <Gold.Chemscore.Hbonds>
donor molecule, donor type, donor heavy atom, donor atom, acceptor molecule, acceptor atom, score
      L1  H    10    33       P1  8028  0.93
      L1  H    13    34       P1  8028  0.25
      L1  H    20    55       P1 10175  0.95

> <Gold.Chemscore.Hbond.Weighted>
-7.1171

> <Gold.Chemscore.Metal.Weighted>
-0.0000

> <Gold.Chemscore.Lipo.Weighted>
-9.7235

> <Gold.Chemscore.Internal_Hbond.Weighted>
0.0000

> <Gold.Chemscore.DEClash.Weighted>
0.0402

> <Gold.Chemscore.DEInternal.Weighted>
1.7985

> <Gold.Chemscore.Rot.Weighted>
3.8803

> <Gold.Chemscore.Internal.Correction.Weighted>
   9.000000E+99

> <Gold.Protein.RotatedTorsions>
[ 6907 6896 6895 6894 ] final  -57.07 input  -60.11 | X-H torsion
[ 7974 7965 7964 7962 ] final   67.75 input  175.53 | X-H torsion
[ 8008 7997 7996 7995 ] final  151.60 input   59.86 | X-H torsion
[ 10167 10162 10161 10158 ] final -149.03 input  -65.29 | X-H torsion
[ 10718 10713 10712 10709 ] final   75.67 input   66.30 | X-H torsion
[ 10763 10752 10751 10750 ] final  150.62 input  -60.55 | X-H torsion
[ 11005 11000 10999 10996 ] final  -84.48 input  -57.11 | X-H torsion

> <Gold.Protein.ActiveResidues>
 VAL166  LYS551  ARG553  GLY616  TRP617  ASP618  TYR619  PRO620  LYS621  CYS622 
 ASP623  PHE694  ASN695  SER759  ASP760  ASP761  ALA762  ILE779  LEU786  VAL792 
 PHE793  MET794  SER795  GLU796  ALA797  LYS798  CYS799  TRP800  GLU811  SER814 

> <Gold.Protein.RotatedAtoms>
  150.8115  134.7273  159.6692 H   0  0  0  0  0  0  0  0  0  0  0  0  # atno 6907 bound_to 6896
  152.4235  134.5908  159.9983 H   0  0  0  0  0  0  0  0  0  0  0  0  # atno 6908 bound_to 6896
  151.6116  133.3309  159.3105 H   0  0  0  0  0  0  0  0  0  0  0  0  # atno 6909 bound_to 6896
  145.8109  139.3032  143.1100 H   0  0  0  0  0  0  0  0  0  0  0  0  # atno 7974 bound_to 7965
  156.2666  140.2043  156.6201 H   0  0  0  0  0  0  0  0  0  0  0  0  # atno 8008 bound_to 7997
  154.6763  140.0544  157.0243 H   0  0  0  0  0  0  0  0  0  0  0  0  # atno 8009 bound_to 7997
  155.1064  140.3211  155.4536 H   0  0  0  0  0  0  0  0  0  0  0  0  # atno 8010 bound_to 7997
  139.7479  143.8563  152.2579 H   0  0  0  0  0  0  0  0  0  0  0  0  # atno 10167 bound_to 10162
  157.6643  130.9737  150.1387 H   0  0  0  0  0  0  0  0  0  0  0  0  # atno 10718 bound_to 10713
  154.0904  135.2853  155.3272 H   0  0  0  0  0  0  0  0  0  0  0  0  # atno 10763 bound_to 10752
  154.6624  135.5330  153.8038 H   0  0  0  0  0  0  0  0  0  0  0  0  # atno 10764 bound_to 10752
  153.0415  135.6537  154.1073 H   0  0  0  0  0  0  0  0  0  0  0  0  # atno 10765 bound_to 10752
  141.1650  133.7348  156.8874 H   0  0  0  0  0  0  0  0  0  0  0  0  # atno 11005 bound_to 11000
  145.9778  140.8707  143.0129 LP  0  0  0  0  0  0  0  0  0  0  0  0  # atno 17320 bound_to 7965
  144.6757  140.2037  143.7384 LP  0  0  0  0  0  0  0  0  0  0  0  0  # atno 17321 bound_to 7965
  139.8533  144.7154  150.9188 LP  0  0  0  0  0  0  0  0  0  0  0  0  # atno 17342 bound_to 10162
  140.7794  143.3881  151.1359 LP  0  0  0  0  0  0  0  0  0  0  0  0  # atno 17343 bound_to 10162
  156.2215  130.3674  149.8550 LP  0  0  0  0  0  0  0  0  0  0  0  0  # atno 17370 bound_to 10713
  156.6402  130.8701  151.3512 LP  0  0  0  0  0  0  0  0  0  0  0  0  # atno 17371 bound_to 10713
  140.1673  134.9124  157.2789 LP  0  0  0  0  0  0  0  0  0  0  0  0  # atno 17394 bound_to 11000
  140.2543  134.3646  155.7430 LP  0  0  0  0  0  0  0  0  0  0  0  0  # atno 17395 bound_to 11000

$$$$
