AV-unprocessed.smi:3139|AV-procd|sdf|11957|dock5
  -GOLD-   2272017353D 1   1.00000     0.00000
 Structure written by MMmdl.
 33 33  0  0  0  0  0  0  0  0  2 V2000
  146.9200  135.9608  156.5532 C   0  0  0  0  0  0  0  0  0  0  0  0
  148.4158  135.6757  156.8046 C   0  0  1  0  0  0  0  0  0  0  0  0
  148.7240  135.3776  158.2788 C   0  0  0  0  0  0  0  0  0  0  0  0
  149.5832  136.0172  158.8869 O   0  0  0  0  0  0  0  0  0  0  0  0
  147.9753  134.4199  158.8462 N   0  0  0  0  0  0  0  0  0  0  0  0
  147.9295  134.0959  160.2709 C   0  0  0  0  0  0  0  0  0  0  0  0
  146.8729  134.9286  161.0543 C   0  0  0  0  0  0  0  0  0  0  0  0
  145.5643  134.9832  160.2396 C   0  0  0  0  0  0  0  0  0  0  0  0
  146.5815  134.2624  162.4217 C   0  0  0  0  0  0  0  0  0  0  0  0
  147.3774  136.3822  161.2578 C   0  0  0  0  0  0  0  0  0  0  0  0
  146.7465  137.3208  160.7214 O   0  0  0  0  0  0  0  0  0  0  0  0
  148.3987  136.5346  161.9650 O   0  5  0  0  0  0  0  0  0  0  0  0
  148.9398  134.5961  155.9725 N   0  0  0  0  0  0  0  0  0  0  0  0
  149.0072  134.5500  154.5940 C   0  0  0  0  0  0  0  0  0  0  0  0
  149.6327  133.3867  154.2496 C   0  0  0  0  0  0  0  0  0  0  0  0
  149.9330  132.7827  155.5014 C   0  0  0  0  0  0  0  0  0  0  0  0
  149.5267  133.5102  156.5286 N   0  0  0  0  0  0  0  0  0  0  0  0
  146.5802  136.8136  157.1417 H   0  0  0  0  0  0  0  0  0  0  0  0
  146.2884  135.1100  156.8129 H   0  0  0  0  0  0  0  0  0  0  0  0
  146.7415  136.1970  155.5038 H   0  0  0  0  0  0  0  0  0  0  0  0
  148.9633  136.5795  156.5317 H   0  0  0  0  0  0  0  0  0  0  0  0
  147.3000  133.9467  158.2630 H   0  0  0  0  0  0  0  0  0  0  0  0
  147.6969  133.0327  160.3473 H   0  0  0  0  0  0  0  0  0  0  0  0
  148.9138  134.2097  160.7281 H   0  0  0  0  0  0  0  0  0  0  0  0
  145.1514  133.9848  160.0931 H   0  0  0  0  0  0  0  0  0  0  0  0
  145.7193  135.4173  159.2507 H   0  0  0  0  0  0  0  0  0  0  0  0
  144.8034  135.5798  160.7448 H   0  0  0  0  0  0  0  0  0  0  0  0
  146.2653  133.2269  162.2935 H   0  0  0  0  0  0  0  0  0  0  0  0
  145.7841  134.7779  162.9587 H   0  0  0  0  0  0  0  0  0  0  0  0
  147.4593  134.2527  163.0695 H   0  0  0  0  0  0  0  0  0  0  0  0
  148.6169  135.3468  153.9779 H   0  0  0  0  0  0  0  0  0  0  0  0
  149.8537  133.0298  153.2548 H   0  0  0  0  0  0  0  0  0  0  0  0
  150.4370  131.8471  155.6931 H   0  0  0  0  0  0  0  0  0  0  0  0
  1  2  1  0  0  0  0
  1 18  1  0  0  0  0
  1 19  1  0  0  0  0
  1 20  1  0  0  0  0
  2  3  1  0  0  0  0
  2 13  1  0  0  0  0
  2 21  1  0  0  0  0
  3  4  2  0  0  0  0
  3  5  1  0  0  0  0
  5  6  1  0  0  0  0
  5 22  1  0  0  0  0
  6  7  1  0  0  0  0
  6 23  1  0  0  0  0
  6 24  1  0  0  0  0
  7  8  1  0  0  0  0
  7  9  1  0  0  0  0
  7 10  1  0  0  0  0
  8 25  1  0  0  0  0
  8 26  1  0  0  0  0
  8 27  1  0  0  0  0
  9 28  1  0  0  0  0
  9 29  1  0  0  0  0
  9 30  1  0  0  0  0
 10 11  2  0  0  0  0
 10 12  1  0  0  0  0
 13 17  1  0  0  0  0
 13 14  1  0  0  0  0
 14 15  2  0  0  0  0
 14 31  1  0  0  0  0
 15 16  1  0  0  0  0
 15 32  1  0  0  0  0
 16 17  2  0  0  0  0
 16 33  1  0  0  0  0
M  CHG  1  12  -1
M  END
> <s_m_source_file>
AV-unprocessed.smi

> <i_m_source_file_index>
3139

> <i_lp_mmshare_version>
43012

> <i_f3d_flags>
0

> <s_epik_input>
bjFbY0hdW2NIXVtjSF1uMVtDQEhdKFtDSDNdKUMoPU8pW05IXVtDSDJdQyhbQ0gzXSkoW0NIM10pQyg9TylbT0hd

> <s_epik_cmdline>
J2VwaWtfcHl0aG9uJywgJy1waCcsICc3LjAnLCAnLXRuJywgJzgnLCAnLW1hJywgJzIwMCcsICctbWV0YWxfYmluZGluZycsICctaW1hZScsICc8aW5maWxlLm1hZT4nLCAnLW9tYWUnLCAnPG91dGZpbGUubWFlPic=

> <r_lp_tautomer_probability>
1

> <r_epik_Ionization_Penalty>
0.00184643

> <r_epik_Ionization_Penalty_Charging>
0.00181045

> <r_epik_Ionization_Penalty_Neutral>
3.59763e-05

> <r_epik_State_Penalty>
0.00122842

> <r_epik_Charging_Adjusted_Penalty>
0.00303887

> <i_epik_Tot_Q>
-1

> <i_epik_Tot_abs_Q>
1

> <r_epik_Metal_State_Penalty>
-0

> <b_epik_Metal_Only>
0

> <s_lp_Force_Field>
OPLS_2005

> <r_lp_Energy>
4.69511

> <b_lp_Chiralities_Consistent>
1

> <s_lp_Variant>
AV-unprocessed.smi:3139-2

> <Gold.Version>
5.8.1

> <Gold.Id.Protein>
6NUR|6NUR_protein|mol2

> <Gold.PLP.Fitness>
38.3711

> <Gold.PLP.PLP>
-21.4748

> <Gold.PLP.part.hbond>
-3.0000

> <Gold.PLP.part.metal>
0.0000

> <Gold.PLP.part.buried>
-3.3917

> <Gold.PLP.part.nonpolar>
-15.3087

> <Gold.PLP.part.repulsive>
0.0741

> <Gold.PLP.ligand.clash>
0.0000

> <Gold.PLP.ligand.torsion>
0.6479

> <Gold.PLP.Chemscore.Hbond>
5.0000

> <Gold.PLP.Chemscore.CHOScore>
1.0000

> <Gold.PLP.Chemscore.Metal>
0.0000

> <Gold.Chemscore.Hbonds>
donor molecule, donor type, donor heavy atom, donor atom, acceptor molecule, acceptor atom, score
      P1  H  6896  6907       L1     4  1.00
      P1  H  6931  6943       L1    12  2.00
      P1  H  6934  6947       L1    11  2.00
      L1  C    14    31       P1  7948  1.00

> <Gold.PLP.Chemscore.Internal.Correction>
0.1921

> <Gold.Rescore>
     Score         DG    S(hbond)    S(metal)    S(lipo)     H(rot)  DE(clash)    DE(int)     intcor
     12.09     -13.83       2.89        0.00      39.62       2.32       0.00       1.73       ----

> <Gold.Chemscore.Fitness>
12.0933

> <Gold.Chemscore.DG>
-13.8263

> <Gold.Chemscore.ZeroCoef>
-5.4800

> <Gold.Chemscore.Hbond>
2.8923

> <Gold.Chemscore.Metal>
0.0000

> <Gold.Chemscore.Lipo>
39.6224

> <Gold.Chemscore.Internal_Hbond>
0.0000

> <Gold.Chemscore.DEClash>
0.0000

> <Gold.Chemscore.DEInternal>
1.7330

> <Gold.Chemscore.Rot>
2.3241

> <Gold.Chemscore.Internal.Correction>
   9.000000E+99

> <Gold.Chemscore.Hbonds>
donor molecule, donor type, donor heavy atom, donor atom, acceptor molecule, acceptor atom, score
      P1  H  6896  6907       L1     4  0.40
      P1  H  6931  6943       L1    12  0.85
      P1  H  6934  6947       L1    11  1.00

> <Gold.Chemscore.Hbond.Weighted>
-9.6603

> <Gold.Chemscore.Metal.Weighted>
-0.0000

> <Gold.Chemscore.Lipo.Weighted>
-4.6358

> <Gold.Chemscore.Internal_Hbond.Weighted>
0.0000

> <Gold.Chemscore.DEClash.Weighted>
0.0000

> <Gold.Chemscore.DEInternal.Weighted>
1.7330

> <Gold.Chemscore.Rot.Weighted>
5.9498

> <Gold.Chemscore.Internal.Correction.Weighted>
   9.000000E+99

> <Gold.Protein.RotatedTorsions>
[ 6907 6896 6895 6894 ] final  -64.90 input  -60.11 | X-H torsion
[ 7974 7965 7964 7962 ] final   38.65 input  175.53 | X-H torsion
[ 8008 7997 7996 7995 ] final -115.23 input   59.86 | X-H torsion
[ 10167 10162 10161 10158 ] final  -50.86 input  -65.29 | X-H torsion
[ 10718 10713 10712 10709 ] final  129.75 input   66.30 | X-H torsion
[ 10763 10752 10751 10750 ] final  170.31 input  -60.55 | X-H torsion
[ 11005 11000 10999 10996 ] final  167.06 input  -57.11 | X-H torsion

> <Gold.Protein.ActiveResidues>
 VAL166  LYS551  ARG553  GLY616  TRP617  ASP618  TYR619  PRO620  LYS621  CYS622 
 ASP623  PHE694  ASN695  SER759  ASP760  ASP761  ALA762  ILE779  LEU786  VAL792 
 PHE793  MET794  SER795  GLU796  ALA797  LYS798  CYS799  TRP800  GLU811  SER814 

> <Gold.Protein.RotatedAtoms>
  150.7557  134.6235  159.6148 H   0  0  0  0  0  0  0  0  0  0  0  0  # atno 6907 bound_to 6896
  152.3534  134.6971  160.0238 H   0  0  0  0  0  0  0  0  0  0  0  0  # atno 6908 bound_to 6896
  151.7384  133.3285  159.3395 H   0  0  0  0  0  0  0  0  0  0  0  0  # atno 6909 bound_to 6896
  146.1045  139.5746  142.9392 H   0  0  0  0  0  0  0  0  0  0  0  0  # atno 7974 bound_to 7965
  155.0487  140.0393  157.2536 H   0  0  0  0  0  0  0  0  0  0  0  0  # atno 8008 bound_to 7997
  154.7155  140.2701  155.6565 H   0  0  0  0  0  0  0  0  0  0  0  0  # atno 8009 bound_to 7997
  156.2802  140.2713  156.1810 H   0  0  0  0  0  0  0  0  0  0  0  0  # atno 8010 bound_to 7997
  140.6617  143.2641  151.4420 H   0  0  0  0  0  0  0  0  0  0  0  0  # atno 10167 bound_to 10162
  157.5125  131.1097  150.9272 H   0  0  0  0  0  0  0  0  0  0  0  0  # atno 10718 bound_to 10713
  154.3958  135.2754  155.2127 H   0  0  0  0  0  0  0  0  0  0  0  0  # atno 10763 bound_to 10752
  154.4174  135.6008  153.5992 H   0  0  0  0  0  0  0  0  0  0  0  0  # atno 10764 bound_to 10752
  152.9831  135.5964  154.4219 H   0  0  0  0  0  0  0  0  0  0  0  0  # atno 10765 bound_to 10752
  140.2728  134.7813  157.3690 H   0  0  0  0  0  0  0  0  0  0  0  0  # atno 11005 bound_to 11000
  145.5788  141.0385  143.2134 LP  0  0  0  0  0  0  0  0  0  0  0  0  # atno 17320 bound_to 7965
  144.7460  139.7320  143.7292 LP  0  0  0  0  0  0  0  0  0  0  0  0  # atno 17321 bound_to 7965
  139.5853  144.1619  152.2020 LP  0  0  0  0  0  0  0  0  0  0  0  0  # atno 17342 bound_to 10162
  140.0957  144.5583  150.7024 LP  0  0  0  0  0  0  0  0  0  0  0  0  # atno 17343 bound_to 10162
  156.9908  130.5562  149.5303 LP  0  0  0  0  0  0  0  0  0  0  0  0  # atno 17370 bound_to 10713
  156.0298  130.5390  150.8505 LP  0  0  0  0  0  0  0  0  0  0  0  0  # atno 17371 bound_to 10713
  140.1357  134.5038  155.8071 LP  0  0  0  0  0  0  0  0  0  0  0  0  # atno 17394 bound_to 11000
  141.2175  133.6806  156.7119 LP  0  0  0  0  0  0  0  0  0  0  0  0  # atno 17395 bound_to 11000

$$$$
