AV-unprocessed.smi:1154|AV-procd|sdf|4900|dock3
  -GOLD-   22720 3473D 1   1.00000     0.00000
 Structure written by MMmdl.
 42 43  0  0  0  0  0  0  0  0  2 V2000
  152.4073  145.1581  158.5383 C   0  0  0  0  0  0  0  0  0  0  0  0
  151.3477  144.4069  159.3635 C   0  0  2  0  0  0  0  0  0  0  0  0
  151.8591  143.9807  160.7521 C   0  0  0  0  0  0  0  0  0  0  0  0
  152.8303  142.7896  160.6609 C   0  0  1  0  0  0  0  0  0  0  0  0
  153.2822  142.3291  162.0542 C   0  0  0  0  0  0  0  0  0  0  0  0
  152.1881  141.6354  159.8673 C   0  0  0  0  0  0  0  0  0  0  0  0
  151.7502  142.0810  158.5193 N   0  3  1  0  0  0  0  0  0  0  0  0
  151.2804  140.9512  157.6780 C   0  0  0  0  0  0  0  0  0  0  0  0
  152.3797  139.9025  157.4422 C   0  0  0  0  0  0  0  0  0  0  0  0
  151.8410  138.7471  156.7387 N   0  0  0  0  0  0  0  0  0  0  0  0
  151.4151  138.7677  155.4662 C   0  0  0  0  0  0  0  0  0  0  0  0
  151.4139  139.7850  154.7740 O   0  0  0  0  0  0  0  0  0  0  0  0
  150.9049  137.4467  154.8838 C   0  0  0  0  0  0  0  0  0  0  0  0
  150.9076  136.3854  155.8747 N   0  0  0  0  0  0  0  0  0  0  0  0
  149.9120  135.6502  156.3739 C   0  0  0  0  0  0  0  0  0  0  0  0
  150.3469  134.7889  157.2805 N   0  0  0  0  0  0  0  0  0  0  0  0
  151.7103  135.0304  157.3156 N   0  0  0  0  0  0  0  0  0  0  0  0
  152.0492  135.9757  156.4826 N   0  0  0  0  0  0  0  0  0  0  0  0
  150.7688  143.1959  158.6054 C   0  0  0  0  0  0  0  0  0  0  0  0
  153.2606  144.5254  158.2944 H   0  0  0  0  0  0  0  0  0  0  0  0
  152.7827  146.0266  159.0804 H   0  0  0  0  0  0  0  0  0  0  0  0
  151.9870  145.5177  157.5986 H   0  0  0  0  0  0  0  0  0  0  0  0
  150.5305  145.1117  159.5235 H   0  0  0  0  0  0  0  0  0  0  0  0
  152.3363  144.8239  161.2532 H   0  0  0  0  0  0  0  0  0  0  0  0
  151.0066  143.7018  161.3733 H   0  0  0  0  0  0  0  0  0  0  0  0
  153.7228  143.1137  160.1243 H   0  0  0  0  0  0  0  0  0  0  0  0
  152.4383  141.9839  162.6525 H   0  0  0  0  0  0  0  0  0  0  0  0
  153.7654  143.1412  162.5982 H   0  0  0  0  0  0  0  0  0  0  0  0
  153.9976  141.5093  161.9845 H   0  0  0  0  0  0  0  0  0  0  0  0
  152.9142  140.8275  159.7655 H   0  0  0  0  0  0  0  0  0  0  0  0
  151.3338  141.2270  160.4102 H   0  0  0  0  0  0  0  0  0  0  0  0
  150.4462  140.4546  158.1763 H   0  0  0  0  0  0  0  0  0  0  0  0
  150.8921  141.3303  156.7313 H   0  0  0  0  0  0  0  0  0  0  0  0
  153.1986  140.3121  156.8508 H   0  0  0  0  0  0  0  0  0  0  0  0
  152.7987  139.5858  158.3990 H   0  0  0  0  0  0  0  0  0  0  0  0
  151.8030  137.8730  157.2431 H   0  0  0  0  0  0  0  0  0  0  0  0
  149.8896  137.5801  154.5086 H   0  0  0  0  0  0  0  0  0  0  0  0
  151.5245  137.1422  154.0388 H   0  0  0  0  0  0  0  0  0  0  0  0
  148.8771  135.7504  156.0815 H   0  0  0  0  0  0  0  0  0  0  0  0
  149.8706  142.8394  159.1123 H   0  0  0  0  0  0  0  0  0  0  0  0
  150.4554  143.5127  157.6113 H   0  0  0  0  0  0  0  0  0  0  0  0
  152.5748  142.4487  158.0661 H   0  0  0  0  0  0  0  0  0  0  0  0
  1  2  1  0  0  0  0
  1 20  1  0  0  0  0
  1 21  1  0  0  0  0
  1 22  1  0  0  0  0
  2 19  1  0  0  0  0
  2  3  1  0  0  0  0
  2 23  1  0  0  0  0
  3  4  1  0  0  0  0
  3 24  1  0  0  0  0
  3 25  1  0  0  0  0
  4  5  1  0  0  0  0
  4  6  1  0  0  0  0
  4 26  1  0  0  0  0
  5 27  1  0  0  0  0
  5 28  1  0  0  0  0
  5 29  1  0  0  0  0
  6  7  1  0  0  0  0
  6 30  1  0  0  0  0
  6 31  1  0  0  0  0
  7  8  1  0  0  0  0
  7 19  1  0  0  0  0
  7 42  1  0  0  0  0
  8  9  1  0  0  0  0
  8 32  1  0  0  0  0
  8 33  1  0  0  0  0
  9 10  1  0  0  0  0
  9 34  1  0  0  0  0
  9 35  1  0  0  0  0
 10 11  1  0  0  0  0
 10 36  1  0  0  0  0
 11 12  2  0  0  0  0
 11 13  1  0  0  0  0
 13 14  1  0  0  0  0
 13 37  1  0  0  0  0
 13 38  1  0  0  0  0
 14 18  1  0  0  0  0
 14 15  1  0  0  0  0
 15 16  2  0  0  0  0
 15 39  1  0  0  0  0
 16 17  1  0  0  0  0
 17 18  2  0  0  0  0
 19 40  1  0  0  0  0
 19 41  1  0  0  0  0
M  CHG  1   7   1
M  END
> <s_m_source_file>
AV-unprocessed.smi

> <i_m_source_file_index>
1154

> <i_lp_mmshare_version>
43012

> <i_f3d_flags>
0

> <s_epik_input>
W0NIM11bQ0BASF0xW0NIMl1bQ0BASF0oW0NIM10pW0NIMl1OKFtDSDJdMSlbQ0gyXVtDSDJdW05IXUMoPU8pW0NIMl1uMltjSF1ubm4y

> <s_epik_cmdline>
J2VwaWtfcHl0aG9uJywgJy1waCcsICc3LjAnLCAnLXRuJywgJzgnLCAnLW1hJywgJzIwMCcsICctbWV0YWxfYmluZGluZycsICctaW1hZScsICc8aW5maWxlLm1hZT4nLCAnLW9tYWUnLCAnPG91dGZpbGUubWFlPic=

> <r_lp_tautomer_probability>
1

> <r_epik_Ionization_Penalty>
0.00217773

> <r_epik_Ionization_Penalty_Charging>
0.00217329

> <r_epik_Ionization_Penalty_Neutral>
4.43997e-06

> <r_epik_State_Penalty>
0.00149294

> <r_epik_Charging_Adjusted_Penalty>
0.00366623

> <i_epik_Tot_Q>
1

> <i_epik_Tot_abs_Q>
1

> <r_epik_Metal_State_Penalty>
-0

> <b_epik_Metal_Only>
0

> <s_lp_Force_Field>
OPLS_2005

> <r_lp_Energy>
22.5946

> <b_lp_Chiralities_Consistent>
1

> <s_lp_Variant>
AV-unprocessed.smi:1154-1

> <Gold.Version>
5.8.1

> <Gold.Id.Protein>
6NUR|6NUR_protein|mol2

> <Gold.PLP.Fitness>
45.4791

> <Gold.PLP.PLP>
-39.5796

> <Gold.PLP.part.hbond>
-3.8658

> <Gold.PLP.part.metal>
0.0000

> <Gold.PLP.part.buried>
-5.6136

> <Gold.PLP.part.nonpolar>
-30.0564

> <Gold.PLP.part.repulsive>
0.2427

> <Gold.PLP.ligand.clash>
0.0000

> <Gold.PLP.ligand.torsion>
0.0691

> <Gold.PLP.Chemscore.Hbond>
2.0000

> <Gold.PLP.Chemscore.CHOScore>
0.0000

> <Gold.PLP.Chemscore.Metal>
0.0000

> <Gold.Chemscore.Hbonds>
donor molecule, donor type, donor heavy atom, donor atom, acceptor molecule, acceptor atom, score
      P1  H  7989  7998       L1    12  1.00
      P1  H 10752 10765       L1    18  1.00

> <Gold.PLP.Chemscore.Internal.Correction>
0.0376

> <Gold.Rescore>
     Score         DG    S(hbond)    S(metal)    S(lipo)     H(rot)  DE(clash)    DE(int)     intcor
     16.06     -16.68       1.99        0.00      97.37       2.67       0.14       0.48       ----

> <Gold.Chemscore.Fitness>
16.0627

> <Gold.Chemscore.DG>
-16.6836

> <Gold.Chemscore.ZeroCoef>
-5.4800

> <Gold.Chemscore.Hbond>
1.9882

> <Gold.Chemscore.Metal>
0.0000

> <Gold.Chemscore.Lipo>
97.3650

> <Gold.Chemscore.Internal_Hbond>
0.0000

> <Gold.Chemscore.DEClash>
0.1440

> <Gold.Chemscore.DEInternal>
0.4769

> <Gold.Chemscore.Rot>
2.6674

> <Gold.Chemscore.Internal.Correction>
   9.000000E+99

> <Gold.Chemscore.Hbonds>
donor molecule, donor type, donor heavy atom, donor atom, acceptor molecule, acceptor atom, score
      P1  H  7989  7998       L1    12  1.00
      P1  H 10752 10765       L1    18  0.62

> <Gold.Chemscore.Hbond.Weighted>
-6.6405

> <Gold.Chemscore.Metal.Weighted>
-0.0000

> <Gold.Chemscore.Lipo.Weighted>
-11.3917

> <Gold.Chemscore.Internal_Hbond.Weighted>
0.0000

> <Gold.Chemscore.DEClash.Weighted>
0.1440

> <Gold.Chemscore.DEInternal.Weighted>
0.4769

> <Gold.Chemscore.Rot.Weighted>
6.8286

> <Gold.Chemscore.Internal.Correction.Weighted>
   9.000000E+99

> <Gold.Protein.RotatedTorsions>
[ 6907 6896 6895 6894 ] final  -38.83 input  -60.11 | X-H torsion
[ 7974 7965 7964 7962 ] final   47.76 input  175.53 | X-H torsion
[ 8008 7997 7996 7995 ] final   91.04 input   59.86 | X-H torsion
[ 10167 10162 10161 10158 ] final   12.30 input  -65.29 | X-H torsion
[ 10718 10713 10712 10709 ] final  115.32 input   66.30 | X-H torsion
[ 10763 10752 10751 10750 ] final -138.52 input  -60.55 | X-H torsion
[ 11005 11000 10999 10996 ] final  -80.29 input  -57.11 | X-H torsion

> <Gold.Protein.ActiveResidues>
 VAL166  LYS551  ARG553  GLY616  TRP617  ASP618  TYR619  PRO620  LYS621  CYS622 
 ASP623  PHE694  ASN695  SER759  ASP760  ASP761  ALA762  ILE779  LEU786  VAL792 
 PHE793  MET794  SER795  GLU796  ALA797  LYS798  CYS799  TRP800  GLU811  SER814 

> <Gold.Protein.RotatedAtoms>
  150.9976  134.9296  159.7935 H   0  0  0  0  0  0  0  0  0  0  0  0  # atno 6907 bound_to 6896
  152.5269  134.3197  159.9154 H   0  0  0  0  0  0  0  0  0  0  0  0  # atno 6908 bound_to 6896
  151.3203  133.4001  159.2688 H   0  0  0  0  0  0  0  0  0  0  0  0  # atno 6909 bound_to 6896
  146.0268  139.4715  142.9863 H   0  0  0  0  0  0  0  0  0  0  0  0  # atno 7974 bound_to 7965
  156.0190  140.3342  155.7019 H   0  0  0  0  0  0  0  0  0  0  0  0  # atno 8008 bound_to 7997
  155.6049  140.0659  157.2740 H   0  0  0  0  0  0  0  0  0  0  0  0  # atno 8009 bound_to 7997
  154.4309  140.1804  156.1199 H   0  0  0  0  0  0  0  0  0  0  0  0  # atno 8010 bound_to 7997
  140.6077  143.8474  150.7031 H   0  0  0  0  0  0  0  0  0  0  0  0  # atno 10167 bound_to 10162
  157.6229  131.1011  150.7312 H   0  0  0  0  0  0  0  0  0  0  0  0  # atno 10718 bound_to 10713
  154.8634  135.3609  154.5399 H   0  0  0  0  0  0  0  0  0  0  0  0  # atno 10763 bound_to 10752
  153.6021  135.7012  153.5385 H   0  0  0  0  0  0  0  0  0  0  0  0  # atno 10764 bound_to 10752
  153.3282  135.4132  155.1434 H   0  0  0  0  0  0  0  0  0  0  0  0  # atno 10765 bound_to 10752
  141.1668  133.7143  156.8250 H   0  0  0  0  0  0  0  0  0  0  0  0  # atno 11005 bound_to 11000
  145.7106  141.0107  143.1455 LP  0  0  0  0  0  0  0  0  0  0  0  0  # atno 17320 bound_to 7965
  144.7013  139.8752  143.7443 LP  0  0  0  0  0  0  0  0  0  0  0  0  # atno 17321 bound_to 7965
  140.2035  143.3940  152.1773 LP  0  0  0  0  0  0  0  0  0  0  0  0  # atno 17342 bound_to 10162
  139.5337  144.7187  151.4967 LP  0  0  0  0  0  0  0  0  0  0  0  0  # atno 17343 bound_to 10162
  156.7666  130.4815  149.5426 LP  0  0  0  0  0  0  0  0  0  0  0  0  # atno 17370 bound_to 10713
  156.1384  130.6228  151.0433 LP  0  0  0  0  0  0  0  0  0  0  0  0  # atno 17371 bound_to 10713
  140.2092  134.8840  157.3255 LP  0  0  0  0  0  0  0  0  0  0  0  0  # atno 17394 bound_to 11000
  140.2105  134.4144  155.7615 LP  0  0  0  0  0  0  0  0  0  0  0  0  # atno 17395 bound_to 11000

$$$$
