#       Name:                AV-unprocessed.smi:303
#       Creating user name   scv26
#       Creation time:       Thu Mar 26 22:16:49 2020


#       File generated by GOLD software.
#

@<TRIPOS>MOLECULE
AV-unprocessed.smi:303
    48    49     1
SMALL
NO_CHARGES


@<TRIPOS>ATOM
      1 ****        -2.7188  -3.0724   2.1258 C.3            1 S1                 0.0000
      2 ****        -2.7554  -2.5956   0.6689 C.3            1 S1                 0.0000
      3 ****        -4.0632  -1.3181   0.3918 S.o2           1 S1                 0.0000
      4 ****        -4.5686  -1.4684  -0.9815 O.2            1 S1                 0.0000
      5 ****        -5.0038  -1.3473   1.5229 O.2            1 S1                 0.0000
      6 ****        -3.2033   0.1947   0.4653 N.pl3          1 S1                 0.0000
      7 ****        -2.7123   0.6980   1.7623 C.3            1 S1                 0.0000
      8 ****        -1.1996   0.4634   1.9190 C.3            1 S1                 0.0000
      9 ****        -0.4155   1.0768   0.7450 C.3            1 S1                 0.0000
     10 ****         1.0897   0.8180   0.8815 C.2            1 S1                 0.0000
     11 ****         1.5133  -0.3335   0.9886 O.2            1 S1                 0.0000
     12 ****         1.8865   1.8983   0.8510 N.am           1 S1                 0.0000
     13 ****         3.3473   1.8772   0.8691 C.3            1 S1                 0.0000
     14 ****         3.9480   1.9915  -0.5461 C.3            1 S1                 0.0000
     15 ****         3.5183   0.8747  -1.4824 C.ar           1 S1                 0.0000
     16 ****         2.5070   1.0875  -2.4444 C.ar           1 S1                 0.0000
     17 ****         2.1177   0.0068  -3.2587 C.ar           1 S1                 0.0000
     18 ****         2.7547  -1.2369  -3.0851 C.ar           1 S1                 0.0000
     19 ****         3.7582  -1.3443  -2.1015 C.ar           1 S1                 0.0000
     20 ****         4.1374  -0.3152  -1.3138 N.ar           1 S1                 0.0000
     21 ****        -0.9489   0.4943  -0.5765 C.3            1 S1                 0.0000
     22 ****        -2.4676   0.6997  -0.7129 C.3            1 S1                 0.0000
     23 ****        -1.9255  -3.8051   2.2732 H              1 S1                 0.0000
     24 ****        -3.6603  -3.5430   2.4099 H              1 S1                 0.0000
     25 ****        -2.5390  -2.2448   2.8112 H              1 S1                 0.0000
     26 ****        -1.7923  -2.2041   0.3519 H              1 S1                 0.0000
     27 ****        -2.9834  -3.4424   0.0218 H              1 S1                 0.0000
     28 ****        -2.9262   1.7657   1.8222 H              1 S1                 0.0000
     29 ****        -3.2570   0.2280   2.5808 H              1 S1                 0.0000
     30 ****        -0.8632   0.8989   2.8607 H              1 S1                 0.0000
     31 ****        -0.9992  -0.6055   1.9905 H              1 S1                 0.0000
     32 ****        -0.5866   2.1549   0.7428 H              1 S1                 0.0000
     33 ****         1.4481   2.8039   0.7660 H              1 S1                 0.0000
     34 ****         3.6889   2.7148   1.4774 H              1 S1                 0.0000
     35 ****         3.7159   0.9758   1.3614 H              1 S1                 0.0000
     36 ****         3.6708   2.9507  -0.9854 H              1 S1                 0.0000
     37 ****         5.0369   1.9953  -0.4812 H              1 S1                 0.0000
     38 ****         2.0292   2.0507  -2.5466 H              1 S1                 0.0000
     39 ****         1.3421   0.1288  -4.0002 H              1 S1                 0.0000
     40 ****         2.4818  -2.0882  -3.6910 H              1 S1                 0.0000
     41 ****         4.2687  -2.2824  -1.9417 H              1 S1                 0.0000
     42 ****        -0.4487   0.9729  -1.4194 H              1 S1                 0.0000
     43 ****        -0.7089  -0.5655  -0.6541 H              1 S1                 0.0000
     44 ****        -2.8321   0.2278  -1.6245 H              1 S1                 0.0000
     45 ****        -2.6797   1.7644  -0.8156 H              1 S1                 0.0000
     46 ****         0.8750  -1.1033   0.9868 LP             1 S1                 0.0000
     47 ****         2.4955  -0.4987   1.0775 LP             1 S1                 0.0000
     48 ****         4.8546  -0.4298  -0.6264 LP             1 S1                 0.0000
@<TRIPOS>BOND
    1    1    2 1     
    2    1   23 1     
    3    1   24 1     
    4    1   25 1     
    5    2    3 1     
    6    2   26 1     
    7    2   27 1     
    8    3    4 2     
    9    3    5 2     
   10    3    6 1     
   11    6   22 1     
   12    6    7 1     
   13    7    8 1     
   14    7   28 1     
   15    7   29 1     
   16    8    9 1     
   17    8   30 1     
   18    8   31 1     
   19    9   10 1     
   20    9   21 1     
   21    9   32 1     
   22   10   11 2     
   23   10   12 am    
   24   12   13 1     
   25   12   33 1     
   26   13   14 1     
   27   13   34 1     
   28   13   35 1     
   29   14   15 1     
   30   14   36 1     
   31   14   37 1     
   32   15   20 ar    
   33   15   16 ar    
   34   16   17 ar    
   35   16   38 1     
   36   17   18 ar    
   37   17   39 1     
   38   18   19 ar    
   39   18   40 1     
   40   19   20 ar    
   41   19   41 1     
   42   21   22 1     
   43   21   42 1     
   44   21   43 1     
   45   22   44 1     
   46   22   45 1     
   47   11   46 1     
   48   11   47 1     
   49   20   48 1     
@<TRIPOS>SUBSTRUCTURE
      1 S1             1
@<TRIPOS>SET
LONE_PAIRS      STATIC     ATOMS    <user>   **** ""
5 4 5 46 47 48
DONOR_HYDROGENS      STATIC     ATOMS    <user>   **** ""
1 33
ATOM$BLUE        STATIC     ATOMS    COLORGROUP SYSTEM
5 4 5 46 47 48
ATOM$RED        STATIC     ATOMS    COLORGROUP SYSTEM
1 33
