AV-unprocessed.smi:2451|AV-procd|sdf|9673|dock3
  -GOLD-   2272013313D 1   1.00000     0.00000
 Structure written by MMmdl.
 38 39  0  0  0  0  0  0  0  0  1 V2000
  153.0740  143.7827  159.0038 C   0  0  0  0  0  0  0  0  0  0  0  0
  152.2317  142.7089  159.7235 C   0  0  2  0  0  0  0  0  0  0  0  0
  153.1066  141.8176  160.6278 C   0  0  0  0  0  0  0  0  0  0  0  0
  153.9841  140.8528  159.8153 C   0  0  0  0  0  0  0  0  0  0  0  0
  153.1289  139.9845  158.8830 C   0  0  0  0  0  0  0  0  0  0  0  0
  152.2286  140.8356  157.9670 C   0  0  1  0  0  0  0  0  0  0  0  0
  151.3674  139.9366  157.1925 N   0  0  0  0  0  0  0  0  0  0  0  0
  152.0758  138.9782  155.9463 S   0  0  0  0  0  0  0  0  0  0  0  0
  152.7636  139.8907  155.0194 O   0  0  0  0  0  0  0  0  0  0  0  0
  152.8231  137.8904  156.5954 O   0  0  0  0  0  0  0  0  0  0  0  0
  150.6000  138.2783  155.0946 C   0  0  0  0  0  0  0  0  0  0  0  0
  149.7712  139.3936  154.5250 C   0  0  0  0  0  0  0  0  0  0  0  0
  148.4363  139.3415  154.0361 C   0  0  0  0  0  0  0  0  0  0  0  0
  148.1904  140.6256  153.6436 C   0  0  0  0  0  0  0  0  0  0  0  0
  149.2783  141.4062  153.8647 O   0  0  0  0  0  0  0  0  0  0  0  0
  150.2831  140.6102  154.4264 N   0  0  0  0  0  0  0  0  0  0  0  0
  151.3648  141.8375  158.7744 C   0  0  2  0  0  0  0  0  0  0  0  0
  150.4534  142.6940  157.8727 C   0  0  0  0  0  0  0  0  0  0  0  0
  153.7451  143.3511  158.2619 H   0  0  0  0  0  0  0  0  0  0  0  0
  153.6863  144.3371  159.7155 H   0  0  0  0  0  0  0  0  0  0  0  0
  152.4446  144.5124  158.4951 H   0  0  0  0  0  0  0  0  0  0  0  0
  151.5495  143.2494  160.3813 H   0  0  0  0  0  0  0  0  0  0  0  0
  153.7307  142.4340  161.2758 H   0  0  0  0  0  0  0  0  0  0  0  0
  152.4633  141.2390  161.2921 H   0  0  0  0  0  0  0  0  0  0  0  0
  154.7167  141.4113  159.2321 H   0  0  0  0  0  0  0  0  0  0  0  0
  154.5551  140.2159  160.4913 H   0  0  0  0  0  0  0  0  0  0  0  0
  153.7757  139.3439  158.2821 H   0  0  0  0  0  0  0  0  0  0  0  0
  152.5122  139.3174  159.4875 H   0  0  0  0  0  0  0  0  0  0  0  0
  152.8640  141.3934  157.2781 H   0  0  0  0  0  0  0  0  0  0  0  0
  150.7749  139.3744  157.8029 H   0  0  0  0  0  0  0  0  0  0  0  0
  150.9408  137.5930  154.3181 H   0  0  0  0  0  0  0  0  0  0  0  0
  150.0273  137.7015  155.8207 H   0  0  0  0  0  0  0  0  0  0  0  0
  147.7653  138.4969  153.9862 H   0  0  0  0  0  0  0  0  0  0  0  0
  147.3329  141.1177  153.2090 H   0  0  0  0  0  0  0  0  0  0  0  0
  150.7036  141.2494  159.4133 H   0  0  0  0  0  0  0  0  0  0  0  0
  151.0253  143.2291  157.1145 H   0  0  0  0  0  0  0  0  0  0  0  0
  149.8997  143.4287  158.4574 H   0  0  0  0  0  0  0  0  0  0  0  0
  149.7199  142.0798  157.3500 H   0  0  0  0  0  0  0  0  0  0  0  0
  1  2  1  0  0  0  0
  1 19  1  0  0  0  0
  1 20  1  0  0  0  0
  1 21  1  0  0  0  0
  2 17  1  0  0  0  0
  2  3  1  0  0  0  0
  2 22  1  0  0  0  0
  3  4  1  0  0  0  0
  3 23  1  0  0  0  0
  3 24  1  0  0  0  0
  4  5  1  0  0  0  0
  4 25  1  0  0  0  0
  4 26  1  0  0  0  0
  5  6  1  0  0  0  0
  5 27  1  0  0  0  0
  5 28  1  0  0  0  0
  6  7  1  0  0  0  0
  6 17  1  0  0  0  0
  6 29  1  0  0  0  0
  7  8  1  0  0  0  0
  7 30  1  0  0  0  0
  8  9  2  0  0  0  0
  8 10  2  0  0  0  0
  8 11  1  0  0  0  0
 11 12  1  0  0  0  0
 11 31  1  0  0  0  0
 11 32  1  0  0  0  0
 12 16  2  0  0  0  0
 12 13  1  0  0  0  0
 13 14  2  0  0  0  0
 13 33  1  0  0  0  0
 14 15  1  0  0  0  0
 14 34  1  0  0  0  0
 15 16  1  0  0  0  0
 17 18  1  0  0  0  0
 17 35  1  0  0  0  0
 18 36  1  0  0  0  0
 18 37  1  0  0  0  0
 18 38  1  0  0  0  0
M  END
> <s_m_source_file>
AV-unprocessed.smi

> <i_m_source_file_index>
2451

> <i_lp_mmshare_version>
43012

> <i_f3d_flags>
0

> <s_epik_input>
W0NIM11bQ0BASF0xW0NIMl1bQ0gyXVtDSDJdW0NASF0oW0NASF0xW0NIM10pW05IXVMoPU8pKD1PKVtDSDJdYzJbY0hdW2NIXW9uMg==

> <s_epik_cmdline>
J2VwaWtfcHl0aG9uJywgJy1waCcsICc3LjAnLCAnLXRuJywgJzgnLCAnLW1hJywgJzIwMCcsICctbWV0YWxfYmluZGluZycsICctaW1hZScsICc8aW5maWxlLm1hZT4nLCAnLW9tYWUnLCAnPG91dGZpbGUubWFlPic=

> <r_lp_tautomer_probability>
1

> <r_epik_Ionization_Penalty>
8.73668e-05

> <r_epik_Ionization_Penalty_Charging>
0

> <r_epik_Ionization_Penalty_Neutral>
8.73668e-05

> <r_epik_State_Penalty>
-0

> <r_epik_Charging_Adjusted_Penalty>
0

> <i_epik_Tot_Q>
0

> <i_epik_Tot_abs_Q>
0

> <r_epik_Metal_State_Penalty>
0.0716439

> <b_epik_Metal_Only>
0

> <s_lp_Force_Field>
OPLS_2005

> <r_lp_Energy>
8.38809

> <b_lp_Chiralities_Consistent>
1

> <s_lp_Variant>
AV-unprocessed.smi:2451-5

> <Gold.Version>
5.8.1

> <Gold.Id.Protein>
6NUR|6NUR_protein|mol2

> <Gold.PLP.Fitness>
43.7254

> <Gold.PLP.PLP>
-36.5543

> <Gold.PLP.part.hbond>
-5.0000

> <Gold.PLP.part.metal>
0.0000

> <Gold.PLP.part.buried>
-2.2432

> <Gold.PLP.part.nonpolar>
-29.5333

> <Gold.PLP.part.repulsive>
0.5881

> <Gold.PLP.ligand.clash>
0.0000

> <Gold.PLP.ligand.torsion>
0.4304

> <Gold.PLP.Chemscore.Hbond>
2.6320

> <Gold.PLP.Chemscore.CHOScore>
0.0000

> <Gold.PLP.Chemscore.Metal>
0.0000

> <Gold.Chemscore.Hbonds>
donor molecule, donor type, donor heavy atom, donor atom, acceptor molecule, acceptor atom, score
      P1  H  7989  7998       L1    16  0.86
      P1  H  7997  8008       L1     9  1.00
      P1  H  8011  8017       L1    15  0.77

> <Gold.PLP.Chemscore.Internal.Correction>
0.1359

> <Gold.Rescore>
     Score         DG    S(hbond)    S(metal)    S(lipo)     H(rot)  DE(clash)    DE(int)     intcor
     15.54     -18.52       1.73        0.00      98.43       1.66       0.12       2.87       ----

> <Gold.Chemscore.Fitness>
15.5362

> <Gold.Chemscore.DG>
-18.5199

> <Gold.Chemscore.ZeroCoef>
-5.4800

> <Gold.Chemscore.Hbond>
1.7274

> <Gold.Chemscore.Metal>
0.0000

> <Gold.Chemscore.Lipo>
98.4346

> <Gold.Chemscore.Internal_Hbond>
0.0000

> <Gold.Chemscore.DEClash>
0.1180

> <Gold.Chemscore.DEInternal>
2.8657

> <Gold.Chemscore.Rot>
1.6588

> <Gold.Chemscore.Internal.Correction>
   9.000000E+99

> <Gold.Chemscore.Hbonds>
donor molecule, donor type, donor heavy atom, donor atom, acceptor molecule, acceptor atom, score
      P1  H  7989  7998       L1    16  0.42
      P1  H  7997  8008       L1     9  0.35
      P1  H  8011  8017       L1    15  0.60

> <Gold.Chemscore.Hbond.Weighted>
-5.7697

> <Gold.Chemscore.Metal.Weighted>
-0.0000

> <Gold.Chemscore.Lipo.Weighted>
-11.5168

> <Gold.Chemscore.Internal_Hbond.Weighted>
0.0000

> <Gold.Chemscore.DEClash.Weighted>
0.1180

> <Gold.Chemscore.DEInternal.Weighted>
2.8657

> <Gold.Chemscore.Rot.Weighted>
4.2466

> <Gold.Chemscore.Internal.Correction.Weighted>
   9.000000E+99

> <Gold.Protein.RotatedTorsions>
[ 6907 6896 6895 6894 ] final    3.43 input  -60.11 | X-H torsion
[ 7974 7965 7964 7962 ] final  138.00 input  175.53 | X-H torsion
[ 8008 7997 7996 7995 ] final  -18.77 input   59.86 | X-H torsion
[ 10167 10162 10161 10158 ] final -132.95 input  -65.29 | X-H torsion
[ 10718 10713 10712 10709 ] final -111.87 input   66.30 | X-H torsion
[ 10763 10752 10751 10750 ] final   63.92 input  -60.55 | X-H torsion
[ 11005 11000 10999 10996 ] final -157.48 input  -57.11 | X-H torsion

> <Gold.Protein.ActiveResidues>
 VAL166  LYS551  ARG553  GLY616  TRP617  ASP618  TYR619  PRO620  LYS621  CYS622 
 ASP623  PHE694  ASN695  SER759  ASP760  ASP761  ALA762  ILE779  LEU786  VAL792 
 PHE793  MET794  SER795  GLU796  ALA797  LYS798  CYS799  TRP800  GLU811  SER814 

> <Gold.Protein.RotatedAtoms>
  151.6250  135.1028  160.0109 H   0  0  0  0  0  0  0  0  0  0  0  0  # atno 6907 bound_to 6896
  152.4137  133.7000  159.6429 H   0  0  0  0  0  0  0  0  0  0  0  0  # atno 6908 bound_to 6896
  150.8026  133.8495  159.3242 H   0  0  0  0  0  0  0  0  0  0  0  0  # atno 6909 bound_to 6896
  144.9414  139.4926  143.5570 H   0  0  0  0  0  0  0  0  0  0  0  0  # atno 7974 bound_to 7965
  154.4883  140.2107  155.9606 H   0  0  0  0  0  0  0  0  0  0  0  0  # atno 8008 bound_to 7997
  156.1268  140.3204  155.8258 H   0  0  0  0  0  0  0  0  0  0  0  0  # atno 8009 bound_to 7997
  155.4369  140.0507  157.3004 H   0  0  0  0  0  0  0  0  0  0  0  0  # atno 8010 bound_to 7997
  139.9032  143.6582  152.2590 H   0  0  0  0  0  0  0  0  0  0  0  0  # atno 10167 bound_to 10162
  156.0672  130.5890  150.8432 H   0  0  0  0  0  0  0  0  0  0  0  0  # atno 10718 bound_to 10713
  153.0036  135.5411  154.6429 H   0  0  0  0  0  0  0  0  0  0  0  0  # atno 10763 bound_to 10752
  154.5679  135.2839  155.0858 H   0  0  0  0  0  0  0  0  0  0  0  0  # atno 10764 bound_to 10752
  154.2035  135.6480  153.5146 H   0  0  0  0  0  0  0  0  0  0  0  0  # atno 10765 bound_to 10752
  140.6642  134.4317  157.5233 H   0  0  0  0  0  0  0  0  0  0  0  0  # atno 11005 bound_to 11000
  146.3287  139.8436  142.8886 LP  0  0  0  0  0  0  0  0  0  0  0  0  # atno 17320 bound_to 7965
  145.2985  141.0187  143.3622 LP  0  0  0  0  0  0  0  0  0  0  0  0  # atno 17321 bound_to 7965
  139.7007  144.7635  151.1279 LP  0  0  0  0  0  0  0  0  0  0  0  0  # atno 17342 bound_to 10162
  140.7702  143.5462  150.9256 LP  0  0  0  0  0  0  0  0  0  0  0  0  # atno 17343 bound_to 10162
  157.5722  131.0946  150.9401 LP  0  0  0  0  0  0  0  0  0  0  0  0  # atno 17370 bound_to 10713
  156.9615  130.5457  149.5286 LP  0  0  0  0  0  0  0  0  0  0  0  0  # atno 17371 bound_to 10713
  139.9003  134.8572  156.1926 LP  0  0  0  0  0  0  0  0  0  0  0  0  # atno 17394 bound_to 11000
  141.0442  133.6922  156.1653 LP  0  0  0  0  0  0  0  0  0  0  0  0  # atno 17395 bound_to 11000

$$$$
