#       Name:                AV-unprocessed.smi:2471
#       Creating user name   scv26
#       Creation time:       Fri Mar 27 13:37:49 2020


#       File generated by GOLD software.
#

@<TRIPOS>MOLECULE
AV-unprocessed.smi:2471
    45    46     1
SMALL
NO_CHARGES


@<TRIPOS>ATOM
      1 ****        -3.5748   4.4641   0.3936 C.3            1 S1                 0.0000
      2 ****        -3.8420   3.0261   0.7852 C.ar           1 S1                 0.0000
      3 ****        -5.1526   2.5748   1.0370 C.ar           1 S1                 0.0000
      4 ****        -5.3324   1.2257   1.3908 C.ar           1 S1                 0.0000
      5 ****        -4.2024   0.3897   1.4787 C.ar           1 S1                 0.0000
      6 ****        -2.9209   0.9226   1.2133 C.ar           1 S1                 0.0000
      7 ****        -1.8490  -0.0013   1.3325 N.am           1 S1                 0.0000
      8 ****        -0.5329   0.2259   1.1753 C.2            1 S1                 0.0000
      9 ****        -0.0242   1.3132   0.9005 O.2            1 S1                 0.0000
     10 ****         0.1772  -0.8966   1.3587 N.am           1 S1                 0.0000
     11 ****         1.6310  -0.9946   1.2671 C.3            1 S1                 0.0000
     12 ****         2.1442  -1.0080  -0.1935 C.3            1 S1                 0.0000
     13 ****         1.5315  -2.1771  -1.0002 C.3            1 S1                 0.0000
     14 ****         2.0538  -2.2202  -2.4443 C.3            1 S1                 0.0000
     15 ****         3.5858  -2.3000  -2.4762 C.3            1 S1                 0.0000
     16 ****         4.2077  -1.1287  -1.7037 C.3            1 S1                 0.0000
     17 ****         3.6905  -1.0734  -0.2541 C.3            1 S1                 0.0000
     18 ****         4.2567   0.0646   0.3648 O.3            1 S1                 0.0000
     19 ****        -2.7583   2.2249   0.8702 N.ar           1 S1                 0.0000
     20 ****        -4.4787   5.0693   0.4693 H              1 S1                 0.0000
     21 ****        -3.2149   4.5142  -0.6343 H              1 S1                 0.0000
     22 ****        -2.8178   4.9019   1.0448 H              1 S1                 0.0000
     23 ****        -5.9990   3.2416   0.9604 H              1 S1                 0.0000
     24 ****        -6.3199   0.8373   1.5911 H              1 S1                 0.0000
     25 ****        -4.3235  -0.6492   1.7493 H              1 S1                 0.0000
     26 ****        -2.1156  -0.9456   1.5680 H              1 S1                 0.0000
     27 ****        -0.3221  -1.7457   1.5798 H              1 S1                 0.0000
     28 ****         2.0753  -0.1704   1.8273 H              1 S1                 0.0000
     29 ****         1.9395  -1.9079   1.7766 H              1 S1                 0.0000
     30 ****         1.8326  -0.0785  -0.6729 H              1 S1                 0.0000
     31 ****         1.7591  -3.1225  -0.5058 H              1 S1                 0.0000
     32 ****         0.4445  -2.0963  -1.0234 H              1 S1                 0.0000
     33 ****         1.6261  -3.0753  -2.9684 H              1 S1                 0.0000
     34 ****         1.7209  -1.3305  -2.9803 H              1 S1                 0.0000
     35 ****         3.9149  -3.2439  -2.0399 H              1 S1                 0.0000
     36 ****         3.9379  -2.2954  -3.5082 H              1 S1                 0.0000
     37 ****         5.2944  -1.2212  -1.7102 H              1 S1                 0.0000
     38 ****         3.9737  -0.1948  -2.2174 H              1 S1                 0.0000
     39 ****         4.0388  -1.9566   0.2832 H              1 S1                 0.0000
     40 ****         3.9451   0.8364  -0.0829 H              1 S1                 0.0000
     41 ****        -0.6033   2.1189   0.7757 LP             1 S1                 0.0000
     42 ****         0.9679   1.3905   0.8021 LP             1 S1                 0.0000
     43 ****         5.2539   0.0198   0.3051 LP             1 S1                 0.0000
     44 ****         3.9814   0.0979   1.3255 LP             1 S1                 0.0000
     45 ****        -1.8456   2.5878   0.6822 LP             1 S1                 0.0000
@<TRIPOS>BOND
    1    1    2 1     
    2    1   20 1     
    3    1   21 1     
    4    1   22 1     
    5    2   19 ar    
    6    2    3 ar    
    7    3    4 ar    
    8    3   23 1     
    9    4    5 ar    
   10    4   24 1     
   11    5    6 ar    
   12    5   25 1     
   13    6    7 1     
   14    6   19 ar    
   15    7    8 am    
   16    7   26 1     
   17    8    9 2     
   18    8   10 am    
   19   10   11 1     
   20   10   27 1     
   21   11   12 1     
   22   11   28 1     
   23   11   29 1     
   24   12   17 1     
   25   12   13 1     
   26   12   30 1     
   27   13   14 1     
   28   13   31 1     
   29   13   32 1     
   30   14   15 1     
   31   14   33 1     
   32   14   34 1     
   33   15   16 1     
   34   15   35 1     
   35   15   36 1     
   36   16   17 1     
   37   16   37 1     
   38   16   38 1     
   39   17   18 1     
   40   17   39 1     
   41   18   40 1     
   42    9   41 1     
   43    9   42 1     
   44   18   43 1     
   45   18   44 1     
   46   19   45 1     
@<TRIPOS>SUBSTRUCTURE
      1 S1             1
@<TRIPOS>SET
LONE_PAIRS      STATIC     ATOMS    <user>   **** ""
5 41 42 43 44 45
DONOR_HYDROGENS      STATIC     ATOMS    <user>   **** ""
3 26 27 40
ATOM$BLUE        STATIC     ATOMS    COLORGROUP SYSTEM
5 41 42 43 44 45
ATOM$RED        STATIC     ATOMS    COLORGROUP SYSTEM
3 26 27 40
