AV-unprocessed.smi:2100|AV-procd|sdf|8576|dock4
  -GOLD-   2272011303D 1   1.00000     0.00000
 Structure written by MMmdl.
 40 41  0  0  0  0  0  0  0  0  2 V2000
  150.9148  141.9538  156.3525 C   0  0  0  0  0  0  0  0  0  0  0  0
  150.5830  140.4740  156.1318 C   0  0  2  0  0  0  0  0  0  0  0  0
  151.4187  139.5593  157.0416 C   0  0  0  0  0  0  0  0  0  0  0  0
  151.1760  138.1385  156.7286 N   0  0  0  0  0  0  0  0  0  0  0  0
  151.7442  136.9549  157.8654 S   0  0  0  0  0  0  0  0  0  0  0  0
  152.5372  135.9797  157.0993 O   0  0  0  0  0  0  0  0  0  0  0  0
  152.4260  137.7153  158.9259 O   0  0  0  0  0  0  0  0  0  0  0  0
  150.2928  136.3774  158.2929 N   0  5  0  0  0  0  0  0  0  0  0  0
  149.3846  137.2134  159.0589 C   0  0  0  0  0  0  0  0  0  0  0  0
  148.0158  136.5099  159.2105 C   0  0  0  0  0  0  0  0  0  0  0  0
  147.5927  136.2181  160.6495 C   0  0  0  0  0  0  0  0  0  0  0  0
  147.4482  134.8860  161.1013 C   0  0  0  0  0  0  0  0  0  0  0  0
  147.0554  134.6627  162.4342 C   0  0  0  0  0  0  0  0  0  0  0  0
  146.8326  135.7732  163.2704 C   0  0  0  0  0  0  0  0  0  0  0  0
  147.0132  137.0629  162.7327 C   0  0  0  0  0  0  0  0  0  0  0  0
  147.3876  137.2891  161.4553 N   0  0  0  0  0  0  0  0  0  0  0  0
  151.3512  137.8349  155.2992 C   0  0  0  0  0  0  0  0  0  0  0  0
  150.5610  138.8134  154.4077 C   0  0  1  0  0  0  0  0  0  0  0  0
  149.0495  138.5232  154.3745 C   0  0  0  0  0  0  0  0  0  0  0  0
  150.8401  140.1642  154.7670 O   0  0  0  0  0  0  0  0  0  0  0  0
  150.7217  142.2479  157.3846 H   0  0  0  0  0  0  0  0  0  0  0  0
  150.3091  142.5895  155.7065 H   0  0  0  0  0  0  0  0  0  0  0  0
  151.9633  142.1599  156.1359 H   0  0  0  0  0  0  0  0  0  0  0  0
  149.5244  140.3340  156.3507 H   0  0  0  0  0  0  0  0  0  0  0  0
  152.4822  139.7677  156.9186 H   0  0  0  0  0  0  0  0  0  0  0  0
  151.1771  139.7685  158.0833 H   0  0  0  0  0  0  0  0  0  0  0  0
  149.7861  137.4195  160.0514 H   0  0  0  0  0  0  0  0  0  0  0  0
  149.2333  138.1876  158.5924 H   0  0  0  0  0  0  0  0  0  0  0  0
  147.2390  137.1031  158.7261 H   0  0  0  0  0  0  0  0  0  0  0  0
  148.0431  135.5650  158.6664 H   0  0  0  0  0  0  0  0  0  0  0  0
  147.6205  134.0548  160.4329 H   0  0  0  0  0  0  0  0  0  0  0  0
  146.9269  133.6576  162.8076 H   0  0  0  0  0  0  0  0  0  0  0  0
  146.5309  135.6402  164.2987 H   0  0  0  0  0  0  0  0  0  0  0  0
  146.8530  137.9371  163.3463 H   0  0  0  0  0  0  0  0  0  0  0  0
  152.4144  137.8943  155.0636 H   0  0  0  0  0  0  0  0  0  0  0  0
  151.0404  136.8113  155.0910 H   0  0  0  0  0  0  0  0  0  0  0  0
  150.9237  138.6944  153.3865 H   0  0  0  0  0  0  0  0  0  0  0  0
  148.8549  137.5377  153.9513 H   0  0  0  0  0  0  0  0  0  0  0  0
  148.5259  139.2555  153.7597 H   0  0  0  0  0  0  0  0  0  0  0  0
  148.6044  138.5382  155.3692 H   0  0  0  0  0  0  0  0  0  0  0  0
  1  2  1  0  0  0  0
  1 21  1  0  0  0  0
  1 22  1  0  0  0  0
  1 23  1  0  0  0  0
  2 20  1  0  0  0  0
  2  3  1  0  0  0  0
  2 24  1  0  0  0  0
  3  4  1  0  0  0  0
  3 25  1  0  0  0  0
  3 26  1  0  0  0  0
  4  5  1  0  0  0  0
  4 17  1  0  0  0  0
  5  6  2  0  0  0  0
  5  7  2  0  0  0  0
  5  8  1  0  0  0  0
  8  9  1  0  0  0  0
  9 10  1  0  0  0  0
  9 27  1  0  0  0  0
  9 28  1  0  0  0  0
 10 11  1  0  0  0  0
 10 29  1  0  0  0  0
 10 30  1  0  0  0  0
 11 16  1  0  0  0  0
 11 12  2  0  0  0  0
 12 13  1  0  0  0  0
 12 31  1  0  0  0  0
 13 14  2  0  0  0  0
 13 32  1  0  0  0  0
 14 15  1  0  0  0  0
 14 33  1  0  0  0  0
 15 16  2  0  0  0  0
 15 34  1  0  0  0  0
 17 18  1  0  0  0  0
 17 35  1  0  0  0  0
 17 36  1  0  0  0  0
 18 19  1  0  0  0  0
 18 20  1  0  0  0  0
 18 37  1  0  0  0  0
 19 38  1  0  0  0  0
 19 39  1  0  0  0  0
 19 40  1  0  0  0  0
M  CHG  1   8  -1
M  END
> <s_m_source_file>
AV-unprocessed.smi

> <i_m_source_file_index>
2100

> <i_lp_mmshare_version>
43012

> <i_f3d_flags>
0

> <s_epik_input>
W0NIM11bQ0BASF0xW0NIMl1OKFtDSDJdW0NASF0oTzEpW0NIM10pUyg9TykoPU8pW05IXVtDSDJdW0NIMl1jMltjSF1bY0hdW2NIXVtjSF1uMg==

> <s_epik_cmdline>
J2VwaWtfcHl0aG9uJywgJy1waCcsICc3LjAnLCAnLXRuJywgJzgnLCAnLW1hJywgJzIwMCcsICctbWV0YWxfYmluZGluZycsICctaW1hZScsICc8aW5maWxlLm1hZT4nLCAnLW9tYWUnLCAnPG91dGZpbGUubWFlPic=

> <r_epik_Ionization_Penalty>
1.27779

> <r_epik_Ionization_Penalty_Charging>
1.20871

> <r_epik_Ionization_Penalty_Neutral>
0.0690773

> <r_epik_State_Penalty>
1.64557

> <r_epik_Charging_Adjusted_Penalty>
2.85428

> <i_epik_Tot_Q>
-1

> <i_epik_Tot_abs_Q>
1

> <r_epik_Metal_State_Penalty>
0.643506

> <b_epik_Metal_Only>
0

> <s_lp_Force_Field>
OPLS_2005

> <r_lp_Energy>
11.2488

> <b_lp_Chiralities_Consistent>
1

> <s_lp_Variant>
AV-unprocessed.smi:2100-4

> <Gold.Version>
5.8.1

> <Gold.Id.Protein>
6NUR|6NUR_protein|mol2

> <Gold.PLP.Fitness>
52.4256

> <Gold.PLP.PLP>
-37.2564

> <Gold.PLP.part.hbond>
-5.0000

> <Gold.PLP.part.metal>
0.0000

> <Gold.PLP.part.buried>
-5.7385

> <Gold.PLP.part.nonpolar>
-28.6345

> <Gold.PLP.part.repulsive>
0.0675

> <Gold.PLP.ligand.clash>
0.0000

> <Gold.PLP.ligand.torsion>
1.2086

> <Gold.PLP.Chemscore.Hbond>
5.3592

> <Gold.PLP.Chemscore.CHOScore>
0.0000

> <Gold.PLP.Chemscore.Metal>
0.0000

> <Gold.Chemscore.Hbonds>
donor molecule, donor type, donor heavy atom, donor atom, acceptor molecule, acceptor atom, score
      P1  H  6896  6907       L1     8  1.44
      P1  H  6931  6943       L1    16  0.65
      P1  H  6934  6947       L1    16  0.91
      P1  H  7989  7998       L1    20  1.00
      P1  H 10752 10765       L1     6  0.83

> <Gold.PLP.Chemscore.Internal.Correction>
1.5088

> <Gold.Rescore>
     Score         DG    S(hbond)    S(metal)    S(lipo)     H(rot)  DE(clash)    DE(int)     intcor
     21.41     -22.81       3.40        0.00      83.23       1.47       0.01       1.40       ----

> <Gold.Chemscore.Fitness>
21.4121

> <Gold.Chemscore.DG>
-22.8147

> <Gold.Chemscore.ZeroCoef>
-5.4800

> <Gold.Chemscore.Hbond>
3.4036

> <Gold.Chemscore.Metal>
0.0000

> <Gold.Chemscore.Lipo>
83.2292

> <Gold.Chemscore.Internal_Hbond>
0.0000

> <Gold.Chemscore.DEClash>
0.0060

> <Gold.Chemscore.DEInternal>
1.3966

> <Gold.Chemscore.Rot>
1.4731

> <Gold.Chemscore.Internal.Correction>
   9.000000E+99

> <Gold.Chemscore.Hbonds>
donor molecule, donor type, donor heavy atom, donor atom, acceptor molecule, acceptor atom, score
      P1  H  6896  6907       L1     8  0.09
      P1  H  6931  6943       L1    16  0.07
      P1  H  6934  6947       L1    16  0.75
      P1  H  7989  7998       L1    20  0.65
      P1  H 10752 10765       L1     6  0.80

> <Gold.Chemscore.Hbond.Weighted>
-11.3680

> <Gold.Chemscore.Metal.Weighted>
-0.0000

> <Gold.Chemscore.Lipo.Weighted>
-9.7378

> <Gold.Chemscore.Internal_Hbond.Weighted>
0.0000

> <Gold.Chemscore.DEClash.Weighted>
0.0060

> <Gold.Chemscore.DEInternal.Weighted>
1.3966

> <Gold.Chemscore.Rot.Weighted>
3.7712

> <Gold.Chemscore.Internal.Correction.Weighted>
   9.000000E+99

> <Gold.Protein.RotatedTorsions>
[ 6907 6896 6895 6894 ] final  -50.14 input  -60.11 | X-H torsion
[ 7974 7965 7964 7962 ] final -155.34 input  175.53 | X-H torsion
[ 8008 7997 7996 7995 ] final   55.12 input   59.86 | X-H torsion
[ 10167 10162 10161 10158 ] final   46.97 input  -65.29 | X-H torsion
[ 10718 10713 10712 10709 ] final   70.24 input   66.30 | X-H torsion
[ 10763 10752 10751 10750 ] final -132.03 input  -60.55 | X-H torsion
[ 11005 11000 10999 10996 ] final -145.76 input  -57.11 | X-H torsion

> <Gold.Protein.ActiveResidues>
 VAL166  LYS551  ARG553  GLY616  TRP617  ASP618  TYR619  PRO620  LYS621  CYS622 
 ASP623  PHE694  ASN695  SER759  ASP760  ASP761  ALA762  ILE779  LEU786  VAL792 
 PHE793  MET794  SER795  GLU796  ALA797  LYS798  CYS799  TRP800  GLU811  SER814 

> <Gold.Protein.RotatedAtoms>
  150.8736  134.8115  159.7172 H   0  0  0  0  0  0  0  0  0  0  0  0  # atno 6907 bound_to 6896
  152.4731  134.4907  159.9704 H   0  0  0  0  0  0  0  0  0  0  0  0  # atno 6908 bound_to 6896
  151.4992  133.3469  159.2901 H   0  0  0  0  0  0  0  0  0  0  0  0  # atno 6909 bound_to 6896
  144.7645  140.4262  143.5952 H   0  0  0  0  0  0  0  0  0  0  0  0  # atno 7974 bound_to 7965
  155.4958  140.3473  155.4362 H   0  0  0  0  0  0  0  0  0  0  0  0  # atno 8008 bound_to 7997
  156.0946  140.1419  156.9575 H   0  0  0  0  0  0  0  0  0  0  0  0  # atno 8009 bound_to 7997
  154.4656  140.0919  156.6988 H   0  0  0  0  0  0  0  0  0  0  0  0  # atno 8010 bound_to 7997
  140.3084  144.2850  150.6204 H   0  0  0  0  0  0  0  0  0  0  0  0  # atno 10167 bound_to 10162
  157.6389  130.9467  150.0623 H   0  0  0  0  0  0  0  0  0  0  0  0  # atno 10718 bound_to 10713
  154.8746  135.3811  154.4343 H   0  0  0  0  0  0  0  0  0  0  0  0  # atno 10763 bound_to 10752
  153.5034  135.7030  153.5825 H   0  0  0  0  0  0  0  0  0  0  0  0  # atno 10764 bound_to 10752
  153.4146  135.3916  155.2039 H   0  0  0  0  0  0  0  0  0  0  0  0  # atno 10765 bound_to 10752
  140.7889  134.2991  157.5020 H   0  0  0  0  0  0  0  0  0  0  0  0  # atno 11005 bound_to 11000
  145.6514  139.1566  143.2859 LP  0  0  0  0  0  0  0  0  0  0  0  0  # atno 17320 bound_to 7965
  146.1739  140.6603  142.9220 LP  0  0  0  0  0  0  0  0  0  0  0  0  # atno 17321 bound_to 7965
  140.5590  143.2195  151.7799 LP  0  0  0  0  0  0  0  0  0  0  0  0  # atno 17342 bound_to 10162
  139.4899  144.4375  151.9802 LP  0  0  0  0  0  0  0  0  0  0  0  0  # atno 17343 bound_to 10162
  156.1652  130.3645  149.9242 LP  0  0  0  0  0  0  0  0  0  0  0  0  # atno 17370 bound_to 10713
  156.7231  130.9014  151.3620 LP  0  0  0  0  0  0  0  0  0  0  0  0  # atno 17371 bound_to 10713
  139.8733  134.9363  156.3656 LP  0  0  0  0  0  0  0  0  0  0  0  0  # atno 17394 bound_to 11000
  140.9409  133.7515  156.0145 LP  0  0  0  0  0  0  0  0  0  0  0  0  # atno 17395 bound_to 11000

$$$$
