#       Name:                AV-unprocessed.smi:2716
#       Creating user name   scv26
#       Creation time:       Fri Mar 27 14:52:45 2020


#       File generated by GOLD software.
#

@<TRIPOS>MOLECULE
AV-unprocessed.smi:2716
    25    25     1
SMALL
NO_CHARGES


@<TRIPOS>ATOM
      1 ****        -3.8218  -0.3966  -0.6540 N.am           1 S1                 0.0000
      2 ****        -2.7253  -1.1348  -0.4610 C.2            1 S1                 0.0000
      3 ****        -2.7747  -2.3453  -0.2515 O.2            1 S1                 0.0000
      4 ****        -1.4432  -0.3803  -0.5146 C.2            1 S1                 0.0000
      5 ****        -0.1957  -0.9027  -0.3179 C.2            1 S1                 0.0000
      6 ****         0.6377   0.1861  -0.4682 N.pl3          1 S1                 0.0000
      7 ****         2.0853   0.2380  -0.3699 C.3            1 S1                 0.0000
      8 ****         2.5677   0.9004   0.9316 C.3            1 S1                 0.0000
      9 ****         2.1203   0.1799   2.0616 O.3            1 S1                 0.0000
     10 ****        -0.0611   1.3121  -0.7484 N.2            1 S1                 0.0000
     11 ****        -1.3153   0.9865  -0.7775 N.2            1 S1                 0.0000
     12 ****        -4.7325  -0.8315  -0.6322 H              1 S1                 0.0000
     13 ****        -3.7314   0.5954  -0.8198 H              1 S1                 0.0000
     14 ****         0.1526  -1.8998  -0.0920 H              1 S1                 0.0000
     15 ****         2.4753  -0.7782  -0.4425 H              1 S1                 0.0000
     16 ****         2.4710   0.7827  -1.2326 H              1 S1                 0.0000
     17 ****         3.6569   0.9404   0.9502 H              1 S1                 0.0000
     18 ****         2.2078   1.9276   0.9982 H              1 S1                 0.0000
     19 ****         2.4271   0.6197   2.8398 H              1 S1                 0.0000
     20 ****        -3.6588  -2.8117  -0.2208 LP             1 S1                 0.0000
     21 ****        -1.9309  -2.8634  -0.1117 LP             1 S1                 0.0000
     22 ****         2.4854  -0.7506   2.0343 LP             1 S1                 0.0000
     23 ****         1.1208   0.1458   2.0656 LP             1 S1                 0.0000
     24 ****         0.3193   2.2238  -0.9037 LP             1 S1                 0.0000
     25 ****        -2.0722   1.6143  -0.9593 LP             1 S1                 0.0000
@<TRIPOS>BOND
    1    1    2 am    
    2    1   12 1     
    3    1   13 1     
    4    2    3 2     
    5    2    4 1     
    6    4   11 1     
    7    4    5 2     
    8    5    6 1     
    9    5   14 1     
   10    6    7 1     
   11    6   10 1     
   12    7    8 1     
   13    7   15 1     
   14    7   16 1     
   15    8    9 1     
   16    8   17 1     
   17    8   18 1     
   18    9   19 1     
   19   10   11 2     
   20    3   20 1     
   21    3   21 1     
   22    9   22 1     
   23    9   23 1     
   24   10   24 1     
   25   11   25 1     
@<TRIPOS>SUBSTRUCTURE
      1 S1             1
@<TRIPOS>SET
LONE_PAIRS      STATIC     ATOMS    <user>   **** ""
6 20 21 22 23 24 25
DONOR_HYDROGENS      STATIC     ATOMS    <user>   **** ""
3 12 13 19
ATOM$BLUE        STATIC     ATOMS    COLORGROUP SYSTEM
6 20 21 22 23 24 25
ATOM$RED        STATIC     ATOMS    COLORGROUP SYSTEM
3 12 13 19
