AV-unprocessed.smi:703|AV-procd|sdf|3440|dock4
  -GOLD-   22720 0423D 1   1.00000     0.00000
 Structure written by MMmdl.
 37 38  0  0  0  0  0  0  0  0  3 V2000
  145.6785  135.8023  152.6395 C   0  0  0  0  0  0  0  0  0  0  0  0
  145.6245  137.3323  152.7439 C   0  0  0  0  0  0  0  0  0  0  0  0
  146.9449  137.9162  153.0776 N   0  3  1  0  0  0  0  0  0  0  0  0
  147.0070  139.3947  152.9814 C   0  0  0  0  0  0  0  0  0  0  0  0
  147.7132  139.8852  154.2567 C   0  0  2  0  0  0  0  0  0  0  0  0
  148.5082  141.1978  154.0932 C   0  0  0  0  0  0  0  0  0  0  0  0
  148.4694  138.6495  154.7809 C   0  0  2  0  0  0  0  0  0  0  0  0
  149.7409  138.4735  154.0832 N   0  5  0  0  0  0  0  0  0  0  0  0
  151.1054  138.2611  154.9347 S   0  0  0  0  0  0  0  0  0  0  0  0
  151.5939  136.8735  154.8832 O   0  0  0  0  0  0  0  0  0  0  0  0
  152.0929  139.3248  154.6909 O   0  0  0  0  0  0  0  0  0  0  0  0
  150.4841  138.5212  156.6508 C   0  0  0  0  0  0  0  0  0  0  0  0
  151.5137  139.2557  157.4626 C   0  0  0  0  0  0  0  0  0  0  0  0
  151.3721  140.4793  158.1744 C   0  0  0  0  0  0  0  0  0  0  0  0
  152.6062  140.6738  158.7240 C   0  0  0  0  0  0  0  0  0  0  0  0
  153.4452  139.6656  158.3766 O   0  0  0  0  0  0  0  0  0  0  0  0
  152.7398  138.7669  157.5683 N   0  0  0  0  0  0  0  0  0  0  0  0
  147.4909  137.5314  154.3995 C   0  0  0  0  0  0  0  0  0  0  0  0
  144.7121  135.4028  152.3317 H   0  0  0  0  0  0  0  0  0  0  0  0
  145.9327  135.3425  153.5949 H   0  0  0  0  0  0  0  0  0  0  0  0
  146.4185  135.4831  151.9049 H   0  0  0  0  0  0  0  0  0  0  0  0
  145.2977  137.7361  151.7847 H   0  0  0  0  0  0  0  0  0  0  0  0
  144.8836  137.6390  153.4838 H   0  0  0  0  0  0  0  0  0  0  0  0
  147.5672  139.6588  152.0823 H   0  0  0  0  0  0  0  0  0  0  0  0
  146.0173  139.8459  152.8929 H   0  0  0  0  0  0  0  0  0  0  0  0
  146.9287  140.0893  154.9876 H   0  0  0  0  0  0  0  0  0  0  0  0
  149.2888  141.1190  153.3348 H   0  0  0  0  0  0  0  0  0  0  0  0
  148.9788  141.5064  155.0282 H   0  0  0  0  0  0  0  0  0  0  0  0
  147.8451  142.0069  153.7855 H   0  0  0  0  0  0  0  0  0  0  0  0
  148.5977  138.7088  155.8618 H   0  0  0  0  0  0  0  0  0  0  0  0
  149.5497  139.0801  156.5959 H   0  0  0  0  0  0  0  0  0  0  0  0
  150.2639  137.5474  157.0874 H   0  0  0  0  0  0  0  0  0  0  0  0
  150.4997  141.1083  158.2721 H   0  0  0  0  0  0  0  0  0  0  0  0
  153.0248  141.4442  159.3541 H   0  0  0  0  0  0  0  0  0  0  0  0
  146.6815  137.5024  155.1309 H   0  0  0  0  0  0  0  0  0  0  0  0
  147.9398  136.5389  154.3779 H   0  0  0  0  0  0  0  0  0  0  0  0
  147.6074  137.5744  152.3960 H   0  0  0  0  0  0  0  0  0  0  0  0
  1  2  1  0  0  0  0
  1 19  1  0  0  0  0
  1 20  1  0  0  0  0
  1 21  1  0  0  0  0
  2  3  1  0  0  0  0
  2 22  1  0  0  0  0
  2 23  1  0  0  0  0
  3 18  1  0  0  0  0
  3  4  1  0  0  0  0
  3 37  1  0  0  0  0
  4  5  1  0  0  0  0
  4 24  1  0  0  0  0
  4 25  1  0  0  0  0
  5  6  1  0  0  0  0
  5  7  1  0  0  0  0
  5 26  1  0  0  0  0
  6 27  1  0  0  0  0
  6 28  1  0  0  0  0
  6 29  1  0  0  0  0
  7  8  1  0  0  0  0
  7 18  1  0  0  0  0
  7 30  1  0  0  0  0
  8  9  1  0  0  0  0
  9 10  2  0  0  0  0
  9 11  2  0  0  0  0
  9 12  1  0  0  0  0
 12 13  1  0  0  0  0
 12 31  1  0  0  0  0
 12 32  1  0  0  0  0
 13 17  2  0  0  0  0
 13 14  1  0  0  0  0
 14 15  2  0  0  0  0
 14 33  1  0  0  0  0
 15 16  1  0  0  0  0
 15 34  1  0  0  0  0
 16 17  1  0  0  0  0
 18 35  1  0  0  0  0
 18 36  1  0  0  0  0
M  CHG  1   3   1
M  CHG  1   8  -1
M  END
> <s_m_source_file>
AV-unprocessed.smi

> <i_m_source_file_index>
703

> <i_lp_mmshare_version>
43012

> <i_f3d_flags>
0

> <s_epik_input>
W0NIM11bQ0gyXU4xW0NIMl1bQ0BASF0oW0NIM10pW0NASF0oW0NIMl0xKVtOSF1TKD1PKSg9TylbQ0gyXWMyW2NIXVtjSF1vbjI=

> <s_epik_cmdline>
J2VwaWtfcHl0aG9uJywgJy1waCcsICc3LjAnLCAnLXRuJywgJzgnLCAnLW1hJywgJzIwMCcsICctbWV0YWxfYmluZGluZycsICctaW1hZScsICc8aW5maWxlLm1hZT4nLCAnLW9tYWUnLCAnPG91dGZpbGUubWFlPic=

> <r_epik_Ionization_Penalty>
3.62494

> <r_epik_Ionization_Penalty_Charging>
3.62494

> <r_epik_Ionization_Penalty_Neutral>
2.0321e-10

> <r_epik_State_Penalty>
3.62558

> <r_epik_Charging_Adjusted_Penalty>
7.25052

> <i_epik_Tot_Q>
0

> <i_epik_Tot_abs_Q>
2

> <r_epik_Metal_State_Penalty>
0.530836

> <b_epik_Metal_Only>
1

> <s_lp_Force_Field>
OPLS_2005

> <r_lp_Energy>
16.9152

> <b_lp_Chiralities_Consistent>
1

> <s_lp_Variant>
AV-unprocessed.smi:703-15

> <Gold.Version>
5.8.1

> <Gold.Id.Protein>
6NUR|6NUR_protein|mol2

> <Gold.PLP.Fitness>
36.2742

> <Gold.PLP.PLP>
-22.9608

> <Gold.PLP.part.hbond>
-4.1427

> <Gold.PLP.part.metal>
0.0000

> <Gold.PLP.part.buried>
-4.4732

> <Gold.PLP.part.nonpolar>
-15.3968

> <Gold.PLP.part.repulsive>
0.4621

> <Gold.PLP.ligand.clash>
0.0000

> <Gold.PLP.ligand.torsion>
1.1966

> <Gold.PLP.Chemscore.Hbond>
4.8800

> <Gold.PLP.Chemscore.CHOScore>
0.0000

> <Gold.PLP.Chemscore.Metal>
0.0000

> <Gold.Chemscore.Hbonds>
donor molecule, donor type, donor heavy atom, donor atom, acceptor molecule, acceptor atom, score
      L1  H     3    37       P1  7948  2.00
      P1  H  7989  7998       L1    11  0.86
      P1  H  7997  8008       L1    16  0.95
      P1  H 10752 10763       L1    10  1.00

> <Gold.PLP.Chemscore.Internal.Correction>
1.0666

> <Gold.Rescore>
     Score         DG    S(hbond)    S(metal)    S(lipo)     H(rot)  DE(clash)    DE(int)     intcor
     16.96     -18.33       3.20        0.00      54.38       1.63       0.16       1.21       ----

> <Gold.Chemscore.Fitness>
16.9628

> <Gold.Chemscore.DG>
-18.3341

> <Gold.Chemscore.ZeroCoef>
-5.4800

> <Gold.Chemscore.Hbond>
3.1958

> <Gold.Chemscore.Metal>
0.0000

> <Gold.Chemscore.Lipo>
54.3812

> <Gold.Chemscore.Internal_Hbond>
0.0000

> <Gold.Chemscore.DEClash>
0.1602

> <Gold.Chemscore.DEInternal>
1.2111

> <Gold.Chemscore.Rot>
1.6338

> <Gold.Chemscore.Internal.Correction>
   9.000000E+99

> <Gold.Chemscore.Hbonds>
donor molecule, donor type, donor heavy atom, donor atom, acceptor molecule, acceptor atom, score
      L1  H     3    37       P1  7948  0.94
      P1  H  7989  7998       L1    11  0.81
      P1  H  7997  8008       L1    16  0.20
      P1  H 10752 10763       L1    10  0.96

> <Gold.Chemscore.Hbond.Weighted>
-10.6740

> <Gold.Chemscore.Metal.Weighted>
-0.0000

> <Gold.Chemscore.Lipo.Weighted>
-6.3626

> <Gold.Chemscore.Internal_Hbond.Weighted>
0.0000

> <Gold.Chemscore.DEClash.Weighted>
0.1602

> <Gold.Chemscore.DEInternal.Weighted>
1.2111

> <Gold.Chemscore.Rot.Weighted>
4.1825

> <Gold.Chemscore.Internal.Correction.Weighted>
   9.000000E+99

> <Gold.Protein.RotatedTorsions>
[ 6907 6896 6895 6894 ] final  151.57 input  -60.11 | X-H torsion
[ 7974 7965 7964 7962 ] final  -42.54 input  175.53 | X-H torsion
[ 8008 7997 7996 7995 ] final -107.86 input   59.86 | X-H torsion
[ 10167 10162 10161 10158 ] final  -80.56 input  -65.29 | X-H torsion
[ 10718 10713 10712 10709 ] final  140.39 input   66.30 | X-H torsion
[ 10763 10752 10751 10750 ] final   39.22 input  -60.55 | X-H torsion
[ 11005 11000 10999 10996 ] final   53.19 input  -57.11 | X-H torsion

> <Gold.Protein.ActiveResidues>
 VAL166  LYS551  ARG553  GLY616  TRP617  ASP618  TYR619  PRO620  LYS621  CYS622 
 ASP623  PHE694  ASN695  SER759  ASP760  ASP761  ALA762  ILE779  LEU786  VAL792 
 PHE793  MET794  SER795  GLU796  ALA797  LYS798  CYS799  TRP800  GLU811  SER814 

> <Gold.Protein.RotatedAtoms>
  152.0987  133.4238  159.4576 H   0  0  0  0  0  0  0  0  0  0  0  0  # atno 6907 bound_to 6896
  150.6863  134.2786  159.4627 H   0  0  0  0  0  0  0  0  0  0  0  0  # atno 6908 bound_to 6896
  152.0644  134.9573  160.0625 H   0  0  0  0  0  0  0  0  0  0  0  0  # atno 6909 bound_to 6896
  146.0105  140.6969  142.9226 H   0  0  0  0  0  0  0  0  0  0  0  0  # atno 7974 bound_to 7965
  154.9356  140.0404  157.2071 H   0  0  0  0  0  0  0  0  0  0  0  0  # atno 8008 bound_to 7997
  154.8118  140.2869  155.5826 H   0  0  0  0  0  0  0  0  0  0  0  0  # atno 8009 bound_to 7997
  156.2972  140.2535  156.3008 H   0  0  0  0  0  0  0  0  0  0  0  0  # atno 8010 bound_to 7997
  140.4492  143.2489  151.8514 H   0  0  0  0  0  0  0  0  0  0  0  0  # atno 10167 bound_to 10162
  157.4038  131.1020  151.0524 H   0  0  0  0  0  0  0  0  0  0  0  0  # atno 10718 bound_to 10713
  152.9974  135.6227  154.2431 H   0  0  0  0  0  0  0  0  0  0  0  0  # atno 10763 bound_to 10752
  154.2171  135.2797  155.2939 H   0  0  0  0  0  0  0  0  0  0  0  0  # atno 10764 bound_to 10752
  154.5559  135.5719  153.7022 H   0  0  0  0  0  0  0  0  0  0  0  0  # atno 10765 bound_to 10752
  140.0787  134.5369  155.8969 H   0  0  0  0  0  0  0  0  0  0  0  0  # atno 11005 bound_to 11000
  144.6951  140.3391  143.7202 LP  0  0  0  0  0  0  0  0  0  0  0  0  # atno 17320 bound_to 7965
  145.7349  139.1747  143.2409 LP  0  0  0  0  0  0  0  0  0  0  0  0  # atno 17321 bound_to 7965
  139.4795  144.5140  151.8893 LP  0  0  0  0  0  0  0  0  0  0  0  0  # atno 17342 bound_to 10162
  140.4228  144.2221  150.5887 LP  0  0  0  0  0  0  0  0  0  0  0  0  # atno 17343 bound_to 10162
  157.1514  130.6185  149.5583 LP  0  0  0  0  0  0  0  0  0  0  0  0  # atno 17370 bound_to 10713
  155.9831  130.4848  150.6914 LP  0  0  0  0  0  0  0  0  0  0  0  0  # atno 17371 bound_to 10713
  141.2039  133.6635  156.6088 LP  0  0  0  0  0  0  0  0  0  0  0  0  # atno 17394 bound_to 11000
  140.3520  134.7761  157.4473 LP  0  0  0  0  0  0  0  0  0  0  0  0  # atno 17395 bound_to 11000

$$$$
