#       Name:                AV-unprocessed.smi:1112
#       Creating user name   scv26
#       Creation time:       Fri Mar 27 03:34:26 2020


#       File generated by GOLD software.
#

@<TRIPOS>MOLECULE
AV-unprocessed.smi:1112
    55    57     1
SMALL
NO_CHARGES


@<TRIPOS>ATOM
      1 ****         1.2312   1.5327  -0.9138 O.2            1 S1                 0.0000
      2 ****         0.6351   0.4814  -0.6820 C.2            1 S1                 0.0000
      3 ****         1.2420  -0.7061  -0.5471 N.am           1 S1                 0.0000
      4 ****         2.6825  -0.9468  -0.6203 C.3            1 S1                 0.0000
      5 ****         3.2911  -1.3655   0.7445 C.3            1 S1                 0.0000
      6 ****         2.7909  -2.6596   1.0251 O.3            1 S1                 0.0000
      7 ****         4.8295  -1.5087   0.6580 C.3            1 S1                 0.0000
      8 ****         5.5526  -0.1502   0.5901 C.3            1 S1                 0.0000
      9 ****         5.1483   0.7611   1.7595 C.3            1 S1                 0.0000
     10 ****         3.6230   0.9274   1.8381 C.3            1 S1                 0.0000
     11 ****         2.9216  -0.4386   1.9298 C.3            1 S1                 0.0000
     12 ****        -0.6959   0.3614  -0.5431 N.am           1 S1                 0.0000
     13 ****        -1.6933   1.3756  -0.6292 C.ar           1 S1                 0.0000
     14 ****        -1.4216   2.7365  -0.3332 C.ar           1 S1                 0.0000
     15 ****        -2.4491   3.6943  -0.4339 C.ar           1 S1                 0.0000
     16 ****        -3.7356   3.2780  -0.8192 C.ar           1 S1                 0.0000
     17 ****        -3.9670   1.9740  -1.0759 N.pl3          1 S1                 1.0000
     18 ****        -3.0173   1.0089  -0.9964 C.ar           1 S1                 0.0000
     19 ****        -3.3822  -0.3297  -1.2528 N.3            1 S1                 0.0000
     20 ****        -3.4386  -1.1637  -0.0542 C.3            1 S1                 0.0000
     21 ****        -4.6448  -2.0910  -0.2226 C.3            1 S1                 0.0000
     22 ****        -5.5553  -1.3121  -1.1640 C.3            1 S1                 0.0000
     23 ****        -4.5546  -0.6103  -2.0798 C.3            1 S1                 0.0000
     24 ****         0.6671  -1.5144  -0.3598 H              1 S1                 0.0000
     25 ****         2.8579  -1.7252  -1.3639 H              1 S1                 0.0000
     26 ****         3.1890  -0.0615  -1.0046 H              1 S1                 0.0000
     27 ****         3.1845  -2.9658   1.8280 H              1 S1                 0.0000
     28 ****         5.1949  -2.0443   1.5359 H              1 S1                 0.0000
     29 ****         5.1072  -2.1185  -0.2030 H              1 S1                 0.0000
     30 ****         6.6314  -0.3078   0.6038 H              1 S1                 0.0000
     31 ****         5.3338   0.3466  -0.3551 H              1 S1                 0.0000
     32 ****         5.5166   0.3381   2.6951 H              1 S1                 0.0000
     33 ****         5.6248   1.7360   1.6534 H              1 S1                 0.0000
     34 ****         3.3625   1.5348   2.7052 H              1 S1                 0.0000
     35 ****         3.2677   1.4734   0.9642 H              1 S1                 0.0000
     36 ****         1.8430  -0.3016   2.0067 H              1 S1                 0.0000
     37 ****         3.2218  -0.9133   2.8654 H              1 S1                 0.0000
     38 ****        -1.0438  -0.5810  -0.4444 H              1 S1                 0.0000
     39 ****        -0.4438   3.0649  -0.0162 H              1 S1                 0.0000
     40 ****        -2.2524   4.7334  -0.2132 H              1 S1                 0.0000
     41 ****        -4.5832   3.9406  -0.9185 H              1 S1                 0.0000
     42 ****        -2.5174  -1.7332   0.0722 H              1 S1                 0.0000
     43 ****        -3.5699  -0.5413   0.8328 H              1 S1                 0.0000
     44 ****        -4.3331  -3.0216  -0.6995 H              1 S1                 0.0000
     45 ****        -5.1228  -2.3415   0.7249 H              1 S1                 0.0000
     46 ****        -6.2556  -1.9480  -1.7062 H              1 S1                 0.0000
     47 ****        -6.1295  -0.5742  -0.6017 H              1 S1                 0.0000
     48 ****        -4.9893   0.2648  -2.5632 H              1 S1                 0.0000
     49 ****        -4.2429  -1.2869  -2.8762 H              1 S1                 0.0000
     50 ****        -4.9131   1.6980  -1.3396 H              1 S1                 0.0000
     51 ****         2.2264   1.5320  -1.0123 LP             1 S1                 0.0000
     52 ****         0.7205   2.3878  -1.0036 LP             1 S1                 0.0000
     53 ****         3.0239  -3.2808   0.2769 LP             1 S1                 0.0000
     54 ****         1.7971  -2.6217   1.1297 LP             1 S1                 0.0000
     55 ****        -2.6070  -0.5775  -1.8339 LP             1 S1                 0.0000
@<TRIPOS>BOND
    1    1    2 2     
    2    2    3 am    
    3    2   12 am    
    4    3    4 1     
    5    3   24 1     
    6    4    5 1     
    7    4   25 1     
    8    4   26 1     
    9    5   11 1     
   10    5    6 1     
   11    5    7 1     
   12    6   27 1     
   13    7    8 1     
   14    7   28 1     
   15    7   29 1     
   16    8    9 1     
   17    8   30 1     
   18    8   31 1     
   19    9   10 1     
   20    9   32 1     
   21    9   33 1     
   22   10   11 1     
   23   10   34 1     
   24   10   35 1     
   25   11   36 1     
   26   11   37 1     
   27   12   13 1     
   28   12   38 1     
   29   13   18 ar    
   30   13   14 ar    
   31   14   15 ar    
   32   14   39 1     
   33   15   16 ar    
   34   15   40 1     
   35   16   17 ar    
   36   16   41 1     
   37   17   18 ar    
   38   17   50 1     
   39   18   19 1     
   40   19   23 1     
   41   19   20 1     
   42   20   21 1     
   43   20   42 1     
   44   20   43 1     
   45   21   22 1     
   46   21   44 1     
   47   21   45 1     
   48   22   23 1     
   49   22   46 1     
   50   22   47 1     
   51   23   48 1     
   52   23   49 1     
   53    1   51 1     
   54    1   52 1     
   55    6   53 1     
   56    6   54 1     
   57   19   55 1     
@<TRIPOS>SUBSTRUCTURE
      1 S1             1
@<TRIPOS>SET
LONE_PAIRS      STATIC     ATOMS    <user>   **** ""
5 51 52 53 54 55
DONOR_HYDROGENS      STATIC     ATOMS    <user>   **** ""
4 24 27 38 50
ATOM$BLUE        STATIC     ATOMS    COLORGROUP SYSTEM
5 51 52 53 54 55
ATOM$RED        STATIC     ATOMS    COLORGROUP SYSTEM
4 24 27 38 50
