AV-unprocessed.smi:2149|AV-procd|sdf|8755|dock6
  -GOLD-   2272011533D 1   1.00000     0.00000
 Structure written by MMmdl.
 43 44  0  0  0  0  0  0  0  0  2 V2000
  147.8926  132.9499  157.3166 C   0  0  0  0  0  0  0  0  0  0  0  0
  149.6029  133.5852  157.0746 S   0  0  0  0  0  0  0  0  0  0  0  0
  150.5267  132.6158  157.6838 O   0  0  0  0  0  0  0  0  0  0  0  0
  149.7759  133.9813  155.6688 O   0  0  0  0  0  0  0  0  0  0  0  0
  149.6322  135.0274  158.0387 N   0  0  0  0  0  0  0  0  0  0  0  0
  148.4316  135.3301  158.8438 C   0  0  0  0  0  0  0  0  0  0  0  0
  148.7291  136.3759  159.9299 C   0  0  0  0  0  0  0  0  0  0  0  0
  149.3383  137.6432  159.3243 C   0  0  0  0  0  0  0  0  0  0  0  0
  150.6099  137.2727  158.5441 C   0  0  2  0  0  0  0  0  0  0  0  0
  151.2556  138.5167  157.9193 C   0  0  0  0  0  0  0  0  0  0  0  0
  152.3894  138.8634  158.2526 O   0  0  0  0  0  0  0  0  0  0  0  0
  150.5211  139.1848  157.0163 N   0  0  0  0  0  0  0  0  0  0  0  0
  150.9475  140.3953  156.3243 C   0  0  0  0  0  0  0  0  0  0  0  0
  150.1886  141.6331  156.8326 C   0  0  0  0  0  0  0  0  0  0  0  0
  151.0217  142.4675  157.7855 C   0  0  0  0  0  0  0  0  0  0  0  0
  151.9383  141.8880  158.6896 C   0  0  0  0  0  0  0  0  0  0  0  0
  152.6799  142.7251  159.5496 C   0  0  0  0  0  0  0  0  0  0  0  0
  152.4881  144.1211  159.4890 C   0  0  0  0  0  0  0  0  0  0  0  0
  151.5582  144.6460  158.5684 C   0  0  0  0  0  0  0  0  0  0  0  0
  150.8679  143.8114  157.7604 N   0  3  0  0  0  0  0  0  0  0  0  0
  150.2882  136.2193  157.4619 C   0  0  0  0  0  0  0  0  0  0  0  0
  147.7930  131.9896  156.8111 H   0  0  0  0  0  0  0  0  0  0  0  0
  147.1695  133.6478  156.8974 H   0  0  0  0  0  0  0  0  0  0  0  0
  147.7002  132.8181  158.3809 H   0  0  0  0  0  0  0  0  0  0  0  0
  147.6434  135.6891  158.1804 H   0  0  0  0  0  0  0  0  0  0  0  0
  148.0581  134.4201  159.3108 H   0  0  0  0  0  0  0  0  0  0  0  0
  147.8126  136.6238  160.4659 H   0  0  0  0  0  0  0  0  0  0  0  0
  149.4133  135.9536  160.6669 H   0  0  0  0  0  0  0  0  0  0  0  0
  148.6099  138.1224  158.6681 H   0  0  0  0  0  0  0  0  0  0  0  0
  149.5691  138.3582  160.1152 H   0  0  0  0  0  0  0  0  0  0  0  0
  151.3225  136.8313  159.2438 H   0  0  0  0  0  0  0  0  0  0  0  0
  149.6008  138.8308  156.7972 H   0  0  0  0  0  0  0  0  0  0  0  0
  152.0246  140.5287  156.4400 H   0  0  0  0  0  0  0  0  0  0  0  0
  150.7647  140.2590  155.2581 H   0  0  0  0  0  0  0  0  0  0  0  0
  149.8801  142.2529  155.9897 H   0  0  0  0  0  0  0  0  0  0  0  0
  149.2728  141.3333  157.3442 H   0  0  0  0  0  0  0  0  0  0  0  0
  152.0727  140.8164  158.7254 H   0  0  0  0  0  0  0  0  0  0  0  0
  153.3873  142.3011  160.2474 H   0  0  0  0  0  0  0  0  0  0  0  0
  153.0458  144.7793  160.1393 H   0  0  0  0  0  0  0  0  0  0  0  0
  151.3477  145.6995  158.4544 H   0  0  0  0  0  0  0  0  0  0  0  0
  151.2132  135.9232  156.9672 H   0  0  0  0  0  0  0  0  0  0  0  0
  149.6378  136.6351  156.6905 H   0  0  0  0  0  0  0  0  0  0  0  0
  150.2005  144.2125  157.1006 H   0  0  0  0  0  0  0  0  0  0  0  0
  1  2  1  0  0  0  0
  1 22  1  0  0  0  0
  1 23  1  0  0  0  0
  1 24  1  0  0  0  0
  2  3  2  0  0  0  0
  2  4  2  0  0  0  0
  2  5  1  0  0  0  0
  5 21  1  0  0  0  0
  5  6  1  0  0  0  0
  6  7  1  0  0  0  0
  6 25  1  0  0  0  0
  6 26  1  0  0  0  0
  7  8  1  0  0  0  0
  7 27  1  0  0  0  0
  7 28  1  0  0  0  0
  8  9  1  0  0  0  0
  8 29  1  0  0  0  0
  8 30  1  0  0  0  0
  9 10  1  0  0  0  0
  9 21  1  0  0  0  0
  9 31  1  0  0  0  0
 10 11  2  0  0  0  0
 10 12  1  0  0  0  0
 12 13  1  0  0  0  0
 12 32  1  0  0  0  0
 13 14  1  0  0  0  0
 13 33  1  0  0  0  0
 13 34  1  0  0  0  0
 14 15  1  0  0  0  0
 14 35  1  0  0  0  0
 14 36  1  0  0  0  0
 15 20  1  0  0  0  0
 15 16  2  0  0  0  0
 16 17  1  0  0  0  0
 16 37  1  0  0  0  0
 17 18  2  0  0  0  0
 17 38  1  0  0  0  0
 18 19  1  0  0  0  0
 18 39  1  0  0  0  0
 19 20  2  0  0  0  0
 19 40  1  0  0  0  0
 20 43  1  0  0  0  0
 21 41  1  0  0  0  0
 21 42  1  0  0  0  0
M  CHG  1  20   1
M  END
> <s_m_source_file>
AV-unprocessed.smi

> <i_m_source_file_index>
2149

> <i_lp_mmshare_version>
43012

> <i_f3d_flags>
0

> <s_epik_input>
W0NIM11TKD1PKSg9TylOMVtDSDJdW0NIMl1bQ0gyXVtDQEhdKFtDSDJdMSlDKD1PKVtOSF1bQ0gyXVtDSDJdYzJbY0hdW2NIXVtjSF1bY0hdbjI=

> <s_epik_cmdline>
J2VwaWtfcHl0aG9uJywgJy1waCcsICc3LjAnLCAnLXRuJywgJzgnLCAnLW1hJywgJzIwMCcsICctbWV0YWxfYmluZGluZycsICctaW1hZScsICc8aW5maWxlLm1hZT4nLCAnLW9tYWUnLCAnPG91dGZpbGUubWFlPic=

> <r_epik_Ionization_Penalty>
1.83523

> <r_epik_Ionization_Penalty_Charging>
1.83523

> <r_epik_Ionization_Penalty_Neutral>
2.62835e-08

> <r_epik_State_Penalty>
1.95153

> <r_epik_Charging_Adjusted_Penalty>
3.78676

> <i_epik_Tot_Q>
1

> <i_epik_Tot_abs_Q>
1

> <r_epik_Metal_State_Penalty>
1.97791

> <b_epik_Metal_Only>
0

> <s_lp_Force_Field>
OPLS_2005

> <r_lp_Energy>
9.7414

> <b_lp_Chiralities_Consistent>
1

> <s_lp_Variant>
AV-unprocessed.smi:2149-4

> <Gold.Version>
5.8.1

> <Gold.Id.Protein>
6NUR|6NUR_protein|mol2

> <Gold.PLP.Fitness>
42.9458

> <Gold.PLP.PLP>
-35.4132

> <Gold.PLP.part.hbond>
-3.0000

> <Gold.PLP.part.metal>
0.0000

> <Gold.PLP.part.buried>
-6.1482

> <Gold.PLP.part.nonpolar>
-26.8497

> <Gold.PLP.part.repulsive>
0.1045

> <Gold.PLP.ligand.clash>
0.0000

> <Gold.PLP.ligand.torsion>
1.1106

> <Gold.PLP.Chemscore.Hbond>
3.0000

> <Gold.PLP.Chemscore.CHOScore>
0.0000

> <Gold.PLP.Chemscore.Metal>
0.0000

> <Gold.Chemscore.Hbonds>
donor molecule, donor type, donor heavy atom, donor atom, acceptor molecule, acceptor atom, score
      L1  H    20    43       P1  8028  2.00
      P1  H  6896  6907       L1     5  0.01
      P1  H  6896  6909       L1     3  1.00

> <Gold.PLP.Chemscore.Internal.Correction>
0.7538

> <Gold.Rescore>
     Score         DG    S(hbond)    S(metal)    S(lipo)     H(rot)  DE(clash)    DE(int)     intcor
     16.54     -17.46       1.94        0.00      89.68       1.95       0.02       0.89       ----

> <Gold.Chemscore.Fitness>
16.5444

> <Gold.Chemscore.DG>
-17.4563

> <Gold.Chemscore.ZeroCoef>
-5.4800

> <Gold.Chemscore.Hbond>
1.9363

> <Gold.Chemscore.Metal>
0.0000

> <Gold.Chemscore.Lipo>
89.6770

> <Gold.Chemscore.Internal_Hbond>
0.0000

> <Gold.Chemscore.DEClash>
0.0208

> <Gold.Chemscore.DEInternal>
0.8910

> <Gold.Chemscore.Rot>
1.9466

> <Gold.Chemscore.Internal.Correction>
   9.000000E+99

> <Gold.Chemscore.Hbonds>
donor molecule, donor type, donor heavy atom, donor atom, acceptor molecule, acceptor atom, score
      L1  H    20    43       P1  8028  0.83
      P1  H  6896  6909       L1     3  0.40

> <Gold.Chemscore.Hbond.Weighted>
-6.4673

> <Gold.Chemscore.Metal.Weighted>
-0.0000

> <Gold.Chemscore.Lipo.Weighted>
-10.4922

> <Gold.Chemscore.Internal_Hbond.Weighted>
0.0000

> <Gold.Chemscore.DEClash.Weighted>
0.0208

> <Gold.Chemscore.DEInternal.Weighted>
0.8910

> <Gold.Chemscore.Rot.Weighted>
4.9832

> <Gold.Chemscore.Internal.Correction.Weighted>
   9.000000E+99

> <Gold.Protein.RotatedTorsions>
[ 6907 6896 6895 6894 ] final  -24.49 input  -60.11 | X-H torsion
[ 7974 7965 7964 7962 ] final -140.32 input  175.53 | X-H torsion
[ 8008 7997 7996 7995 ] final   62.61 input   59.86 | X-H torsion
[ 10167 10162 10161 10158 ] final  -80.83 input  -65.29 | X-H torsion
[ 10718 10713 10712 10709 ] final  -52.11 input   66.30 | X-H torsion
[ 10763 10752 10751 10750 ] final -144.69 input  -60.55 | X-H torsion
[ 11005 11000 10999 10996 ] final  -17.02 input  -57.11 | X-H torsion

> <Gold.Protein.ActiveResidues>
 VAL166  LYS551  ARG553  GLY616  TRP617  ASP618  TYR619  PRO620  LYS621  CYS622 
 ASP623  PHE694  ASN695  SER759  ASP760  ASP761  ALA762  ILE779  LEU786  VAL792 
 PHE793  MET794  SER795  GLU796  ALA797  LYS798  CYS799  TRP800  GLU811  SER814 

> <Gold.Protein.RotatedAtoms>
  151.1888  135.0393  159.8823 H   0  0  0  0  0  0  0  0  0  0  0  0  # atno 6907 bound_to 6896
  152.5440  134.0979  159.8315 H   0  0  0  0  0  0  0  0  0  0  0  0  # atno 6908 bound_to 6896
  151.1105  133.5129  159.2638 H   0  0  0  0  0  0  0  0  0  0  0  0  # atno 6909 bound_to 6896
  144.8606  140.6214  143.5330 H   0  0  0  0  0  0  0  0  0  0  0  0  # atno 7974 bound_to 7965
  155.6171  140.3495  155.4640 H   0  0  0  0  0  0  0  0  0  0  0  0  # atno 8008 bound_to 7997
  156.0109  140.1233  157.0479 H   0  0  0  0  0  0  0  0  0  0  0  0  # atno 8009 bound_to 7997
  154.4280  140.1082  156.5814 H   0  0  0  0  0  0  0  0  0  0  0  0  # atno 8010 bound_to 7997
  140.4467  143.2496  151.8548 H   0  0  0  0  0  0  0  0  0  0  0  0  # atno 10167 bound_to 10162
  156.1650  130.4149  149.9734 H   0  0  0  0  0  0  0  0  0  0  0  0  # atno 10718 bound_to 10713
  154.8417  135.3433  154.6385 H   0  0  0  0  0  0  0  0  0  0  0  0  # atno 10763 bound_to 10752
  153.6996  135.6970  153.5071 H   0  0  0  0  0  0  0  0  0  0  0  0  # atno 10764 bound_to 10752
  153.2533  135.4346  155.0774 H   0  0  0  0  0  0  0  0  0  0  0  0  # atno 10765 bound_to 10752
  140.8126  133.8129  155.9579 H   0  0  0  0  0  0  0  0  0  0  0  0  # atno 11005 bound_to 11000
  145.4319  139.1548  143.4017 LP  0  0  0  0  0  0  0  0  0  0  0  0  # atno 17320 bound_to 7965
  146.2858  140.4436  142.8758 LP  0  0  0  0  0  0  0  0  0  0  0  0  # atno 17321 bound_to 7965
  139.4793  144.5167  151.8858 LP  0  0  0  0  0  0  0  0  0  0  0  0  # atno 17342 bound_to 10162
  140.4255  144.2186  150.5887 LP  0  0  0  0  0  0  0  0  0  0  0  0  # atno 17343 bound_to 10162
  156.7552  130.9130  151.3639 LP  0  0  0  0  0  0  0  0  0  0  0  0  # atno 17370 bound_to 10713
  157.6761  130.9096  150.0153 LP  0  0  0  0  0  0  0  0  0  0  0  0  # atno 17371 bound_to 10713
  140.9182  134.2175  157.4943 LP  0  0  0  0  0  0  0  0  0  0  0  0  # atno 17394 bound_to 11000
  139.8713  134.9780  156.4982 LP  0  0  0  0  0  0  0  0  0  0  0  0  # atno 17395 bound_to 11000

$$$$
