AV-unprocessed.smi:1103|AV-procd|sdf|4773|dock1
  -GOLD-   22720 3313D 1   1.00000     0.00000
 Structure written by MMmdl.
 44 45  0  0  0  0  0  0  0  0  2 V2000
  145.8614  134.9736  151.5524 C   0  0  0  0  0  0  0  0  0  0  0  0
  145.8641  135.5101  152.9908 C   0  0  0  0  0  0  0  0  0  0  0  0
  146.5330  136.8306  153.1046 N   0  3  1  0  0  0  0  0  0  0  0  0
  145.9924  137.8171  152.1337 C   0  0  0  0  0  0  0  0  0  0  0  0
  146.7926  139.1290  152.1679 C   0  0  0  0  0  0  0  0  0  0  0  0
  146.8302  139.7121  153.5870 C   0  0  0  0  0  0  0  0  0  0  0  0
  147.3510  138.6736  154.6025 C   0  0  2  0  0  0  0  0  0  0  0  0
  148.8718  138.4043  154.5015 C   0  0  0  0  0  0  0  0  0  0  0  0
  149.5791  138.7127  155.7401 N   0  0  0  0  0  0  0  0  0  0  0  0
  150.6348  139.5349  155.8370 C   0  0  0  0  0  0  0  0  0  0  0  0
  151.1137  140.1282  154.8694 O   0  0  0  0  0  0  0  0  0  0  0  0
  151.2283  139.7048  157.2405 C   0  0  0  0  0  0  0  0  0  0  0  0
  151.3693  141.1015  157.6187 N   0  0  0  0  0  0  0  0  0  0  0  0
  151.9427  141.6283  158.7575 C   0  0  0  0  0  0  0  0  0  0  0  0
  151.8484  142.9885  158.6743 C   0  0  0  0  0  0  0  0  0  0  0  0
  152.3247  144.0231  159.6529 C   0  0  0  0  0  0  0  0  0  0  0  0
  151.1880  143.1986  157.4302 C   0  0  0  0  0  0  0  0  0  0  0  0
  150.9007  142.0699  156.8030 N   0  0  0  0  0  0  0  0  0  0  0  0
  146.5314  137.3709  154.4915 C   0  0  0  0  0  0  0  0  0  0  0  0
  145.2783  134.0545  151.4890 H   0  0  0  0  0  0  0  0  0  0  0  0
  146.8654  134.7417  151.1981 H   0  0  0  0  0  0  0  0  0  0  0  0
  145.4173  135.6932  150.8641 H   0  0  0  0  0  0  0  0  0  0  0  0
  144.8253  135.6055  153.3090 H   0  0  0  0  0  0  0  0  0  0  0  0
  146.3293  134.7935  153.6692 H   0  0  0  0  0  0  0  0  0  0  0  0
  146.0305  137.4038  151.1250 H   0  0  0  0  0  0  0  0  0  0  0  0
  144.9421  138.0108  152.3576 H   0  0  0  0  0  0  0  0  0  0  0  0
  147.8069  138.9538  151.8079 H   0  0  0  0  0  0  0  0  0  0  0  0
  146.3473  139.8514  151.4834 H   0  0  0  0  0  0  0  0  0  0  0  0
  147.4303  140.6221  153.6083 H   0  0  0  0  0  0  0  0  0  0  0  0
  145.8210  140.0129  153.8717 H   0  0  0  0  0  0  0  0  0  0  0  0
  147.1666  139.0767  155.5993 H   0  0  0  0  0  0  0  0  0  0  0  0
  149.0529  137.3623  154.2319 H   0  0  0  0  0  0  0  0  0  0  0  0
  149.3163  139.0001  153.7045 H   0  0  0  0  0  0  0  0  0  0  0  0
  149.2441  138.2687  156.5832 H   0  0  0  0  0  0  0  0  0  0  0  0
  150.5916  139.1939  157.9644 H   0  0  0  0  0  0  0  0  0  0  0  0
  152.2124  139.2371  157.2893 H   0  0  0  0  0  0  0  0  0  0  0  0
  152.3698  140.9969  159.5229 H   0  0  0  0  0  0  0  0  0  0  0  0
  152.1877  145.0353  159.2718 H   0  0  0  0  0  0  0  0  0  0  0  0
  153.3850  143.9057  159.8775 H   0  0  0  0  0  0  0  0  0  0  0  0
  151.7857  143.9600  160.5983 H   0  0  0  0  0  0  0  0  0  0  0  0
  150.9102  144.1337  156.9667 H   0  0  0  0  0  0  0  0  0  0  0  0
  145.5006  137.5579  154.7973 H   0  0  0  0  0  0  0  0  0  0  0  0
  146.9302  136.6368  155.1909 H   0  0  0  0  0  0  0  0  0  0  0  0
  147.4984  136.6832  152.8474 H   0  0  0  0  0  0  0  0  0  0  0  0
  1  2  1  0  0  0  0
  1 20  1  0  0  0  0
  1 21  1  0  0  0  0
  1 22  1  0  0  0  0
  2  3  1  0  0  0  0
  2 23  1  0  0  0  0
  2 24  1  0  0  0  0
  3 19  1  0  0  0  0
  3  4  1  0  0  0  0
  3 44  1  0  0  0  0
  4  5  1  0  0  0  0
  4 25  1  0  0  0  0
  4 26  1  0  0  0  0
  5  6  1  0  0  0  0
  5 27  1  0  0  0  0
  5 28  1  0  0  0  0
  6  7  1  0  0  0  0
  6 29  1  0  0  0  0
  6 30  1  0  0  0  0
  7  8  1  0  0  0  0
  7 19  1  0  0  0  0
  7 31  1  0  0  0  0
  8  9  1  0  0  0  0
  8 32  1  0  0  0  0
  8 33  1  0  0  0  0
  9 10  1  0  0  0  0
  9 34  1  0  0  0  0
 10 11  2  0  0  0  0
 10 12  1  0  0  0  0
 12 13  1  0  0  0  0
 12 35  1  0  0  0  0
 12 36  1  0  0  0  0
 13 18  1  0  0  0  0
 13 14  1  0  0  0  0
 14 15  2  0  0  0  0
 14 37  1  0  0  0  0
 15 16  1  0  0  0  0
 15 17  1  0  0  0  0
 16 38  1  0  0  0  0
 16 39  1  0  0  0  0
 16 40  1  0  0  0  0
 17 18  2  0  0  0  0
 17 41  1  0  0  0  0
 19 42  1  0  0  0  0
 19 43  1  0  0  0  0
M  CHG  1   3   1
M  END
> <s_m_source_file>
AV-unprocessed.smi

> <i_m_source_file_index>
1103

> <i_lp_mmshare_version>
43012

> <i_f3d_flags>
0

> <s_epik_input>
W0NIM11bQ0gyXU4xW0NIMl1bQ0gyXVtDSDJdW0NASF0oW0NIMl0xKVtDSDJdW05IXUMoPU8pW0NIMl1uMltjSF1jKFtDSDNdKVtjSF1uMg==

> <s_epik_cmdline>
J2VwaWtfcHl0aG9uJywgJy1waCcsICc3LjAnLCAnLXRuJywgJzgnLCAnLW1hJywgJzIwMCcsICctbWV0YWxfYmluZGluZycsICctaW1hZScsICc8aW5maWxlLm1hZT4nLCAnLW9tYWUnLCAnPG91dGZpbGUubWFlPic=

> <r_lp_tautomer_probability>
1

> <r_epik_Ionization_Penalty>
0.000672456

> <r_epik_Ionization_Penalty_Charging>
0.000647327

> <r_epik_Ionization_Penalty_Neutral>
2.51297e-05

> <r_epik_State_Penalty>
0.000409793

> <r_epik_Charging_Adjusted_Penalty>
0.00105712

> <i_epik_Tot_Q>
1

> <i_epik_Tot_abs_Q>
1

> <r_epik_Metal_State_Penalty>
-0

> <b_epik_Metal_Only>
0

> <s_lp_Force_Field>
OPLS_2005

> <r_lp_Energy>
22.1898

> <b_lp_Chiralities_Consistent>
1

> <s_lp_Variant>
AV-unprocessed.smi:1103-3

> <Gold.Version>
5.8.1

> <Gold.Id.Protein>
6NUR|6NUR_protein|mol2

> <Gold.PLP.Fitness>
42.1907

> <Gold.PLP.PLP>
-31.7588

> <Gold.PLP.part.hbond>
-1.9739

> <Gold.PLP.part.metal>
0.0000

> <Gold.PLP.part.buried>
-3.1948

> <Gold.PLP.part.nonpolar>
-27.6600

> <Gold.PLP.part.repulsive>
0.1746

> <Gold.PLP.ligand.clash>
0.0000

> <Gold.PLP.ligand.torsion>
0.8658

> <Gold.PLP.Chemscore.Hbond>
3.0000

> <Gold.PLP.Chemscore.CHOScore>
1.0000

> <Gold.PLP.Chemscore.Metal>
0.0000

> <Gold.Chemscore.Hbonds>
donor molecule, donor type, donor heavy atom, donor atom, acceptor molecule, acceptor atom, score
      L1  H     3    44       P1  7948  2.00
      P1  H  7989  7998       L1    11  1.00
      L1  C    17    41       P1  8028  1.00

> <Gold.PLP.Chemscore.Internal.Correction>
0.1634

> <Gold.Rescore>
     Score         DG    S(hbond)    S(metal)    S(lipo)     H(rot)  DE(clash)    DE(int)     intcor
     15.41     -17.95       1.99        0.00      86.67       1.68       0.24       2.30       ----

> <Gold.Chemscore.Fitness>
15.4128

> <Gold.Chemscore.DG>
-17.9533

> <Gold.Chemscore.ZeroCoef>
-5.4800

> <Gold.Chemscore.Hbond>
1.9878

> <Gold.Chemscore.Metal>
0.0000

> <Gold.Chemscore.Lipo>
86.6718

> <Gold.Chemscore.Internal_Hbond>
0.0000

> <Gold.Chemscore.DEClash>
0.2395

> <Gold.Chemscore.DEInternal>
2.3010

> <Gold.Chemscore.Rot>
1.6823

> <Gold.Chemscore.Internal.Correction>
   9.000000E+99

> <Gold.Chemscore.Hbonds>
donor molecule, donor type, donor heavy atom, donor atom, acceptor molecule, acceptor atom, score
      L1  H     3    44       P1  7948  1.00
      P1  H  7989  7998       L1    11  1.00

> <Gold.Chemscore.Hbond.Weighted>
-6.6393

> <Gold.Chemscore.Metal.Weighted>
-0.0000

> <Gold.Chemscore.Lipo.Weighted>
-10.1406

> <Gold.Chemscore.Internal_Hbond.Weighted>
0.0000

> <Gold.Chemscore.DEClash.Weighted>
0.2395

> <Gold.Chemscore.DEInternal.Weighted>
2.3010

> <Gold.Chemscore.Rot.Weighted>
4.3066

> <Gold.Chemscore.Internal.Correction.Weighted>
   9.000000E+99

> <Gold.Protein.RotatedTorsions>
[ 6907 6896 6895 6894 ] final -131.44 input  -60.11 | X-H torsion
[ 7974 7965 7964 7962 ] final   -8.88 input  175.53 | X-H torsion
[ 8008 7997 7996 7995 ] final   17.88 input   59.86 | X-H torsion
[ 10167 10162 10161 10158 ] final -155.20 input  -65.29 | X-H torsion
[ 10718 10713 10712 10709 ] final   39.87 input   66.30 | X-H torsion
[ 10763 10752 10751 10750 ] final   24.93 input  -60.55 | X-H torsion
[ 11005 11000 10999 10996 ] final -125.53 input  -57.11 | X-H torsion

> <Gold.Protein.ActiveResidues>
 VAL166  LYS551  ARG553  GLY616  TRP617  ASP618  TYR619  PRO620  LYS621  CYS622 
 ASP623  PHE694  ASN695  SER759  ASP760  ASP761  ALA762  ILE779  LEU786  VAL792 
 PHE793  MET794  SER795  GLU796  ALA797  LYS798  CYS799  TRP800  GLU811  SER814 

> <Gold.Protein.RotatedAtoms>
  150.9509  133.6550  159.2771 H   0  0  0  0  0  0  0  0  0  0  0  0  # atno 6907 bound_to 6896
  151.3906  135.0954  159.9534 H   0  0  0  0  0  0  0  0  0  0  0  0  # atno 6908 bound_to 6896
  152.5109  133.9025  159.7502 H   0  0  0  0  0  0  0  0  0  0  0  0  # atno 6909 bound_to 6896
  146.2268  140.2533  142.8348 H   0  0  0  0  0  0  0  0  0  0  0  0  # atno 7974 bound_to 7965
  154.8979  140.2996  155.5334 H   0  0  0  0  0  0  0  0  0  0  0  0  # atno 8008 bound_to 7997
  156.3019  140.2412  156.3937 H   0  0  0  0  0  0  0  0  0  0  0  0  # atno 8009 bound_to 7997
  154.8552  140.0407  157.1618 H   0  0  0  0  0  0  0  0  0  0  0  0  # atno 8010 bound_to 7997
  139.6951  143.9356  152.2403 H   0  0  0  0  0  0  0  0  0  0  0  0  # atno 10167 bound_to 10162
  157.3756  130.7725  149.7153 H   0  0  0  0  0  0  0  0  0  0  0  0  # atno 10718 bound_to 10713
  153.0728  135.6594  154.0211 H   0  0  0  0  0  0  0  0  0  0  0  0  # atno 10763 bound_to 10752
  153.9852  135.2951  155.3418 H   0  0  0  0  0  0  0  0  0  0  0  0  # atno 10764 bound_to 10752
  154.7107  135.5206  153.8733 H   0  0  0  0  0  0  0  0  0  0  0  0  # atno 10765 bound_to 10752
  140.9755  134.0746  157.3823 H   0  0  0  0  0  0  0  0  0  0  0  0  # atno 11005 bound_to 11000
  144.9395  140.8063  143.5639 LP  0  0  0  0  0  0  0  0  0  0  0  0  # atno 17320 bound_to 7965
  145.2483  139.2042  143.4956 LP  0  0  0  0  0  0  0  0  0  0  0  0  # atno 17321 bound_to 7965
  139.9183  144.6815  150.8489 LP  0  0  0  0  0  0  0  0  0  0  0  0  # atno 17342 bound_to 10162
  140.7694  143.3393  151.2241 LP  0  0  0  0  0  0  0  0  0  0  0  0  # atno 17343 bound_to 10162
  155.9764  130.4075  150.3778 LP  0  0  0  0  0  0  0  0  0  0  0  0  # atno 17370 bound_to 10713
  157.1875  131.0407  151.2717 LP  0  0  0  0  0  0  0  0  0  0  0  0  # atno 17371 bound_to 10713
  139.8929  135.0127  156.6869 LP  0  0  0  0  0  0  0  0  0  0  0  0  # atno 17394 bound_to 11000
  140.7266  133.9095  155.8182 LP  0  0  0  0  0  0  0  0  0  0  0  0  # atno 17395 bound_to 11000

$$$$
