AV-unprocessed.smi:181|AV-procd|sdf|1453|dock10
  -GOLD-   2262019253D 1   1.00000     0.00000
 Structure written by MMmdl.
 50 53  0  0  0  0  0  0  0  0  1 V2000
  151.0536  143.1432  158.1433 C   0  0  0  0  0  0  0  0  0  0  0  0
  151.4337  141.6579  158.1249 C   0  0  0  0  0  0  0  0  0  0  0  0
  150.3590  140.8297  157.5796 N   0  0  0  0  0  0  0  0  0  0  0  0
  150.3429  139.5587  158.0426 C   0  0  0  0  0  0  0  0  0  0  0  0
  151.5077  138.9347  158.3544 N   0  0  0  0  0  0  0  0  0  0  0  0
  151.4883  137.6809  158.8167 C   0  0  0  0  0  0  0  0  0  0  0  0
  150.4363  136.8900  159.0423 N   0  0  0  0  0  0  0  0  0  0  0  0
  149.2660  137.5228  158.7403 C   0  0  0  0  0  0  0  0  0  0  0  0
  149.1313  138.8477  158.2415 C   0  0  0  0  0  0  0  0  0  0  0  0
  147.7904  139.1545  158.0510 N   0  0  0  0  0  0  0  0  0  0  0  0
  147.1648  138.0695  158.4196 C   0  0  0  0  0  0  0  0  0  0  0  0
  147.9736  137.0414  158.8509 N   0  0  0  0  0  0  0  0  0  0  0  0
  147.5453  135.7312  159.3154 C   0  0  0  0  0  0  0  0  0  0  0  0
  146.7672  135.7636  160.6539 C   0  0  0  0  0  0  0  0  0  0  0  0
  145.5225  136.3969  160.4112 O   0  0  0  0  0  0  0  0  0  0  0  0
  146.4946  134.3300  161.1512 C   0  0  0  0  0  0  0  0  0  0  0  0
  145.8749  134.3118  162.5597 C   0  0  0  0  0  0  0  0  0  0  0  0
  146.7084  135.0228  163.4668 O   0  0  0  0  0  0  0  0  0  0  0  0
  146.8364  136.3994  163.1321 C   0  0  0  0  0  0  0  0  0  0  0  0
  147.5095  136.5509  161.7565 C   0  0  0  0  0  0  0  0  0  0  0  0
  149.8108  141.1244  156.2452 C   0  0  2  0  0  0  0  0  0  0  0  0
  148.2693  141.1235  156.1826 C   0  0  0  0  0  0  0  0  0  0  0  0
  147.9420  140.6607  154.7553 C   0  0  0  0  0  0  0  0  0  0  0  0
  149.1344  139.9540  154.3254 N   0  0  0  0  0  0  0  0  0  0  0  0
  150.1829  140.1570  155.1227 C   0  0  0  0  0  0  0  0  0  0  0  0
  151.2993  139.6639  154.9761 O   0  0  0  0  0  0  0  0  0  0  0  0
  151.8592  143.7423  158.5681 H   0  0  0  0  0  0  0  0  0  0  0  0
  150.1612  143.3102  158.7473 H   0  0  0  0  0  0  0  0  0  0  0  0
  150.8554  143.5214  157.1406 H   0  0  0  0  0  0  0  0  0  0  0  0
  152.3364  141.5205  157.5296 H   0  0  0  0  0  0  0  0  0  0  0  0
  151.6923  141.3477  159.1396 H   0  0  0  0  0  0  0  0  0  0  0  0
  152.4537  137.2509  159.0390 H   0  0  0  0  0  0  0  0  0  0  0  0
  146.0876  137.9890  158.3918 H   0  0  0  0  0  0  0  0  0  0  0  0
  146.9377  135.2733  158.5333 H   0  0  0  0  0  0  0  0  0  0  0  0
  148.4316  135.1033  159.4146 H   0  0  0  0  0  0  0  0  0  0  0  0
  145.4244  137.1100  161.0235 H   0  0  0  0  0  0  0  0  0  0  0  0
  145.8492  133.7975  160.4512 H   0  0  0  0  0  0  0  0  0  0  0  0
  147.4331  133.7747  161.1822 H   0  0  0  0  0  0  0  0  0  0  0  0
  144.8720  134.7416  162.5554 H   0  0  0  0  0  0  0  0  0  0  0  0
  145.7750  133.2839  162.9085 H   0  0  0  0  0  0  0  0  0  0  0  0
  145.8577  136.8815  163.1465 H   0  0  0  0  0  0  0  0  0  0  0  0
  147.4395  136.8901  163.8962 H   0  0  0  0  0  0  0  0  0  0  0  0
  148.5342  136.1844  161.8311 H   0  0  0  0  0  0  0  0  0  0  0  0
  147.5802  137.6086  161.4997 H   0  0  0  0  0  0  0  0  0  0  0  0
  150.1681  142.1061  155.9330 H   0  0  0  0  0  0  0  0  0  0  0  0
  147.8257  140.4165  156.8838 H   0  0  0  0  0  0  0  0  0  0  0  0
  147.8479  142.1045  156.4041 H   0  0  0  0  0  0  0  0  0  0  0  0
  147.0634  140.0158  154.7230 H   0  0  0  0  0  0  0  0  0  0  0  0
  147.7719  141.5110  154.0939 H   0  0  0  0  0  0  0  0  0  0  0  0
  149.1490  139.3547  153.5129 H   0  0  0  0  0  0  0  0  0  0  0  0
  1  2  1  0  0  0  0
  1 27  1  0  0  0  0
  1 28  1  0  0  0  0
  1 29  1  0  0  0  0
  2  3  1  0  0  0  0
  2 30  1  0  0  0  0
  2 31  1  0  0  0  0
  3  4  1  0  0  0  0
  3 21  1  0  0  0  0
  4  9  1  0  0  0  0
  4  5  2  0  0  0  0
  5  6  1  0  0  0  0
  6  7  2  0  0  0  0
  6 32  1  0  0  0  0
  7  8  1  0  0  0  0
  8 12  1  0  0  0  0
  8  9  2  0  0  0  0
  9 10  1  0  0  0  0
 10 11  2  0  0  0  0
 11 12  1  0  0  0  0
 11 33  1  0  0  0  0
 12 13  1  0  0  0  0
 13 14  1  0  0  0  0
 13 34  1  0  0  0  0
 13 35  1  0  0  0  0
 14 20  1  0  0  0  0
 14 15  1  0  0  0  0
 14 16  1  0  0  0  0
 15 36  1  0  0  0  0
 16 17  1  0  0  0  0
 16 37  1  0  0  0  0
 16 38  1  0  0  0  0
 17 18  1  0  0  0  0
 17 39  1  0  0  0  0
 17 40  1  0  0  0  0
 18 19  1  0  0  0  0
 19 20  1  0  0  0  0
 19 41  1  0  0  0  0
 19 42  1  0  0  0  0
 20 43  1  0  0  0  0
 20 44  1  0  0  0  0
 21 25  1  0  0  0  0
 21 22  1  0  0  0  0
 21 45  1  0  0  0  0
 22 23  1  0  0  0  0
 22 46  1  0  0  0  0
 22 47  1  0  0  0  0
 23 24  1  0  0  0  0
 23 48  1  0  0  0  0
 23 49  1  0  0  0  0
 24 25  1  0  0  0  0
 24 50  1  0  0  0  0
 25 26  2  0  0  0  0
M  END
> <s_m_source_file>
AV-unprocessed.smi

> <i_m_source_file_index>
181

> <i_lp_mmshare_version>
43012

> <i_f3d_flags>
0

> <s_epik_input>
Tz1DMVtOSF1bQ0gyXVtDSDJdW0NASF0xTihbQ0gyXVtDSDNdKWMobltjSF1uMiljKGMyMyluW2NIXW4zW0NIMl1DNChbT0hdKVtDSDJdW0NIMl1PW0NIMl1bQ0gyXTQ=

> <s_epik_cmdline>
J2VwaWtfcHl0aG9uJywgJy1waCcsICc3LjAnLCAnLXRuJywgJzgnLCAnLW1hJywgJzIwMCcsICctbWV0YWxfYmluZGluZycsICctaW1hZScsICc8aW5maWxlLm1hZT4nLCAnLW9tYWUnLCAnPG91dGZpbGUubWFlPic=

> <r_lp_tautomer_probability>
1

> <r_epik_Ionization_Penalty>
0.000985257

> <r_epik_Ionization_Penalty_Charging>
0

> <r_epik_Ionization_Penalty_Neutral>
0.000985257

> <r_epik_State_Penalty>
0.000517047

> <r_epik_Charging_Adjusted_Penalty>
0.000517047

> <i_epik_Tot_Q>
0

> <i_epik_Tot_abs_Q>
0

> <r_epik_Metal_State_Penalty>
-0

> <b_epik_Metal_Only>
0

> <s_lp_Force_Field>
OPLS_2005

> <r_lp_Energy>
35.7055

> <b_lp_Chiralities_Consistent>
1

> <s_lp_Variant>
AV-unprocessed.smi:181-1

> <Gold.Version>
5.8.1

> <Gold.Id.Protein>
6NUR|6NUR_protein|mol2

> <Gold.PLP.Fitness>
44.3032

> <Gold.PLP.PLP>
-42.0415

> <Gold.PLP.part.hbond>
-4.5210

> <Gold.PLP.part.metal>
0.0000

> <Gold.PLP.part.buried>
-6.8049

> <Gold.PLP.part.nonpolar>
-31.7945

> <Gold.PLP.part.repulsive>
0.1937

> <Gold.PLP.ligand.clash>
0.0000

> <Gold.PLP.ligand.torsion>
1.4489

> <Gold.PLP.Chemscore.Hbond>
1.3000

> <Gold.PLP.Chemscore.CHOScore>
0.0000

> <Gold.PLP.Chemscore.Metal>
0.0000

> <Gold.Chemscore.Hbonds>
donor molecule, donor type, donor heavy atom, donor atom, acceptor molecule, acceptor atom, score
      P1  H  6896  6908       L1     7  0.71
      P1  H  7989  7998       L1    26  0.50

> <Gold.PLP.Chemscore.Internal.Correction>
1.2595

> <Gold.Rescore>
     Score         DG    S(hbond)    S(metal)    S(lipo)     H(rot)  DE(clash)    DE(int)     intcor
     11.00     -14.75       1.97        0.00      77.62       2.49       0.86       2.90       ----

> <Gold.Chemscore.Fitness>
10.9990

> <Gold.Chemscore.DG>
-14.7526

> <Gold.Chemscore.ZeroCoef>
-5.4800

> <Gold.Chemscore.Hbond>
1.9656

> <Gold.Chemscore.Metal>
0.0000

> <Gold.Chemscore.Lipo>
77.6166

> <Gold.Chemscore.Internal_Hbond>
0.0000

> <Gold.Chemscore.DEClash>
0.8556

> <Gold.Chemscore.DEInternal>
2.8980

> <Gold.Chemscore.Rot>
2.4897

> <Gold.Chemscore.Internal.Correction>
   9.000000E+99

> <Gold.Chemscore.Hbonds>
donor molecule, donor type, donor heavy atom, donor atom, acceptor molecule, acceptor atom, score
      L1  H    24    50       P1  7957  0.01
      P1  H  6896  6908       L1     7  0.27
      P1  H  7989  7998       L1    26  0.02

> <Gold.Chemscore.Hbond.Weighted>
-6.5650

> <Gold.Chemscore.Metal.Weighted>
-0.0000

> <Gold.Chemscore.Lipo.Weighted>
-9.0811

> <Gold.Chemscore.Internal_Hbond.Weighted>
0.0000

> <Gold.Chemscore.DEClash.Weighted>
0.8556

> <Gold.Chemscore.DEInternal.Weighted>
2.8980

> <Gold.Chemscore.Rot.Weighted>
6.3735

> <Gold.Chemscore.Internal.Correction.Weighted>
   9.000000E+99

> <Gold.Protein.RotatedTorsions>
[ 6907 6896 6895 6894 ] final -133.48 input  -60.11 | X-H torsion
[ 7974 7965 7964 7962 ] final  -93.82 input  175.53 | X-H torsion
[ 8008 7997 7996 7995 ] final   90.65 input   59.86 | X-H torsion
[ 10167 10162 10161 10158 ] final -160.86 input  -65.29 | X-H torsion
[ 10718 10713 10712 10709 ] final  147.78 input   66.30 | X-H torsion
[ 10763 10752 10751 10750 ] final   48.28 input  -60.55 | X-H torsion
[ 11005 11000 10999 10996 ] final -169.67 input  -57.11 | X-H torsion

> <Gold.Protein.ActiveResidues>
 VAL166  LYS551  ARG553  GLY616  TRP617  ASP618  TYR619  PRO620  LYS621  CYS622 
 ASP623  PHE694  ASN695  SER759  ASP760  ASP761  ALA762  ILE779  LEU786  VAL792 
 PHE793  MET794  SER795  GLU796  ALA797  LYS798  CYS799  TRP800  GLU811  SER814 

> <Gold.Protein.RotatedAtoms>
  150.9745  133.6309  159.2732 H   0  0  0  0  0  0  0  0  0  0  0  0  # atno 6907 bound_to 6896
  151.3586  135.0898  159.9437 H   0  0  0  0  0  0  0  0  0  0  0  0  # atno 6908 bound_to 6896
  152.5194  133.9323  159.7641 H   0  0  0  0  0  0  0  0  0  0  0  0  # atno 6909 bound_to 6896
  145.3815  140.9518  143.2391 H   0  0  0  0  0  0  0  0  0  0  0  0  # atno 7974 bound_to 7965
  156.0145  140.3347  155.6974 H   0  0  0  0  0  0  0  0  0  0  0  0  # atno 8008 bound_to 7997
  155.6111  140.0665  157.2723 H   0  0  0  0  0  0  0  0  0  0  0  0  # atno 8009 bound_to 7997
  154.4293  140.1793  156.1261 H   0  0  0  0  0  0  0  0  0  0  0  0  # atno 8010 bound_to 7997
  139.6508  144.0087  152.2160 H   0  0  0  0  0  0  0  0  0  0  0  0  # atno 10167 bound_to 10162
  157.3167  131.0897  151.1273 H   0  0  0  0  0  0  0  0  0  0  0  0  # atno 10718 bound_to 10713
  152.9793  135.5949  154.3900 H   0  0  0  0  0  0  0  0  0  0  0  0  # atno 10763 bound_to 10752
  154.3556  135.2767  155.2350 H   0  0  0  0  0  0  0  0  0  0  0  0  # atno 10764 bound_to 10752
  154.4370  135.6022  153.6160 H   0  0  0  0  0  0  0  0  0  0  0  0  # atno 10765 bound_to 10752
  140.5282  134.5642  157.5067 H   0  0  0  0  0  0  0  0  0  0  0  0  # atno 11005 bound_to 11000
  144.8504  139.5331  143.6859 LP  0  0  0  0  0  0  0  0  0  0  0  0  # atno 17320 bound_to 7965
  146.2840  139.6953  142.9209 LP  0  0  0  0  0  0  0  0  0  0  0  0  # atno 17321 bound_to 7965
  139.9801  144.6434  150.7908 LP  0  0  0  0  0  0  0  0  0  0  0  0  # atno 17342 bound_to 10162
  140.7537  143.3013  151.3074 LP  0  0  0  0  0  0  0  0  0  0  0  0  # atno 17343 bound_to 10162
  157.2573  130.6642  149.5959 LP  0  0  0  0  0  0  0  0  0  0  0  0  # atno 17370 bound_to 10713
  155.9682  130.4519  150.5755 LP  0  0  0  0  0  0  0  0  0  0  0  0  # atno 17371 bound_to 10713
  139.9569  134.7520  156.0323 LP  0  0  0  0  0  0  0  0  0  0  0  0  # atno 17394 bound_to 11000
  141.1296  133.6590  156.3429 LP  0  0  0  0  0  0  0  0  0  0  0  0  # atno 17395 bound_to 11000

$$$$
