AV-unprocessed.smi:1430|AV-procd|sdf|5825|dock2
  -GOLD-   22720 5483D 1   1.00000     0.00000
 Structure written by MMmdl.
 47 48  0  0  0  0  0  0  0  0  2 V2000
  152.5811  141.2363  159.3337 C   0  0  0  0  0  0  0  0  0  0  0  0
  153.0184  140.4231  158.2505 O   0  0  0  0  0  0  0  0  0  0  0  0
  152.1495  140.2073  157.2006 C   0  0  0  0  0  0  0  0  0  0  0  0
  150.7857  140.5124  157.3802 C   0  0  0  0  0  0  0  0  0  0  0  0
  149.8921  140.2955  156.3140 C   0  0  0  0  0  0  0  0  0  0  0  0
  150.3947  139.7839  155.0933 C   0  0  0  0  0  0  0  0  0  0  0  0
  149.5981  139.5010  153.9507 N   0  0  0  0  0  0  0  0  0  0  0  0
  148.3360  139.0426  153.8990 C   0  0  0  0  0  0  0  0  0  0  0  0
  147.6122  138.8312  154.8710 O   0  0  0  0  0  0  0  0  0  0  0  0
  147.9446  138.8437  152.6322 N   0  0  0  0  0  0  0  0  0  0  0  0
  146.6287  138.3570  152.2221 C   0  0  0  0  0  0  0  0  0  0  0  0
  146.1259  137.1616  153.0618 C   0  0  0  0  0  0  0  0  0  0  0  0
  146.4617  135.8436  152.4662 N   0  3  1  0  0  0  0  0  0  0  0  0
  146.8134  134.8289  153.4862 C   0  0  0  0  0  0  0  0  0  0  0  0
  147.2297  133.5097  152.8088 C   0  0  1  0  0  0  0  0  0  0  0  0
  147.5291  132.4055  153.8285 C   0  0  0  0  0  0  0  0  0  0  0  0
  146.1707  133.0648  151.9674 O   0  0  0  0  0  0  0  0  0  0  0  0
  145.8705  133.9894  150.9271 C   0  0  1  0  0  0  0  0  0  0  0  0
  144.7879  133.3723  150.0348 C   0  0  0  0  0  0  0  0  0  0  0  0
  145.4171  135.3216  151.5532 C   0  0  0  0  0  0  0  0  0  0  0  0
  151.7742  139.5000  155.0206 C   0  0  0  0  0  0  0  0  0  0  0  0
  152.6357  139.7056  156.0385 N   0  0  0  0  0  0  0  0  0  0  0  0
  153.3753  141.3038  160.0771 H   0  0  0  0  0  0  0  0  0  0  0  0
  151.7048  140.8096  159.8241 H   0  0  0  0  0  0  0  0  0  0  0  0
  152.3490  142.2499  159.0044 H   0  0  0  0  0  0  0  0  0  0  0  0
  150.4297  140.9024  158.3224 H   0  0  0  0  0  0  0  0  0  0  0  0
  148.8457  140.5111  156.4621 H   0  0  0  0  0  0  0  0  0  0  0  0
  150.0330  139.7068  153.0631 H   0  0  0  0  0  0  0  0  0  0  0  0
  148.5995  139.0596  151.8946 H   0  0  0  0  0  0  0  0  0  0  0  0
  145.9055  139.1729  152.2612 H   0  0  0  0  0  0  0  0  0  0  0  0
  146.6985  138.0685  151.1733 H   0  0  0  0  0  0  0  0  0  0  0  0
  146.5863  137.2235  154.0485 H   0  0  0  0  0  0  0  0  0  0  0  0
  145.0503  137.2366  153.2277 H   0  0  0  0  0  0  0  0  0  0  0  0
  147.6325  135.1987  154.1045 H   0  0  0  0  0  0  0  0  0  0  0  0
  145.9600  134.6651  154.1465 H   0  0  0  0  0  0  0  0  0  0  0  0
  148.1234  133.6734  152.2037 H   0  0  0  0  0  0  0  0  0  0  0  0
  148.3436  132.6952  154.4928 H   0  0  0  0  0  0  0  0  0  0  0  0
  147.8218  131.4820  153.3283 H   0  0  0  0  0  0  0  0  0  0  0  0
  146.6559  132.1881  154.4441 H   0  0  0  0  0  0  0  0  0  0  0  0
  146.7648  134.1532  150.3232 H   0  0  0  0  0  0  0  0  0  0  0  0
  144.5252  134.0417  149.2153 H   0  0  0  0  0  0  0  0  0  0  0  0
  143.8798  133.1649  150.6017 H   0  0  0  0  0  0  0  0  0  0  0  0
  145.1298  132.4332  149.5990 H   0  0  0  0  0  0  0  0  0  0  0  0
  144.4864  135.1824  152.1059 H   0  0  0  0  0  0  0  0  0  0  0  0
  145.2158  136.0443  150.7626 H   0  0  0  0  0  0  0  0  0  0  0  0
  152.2037  139.0966  154.1151 H   0  0  0  0  0  0  0  0  0  0  0  0
  147.2944  135.9858  151.9124 H   0  0  0  0  0  0  0  0  0  0  0  0
  1  2  1  0  0  0  0
  1 23  1  0  0  0  0
  1 24  1  0  0  0  0
  1 25  1  0  0  0  0
  2  3  1  0  0  0  0
  3 22  1  0  0  0  0
  3  4  2  0  0  0  0
  4  5  1  0  0  0  0
  4 26  1  0  0  0  0
  5  6  2  0  0  0  0
  5 27  1  0  0  0  0
  6  7  1  0  0  0  0
  6 21  1  0  0  0  0
  7  8  1  0  0  0  0
  7 28  1  0  0  0  0
  8  9  2  0  0  0  0
  8 10  1  0  0  0  0
 10 11  1  0  0  0  0
 10 29  1  0  0  0  0
 11 12  1  0  0  0  0
 11 30  1  0  0  0  0
 11 31  1  0  0  0  0
 12 13  1  0  0  0  0
 12 32  1  0  0  0  0
 12 33  1  0  0  0  0
 13 20  1  0  0  0  0
 13 14  1  0  0  0  0
 13 47  1  0  0  0  0
 14 15  1  0  0  0  0
 14 34  1  0  0  0  0
 14 35  1  0  0  0  0
 15 16  1  0  0  0  0
 15 17  1  0  0  0  0
 15 36  1  0  0  0  0
 16 37  1  0  0  0  0
 16 38  1  0  0  0  0
 16 39  1  0  0  0  0
 17 18  1  0  0  0  0
 18 19  1  0  0  0  0
 18 20  1  0  0  0  0
 18 40  1  0  0  0  0
 19 41  1  0  0  0  0
 19 42  1  0  0  0  0
 19 43  1  0  0  0  0
 20 44  1  0  0  0  0
 20 45  1  0  0  0  0
 21 22  2  0  0  0  0
 21 46  1  0  0  0  0
M  CHG  1  13   1
M  END
> <s_m_source_file>
AV-unprocessed.smi

> <i_m_source_file_index>
1430

> <i_lp_mmshare_version>
43012

> <i_f3d_flags>
0

> <s_epik_input>
W0NIM11PYzFbY0hdW2NIXWMoW2NIXW4xKVtOSF1DKD1PKVtOSF1bQ0gyXVtDSDJdTjJbQ0gyXVtDQEBIXShbQ0gzXSlPW0NAQEhdKFtDSDNdKVtDSDJdMg==

> <s_epik_cmdline>
J2VwaWtfcHl0aG9uJywgJy1waCcsICc3LjAnLCAnLXRuJywgJzgnLCAnLW1hJywgJzIwMCcsICctbWV0YWxfYmluZGluZycsICctaW1hZScsICc8aW5maWxlLm1hZT4nLCAnLW9tYWUnLCAnPG91dGZpbGUubWFlPic=

> <r_lp_tautomer_probability>
1

> <r_epik_Ionization_Penalty>
0.602607

> <r_epik_Ionization_Penalty_Charging>
0.602531

> <r_epik_Ionization_Penalty_Neutral>
7.66983e-05

> <r_epik_State_Penalty>
0.617039

> <r_epik_Charging_Adjusted_Penalty>
1.21957

> <i_epik_Tot_Q>
1

> <i_epik_Tot_abs_Q>
1

> <r_epik_Metal_State_Penalty>
0.617043

> <b_epik_Metal_Only>
0

> <s_lp_Force_Field>
OPLS_2005

> <r_lp_Energy>
23.5338

> <b_lp_Chiralities_Consistent>
1

> <s_lp_Variant>
AV-unprocessed.smi:1430-4

> <Gold.Version>
5.8.1

> <Gold.Id.Protein>
6NUR|6NUR_protein|mol2

> <Gold.PLP.Fitness>
47.3351

> <Gold.PLP.PLP>
-35.2134

> <Gold.PLP.part.hbond>
-5.7705

> <Gold.PLP.part.metal>
0.0000

> <Gold.PLP.part.buried>
-2.5717

> <Gold.PLP.part.nonpolar>
-27.2175

> <Gold.PLP.part.repulsive>
0.4102

> <Gold.PLP.ligand.clash>
0.0000

> <Gold.PLP.ligand.torsion>
1.2075

> <Gold.PLP.Chemscore.Hbond>
4.8320

> <Gold.PLP.Chemscore.CHOScore>
0.0000

> <Gold.PLP.Chemscore.Metal>
0.0000

> <Gold.Chemscore.Hbonds>
donor molecule, donor type, donor heavy atom, donor atom, acceptor molecule, acceptor atom, score
      L1  H     7    28       P1  7957  0.85
      L1  H    10    29       P1  7957  1.00
      L1  H    13    47       P1  7948  2.00
      P1  H  7997  8009       L1    22  1.00

> <Gold.PLP.Chemscore.Internal.Correction>
0.0407

> <Gold.Rescore>
     Score         DG    S(hbond)    S(metal)    S(lipo)     H(rot)  DE(clash)    DE(int)     intcor
     17.76     -21.01       3.47        0.00      72.21       1.76       0.27       2.98       ----

> <Gold.Chemscore.Fitness>
17.7573

> <Gold.Chemscore.DG>
-21.0125

> <Gold.Chemscore.ZeroCoef>
-5.4800

> <Gold.Chemscore.Hbond>
3.4704

> <Gold.Chemscore.Metal>
0.0000

> <Gold.Chemscore.Lipo>
72.2110

> <Gold.Chemscore.Internal_Hbond>
0.0000

> <Gold.Chemscore.DEClash>
0.2713

> <Gold.Chemscore.DEInternal>
2.9838

> <Gold.Chemscore.Rot>
1.7606

> <Gold.Chemscore.Internal.Correction>
   9.000000E+99

> <Gold.Chemscore.Hbonds>
donor molecule, donor type, donor heavy atom, donor atom, acceptor molecule, acceptor atom, score
      L1  H     7    28       P1  7957  0.83
      L1  H    10    29       P1  7957  0.88
      L1  H    13    47       P1  7948  0.94
      P1  H  7997  8009       L1    22  0.30

> <Gold.Chemscore.Hbond.Weighted>
-11.5910

> <Gold.Chemscore.Metal.Weighted>
-0.0000

> <Gold.Chemscore.Lipo.Weighted>
-8.4487

> <Gold.Chemscore.Internal_Hbond.Weighted>
0.0000

> <Gold.Chemscore.DEClash.Weighted>
0.2713

> <Gold.Chemscore.DEInternal.Weighted>
2.9838

> <Gold.Chemscore.Rot.Weighted>
4.5072

> <Gold.Chemscore.Internal.Correction.Weighted>
   9.000000E+99

> <Gold.Protein.RotatedTorsions>
[ 6907 6896 6895 6894 ] final   64.67 input  -60.11 | X-H torsion
[ 7974 7965 7964 7962 ] final   71.77 input  175.53 | X-H torsion
[ 8008 7997 7996 7995 ] final -151.34 input   59.86 | X-H torsion
[ 10167 10162 10161 10158 ] final -168.11 input  -65.29 | X-H torsion
[ 10718 10713 10712 10709 ] final  -23.42 input   66.30 | X-H torsion
[ 10763 10752 10751 10750 ] final  123.96 input  -60.55 | X-H torsion
[ 11005 11000 10999 10996 ] final   37.79 input  -57.11 | X-H torsion

> <Gold.Protein.ActiveResidues>
 VAL166  LYS551  ARG553  GLY616  TRP617  ASP618  TYR619  PRO620  LYS621  CYS622 
 ASP623  PHE694  ASN695  SER759  ASP760  ASP761  ALA762  ILE779  LEU786  VAL792 
 PHE793  MET794  SER795  GLU796  ALA797  LYS798  CYS799  TRP800  GLU811  SER814 

> <Gold.Protein.RotatedAtoms>
  152.4349  134.5706  159.9919 H   0  0  0  0  0  0  0  0  0  0  0  0  # atno 6907 bound_to 6896
  151.5819  133.3371  159.3018 H   0  0  0  0  0  0  0  0  0  0  0  0  # atno 6908 bound_to 6896
  150.8246  134.7506  159.6866 H   0  0  0  0  0  0  0  0  0  0  0  0  # atno 6909 bound_to 6896
  145.7616  139.2803  143.1373 H   0  0  0  0  0  0  0  0  0  0  0  0  # atno 7974 bound_to 7965
  155.6379  140.0698  157.2628 H   0  0  0  0  0  0  0  0  0  0  0  0  # atno 8008 bound_to 7997
  154.4190  140.1756  156.1591 H   0  0  0  0  0  0  0  0  0  0  0  0  # atno 8009 bound_to 7997
  155.9880  140.3348  155.6729 H   0  0  0  0  0  0  0  0  0  0  0  0  # atno 8010 bound_to 7997
  139.6006  144.1019  152.1738 H   0  0  0  0  0  0  0  0  0  0  0  0  # atno 10167 bound_to 10162
  156.4913  130.4567  149.6754 H   0  0  0  0  0  0  0  0  0  0  0  0  # atno 10718 bound_to 10713
  153.6538  135.3358  155.3107 H   0  0  0  0  0  0  0  0  0  0  0  0  # atno 10763 bound_to 10752
  154.8531  135.4347  154.1876 H   0  0  0  0  0  0  0  0  0  0  0  0  # atno 10764 bound_to 10752
  153.2825  135.7010  153.7446 H   0  0  0  0  0  0  0  0  0  0  0  0  # atno 10765 bound_to 10752
  140.2191  134.3663  155.8013 H   0  0  0  0  0  0  0  0  0  0  0  0  # atno 11005 bound_to 11000
  146.0258  140.8305  142.9900 LP  0  0  0  0  0  0  0  0  0  0  0  0  # atno 17320 bound_to 7965
  144.6829  140.2696  143.7308 LP  0  0  0  0  0  0  0  0  0  0  0  0  # atno 17321 bound_to 7965
  140.0614  144.5853  150.7260 LP  0  0  0  0  0  0  0  0  0  0  0  0  # atno 17342 bound_to 10162
  140.7246  143.2623  151.4163 LP  0  0  0  0  0  0  0  0  0  0  0  0  # atno 17343 bound_to 10162
  156.3423  130.7388  151.2336 LP  0  0  0  0  0  0  0  0  0  0  0  0  # atno 17370 bound_to 10713
  157.7473  131.0400  150.4577 LP  0  0  0  0  0  0  0  0  0  0  0  0  # atno 17371 bound_to 10713
  141.2224  133.7184  156.8545 LP  0  0  0  0  0  0  0  0  0  0  0  0  # atno 17394 bound_to 11000
  140.1869  134.8993  157.3014 LP  0  0  0  0  0  0  0  0  0  0  0  0  # atno 17395 bound_to 11000

$$$$
