AV-unprocessed.smi:1032|AV-procd|sdf|4485|dock5
  -GOLD-   22720 2463D 1   1.00000     0.00000
 Structure written by MMmdl.
 46 47  0  0  0  0  0  0  0  0  2 V2000
  151.2445  140.4865  157.2839 C   0  0  0  0  0  0  0  0  0  0  0  0
  151.3400  140.9585  155.8225 C   0  0  2  0  0  0  0  0  0  0  0  0
  150.0417  141.6177  155.3220 C   0  0  0  0  0  0  0  0  0  0  0  0
  148.9293  140.5880  155.0539 C   0  0  0  0  0  0  0  0  0  0  0  0
  149.3853  139.5389  154.1040 N   0  3  2  0  0  0  0  0  0  0  0  0
  148.3081  138.5944  153.7102 C   0  0  0  0  0  0  0  0  0  0  0  0
  146.9881  139.3133  153.3640 C   0  0  1  0  0  0  0  0  0  0  0  0
  147.2047  140.0105  152.1528 O   0  0  0  0  0  0  0  0  0  0  0  0
  145.8368  138.3091  153.1502 C   0  0  0  0  0  0  0  0  0  0  0  0
  146.2688  137.1327  152.4025 N   0  0  0  0  0  0  0  0  0  0  0  0
  145.4489  136.2554  151.8062 C   0  0  0  0  0  0  0  0  0  0  0  0
  144.2219  136.3411  151.8487 O   0  0  0  0  0  0  0  0  0  0  0  0
  146.1421  135.2805  151.1929 N   0  0  0  0  0  0  0  0  0  0  0  0
  145.6519  134.1919  150.4211 C   0  0  0  0  0  0  0  0  0  0  0  0
  144.3072  134.2394  149.9986 C   0  0  0  0  0  0  0  0  0  0  0  0
  143.7917  133.1622  149.2504 C   0  0  0  0  0  0  0  0  0  0  0  0
  144.5179  132.0733  148.9208 N   0  0  0  0  0  0  0  0  0  0  0  0
  145.8008  132.0232  149.3376 C   0  0  0  0  0  0  0  0  0  0  0  0
  146.4139  133.0458  150.0889 C   0  0  0  0  0  0  0  0  0  0  0  0
  150.5966  138.8387  154.6026 C   0  0  0  0  0  0  0  0  0  0  0  0
  151.7464  139.8297  154.8580 C   0  0  0  0  0  0  0  0  0  0  0  0
  150.4817  139.7206  157.4216 H   0  0  0  0  0  0  0  0  0  0  0  0
  151.0006  141.3172  157.9465 H   0  0  0  0  0  0  0  0  0  0  0  0
  152.1940  140.0697  157.6211 H   0  0  0  0  0  0  0  0  0  0  0  0
  152.1257  141.7148  155.7945 H   0  0  0  0  0  0  0  0  0  0  0  0
  149.6966  142.3646  156.0381 H   0  0  0  0  0  0  0  0  0  0  0  0
  150.2496  142.1593  154.3981 H   0  0  0  0  0  0  0  0  0  0  0  0
  148.6084  140.1235  155.9871 H   0  0  0  0  0  0  0  0  0  0  0  0
  148.0602  141.1082  154.6525 H   0  0  0  0  0  0  0  0  0  0  0  0
  148.6215  138.0145  152.8402 H   0  0  0  0  0  0  0  0  0  0  0  0
  148.1558  137.8719  154.5134 H   0  0  0  0  0  0  0  0  0  0  0  0
  146.7182  140.0204  154.1487 H   0  0  0  0  0  0  0  0  0  0  0  0
  148.0442  139.7508  151.8022 H   0  0  0  0  0  0  0  0  0  0  0  0
  145.3596  138.0336  154.0928 H   0  0  0  0  0  0  0  0  0  0  0  0
  145.0575  138.7743  152.5460 H   0  0  0  0  0  0  0  0  0  0  0  0
  147.2641  136.9837  152.3223 H   0  0  0  0  0  0  0  0  0  0  0  0
  147.1428  135.2979  151.3239 H   0  0  0  0  0  0  0  0  0  0  0  0
  143.6786  135.0852  150.2369 H   0  0  0  0  0  0  0  0  0  0  0  0
  142.7669  133.1749  148.9095 H   0  0  0  0  0  0  0  0  0  0  0  0
  146.3560  131.1363  149.0699 H   0  0  0  0  0  0  0  0  0  0  0  0
  147.4392  132.9233  150.4020 H   0  0  0  0  0  0  0  0  0  0  0  0
  150.3540  138.2861  155.5113 H   0  0  0  0  0  0  0  0  0  0  0  0
  150.9238  138.1035  153.8665 H   0  0  0  0  0  0  0  0  0  0  0  0
  152.0526  140.2667  153.9063 H   0  0  0  0  0  0  0  0  0  0  0  0
  152.6198  139.3007  155.2412 H   0  0  0  0  0  0  0  0  0  0  0  0
  149.6661  140.0095  153.2549 H   0  0  0  0  0  0  0  0  0  0  0  0
  1  2  1  0  0  0  0
  1 22  1  0  0  0  0
  1 23  1  0  0  0  0
  1 24  1  0  0  0  0
  2 21  1  0  0  0  0
  2  3  1  0  0  0  0
  2 25  1  0  0  0  0
  3  4  1  0  0  0  0
  3 26  1  0  0  0  0
  3 27  1  0  0  0  0
  4  5  1  0  0  0  0
  4 28  1  0  0  0  0
  4 29  1  0  0  0  0
  5  6  1  0  0  0  0
  5 20  1  0  0  0  0
  5 46  1  0  0  0  0
  6  7  1  0  0  0  0
  6 30  1  0  0  0  0
  6 31  1  0  0  0  0
  7  8  1  0  0  0  0
  7  9  1  0  0  0  0
  7 32  1  0  0  0  0
  8 33  1  0  0  0  0
  9 10  1  0  0  0  0
  9 34  1  0  0  0  0
  9 35  1  0  0  0  0
 10 11  1  0  0  0  0
 10 36  1  0  0  0  0
 11 12  2  0  0  0  0
 11 13  1  0  0  0  0
 13 14  1  0  0  0  0
 13 37  1  0  0  0  0
 14 19  1  0  0  0  0
 14 15  2  0  0  0  0
 15 16  1  0  0  0  0
 15 38  1  0  0  0  0
 16 17  2  0  0  0  0
 16 39  1  0  0  0  0
 17 18  1  0  0  0  0
 18 19  2  0  0  0  0
 18 40  1  0  0  0  0
 19 41  1  0  0  0  0
 20 21  1  0  0  0  0
 20 42  1  0  0  0  0
 20 43  1  0  0  0  0
 21 44  1  0  0  0  0
 21 45  1  0  0  0  0
M  CHG  1   5   1
M  END
> <s_m_source_file>
AV-unprocessed.smi

> <i_m_source_file_index>
1032

> <i_lp_mmshare_version>
43012

> <i_f3d_flags>
0

> <s_epik_input>
W0NIM11bQ0hdMVtDSDJdW0NIMl1OKFtDSDJdW0NIMl0xKVtDSDJdW0NASF0oW09IXSlbQ0gyXVtOSF1DKD1PKVtOSF1jMltjSF1bY0hdbltjSF1bY0hdMg==

> <s_epik_cmdline>
J2VwaWtfcHl0aG9uJywgJy1waCcsICc3LjAnLCAnLXRuJywgJzgnLCAnLW1hJywgJzIwMCcsICctbWV0YWxfYmluZGluZycsICctaW1hZScsICc8aW5maWxlLm1hZT4nLCAnLW9tYWUnLCAnPG91dGZpbGUubWFlPic=

> <r_epik_Ionization_Penalty>
0.11743

> <r_epik_Ionization_Penalty_Charging>
0.00147689

> <r_epik_Ionization_Penalty_Neutral>
0.115954

> <r_epik_State_Penalty>
0.105552

> <r_epik_Charging_Adjusted_Penalty>
0.107029

> <i_epik_Tot_Q>
1

> <i_epik_Tot_abs_Q>
1

> <r_epik_Metal_State_Penalty>
0.0881315

> <b_epik_Metal_Only>
0

> <s_lp_Force_Field>
OPLS_2005

> <r_lp_Energy>
26.5428

> <b_lp_Chiralities_Consistent>
1

> <s_lp_Variant>
AV-unprocessed.smi:1032-4

> <Gold.Version>
5.8.1

> <Gold.Id.Protein>
6NUR|6NUR_protein|mol2

> <Gold.PLP.Fitness>
52.2345

> <Gold.PLP.PLP>
-36.7279

> <Gold.PLP.part.hbond>
-4.7759

> <Gold.PLP.part.metal>
0.0000

> <Gold.PLP.part.buried>
2.9200

> <Gold.PLP.part.nonpolar>
-33.1420

> <Gold.PLP.part.repulsive>
0.5638

> <Gold.PLP.ligand.clash>
0.0000

> <Gold.PLP.ligand.torsion>
0.4122

> <Gold.PLP.Chemscore.Hbond>
3.7953

> <Gold.PLP.Chemscore.CHOScore>
1.6309

> <Gold.PLP.Chemscore.Metal>
0.0000

> <Gold.Chemscore.Hbonds>
donor molecule, donor type, donor heavy atom, donor atom, acceptor molecule, acceptor atom, score
      L1  H     5    46       P1  7957  0.80
      L1  H     8    33       P1  7957  1.00
      L1  H    10    36       P1  7948  1.00
      L1  H    13    37       P1  7948  0.94
      P1  H 10785 10796       L1    17  0.11
      L1  C    16    39       P1 10186  1.00
      L1  C    18    40       P1 10747  0.12

> <Gold.PLP.Chemscore.Internal.Correction>
0.0525

> <Gold.Rescore>
     Score         DG    S(hbond)    S(metal)    S(lipo)     H(rot)  DE(clash)    DE(int)     intcor
     18.84     -21.38       3.05        0.00      98.81       2.29       0.73       1.81       ----

> <Gold.Chemscore.Fitness>
18.8372

> <Gold.Chemscore.DG>
-21.3754

> <Gold.Chemscore.ZeroCoef>
-5.4800

> <Gold.Chemscore.Hbond>
3.0504

> <Gold.Chemscore.Metal>
0.0000

> <Gold.Chemscore.Lipo>
98.8087

> <Gold.Chemscore.Internal_Hbond>
0.0000

> <Gold.Chemscore.DEClash>
0.7310

> <Gold.Chemscore.DEInternal>
1.8072

> <Gold.Chemscore.Rot>
2.2865

> <Gold.Chemscore.Internal.Correction>
   9.000000E+99

> <Gold.Chemscore.Hbonds>
donor molecule, donor type, donor heavy atom, donor atom, acceptor molecule, acceptor atom, score
      L1  H     5    46       P1  7957  0.75
      L1  H     8    33       P1  7957  0.98
      L1  H    10    36       P1  7948  1.00
      L1  H    13    37       P1  7948  0.77
      P1  H 10785 10796       L1    17  0.09

> <Gold.Chemscore.Hbond.Weighted>
-10.1883

> <Gold.Chemscore.Metal.Weighted>
-0.0000

> <Gold.Chemscore.Lipo.Weighted>
-11.5606

> <Gold.Chemscore.Internal_Hbond.Weighted>
0.0000

> <Gold.Chemscore.DEClash.Weighted>
0.7310

> <Gold.Chemscore.DEInternal.Weighted>
1.8072

> <Gold.Chemscore.Rot.Weighted>
5.8536

> <Gold.Chemscore.Internal.Correction.Weighted>
   9.000000E+99

> <Gold.Protein.RotatedTorsions>
[ 6907 6896 6895 6894 ] final   60.42 input  -60.11 | X-H torsion
[ 7974 7965 7964 7962 ] final   -5.62 input  175.53 | X-H torsion
[ 8008 7997 7996 7995 ] final  -60.87 input   59.86 | X-H torsion
[ 10167 10162 10161 10158 ] final   15.85 input  -65.29 | X-H torsion
[ 10718 10713 10712 10709 ] final -106.10 input   66.30 | X-H torsion
[ 10763 10752 10751 10750 ] final -111.69 input  -60.55 | X-H torsion
[ 11005 11000 10999 10996 ] final  123.66 input  -57.11 | X-H torsion

> <Gold.Protein.ActiveResidues>
 VAL166  LYS551  ARG553  GLY616  TRP617  ASP618  TYR619  PRO620  LYS621  CYS622 
 ASP623  PHE694  ASN695  SER759  ASP760  ASP761  ALA762  ILE779  LEU786  VAL792 
 PHE793  MET794  SER795  GLU796  ALA797  LYS798  CYS799  TRP800  GLU811  SER814 

> <Gold.Protein.RotatedAtoms>
  152.4001  134.6300  160.0072 H   0  0  0  0  0  0  0  0  0  0  0  0  # atno 6907 bound_to 6896
  151.6508  133.3315  159.3159 H   0  0  0  0  0  0  0  0  0  0  0  0  # atno 6908 bound_to 6896
  150.7903  134.6963  159.6570 H   0  0  0  0  0  0  0  0  0  0  0  0  # atno 6909 bound_to 6896
  146.2349  140.2048  142.8334 H   0  0  0  0  0  0  0  0  0  0  0  0  # atno 7974 bound_to 7965
  154.4419  140.1030  156.6341 H   0  0  0  0  0  0  0  0  0  0  0  0  # atno 8008 bound_to 7997
  155.5573  140.3487  155.4464 H   0  0  0  0  0  0  0  0  0  0  0  0  # atno 8009 bound_to 7997
  156.0486  140.1298  157.0065 H   0  0  0  0  0  0  0  0  0  0  0  0  # atno 8010 bound_to 7997
  140.5838  143.8929  150.6812 H   0  0  0  0  0  0  0  0  0  0  0  0  # atno 10167 bound_to 10162
  156.0375  130.5596  150.7633 H   0  0  0  0  0  0  0  0  0  0  0  0  # atno 10718 bound_to 10713
  154.8313  135.4518  154.1078 H   0  0  0  0  0  0  0  0  0  0  0  0  # atno 10763 bound_to 10752
  153.2349  135.6910  153.7854 H   0  0  0  0  0  0  0  0  0  0  0  0  # atno 10764 bound_to 10752
  153.7223  135.3340  155.3245 H   0  0  0  0  0  0  0  0  0  0  0  0  # atno 10765 bound_to 10752
  139.9323  134.9641  156.8292 H   0  0  0  0  0  0  0  0  0  0  0  0  # atno 11005 bound_to 11000
  144.9753  140.8408  143.5430 LP  0  0  0  0  0  0  0  0  0  0  0  0  # atno 17320 bound_to 7965
  145.2034  139.2240  143.5181 LP  0  0  0  0  0  0  0  0  0  0  0  0  # atno 17321 bound_to 7965
  140.2435  143.3646  152.1466 LP  0  0  0  0  0  0  0  0  0  0  0  0  # atno 17342 bound_to 10162
  139.5185  144.7007  151.5501 LP  0  0  0  0  0  0  0  0  0  0  0  0  # atno 17343 bound_to 10162
  157.5146  131.0928  151.0155 LP  0  0  0  0  0  0  0  0  0  0  0  0  # atno 17370 bound_to 10713
  157.0501  130.5784  149.5369 LP  0  0  0  0  0  0  0  0  0  0  0  0  # atno 17371 bound_to 10713
  140.6170  134.0029  155.7601 LP  0  0  0  0  0  0  0  0  0  0  0  0  # atno 17394 bound_to 11000
  141.0918  133.9905  157.3225 LP  0  0  0  0  0  0  0  0  0  0  0  0  # atno 17395 bound_to 11000

$$$$
