AV-unprocessed.smi:2474|AV-procd|sdf|9754|dock9
  -GOLD-   2272013393D 1   1.00000     0.00000
 Structure written by MMmdl.
 40 41  0  0  0  0  0  0  0  0  1 V2000
  144.0845  144.8069  154.3460 C   0  0  0  0  0  0  0  0  0  0  0  0
  144.8999  143.5736  154.5366 C   0  0  0  0  0  0  0  0  0  0  0  0
  144.7980  142.6462  155.5437 C   0  0  0  0  0  0  0  0  0  0  0  0
  145.7000  141.5867  155.4287 N   0  0  0  0  0  0  0  0  0  0  0  0
  146.4845  141.6963  154.3526 C   0  0  0  0  0  0  0  0  0  0  0  0
  147.4876  140.6591  153.9428 C   0  0  1  0  0  0  0  0  0  0  0  0
  147.1255  140.0035  152.6024 C   0  0  0  0  0  0  0  0  0  0  0  0
  148.9461  141.1693  153.9904 C   0  0  0  0  0  0  0  0  0  0  0  0
  149.1928  142.0110  155.1597 N   0  0  0  0  0  0  0  0  0  0  0  0
  150.2092  141.8628  156.0211 C   0  0  0  0  0  0  0  0  0  0  0  0
  150.9962  140.9164  156.0078 O   0  0  0  0  0  0  0  0  0  0  0  0
  150.3027  142.9037  156.8593 N   0  0  0  0  0  0  0  0  0  0  0  0
  151.4012  143.1266  157.7942 C   0  0  1  0  0  0  0  0  0  0  0  0
  151.0851  144.3386  158.6977 C   0  0  0  0  0  0  0  0  0  0  0  0
  152.2226  144.6603  159.6788 C   0  0  0  0  0  0  0  0  0  0  0  0
  152.5174  143.4956  160.6343 C   0  0  0  0  0  0  0  0  0  0  0  0
  153.0596  142.0226  159.7263 S   0  0  0  0  0  0  0  0  0  0  0  0
  151.6355  141.8477  158.6164 C   0  0  0  0  0  0  0  0  0  0  0  0
  146.1592  143.1468  153.4084 S   0  0  0  0  0  0  0  0  0  0  0  0
  143.3275  144.9015  155.1250 H   0  0  0  0  0  0  0  0  0  0  0  0
  143.5741  144.7872  153.3828 H   0  0  0  0  0  0  0  0  0  0  0  0
  144.7145  145.6959  154.3784 H   0  0  0  0  0  0  0  0  0  0  0  0
  144.1083  142.6566  156.3746 H   0  0  0  0  0  0  0  0  0  0  0  0
  147.4181  139.8663  154.6890 H   0  0  0  0  0  0  0  0  0  0  0  0
  146.1261  139.5687  152.6354 H   0  0  0  0  0  0  0  0  0  0  0  0
  147.8251  139.2050  152.3548 H   0  0  0  0  0  0  0  0  0  0  0  0
  147.1475  140.7280  151.7878 H   0  0  0  0  0  0  0  0  0  0  0  0
  149.6326  140.3235  154.0351 H   0  0  0  0  0  0  0  0  0  0  0  0
  149.1873  141.7073  153.0719 H   0  0  0  0  0  0  0  0  0  0  0  0
  148.5997  142.8212  155.2650 H   0  0  0  0  0  0  0  0  0  0  0  0
  149.6072  143.6321  156.7930 H   0  0  0  0  0  0  0  0  0  0  0  0
  152.3088  143.3339  157.2237 H   0  0  0  0  0  0  0  0  0  0  0  0
  150.8987  145.2196  158.0821 H   0  0  0  0  0  0  0  0  0  0  0  0
  150.1637  144.1583  159.2531 H   0  0  0  0  0  0  0  0  0  0  0  0
  153.1250  144.9220  159.1250 H   0  0  0  0  0  0  0  0  0  0  0  0
  151.9543  145.5430  160.2599 H   0  0  0  0  0  0  0  0  0  0  0  0
  153.2977  143.7763  161.3418 H   0  0  0  0  0  0  0  0  0  0  0  0
  151.6300  143.2477  161.2176 H   0  0  0  0  0  0  0  0  0  0  0  0
  150.7533  141.6059  159.2106 H   0  0  0  0  0  0  0  0  0  0  0  0
  151.8196  140.9991  157.9569 H   0  0  0  0  0  0  0  0  0  0  0  0
  1  2  1  0  0  0  0
  1 20  1  0  0  0  0
  1 21  1  0  0  0  0
  1 22  1  0  0  0  0
  2 19  1  0  0  0  0
  2  3  2  0  0  0  0
  3  4  1  0  0  0  0
  3 23  1  0  0  0  0
  4  5  2  0  0  0  0
  5  6  1  0  0  0  0
  5 19  1  0  0  0  0
  6  7  1  0  0  0  0
  6  8  1  0  0  0  0
  6 24  1  0  0  0  0
  7 25  1  0  0  0  0
  7 26  1  0  0  0  0
  7 27  1  0  0  0  0
  8  9  1  0  0  0  0
  8 28  1  0  0  0  0
  8 29  1  0  0  0  0
  9 10  1  0  0  0  0
  9 30  1  0  0  0  0
 10 11  2  0  0  0  0
 10 12  1  0  0  0  0
 12 13  1  0  0  0  0
 12 31  1  0  0  0  0
 13 18  1  0  0  0  0
 13 14  1  0  0  0  0
 13 32  1  0  0  0  0
 14 15  1  0  0  0  0
 14 33  1  0  0  0  0
 14 34  1  0  0  0  0
 15 16  1  0  0  0  0
 15 35  1  0  0  0  0
 15 36  1  0  0  0  0
 16 17  1  0  0  0  0
 16 37  1  0  0  0  0
 16 38  1  0  0  0  0
 17 18  1  0  0  0  0
 18 39  1  0  0  0  0
 18 40  1  0  0  0  0
M  END
> <s_m_source_file>
AV-unprocessed.smi

> <i_m_source_file_index>
2474

> <i_lp_mmshare_version>
43012

> <i_f3d_flags>
0

> <s_epik_input>
W0NIM11jMVtjSF1uYyhzMSlbQ0BIXShbQ0gzXSlbQ0gyXVtOSF1DKD1PKVtOSF1bQ0BASF0yW0NIMl1bQ0gyXVtDSDJdU1tDSDJdMg==

> <s_epik_cmdline>
J2VwaWtfcHl0aG9uJywgJy1waCcsICc3LjAnLCAnLXRuJywgJzgnLCAnLW1hJywgJzIwMCcsICctbWV0YWxfYmluZGluZycsICctaW1hZScsICc8aW5maWxlLm1hZT4nLCAnLW9tYWUnLCAnPG91dGZpbGUubWFlPic=

> <r_epik_Ionization_Penalty>
0.000644338

> <r_epik_Ionization_Penalty_Charging>
0

> <r_epik_Ionization_Penalty_Neutral>
0.000644338

> <r_epik_State_Penalty>
0.000374131

> <r_epik_Charging_Adjusted_Penalty>
0.000374131

> <i_epik_Tot_Q>
0

> <i_epik_Tot_abs_Q>
0

> <r_epik_Metal_State_Penalty>
-0

> <b_epik_Metal_Only>
0

> <s_lp_Force_Field>
OPLS_2005

> <r_lp_Energy>
-6.83814

> <b_lp_Chiralities_Consistent>
1

> <s_lp_Variant>
AV-unprocessed.smi:2474-4

> <Gold.Version>
5.8.1

> <Gold.Id.Protein>
6NUR|6NUR_protein|mol2

> <Gold.PLP.Fitness>
48.1740

> <Gold.PLP.PLP>
-43.2697

> <Gold.PLP.part.hbond>
-2.0000

> <Gold.PLP.part.metal>
0.0000

> <Gold.PLP.part.buried>
-4.8984

> <Gold.PLP.part.nonpolar>
-36.4159

> <Gold.PLP.part.repulsive>
0.3632

> <Gold.PLP.ligand.clash>
0.0000

> <Gold.PLP.ligand.torsion>
0.2756

> <Gold.PLP.Chemscore.Hbond>
1.7760

> <Gold.PLP.Chemscore.CHOScore>
0.0000

> <Gold.PLP.Chemscore.Metal>
0.0000

> <Gold.Chemscore.Hbonds>
donor molecule, donor type, donor heavy atom, donor atom, acceptor molecule, acceptor atom, score
      L1  H     9    30       P1  8028  0.72
      L1  H    12    31       P1  8028  0.85

> <Gold.PLP.Chemscore.Internal.Correction>
0.1276

> <Gold.Rescore>
     Score         DG    S(hbond)    S(metal)    S(lipo)     H(rot)  DE(clash)    DE(int)     intcor
     19.47     -21.26       1.80        0.00     115.44       1.46       0.07       1.72       ----

> <Gold.Chemscore.Fitness>
19.4676

> <Gold.Chemscore.DG>
-21.2580

> <Gold.Chemscore.ZeroCoef>
-5.4800

> <Gold.Chemscore.Hbond>
1.8004

> <Gold.Chemscore.Metal>
0.0000

> <Gold.Chemscore.Lipo>
115.4376

> <Gold.Chemscore.Internal_Hbond>
0.0000

> <Gold.Chemscore.DEClash>
0.0660

> <Gold.Chemscore.DEInternal>
1.7244

> <Gold.Chemscore.Rot>
1.4616

> <Gold.Chemscore.Internal.Correction>
   9.000000E+99

> <Gold.Chemscore.Hbonds>
donor molecule, donor type, donor heavy atom, donor atom, acceptor molecule, acceptor atom, score
      L1  H     9    30       P1  8028  0.71
      L1  H    12    31       P1  8028  0.82

> <Gold.Chemscore.Hbond.Weighted>
-6.0135

> <Gold.Chemscore.Metal.Weighted>
-0.0000

> <Gold.Chemscore.Lipo.Weighted>
-13.5062

> <Gold.Chemscore.Internal_Hbond.Weighted>
0.0000

> <Gold.Chemscore.DEClash.Weighted>
0.0660

> <Gold.Chemscore.DEInternal.Weighted>
1.7244

> <Gold.Chemscore.Rot.Weighted>
3.7416

> <Gold.Chemscore.Internal.Correction.Weighted>
   9.000000E+99

> <Gold.Protein.RotatedTorsions>
[ 6907 6896 6895 6894 ] final -134.75 input  -60.11 | X-H torsion
[ 7974 7965 7964 7962 ] final -163.42 input  175.53 | X-H torsion
[ 8008 7997 7996 7995 ] final -158.96 input   59.86 | X-H torsion
[ 10167 10162 10161 10158 ] final  -13.04 input  -65.29 | X-H torsion
[ 10718 10713 10712 10709 ] final   73.27 input   66.30 | X-H torsion
[ 10763 10752 10751 10750 ] final   77.58 input  -60.55 | X-H torsion
[ 11005 11000 10999 10996 ] final -134.08 input  -57.11 | X-H torsion

> <Gold.Protein.ActiveResidues>
 VAL166  LYS551  ARG553  GLY616  TRP617  ASP618  TYR619  PRO620  LYS621  CYS622 
 ASP623  PHE694  ASN695  SER759  ASP760  ASP761  ALA762  ILE779  LEU786  VAL792 
 PHE793  MET794  SER795  GLU796  ALA797  LYS798  CYS799  TRP800  GLU811  SER814 

> <Gold.Protein.RotatedAtoms>
  150.9896  133.6163  159.2710 H   0  0  0  0  0  0  0  0  0  0  0  0  # atno 6907 bound_to 6896
  151.3388  135.0858  159.9373 H   0  0  0  0  0  0  0  0  0  0  0  0  # atno 6908 bound_to 6896
  152.5242  133.9511  159.7727 H   0  0  0  0  0  0  0  0  0  0  0  0  # atno 6909 bound_to 6896
  144.7326  140.3109  143.6188 H   0  0  0  0  0  0  0  0  0  0  0  0  # atno 7974 bound_to 7965
  155.7554  140.0832  157.2181 H   0  0  0  0  0  0  0  0  0  0  0  0  # atno 8008 bound_to 7997
  154.4008  140.1552  156.2828 H   0  0  0  0  0  0  0  0  0  0  0  0  # atno 8009 bound_to 7997
  155.8890  140.3416  155.5945 H   0  0  0  0  0  0  0  0  0  0  0  0  # atno 8010 bound_to 7997
  140.7174  143.5469  150.9345 H   0  0  0  0  0  0  0  0  0  0  0  0  # atno 10167 bound_to 10162
  157.6540  130.9620  150.1046 H   0  0  0  0  0  0  0  0  0  0  0  0  # atno 10718 bound_to 10713
  153.0809  135.4909  154.8501 H   0  0  0  0  0  0  0  0  0  0  0  0  # atno 10763 bound_to 10752
  154.7149  135.3027  154.9141 H   0  0  0  0  0  0  0  0  0  0  0  0  # atno 10764 bound_to 10752
  153.9823  135.6788  153.4803 H   0  0  0  0  0  0  0  0  0  0  0  0  # atno 10765 bound_to 10752
  140.9022  134.1676  157.4452 H   0  0  0  0  0  0  0  0  0  0  0  0  # atno 11005 bound_to 11000
  145.7666  139.1842  143.2236 LP  0  0  0  0  0  0  0  0  0  0  0  0  # atno 17320 bound_to 7965
  146.0944  140.7618  142.9579 LP  0  0  0  0  0  0  0  0  0  0  0  0  # atno 17321 bound_to 7965
  139.9192  143.6626  152.3100 LP  0  0  0  0  0  0  0  0  0  0  0  0  # atno 17342 bound_to 10162
  139.7037  144.7631  151.1230 LP  0  0  0  0  0  0  0  0  0  0  0  0  # atno 17343 bound_to 10162
  156.1959  130.3657  149.8849 LP  0  0  0  0  0  0  0  0  0  0  0  0  # atno 17370 bound_to 10713
  156.6766  130.8841  151.3570 LP  0  0  0  0  0  0  0  0  0  0  0  0  # atno 17371 bound_to 10713
  139.8744  134.9902  156.5494 LP  0  0  0  0  0  0  0  0  0  0  0  0  # atno 17394 bound_to 11000
  140.8215  133.8349  155.8900 LP  0  0  0  0  0  0  0  0  0  0  0  0  # atno 17395 bound_to 11000

$$$$
