#       Name:                AV-unprocessed.smi:1869
#       Creating user name   scv26
#       Creation time:       Fri Mar 27 09:30:31 2020


#       File generated by GOLD software.
#

@<TRIPOS>MOLECULE
AV-unprocessed.smi:1869
    46    47     1
SMALL
NO_CHARGES


@<TRIPOS>ATOM
      1 ****        -4.1485   6.2797   1.6960 C.3            1 S1                 0.0000
      2 ****        -3.6419   4.9994   1.3622 O.3            1 S1                 0.0000
      3 ****        -3.5155   4.8132  -0.0378 C.3            1 S1                 0.0000
      4 ****        -2.9544   3.4142  -0.3100 C.3            1 S1                 0.0000
      5 ****        -1.5675   3.4045   0.0150 O.3            1 S1                 0.0000
      6 ****        -0.8613   2.2299  -0.1432 C.ar           1 S1                 0.0000
      7 ****         0.5078   2.2179   0.1895 C.ar           1 S1                 0.0000
      8 ****         1.2362   1.0230   0.0350 C.ar           1 S1                 0.0000
      9 ****         0.5664  -0.1289  -0.4411 C.ar           1 S1                 0.0000
     10 ****         1.1941  -1.3850  -0.6571 N.am           1 S1                 0.0000
     11 ****         2.2914  -1.8916  -0.0600 C.2            1 S1                 0.0000
     12 ****         2.9233  -1.2924   0.8108 O.2            1 S1                 0.0000
     13 ****         2.6352  -3.1346  -0.4869 N.am           1 S1                 0.0000
     14 ****         1.8680  -3.9761  -1.4211 C.3            1 S1                 0.0000
     15 ****         1.0260  -4.9802  -0.6168 C.3            1 S1                 0.0000
     16 ****         2.0921  -6.0994   0.3446 S.3            1 S1                 0.0000
     17 ****         3.1760  -4.8770   1.1479 C.3            1 S1                 0.0000
     18 ****         3.7433  -3.8811   0.1219 C.3            1 S1                 0.0000
     19 ****        -0.8009  -0.0075  -0.7635 C.ar           1 S1                 0.0000
     20 ****        -1.5052   1.1344  -0.6169 N.ar           1 S1                 0.0000
     21 ****        -4.2304   6.3697   2.7792 H              1 S1                 0.0000
     22 ****        -5.1402   6.4362   1.2693 H              1 S1                 0.0000
     23 ****        -3.4856   7.0704   1.3420 H              1 S1                 0.0000
     24 ****        -4.4990   4.9062  -0.5009 H              1 S1                 0.0000
     25 ****        -2.8714   5.5755  -0.4788 H              1 S1                 0.0000
     26 ****        -3.5047   2.6697   0.2680 H              1 S1                 0.0000
     27 ****        -3.0795   3.1780  -1.3679 H              1 S1                 0.0000
     28 ****         0.9925   3.1116   0.5541 H              1 S1                 0.0000
     29 ****         2.2893   1.0179   0.2700 H              1 S1                 0.0000
     30 ****         0.7123  -2.0066  -1.2901 H              1 S1                 0.0000
     31 ****         1.2272  -3.4012  -2.0897 H              1 S1                 0.0000
     32 ****         2.5497  -4.5118  -2.0835 H              1 S1                 0.0000
     33 ****         0.3526  -4.4561   0.0625 H              1 S1                 0.0000
     34 ****         0.4055  -5.5776  -1.2849 H              1 S1                 0.0000
     35 ****         2.6093  -4.3499   1.9165 H              1 S1                 0.0000
     36 ****         3.9845  -5.4050   1.6535 H              1 S1                 0.0000
     37 ****         4.3081  -4.4114  -0.6461 H              1 S1                 0.0000
     38 ****         4.4660  -3.2223   0.6055 H              1 S1                 0.0000
     39 ****        -1.3509  -0.8550  -1.1462 H              1 S1                 0.0000
     40 ****        -4.2637   4.3044   1.7232 LP             1 S1                 0.0000
     41 ****        -2.7410   4.8914   1.7826 LP             1 S1                 0.0000
     42 ****        -1.4879   3.6694   0.9760 LP             1 S1                 0.0000
     43 ****        -1.1253   4.0940  -0.5586 LP             1 S1                 0.0000
     44 ****         2.6282  -0.3840   1.1069 LP             1 S1                 0.0000
     45 ****         3.7315  -1.7143   1.2217 LP             1 S1                 0.0000
     46 ****        -2.4766   1.1717  -0.8515 LP             1 S1                 0.0000
@<TRIPOS>BOND
    1    1    2 1     
    2    1   21 1     
    3    1   22 1     
    4    1   23 1     
    5    2    3 1     
    6    3    4 1     
    7    3   24 1     
    8    3   25 1     
    9    4    5 1     
   10    4   26 1     
   11    4   27 1     
   12    5    6 1     
   13    6   20 ar    
   14    6    7 ar    
   15    7    8 ar    
   16    7   28 1     
   17    8    9 ar    
   18    8   29 1     
   19    9   10 1     
   20    9   19 ar    
   21   10   11 am    
   22   10   30 1     
   23   11   12 2     
   24   11   13 am    
   25   13   18 1     
   26   13   14 1     
   27   14   15 1     
   28   14   31 1     
   29   14   32 1     
   30   15   16 1     
   31   15   33 1     
   32   15   34 1     
   33   16   17 1     
   34   17   18 1     
   35   17   35 1     
   36   17   36 1     
   37   18   37 1     
   38   18   38 1     
   39   19   20 ar    
   40   19   39 1     
   41    2   40 1     
   42    2   41 1     
   43    5   42 1     
   44    5   43 1     
   45   12   44 1     
   46   12   45 1     
   47   20   46 1     
@<TRIPOS>SUBSTRUCTURE
      1 S1             1
@<TRIPOS>SET
LONE_PAIRS      STATIC     ATOMS    <user>   **** ""
7 40 41 42 43 44 45 46
DONOR_HYDROGENS      STATIC     ATOMS    <user>   **** ""
1 30
ATOM$BLUE        STATIC     ATOMS    COLORGROUP SYSTEM
7 40 41 42 43 44 45 46
ATOM$RED        STATIC     ATOMS    COLORGROUP SYSTEM
1 30
