AV-unprocessed.smi:2252|AV-procd|sdf|9103|dock5
  -GOLD-   2272012303D 1   1.00000     0.00000
 Structure written by MMmdl.
 46 48  0  0  0  0  0  0  0  0  3 V2000
  152.6737  140.9784  159.7260 C   0  0  0  0  0  0  0  0  0  0  0  0
  152.2953  142.2097  159.0300 N   0  0  0  0  0  0  0  0  0  0  0  0
  152.8583  143.4489  159.1979 C   0  0  0  0  0  0  0  0  0  0  0  0
  152.2018  144.2977  158.3456 C   0  0  0  0  0  0  0  0  0  0  0  0
  151.2654  143.5423  157.6935 N   0  3  0  0  0  0  0  0  0  0  0  0
  151.3161  142.2725  158.1127 C   0  0  0  0  0  0  0  0  0  0  0  0
  150.4500  141.1591  157.6116 C   0  0  0  0  0  0  0  0  0  0  0  0
  149.2769  141.6640  156.7552 C   0  0  0  0  0  0  0  0  0  0  0  0
  148.8885  140.6941  155.7381 N   0  0  0  0  0  0  0  0  0  0  0  0
  149.7430  139.9659  155.0024 C   0  0  0  0  0  0  0  0  0  0  0  0
  150.9669  140.0529  155.1090 O   0  0  0  0  0  0  0  0  0  0  0  0
  149.1237  138.9762  154.0036 C   0  0  2  0  0  0  0  0  0  0  0  0
  147.6401  139.3484  153.7952 C   0  0  0  0  0  0  0  0  0  0  0  0
  146.9487  139.1059  152.4710 C   0  0  0  0  0  0  0  0  0  0  0  0
  147.2472  140.5152  152.9135 C   0  0  0  0  0  0  0  0  0  0  0  0
  149.2727  137.5645  154.4599 N   0  3  0  0  0  0  0  0  0  0  0  0
  150.6582  137.1371  154.7503 C   0  0  0  0  0  0  0  0  0  0  0  0
  150.5456  135.9005  155.6482 C   0  0  0  0  0  0  0  0  0  0  0  0
  149.1118  135.9106  156.1870 C   0  0  0  0  0  0  0  0  0  0  0  0
  148.4947  137.2094  155.6670 C   0  0  0  0  0  0  0  0  0  0  0  0
  153.5591  141.1612  160.3358 H   0  0  0  0  0  0  0  0  0  0  0  0
  152.8954  140.2003  158.9950 H   0  0  0  0  0  0  0  0  0  0  0  0
  151.8519  140.6611  160.3684 H   0  0  0  0  0  0  0  0  0  0  0  0
  153.6658  143.6311  159.8925 H   0  0  0  0  0  0  0  0  0  0  0  0
  152.3287  145.3540  158.1579 H   0  0  0  0  0  0  0  0  0  0  0  0
  151.0817  140.4705  157.0502 H   0  0  0  0  0  0  0  0  0  0  0  0
  150.0933  140.6228  158.4918 H   0  0  0  0  0  0  0  0  0  0  0  0
  148.4179  141.9027  157.3848 H   0  0  0  0  0  0  0  0  0  0  0  0
  149.5564  142.5881  156.2489 H   0  0  0  0  0  0  0  0  0  0  0  0
  147.8980  140.5553  155.5959 H   0  0  0  0  0  0  0  0  0  0  0  0
  149.6474  139.0764  153.0506 H   0  0  0  0  0  0  0  0  0  0  0  0
  147.0272  139.2146  154.6853 H   0  0  0  0  0  0  0  0  0  0  0  0
  147.5412  138.7046  151.6514 H   0  0  0  0  0  0  0  0  0  0  0  0
  145.9118  138.7777  152.5005 H   0  0  0  0  0  0  0  0  0  0  0  0
  146.4086  141.1291  153.2361 H   0  0  0  0  0  0  0  0  0  0  0  0
  148.0368  141.0462  152.3856 H   0  0  0  0  0  0  0  0  0  0  0  0
  151.2180  136.9306  153.8376 H   0  0  0  0  0  0  0  0  0  0  0  0
  151.1768  137.9300  155.2919 H   0  0  0  0  0  0  0  0  0  0  0  0
  150.7222  134.9901  155.0741 H   0  0  0  0  0  0  0  0  0  0  0  0
  151.2825  135.9294  156.4518 H   0  0  0  0  0  0  0  0  0  0  0  0
  148.5648  135.0535  155.7921 H   0  0  0  0  0  0  0  0  0  0  0  0
  149.0756  135.8511  157.2754 H   0  0  0  0  0  0  0  0  0  0  0  0
  148.6081  137.9936  156.4173 H   0  0  0  0  0  0  0  0  0  0  0  0
  147.4307  137.0984  155.4549 H   0  0  0  0  0  0  0  0  0  0  0  0
  148.9388  136.9690  153.7154 H   0  0  0  0  0  0  0  0  0  0  0  0
  150.6254  143.8923  156.9915 H   0  0  0  0  0  0  0  0  0  0  0  0
  1  2  1  0  0  0  0
  1 21  1  0  0  0  0
  1 22  1  0  0  0  0
  1 23  1  0  0  0  0
  2  6  1  0  0  0  0
  2  3  1  0  0  0  0
  3  4  2  0  0  0  0
  3 24  1  0  0  0  0
  4  5  1  0  0  0  0
  4 25  1  0  0  0  0
  5  6  2  0  0  0  0
  5 46  1  0  0  0  0
  6  7  1  0  0  0  0
  7  8  1  0  0  0  0
  7 26  1  0  0  0  0
  7 27  1  0  0  0  0
  8  9  1  0  0  0  0
  8 28  1  0  0  0  0
  8 29  1  0  0  0  0
  9 10  1  0  0  0  0
  9 30  1  0  0  0  0
 10 11  2  0  0  0  0
 10 12  1  0  0  0  0
 12 13  1  0  0  0  0
 12 16  1  0  0  0  0
 12 31  1  0  0  0  0
 13 15  1  0  0  0  0
 13 14  1  0  0  0  0
 13 32  1  0  0  0  0
 14 15  1  0  0  0  0
 14 33  1  0  0  0  0
 14 34  1  0  0  0  0
 15 35  1  0  0  0  0
 15 36  1  0  0  0  0
 16 20  1  0  0  0  0
 16 17  1  0  0  0  0
 16 45  1  0  0  0  0
 17 18  1  0  0  0  0
 17 37  1  0  0  0  0
 17 38  1  0  0  0  0
 18 19  1  0  0  0  0
 18 39  1  0  0  0  0
 18 40  1  0  0  0  0
 19 20  1  0  0  0  0
 19 41  1  0  0  0  0
 19 42  1  0  0  0  0
 20 43  1  0  0  0  0
 20 44  1  0  0  0  0
M  CHG  1   5   1
M  CHG  1  16   1
M  END
> <s_m_source_file>
AV-unprocessed.smi

> <i_m_source_file_index>
2252

> <i_lp_mmshare_version>
43012

> <i_f3d_flags>
0

> <s_epik_input>
W0NIM11uMVtjSF1bY0hdbmMxW0NIMl1bQ0gyXVtOSF1DKD1PKVtDQEhdKFtDSF0yW0NIMl1bQ0gyXTIpTjNbQ0gyXVtDSDJdW0NIMl1bQ0gyXTM=

> <s_epik_cmdline>
J2VwaWtfcHl0aG9uJywgJy1waCcsICc3LjAnLCAnLXRuJywgJzgnLCAnLW1hJywgJzIwMCcsICctbWV0YWxfYmluZGluZycsICctaW1hZScsICc8aW5maWxlLm1hZT4nLCAnLW9tYWUnLCAnPG91dGZpbGUubWFlPic=

> <r_lp_tautomer_probability>
1

> <r_epik_Ionization_Penalty>
0.116886

> <r_epik_Ionization_Penalty_Charging>
0.00955009

> <r_epik_Ionization_Penalty_Neutral>
0.107336

> <r_epik_State_Penalty>
0.0956868

> <r_epik_Charging_Adjusted_Penalty>
0.105237

> <i_epik_Tot_Q>
2

> <i_epik_Tot_abs_Q>
2

> <r_epik_Metal_State_Penalty>
0.438836

> <b_epik_Metal_Only>
0

> <s_lp_Force_Field>
OPLS_2005

> <r_lp_Energy>
40.5803

> <b_lp_Chiralities_Consistent>
1

> <s_lp_Variant>
AV-unprocessed.smi:2252-1

> <Gold.Version>
5.8.1

> <Gold.Id.Protein>
6NUR|6NUR_protein|mol2

> <Gold.PLP.Fitness>
49.7563

> <Gold.PLP.PLP>
-39.0520

> <Gold.PLP.part.hbond>
-3.0000

> <Gold.PLP.part.metal>
0.0000

> <Gold.PLP.part.buried>
-1.9281

> <Gold.PLP.part.nonpolar>
-34.3864

> <Gold.PLP.part.repulsive>
0.1168

> <Gold.PLP.ligand.clash>
2.7623

> <Gold.PLP.ligand.torsion>
1.3559

> <Gold.PLP.Chemscore.Hbond>
5.0000

> <Gold.PLP.Chemscore.CHOScore>
0.0000

> <Gold.PLP.Chemscore.Metal>
0.0000

> <Gold.Chemscore.Hbonds>
donor molecule, donor type, donor heavy atom, donor atom, acceptor molecule, acceptor atom, score
      L1  H     5    46       P1  8028  0.55
      L1  H    16    45       P1  7948  2.00
      P1  H  7989  7998       L1    11  1.00

> <Gold.PLP.Chemscore.Internal.Correction>
1.1784

> <Gold.Rescore>
     Score         DG    S(hbond)    S(metal)    S(lipo)     H(rot)  DE(clash)    DE(int)     intcor
     16.73     -20.58       2.87        0.00      91.94       2.05       0.47       3.39       ----

> <Gold.Chemscore.Fitness>
16.7252

> <Gold.Chemscore.DG>
-20.5844

> <Gold.Chemscore.ZeroCoef>
-5.4800

> <Gold.Chemscore.Hbond>
2.8695

> <Gold.Chemscore.Metal>
0.0000

> <Gold.Chemscore.Lipo>
91.9397

> <Gold.Chemscore.Internal_Hbond>
0.0000

> <Gold.Chemscore.DEClash>
0.4708

> <Gold.Chemscore.DEInternal>
3.3884

> <Gold.Chemscore.Rot>
2.0456

> <Gold.Chemscore.Internal.Correction>
   9.000000E+99

> <Gold.Chemscore.Hbonds>
donor molecule, donor type, donor heavy atom, donor atom, acceptor molecule, acceptor atom, score
      L1  H     5    46       P1  8028  0.27
      L1  H    16    45       P1  7948  0.94
      P1  H  7989  7998       L1    11  0.65

> <Gold.Chemscore.Hbond.Weighted>
-9.5843

> <Gold.Chemscore.Metal.Weighted>
-0.0000

> <Gold.Chemscore.Lipo.Weighted>
-10.7569

> <Gold.Chemscore.Internal_Hbond.Weighted>
0.0000

> <Gold.Chemscore.DEClash.Weighted>
0.4708

> <Gold.Chemscore.DEInternal.Weighted>
3.3884

> <Gold.Chemscore.Rot.Weighted>
5.2368

> <Gold.Chemscore.Internal.Correction.Weighted>
   9.000000E+99

> <Gold.Protein.RotatedTorsions>
[ 6907 6896 6895 6894 ] final  175.48 input  -60.11 | X-H torsion
[ 7974 7965 7964 7962 ] final  -68.89 input  175.53 | X-H torsion
[ 8008 7997 7996 7995 ] final  154.71 input   59.86 | X-H torsion
[ 10167 10162 10161 10158 ] final -156.20 input  -65.29 | X-H torsion
[ 10718 10713 10712 10709 ] final  -39.60 input   66.30 | X-H torsion
[ 10763 10752 10751 10750 ] final  104.81 input  -60.55 | X-H torsion
[ 11005 11000 10999 10996 ] final  176.33 input  -57.11 | X-H torsion

> <Gold.Protein.ActiveResidues>
 VAL166  LYS551  ARG553  GLY616  TRP617  ASP618  TYR619  PRO620  LYS621  CYS622 
 ASP623  PHE694  ASN695  SER759  ASP760  ASP761  ALA762  ILE779  LEU786  VAL792 
 PHE793  MET794  SER795  GLU796  ALA797  LYS798  CYS799  TRP800  GLU811  SER814 

> <Gold.Protein.RotatedAtoms>
  151.7355  133.3319  159.3351 H   0  0  0  0  0  0  0  0  0  0  0  0  # atno 6907 bound_to 6896
  150.7595  134.6325  159.6203 H   0  0  0  0  0  0  0  0  0  0  0  0  # atno 6908 bound_to 6896
  152.3564  134.6936  160.0272 H   0  0  0  0  0  0  0  0  0  0  0  0  # atno 6909 bound_to 6896
  145.7107  140.9079  143.0682 H   0  0  0  0  0  0  0  0  0  0  0  0  # atno 7974 bound_to 7965
  156.2517  140.1959  156.6689 H   0  0  0  0  0  0  0  0  0  0  0  0  # atno 8008 bound_to 7997
  154.6408  140.0584  156.9869 H   0  0  0  0  0  0  0  0  0  0  0  0  # atno 8009 bound_to 7997
  155.1566  140.3256  155.4423 H   0  0  0  0  0  0  0  0  0  0  0  0  # atno 8010 bound_to 7997
  139.6870  143.9485  152.2366 H   0  0  0  0  0  0  0  0  0  0  0  0  # atno 10167 bound_to 10162
  156.2907  130.4228  149.8242 H   0  0  0  0  0  0  0  0  0  0  0  0  # atno 10718 bound_to 10713
  153.3709  135.3931  155.1787 H   0  0  0  0  0  0  0  0  0  0  0  0  # atno 10763 bound_to 10752
  154.8694  135.3702  154.4979 H   0  0  0  0  0  0  0  0  0  0  0  0  # atno 10764 bound_to 10752
  153.5447  135.7084  153.5680 H   0  0  0  0  0  0  0  0  0  0  0  0  # atno 10765 bound_to 10752
  140.3720  134.7022  157.4398 H   0  0  0  0  0  0  0  0  0  0  0  0  # atno 11005 bound_to 11000
  144.6943  139.9070  143.7461 LP  0  0  0  0  0  0  0  0  0  0  0  0  # atno 17320 bound_to 7965
  146.0715  139.3704  143.0520 LP  0  0  0  0  0  0  0  0  0  0  0  0  # atno 17321 bound_to 7965
  139.9291  144.6753  150.8382 LP  0  0  0  0  0  0  0  0  0  0  0  0  # atno 17342 bound_to 10162
  140.7670  143.3321  151.2387 LP  0  0  0  0  0  0  0  0  0  0  0  0  # atno 17343 bound_to 10162
  156.5656  130.8402  151.3341 LP  0  0  0  0  0  0  0  0  0  0  0  0  # atno 17370 bound_to 10713
  157.7341  130.9741  150.2014 LP  0  0  0  0  0  0  0  0  0  0  0  0  # atno 17371 bound_to 10713
  140.0545  134.6084  155.8822 LP  0  0  0  0  0  0  0  0  0  0  0  0  # atno 17394 bound_to 11000
  141.1951  133.6586  156.5629 LP  0  0  0  0  0  0  0  0  0  0  0  0  # atno 17395 bound_to 11000

$$$$
