AV-unprocessed.smi:2036|AV-procd|sdf|8273|dock3
  -GOLD-   2272010543D 1   1.00000     0.00000
 Structure written by MMmdl.
 41 42  0  0  0  0  0  0  0  0  1 V2000
  145.2511  136.6146  151.7262 C   0  0  0  0  0  0  0  0  0  0  0  0
  145.8399  137.3763  152.7656 O   0  0  0  0  0  0  0  0  0  0  0  0
  146.5047  138.5318  152.2787 C   0  0  0  0  0  0  0  0  0  0  0  0
  147.1570  139.2633  153.4511 C   0  0  0  0  0  0  0  0  0  0  0  0
  146.4441  139.8060  154.2940 O   0  0  0  0  0  0  0  0  0  0  0  0
  148.5033  139.2568  153.4681 N   0  0  0  0  0  0  0  0  0  0  0  0
  149.3924  139.8486  154.4067 C   0  0  0  0  0  0  0  0  0  0  0  0
  150.6065  139.2660  154.8434 C   0  0  0  0  0  0  0  0  0  0  0  0
  151.4012  139.9643  155.7728 C   0  0  0  0  0  0  0  0  0  0  0  0
  150.9660  141.2244  156.2308 C   0  0  0  0  0  0  0  0  0  0  0  0
  151.7525  141.9187  157.1607 N   0  0  0  0  0  0  0  0  0  0  0  0
  151.9488  141.1907  158.4075 C   0  0  0  0  0  0  0  0  0  0  0  0
  152.9301  141.9541  159.3167 C   0  0  2  0  0  0  0  0  0  0  0  0
  153.0917  141.2786  160.6822 C   0  0  0  0  0  0  0  0  0  0  0  0
  152.4396  143.2769  159.5252 O   0  0  0  0  0  0  0  0  0  0  0  0
  152.3157  144.0150  158.3110 C   0  0  2  0  0  0  0  0  0  0  0  0
  151.8562  145.4352  158.6557 C   0  0  0  0  0  0  0  0  0  0  0  0
  151.3203  143.2925  157.3834 C   0  0  0  0  0  0  0  0  0  0  0  0
  149.8134  141.7945  155.8073 N   0  0  0  0  0  0  0  0  0  0  0  0
  149.0556  141.1193  154.9176 C   0  0  0  0  0  0  0  0  0  0  0  0
  144.7481  135.7447  152.1483 H   0  0  0  0  0  0  0  0  0  0  0  0
  146.0052  136.2588  151.0232 H   0  0  0  0  0  0  0  0  0  0  0  0
  144.5108  137.2001  151.1798 H   0  0  0  0  0  0  0  0  0  0  0  0
  147.2659  138.2526  151.5479 H   0  0  0  0  0  0  0  0  0  0  0  0
  145.7974  139.2008  151.7863 H   0  0  0  0  0  0  0  0  0  0  0  0
  148.9456  138.8228  152.6706 H   0  0  0  0  0  0  0  0  0  0  0  0
  150.9519  138.3105  154.4826 H   0  0  0  0  0  0  0  0  0  0  0  0
  152.3297  139.5384  156.1242 H   0  0  0  0  0  0  0  0  0  0  0  0
  150.9909  141.0662  158.9148 H   0  0  0  0  0  0  0  0  0  0  0  0
  152.3328  140.1925  158.1934 H   0  0  0  0  0  0  0  0  0  0  0  0
  153.9095  142.0076  158.8379 H   0  0  0  0  0  0  0  0  0  0  0  0
  153.4755  140.2639  160.5745 H   0  0  0  0  0  0  0  0  0  0  0  0
  152.1389  141.2224  161.2094 H   0  0  0  0  0  0  0  0  0  0  0  0
  153.7885  141.8330  161.3113 H   0  0  0  0  0  0  0  0  0  0  0  0
  153.2927  144.0740  157.8275 H   0  0  0  0  0  0  0  0  0  0  0  0
  151.7582  146.0445  157.7570 H   0  0  0  0  0  0  0  0  0  0  0  0
  152.5727  145.9272  159.3137 H   0  0  0  0  0  0  0  0  0  0  0  0
  150.8905  145.4261  159.1619 H   0  0  0  0  0  0  0  0  0  0  0  0
  151.2494  143.8140  156.4280 H   0  0  0  0  0  0  0  0  0  0  0  0
  150.3243  143.2975  157.8289 H   0  0  0  0  0  0  0  0  0  0  0  0
  148.1448  141.6107  154.6075 H   0  0  0  0  0  0  0  0  0  0  0  0
  1  2  1  0  0  0  0
  1 21  1  0  0  0  0
  1 22  1  0  0  0  0
  1 23  1  0  0  0  0
  2  3  1  0  0  0  0
  3  4  1  0  0  0  0
  3 24  1  0  0  0  0
  3 25  1  0  0  0  0
  4  5  2  0  0  0  0
  4  6  1  0  0  0  0
  6  7  1  0  0  0  0
  6 26  1  0  0  0  0
  7 20  1  0  0  0  0
  7  8  2  0  0  0  0
  8  9  1  0  0  0  0
  8 27  1  0  0  0  0
  9 10  2  0  0  0  0
  9 28  1  0  0  0  0
 10 11  1  0  0  0  0
 10 19  1  0  0  0  0
 11 18  1  0  0  0  0
 11 12  1  0  0  0  0
 12 13  1  0  0  0  0
 12 29  1  0  0  0  0
 12 30  1  0  0  0  0
 13 14  1  0  0  0  0
 13 15  1  0  0  0  0
 13 31  1  0  0  0  0
 14 32  1  0  0  0  0
 14 33  1  0  0  0  0
 14 34  1  0  0  0  0
 15 16  1  0  0  0  0
 16 17  1  0  0  0  0
 16 18  1  0  0  0  0
 16 35  1  0  0  0  0
 17 36  1  0  0  0  0
 17 37  1  0  0  0  0
 17 38  1  0  0  0  0
 18 39  1  0  0  0  0
 18 40  1  0  0  0  0
 19 20  2  0  0  0  0
 20 41  1  0  0  0  0
M  END
> <s_m_source_file>
AV-unprocessed.smi

> <i_m_source_file_index>
2036

> <i_lp_mmshare_version>
43012

> <i_f3d_flags>
0

> <s_epik_input>
W0NIM11PW0NIMl1DKD1PKVtOSF1jMVtjSF1bY0hdYyhuW2NIXTEpTjJbQ0gyXVtDQEBIXShbQ0gzXSlPW0NAQEhdKFtDSDNdKVtDSDJdMg==

> <s_epik_cmdline>
J2VwaWtfcHl0aG9uJywgJy1waCcsICc3LjAnLCAnLXRuJywgJzgnLCAnLW1hJywgJzIwMCcsICctbWV0YWxfYmluZGluZycsICctaW1hZScsICc8aW5maWxlLm1hZT4nLCAnLW9tYWUnLCAnPG91dGZpbGUubWFlPic=

> <r_lp_tautomer_probability>
1

> <r_epik_Ionization_Penalty>
0.000662619

> <r_epik_Ionization_Penalty_Charging>
0

> <r_epik_Ionization_Penalty_Neutral>
0.000662619

> <r_epik_State_Penalty>
0.000419321

> <r_epik_Charging_Adjusted_Penalty>
0.000419321

> <i_epik_Tot_Q>
0

> <i_epik_Tot_abs_Q>
0

> <r_epik_Metal_State_Penalty>
-0

> <b_epik_Metal_Only>
0

> <s_lp_Force_Field>
OPLS_2005

> <r_lp_Energy>
23.9394

> <b_lp_Chiralities_Consistent>
1

> <s_lp_Variant>
AV-unprocessed.smi:2036-1

> <Gold.Version>
5.8.1

> <Gold.Id.Protein>
6NUR|6NUR_protein|mol2

> <Gold.PLP.Fitness>
42.5418

> <Gold.PLP.PLP>
-41.7465

> <Gold.PLP.part.hbond>
-1.0000

> <Gold.PLP.part.metal>
0.0000

> <Gold.PLP.part.buried>
-1.8654

> <Gold.PLP.part.nonpolar>
-38.7771

> <Gold.PLP.part.repulsive>
0.5267

> <Gold.PLP.ligand.clash>
0.0000

> <Gold.PLP.ligand.torsion>
0.4447

> <Gold.PLP.Chemscore.Hbond>
0.5280

> <Gold.PLP.Chemscore.CHOScore>
0.0000

> <Gold.PLP.Chemscore.Metal>
0.0000

> <Gold.Chemscore.Hbonds>
donor molecule, donor type, donor heavy atom, donor atom, acceptor molecule, acceptor atom, score
      L1  H     6    26       P1  7957  0.38

> <Gold.PLP.Chemscore.Internal.Correction>
0.1007

> <Gold.Rescore>
     Score         DG    S(hbond)    S(metal)    S(lipo)     H(rot)  DE(clash)    DE(int)     intcor
     14.88     -17.00       0.99        0.00     100.91       1.41       0.63       1.49       ----

> <Gold.Chemscore.Fitness>
14.8771

> <Gold.Chemscore.DG>
-16.9962

> <Gold.Chemscore.ZeroCoef>
-5.4800

> <Gold.Chemscore.Hbond>
0.9921

> <Gold.Chemscore.Metal>
0.0000

> <Gold.Chemscore.Lipo>
100.9085

> <Gold.Chemscore.Internal_Hbond>
0.0000

> <Gold.Chemscore.DEClash>
0.6307

> <Gold.Chemscore.DEInternal>
1.4884

> <Gold.Chemscore.Rot>
1.4077

> <Gold.Chemscore.Internal.Correction>
   9.000000E+99

> <Gold.Chemscore.Hbonds>
donor molecule, donor type, donor heavy atom, donor atom, acceptor molecule, acceptor atom, score
      L1  H     6    26       P1  7957  0.35

> <Gold.Chemscore.Hbond.Weighted>
-3.3135

> <Gold.Chemscore.Metal.Weighted>
-0.0000

> <Gold.Chemscore.Lipo.Weighted>
-11.8063

> <Gold.Chemscore.Internal_Hbond.Weighted>
0.0000

> <Gold.Chemscore.DEClash.Weighted>
0.6307

> <Gold.Chemscore.DEInternal.Weighted>
1.4884

> <Gold.Chemscore.Rot.Weighted>
3.6036

> <Gold.Chemscore.Internal.Correction.Weighted>
   9.000000E+99

> <Gold.Protein.RotatedTorsions>
[ 6907 6896 6895 6894 ] final   39.03 input  -60.11 | X-H torsion
[ 7974 7965 7964 7962 ] final  -90.60 input  175.53 | X-H torsion
[ 8008 7997 7996 7995 ] final  154.59 input   59.86 | X-H torsion
[ 10167 10162 10161 10158 ] final  116.12 input  -65.29 | X-H torsion
[ 10718 10713 10712 10709 ] final   13.25 input   66.30 | X-H torsion
[ 10763 10752 10751 10750 ] final -128.57 input  -60.55 | X-H torsion
[ 11005 11000 10999 10996 ] final -141.30 input  -57.11 | X-H torsion

> <Gold.Protein.ActiveResidues>
 VAL166  LYS551  ARG553  GLY616  TRP617  ASP618  TYR619  PRO620  LYS621  CYS622 
 ASP623  PHE694  ASN695  SER759  ASP760  ASP761  ALA762  ILE779  LEU786  VAL792 
 PHE793  MET794  SER795  GLU796  ALA797  LYS798  CYS799  TRP800  GLU811  SER814 

> <Gold.Protein.RotatedAtoms>
  152.1642  134.8887  160.0539 H   0  0  0  0  0  0  0  0  0  0  0  0  # atno 6907 bound_to 6896
  151.9871  133.3773  159.4138 H   0  0  0  0  0  0  0  0  0  0  0  0  # atno 6908 bound_to 6896
  150.6892  134.3899  159.5115 H   0  0  0  0  0  0  0  0  0  0  0  0  # atno 6909 bound_to 6896
  145.4243  140.9553  143.2163 H   0  0  0  0  0  0  0  0  0  0  0  0  # atno 7974 bound_to 7965
  156.2523  140.1962  156.6670 H   0  0  0  0  0  0  0  0  0  0  0  0  # atno 8008 bound_to 7997
  154.6421  140.0582  156.9883 H   0  0  0  0  0  0  0  0  0  0  0  0  # atno 8009 bound_to 7997
  155.1546  140.3254  155.4426 H   0  0  0  0  0  0  0  0  0  0  0  0  # atno 8010 bound_to 7997
  139.6269  144.7109  151.2514 H   0  0  0  0  0  0  0  0  0  0  0  0  # atno 10167 bound_to 10162
  157.0219  130.6158  149.5722 H   0  0  0  0  0  0  0  0  0  0  0  0  # atno 10718 bound_to 10713
  154.8756  135.3924  154.3779 H   0  0  0  0  0  0  0  0  0  0  0  0  # atno 10763 bound_to 10752
  153.4530  135.7028  153.6102 H   0  0  0  0  0  0  0  0  0  0  0  0  # atno 10764 bound_to 10752
  153.4633  135.3807  155.2319 H   0  0  0  0  0  0  0  0  0  0  0  0  # atno 10765 bound_to 10752
  140.8338  134.2485  157.4844 H   0  0  0  0  0  0  0  0  0  0  0  0  # atno 11005 bound_to 11000
  144.8224  139.5768  143.6980 LP  0  0  0  0  0  0  0  0  0  0  0  0  # atno 17320 bound_to 7965
  146.2640  139.6477  142.9342 LP  0  0  0  0  0  0  0  0  0  0  0  0  # atno 17321 bound_to 7965
  140.7416  143.6551  150.8214 LP  0  0  0  0  0  0  0  0  0  0  0  0  # atno 17342 bound_to 10162
  140.0170  143.5582  152.2816 LP  0  0  0  0  0  0  0  0  0  0  0  0  # atno 17343 bound_to 10162
  156.0099  130.5190  150.7955 LP  0  0  0  0  0  0  0  0  0  0  0  0  # atno 17370 bound_to 10713
  157.5243  131.0933  151.0038 LP  0  0  0  0  0  0  0  0  0  0  0  0  # atno 17371 bound_to 10713
  139.8704  134.9600  156.4349 LP  0  0  0  0  0  0  0  0  0  0  0  0  # atno 17394 bound_to 11000
  140.8970  133.7807  155.9636 LP  0  0  0  0  0  0  0  0  0  0  0  0  # atno 17395 bound_to 11000

$$$$
