AV-unprocessed.smi:2822|AV-procd|sdf|10864|dock2
  -GOLD-   2272015303D 1   1.00000     0.00000
 Structure written by MMmdl.
 41 43  0  0  0  0  0  0  0  0  3 V2000
  147.9396  137.0655  155.1154 Cl  0  0  0  0  0  0  0  0  0  0  0  0
  147.6621  138.6587  154.5035 C   0  0  0  0  0  0  0  0  0  0  0  0
  146.3614  139.0243  154.0990 C   0  0  0  0  0  0  0  0  0  0  0  0
  146.1270  140.2629  153.6165 N   0  3  0  0  0  0  0  0  0  0  0  0
  147.0960  141.1949  153.4993 C   0  0  0  0  0  0  0  0  0  0  0  0
  148.4162  140.8894  153.8883 C   0  0  0  0  0  0  0  0  0  0  0  0
  148.7151  139.6012  154.3989 C   0  0  0  0  0  0  0  0  0  0  0  0
  150.0089  139.2357  154.8025 N   0  0  0  0  0  0  0  0  0  0  0  0
  150.9992  140.2472  155.1411 C   0  0  0  0  0  0  0  0  0  0  0  0
  150.4357  141.2871  156.1207 C   0  0  2  0  0  0  0  0  0  0  0  0
  151.4511  142.4099  156.4014 C   0  0  0  0  0  0  0  0  0  0  0  0
  150.9187  143.3544  157.4148 N   0  3  2  0  0  0  0  0  0  0  0  0
  151.8182  144.5032  157.6985 C   0  0  0  0  0  0  0  0  0  0  0  0
  153.0221  144.0994  158.5711 C   0  0  0  0  0  0  0  0  0  0  0  0
  152.5615  143.4089  159.8618 C   0  0  0  0  0  0  0  0  0  0  0  0
  151.6438  142.2223  159.5356 C   0  0  0  0  0  0  0  0  0  0  0  0
  150.4570  142.6637  158.6506 C   0  0  2  0  0  0  0  0  0  0  0  0
  149.5187  141.4956  158.2892 C   0  0  0  0  0  0  0  0  0  0  0  0
  150.1456  140.6300  157.3501 O   0  0  0  0  0  0  0  0  0  0  0  0
  145.5065  138.3657  154.1467 H   0  0  0  0  0  0  0  0  0  0  0  0
  146.7891  142.1514  153.1016 H   0  0  0  0  0  0  0  0  0  0  0  0
  149.1763  141.6500  153.7906 H   0  0  0  0  0  0  0  0  0  0  0  0
  150.3306  138.2972  154.6100 H   0  0  0  0  0  0  0  0  0  0  0  0
  151.8846  139.7725  155.5667 H   0  0  0  0  0  0  0  0  0  0  0  0
  151.3074  140.7472  154.2220 H   0  0  0  0  0  0  0  0  0  0  0  0
  149.5224  141.7165  155.7035 H   0  0  0  0  0  0  0  0  0  0  0  0
  152.3936  141.9796  156.7404 H   0  0  0  0  0  0  0  0  0  0  0  0
  151.6663  142.9536  155.4808 H   0  0  0  0  0  0  0  0  0  0  0  0
  152.1566  144.9519  156.7639 H   0  0  0  0  0  0  0  0  0  0  0  0
  151.2397  145.2707  158.2141 H   0  0  0  0  0  0  0  0  0  0  0  0
  153.6853  143.4363  158.0152 H   0  0  0  0  0  0  0  0  0  0  0  0
  153.6129  144.9826  158.8159 H   0  0  0  0  0  0  0  0  0  0  0  0
  153.4241  143.0713  160.4372 H   0  0  0  0  0  0  0  0  0  0  0  0
  152.0285  144.1234  160.4905 H   0  0  0  0  0  0  0  0  0  0  0  0
  152.2186  141.4387  159.0409 H   0  0  0  0  0  0  0  0  0  0  0  0
  151.2729  141.7852  160.4632 H   0  0  0  0  0  0  0  0  0  0  0  0
  149.8745  143.3868  159.2236 H   0  0  0  0  0  0  0  0  0  0  0  0
  149.2588  140.9258  159.1815 H   0  0  0  0  0  0  0  0  0  0  0  0
  148.5813  141.8697  157.8745 H   0  0  0  0  0  0  0  0  0  0  0  0
  150.0902  143.7513  156.9946 H   0  0  0  0  0  0  0  0  0  0  0  0
  145.1779  140.5047  153.3298 H   0  0  0  0  0  0  0  0  0  0  0  0
  1  2  1  0  0  0  0
  2  7  1  0  0  0  0
  2  3  2  0  0  0  0
  3  4  1  0  0  0  0
  3 20  1  0  0  0  0
  4  5  2  0  0  0  0
  4 41  1  0  0  0  0
  5  6  1  0  0  0  0
  5 21  1  0  0  0  0
  6  7  2  0  0  0  0
  6 22  1  0  0  0  0
  7  8  1  0  0  0  0
  8  9  1  0  0  0  0
  8 23  1  0  0  0  0
  9 10  1  0  0  0  0
  9 24  1  0  0  0  0
  9 25  1  0  0  0  0
 10 19  1  0  0  0  0
 10 11  1  0  0  0  0
 10 26  1  0  0  0  0
 11 12  1  0  0  0  0
 11 27  1  0  0  0  0
 11 28  1  0  0  0  0
 12 17  1  0  0  0  0
 12 13  1  0  0  0  0
 12 40  1  0  0  0  0
 13 14  1  0  0  0  0
 13 29  1  0  0  0  0
 13 30  1  0  0  0  0
 14 15  1  0  0  0  0
 14 31  1  0  0  0  0
 14 32  1  0  0  0  0
 15 16  1  0  0  0  0
 15 33  1  0  0  0  0
 15 34  1  0  0  0  0
 16 17  1  0  0  0  0
 16 35  1  0  0  0  0
 16 36  1  0  0  0  0
 17 18  1  0  0  0  0
 17 37  1  0  0  0  0
 18 19  1  0  0  0  0
 18 38  1  0  0  0  0
 18 39  1  0  0  0  0
M  CHG  1   4   1
M  CHG  1  12   1
M  END
> <s_m_source_file>
AV-unprocessed.smi

> <i_m_source_file_index>
2822

> <i_lp_mmshare_version>
43012

> <i_f3d_flags>
0

> <s_epik_input>
Q2xjMVtjSF1uW2NIXVtjSF1jMVtOSF1bQ0gyXVtDQEhdKFtDSDJdMilPW0NIMl1bQ0BASF0oTjIzKVtDSDJdW0NIMl1bQ0gyXVtDSDJdMw==

> <s_epik_cmdline>
J2VwaWtfcHl0aG9uJywgJy1waCcsICc3LjAnLCAnLXRuJywgJzgnLCAnLW1hJywgJzIwMCcsICctbWV0YWxfYmluZGluZycsICctaW1hZScsICc8aW5maWxlLm1hZT4nLCAnLW9tYWUnLCAnPG91dGZpbGUubWFlPic=

> <r_lp_tautomer_probability>
1

> <r_epik_Ionization_Penalty>
0.254999

> <r_epik_Ionization_Penalty_Charging>
0.254956

> <r_epik_Ionization_Penalty_Neutral>
4.33524e-05

> <r_epik_State_Penalty>
0.230978

> <r_epik_Charging_Adjusted_Penalty>
0.485934

> <i_epik_Tot_Q>
2

> <i_epik_Tot_abs_Q>
2

> <r_epik_Metal_State_Penalty>
3.47007

> <b_epik_Metal_Only>
0

> <s_lp_Force_Field>
OPLS_2005

> <r_lp_Energy>
39.695

> <b_lp_Chiralities_Consistent>
1

> <s_lp_Variant>
AV-unprocessed.smi:2822-5

> <Gold.Version>
5.8.1

> <Gold.Id.Protein>
6NUR|6NUR_protein|mol2

> <Gold.PLP.Fitness>
43.4195

> <Gold.PLP.PLP>
-31.7353

> <Gold.PLP.part.hbond>
-2.0000

> <Gold.PLP.part.metal>
0.0000

> <Gold.PLP.part.buried>
-2.6549

> <Gold.PLP.part.nonpolar>
-27.1796

> <Gold.PLP.part.repulsive>
0.0902

> <Gold.PLP.ligand.clash>
0.0000

> <Gold.PLP.ligand.torsion>
0.1585

> <Gold.PLP.Chemscore.Hbond>
4.0000

> <Gold.PLP.Chemscore.CHOScore>
0.0000

> <Gold.PLP.Chemscore.Metal>
0.0000

> <Gold.Chemscore.Hbonds>
donor molecule, donor type, donor heavy atom, donor atom, acceptor molecule, acceptor atom, score
      L1  H     4    41       P1 10175  2.00
      L1  H    12    40       P1  8028  2.00

> <Gold.PLP.Chemscore.Internal.Correction>
0.0012

> <Gold.Rescore>
     Score         DG    S(hbond)    S(metal)    S(lipo)     H(rot)  DE(clash)    DE(int)     intcor
     19.22     -20.69       1.94        0.00     100.66       1.20       1.31       0.16       ----

> <Gold.Chemscore.Fitness>
19.2209

> <Gold.Chemscore.DG>
-20.6896

> <Gold.Chemscore.ZeroCoef>
-5.4800

> <Gold.Chemscore.Hbond>
1.9446

> <Gold.Chemscore.Metal>
0.0000

> <Gold.Chemscore.Lipo>
100.6575

> <Gold.Chemscore.Internal_Hbond>
0.0000

> <Gold.Chemscore.DEClash>
1.3120

> <Gold.Chemscore.DEInternal>
0.1567

> <Gold.Chemscore.Rot>
1.1962

> <Gold.Chemscore.Internal.Correction>
   9.000000E+99

> <Gold.Chemscore.Hbonds>
donor molecule, donor type, donor heavy atom, donor atom, acceptor molecule, acceptor atom, score
      L1  H     4    41       P1 10175  0.97
      L1  H    12    40       P1  8028  0.92

> <Gold.Chemscore.Hbond.Weighted>
-6.4950

> <Gold.Chemscore.Metal.Weighted>
-0.0000

> <Gold.Chemscore.Lipo.Weighted>
-11.7769

> <Gold.Chemscore.Internal_Hbond.Weighted>
0.0000

> <Gold.Chemscore.DEClash.Weighted>
1.3120

> <Gold.Chemscore.DEInternal.Weighted>
0.1567

> <Gold.Chemscore.Rot.Weighted>
3.0623

> <Gold.Chemscore.Internal.Correction.Weighted>
   9.000000E+99

> <Gold.Protein.RotatedTorsions>
[ 6907 6896 6895 6894 ] final   24.78 input  -60.11 | X-H torsion
[ 7974 7965 7964 7962 ] final -168.74 input  175.53 | X-H torsion
[ 8008 7997 7996 7995 ] final   29.55 input   59.86 | X-H torsion
[ 10167 10162 10161 10158 ] final  127.24 input  -65.29 | X-H torsion
[ 10718 10713 10712 10709 ] final  176.85 input   66.30 | X-H torsion
[ 10763 10752 10751 10750 ] final   34.91 input  -60.55 | X-H torsion
[ 11005 11000 10999 10996 ] final  119.11 input  -57.11 | X-H torsion

> <Gold.Protein.ActiveResidues>
 VAL166  LYS551  ARG553  GLY616  TRP617  ASP618  TYR619  PRO620  LYS621  CYS622 
 ASP623  PHE694  ASN695  SER759  ASP760  ASP761  ALA762  ILE779  LEU786  VAL792 
 PHE793  MET794  SER795  GLU796  ALA797  LYS798  CYS799  TRP800  GLU811  SER814 

> <Gold.Protein.RotatedAtoms>
  151.9627  135.0115  160.0548 H   0  0  0  0  0  0  0  0  0  0  0  0  # atno 6907 bound_to 6896
  152.1854  133.4731  159.4988 H   0  0  0  0  0  0  0  0  0  0  0  0  # atno 6908 bound_to 6896
  150.6925  134.1698  159.4250 H   0  0  0  0  0  0  0  0  0  0  0  0  # atno 6909 bound_to 6896
  144.7197  140.2325  143.6302 H   0  0  0  0  0  0  0  0  0  0  0  0  # atno 7974 bound_to 7965
  155.0763  140.3205  155.4615 H   0  0  0  0  0  0  0  0  0  0  0  0  # atno 8008 bound_to 7997
  156.2778  140.2103  156.5837 H   0  0  0  0  0  0  0  0  0  0  0  0  # atno 8009 bound_to 7997
  154.7014  140.0506  157.0449 H   0  0  0  0  0  0  0  0  0  0  0  0  # atno 8010 bound_to 7997
  139.5588  144.6868  151.4103 H   0  0  0  0  0  0  0  0  0  0  0  0  # atno 10167 bound_to 10162
  156.9140  130.9919  151.3016 H   0  0  0  0  0  0  0  0  0  0  0  0  # atno 10718 bound_to 10713
  153.0142  135.6347  154.1744 H   0  0  0  0  0  0  0  0  0  0  0  0  # atno 10763 bound_to 10752
  154.1484  135.2830  155.3144 H   0  0  0  0  0  0  0  0  0  0  0  0  # atno 10764 bound_to 10752
  154.6072  135.5568  153.7496 H   0  0  0  0  0  0  0  0  0  0  0  0  # atno 10765 bound_to 10752
  139.9134  134.9626  156.7606 H   0  0  0  0  0  0  0  0  0  0  0  0  # atno 11005 bound_to 11000
  145.8397  139.2124  143.1834 LP  0  0  0  0  0  0  0  0  0  0  0  0  # atno 17320 bound_to 7965
  146.0357  140.8214  142.9854 LP  0  0  0  0  0  0  0  0  0  0  0  0  # atno 17321 bound_to 7965
  140.6865  143.7961  150.7194 LP  0  0  0  0  0  0  0  0  0  0  0  0  # atno 17342 bound_to 10162
  140.1430  143.4424  152.2181 LP  0  0  0  0  0  0  0  0  0  0  0  0  # atno 17343 bound_to 10162
  157.5949  130.8471  149.8715 LP  0  0  0  0  0  0  0  0  0  0  0  0  # atno 17370 bound_to 10713
  156.0522  130.3715  150.1174 LP  0  0  0  0  0  0  0  0  0  0  0  0  # atno 17371 bound_to 10713
  140.6700  133.9568  155.7851 LP  0  0  0  0  0  0  0  0  0  0  0  0  # atno 17394 bound_to 11000
  141.0584  134.0383  157.3692 LP  0  0  0  0  0  0  0  0  0  0  0  0  # atno 17395 bound_to 11000

$$$$
