AV-unprocessed.smi:35|AV-procd|sdf|274|dock8
  -GOLD-   2262016 43D 1   1.00000     0.00000
 Structure written by MMmdl.
 28 29  0  0  0  0  0  0  0  0  2 V2000
  149.3036  134.1471  157.8503 O   0  0  0  0  0  0  0  0  0  0  0  0
  148.6656  135.0572  157.3241 C   0  0  0  0  0  0  0  0  0  0  0  0
  147.9440  135.9666  158.0397 N   0  5  0  0  0  0  0  0  0  0  0  0
  147.2278  136.9686  157.4498 C   0  0  0  0  0  0  0  0  0  0  0  0
  146.6013  137.8111  158.0921 O   0  0  0  0  0  0  0  0  0  0  0  0
  147.2004  137.0574  156.0290 N   0  0  0  0  0  0  0  0  0  0  0  0
  146.4135  138.1875  155.3827 C   0  0  1  0  0  0  0  0  0  0  0  0
  147.1026  139.3942  155.5221 O   0  0  0  0  0  0  0  0  0  0  0  0
  147.9016  139.6244  154.3696 C   0  0  2  0  0  0  0  0  0  0  0  0
  148.2506  141.1186  154.2856 C   0  0  0  0  0  0  0  0  0  0  0  0
  149.1999  141.3519  153.2666 O   0  0  0  0  0  0  0  0  0  0  0  0
  147.0245  139.1034  153.2279 C   0  0  1  0  0  0  0  0  0  0  0  0
  147.8359  138.6218  152.1749 O   0  0  0  0  0  0  0  0  0  0  0  0
  146.2327  137.9600  153.8640 C   0  0  2  0  0  0  0  0  0  0  0  0
  144.8726  138.0464  153.4885 O   0  0  0  0  0  0  0  0  0  0  0  0
  147.9594  136.1703  155.2804 C   0  0  0  0  0  0  0  0  0  0  0  0
  148.6729  135.1902  155.8705 C   0  0  0  0  0  0  0  0  0  0  0  0
  149.7058  133.9967  154.6721 Br  0  0  0  0  0  0  0  0  0  0  0  0
  145.4805  138.2281  155.9481 H   0  0  0  0  0  0  0  0  0  0  0  0
  148.8117  139.0278  154.4526 H   0  0  0  0  0  0  0  0  0  0  0  0
  147.3596  141.7192  154.1009 H   0  0  0  0  0  0  0  0  0  0  0  0
  148.6751  141.4555  155.2318 H   0  0  0  0  0  0  0  0  0  0  0  0
  149.2166  140.5999  152.6943 H   0  0  0  0  0  0  0  0  0  0  0  0
  146.3616  139.8914  152.8665 H   0  0  0  0  0  0  0  0  0  0  0  0
  148.3567  139.3399  151.8484 H   0  0  0  0  0  0  0  0  0  0  0  0
  146.6308  136.9855  153.5763 H   0  0  0  0  0  0  0  0  0  0  0  0
  144.7075  138.9173  153.1624 H   0  0  0  0  0  0  0  0  0  0  0  0
  148.0018  136.2507  154.2056 H   0  0  0  0  0  0  0  0  0  0  0  0
  1  2  2  0  0  0  0
  2 17  1  0  0  0  0
  2  3  1  0  0  0  0
  3  4  1  0  0  0  0
  4  5  2  0  0  0  0
  4  6  1  0  0  0  0
  6  7  1  0  0  0  0
  6 16  1  0  0  0  0
  7 14  1  0  0  0  0
  7  8  1  0  0  0  0
  7 19  1  0  0  0  0
  8  9  1  0  0  0  0
  9 10  1  0  0  0  0
  9 12  1  0  0  0  0
  9 20  1  0  0  0  0
 10 11  1  0  0  0  0
 10 21  1  0  0  0  0
 10 22  1  0  0  0  0
 11 23  1  0  0  0  0
 12 13  1  0  0  0  0
 12 14  1  0  0  0  0
 12 24  1  0  0  0  0
 13 25  1  0  0  0  0
 14 15  1  0  0  0  0
 14 26  1  0  0  0  0
 15 27  1  0  0  0  0
 16 17  2  0  0  0  0
 16 28  1  0  0  0  0
 17 18  1  0  0  0  0
M  CHG  1   3  -1
M  END
> <s_m_source_file>
AV-unprocessed.smi

> <i_m_source_file_index>
35

> <i_lp_mmshare_version>
43012

> <i_f3d_flags>
0

> <s_epik_input>
Tz1jMVtuSF1jKD1PKW4oW2NIXWMxQnIpW0NAQEhdMk9bQ0BASF0oW0NIMl1bT0hdKVtDQEBIXShbT0hdKVtDQEhdMltPSF0=

> <s_epik_cmdline>
J2VwaWtfcHl0aG9uJywgJy1waCcsICc3LjAnLCAnLXRuJywgJzgnLCAnLW1hJywgJzIwMCcsICctbWV0YWxfYmluZGluZycsICctaW1hZScsICc8aW5maWxlLm1hZT4nLCAnLW9tYWUnLCAnPG91dGZpbGUubWFlPic=

> <r_epik_Ionization_Penalty>
1.06112

> <r_epik_Ionization_Penalty_Charging>
2.1796e-09

> <r_epik_Ionization_Penalty_Neutral>
1.06112

> <r_epik_State_Penalty>
1.11484

> <r_epik_Charging_Adjusted_Penalty>
1.11484

> <i_epik_Tot_Q>
-1

> <i_epik_Tot_abs_Q>
1

> <r_epik_Metal_State_Penalty>
0.0032876

> <b_epik_Metal_Only>
0

> <s_epik_Chemistry_Notes>
This compound contains an acetal/aminal-like group ( X-CH(R)-Y where X, Y are N, S, or O) that may be acid/base labile, releasing an aldehyde.

> <s_lp_Force_Field>
OPLS_2005

> <r_lp_Energy>
36.7062

> <b_lp_Chiralities_Consistent>
1

> <s_lp_Variant>
AV-unprocessed.smi:35-28

> <Gold.Version>
5.8.1

> <Gold.Id.Protein>
6NUR|6NUR_protein|mol2

> <Gold.PLP.Fitness>
35.2316

> <Gold.PLP.PLP>
-18.4388

> <Gold.PLP.part.hbond>
-6.5967

> <Gold.PLP.part.metal>
0.0000

> <Gold.PLP.part.buried>
-2.8037

> <Gold.PLP.part.nonpolar>
-8.6210

> <Gold.PLP.part.repulsive>
0.0128

> <Gold.PLP.ligand.clash>
0.0000

> <Gold.PLP.ligand.torsion>
0.4622

> <Gold.PLP.Chemscore.Hbond>
4.8960

> <Gold.PLP.Chemscore.CHOScore>
1.0000

> <Gold.PLP.Chemscore.Metal>
0.0000

> <Gold.Chemscore.Hbonds>
donor molecule, donor type, donor heavy atom, donor atom, acceptor molecule, acceptor atom, score
      L1  H    11    23       P1  7957  0.90
      L1  H    13    25       P1  7957  1.00
      L1  H    15    27       P1 10175  1.00
      P1  H  6896  6907       L1     1  1.00
      P1  H  8011  8017       L1    11  1.00
      L1  C    16    28       P1  7948  1.00

> <Gold.PLP.Chemscore.Internal.Correction>
0.0292

> <Gold.Rescore>
     Score         DG    S(hbond)    S(metal)    S(lipo)     H(rot)  DE(clash)    DE(int)     intcor
     13.14     -14.29       4.37        0.00      29.81       3.63       0.00       1.16       ----

> <Gold.Chemscore.Fitness>
13.1351

> <Gold.Chemscore.DG>
-14.2908

> <Gold.Chemscore.ZeroCoef>
-5.4800

> <Gold.Chemscore.Hbond>
4.3729

> <Gold.Chemscore.Metal>
0.0000

> <Gold.Chemscore.Lipo>
29.8111

> <Gold.Chemscore.Internal_Hbond>
0.0000

> <Gold.Chemscore.DEClash>
0.0004

> <Gold.Chemscore.DEInternal>
1.1552

> <Gold.Chemscore.Rot>
3.6261

> <Gold.Chemscore.Internal.Correction>
   9.000000E+99

> <Gold.Chemscore.Hbonds>
donor molecule, donor type, donor heavy atom, donor atom, acceptor molecule, acceptor atom, score
      L1  H    11    23       P1  7957  0.88
      L1  H    13    25       P1  7957  0.94
      L1  H    15    27       P1 10175  0.97
      P1  H  6896  6907       L1     1  0.93
      P1  H  8011  8017       L1    11  0.23

> <Gold.Chemscore.Hbond.Weighted>
-14.6056

> <Gold.Chemscore.Metal.Weighted>
-0.0000

> <Gold.Chemscore.Lipo.Weighted>
-3.4879

> <Gold.Chemscore.Internal_Hbond.Weighted>
0.0000

> <Gold.Chemscore.DEClash.Weighted>
0.0004

> <Gold.Chemscore.DEInternal.Weighted>
1.1552

> <Gold.Chemscore.Rot.Weighted>
9.2828

> <Gold.Chemscore.Internal.Correction.Weighted>
   9.000000E+99

> <Gold.Protein.RotatedTorsions>
[ 6907 6896 6895 6894 ] final -109.86 input  -60.11 | X-H torsion
[ 7974 7965 7964 7962 ] final  -63.77 input  175.53 | X-H torsion
[ 8008 7997 7996 7995 ] final  -17.13 input   59.86 | X-H torsion
[ 10167 10162 10161 10158 ] final  119.88 input  -65.29 | X-H torsion
[ 10718 10713 10712 10709 ] final   59.08 input   66.30 | X-H torsion
[ 10763 10752 10751 10750 ] final  129.04 input  -60.55 | X-H torsion
[ 11005 11000 10999 10996 ] final  -92.34 input  -57.11 | X-H torsion

> <Gold.Protein.ActiveResidues>
 VAL166  LYS551  ARG553  GLY616  TRP617  ASP618  TYR619  PRO620  LYS621  CYS622 
 ASP623  PHE694  ASN695  SER759  ASP760  ASP761  ALA762  ILE779  LEU786  VAL792 
 PHE793  MET794  SER795  GLU796  ALA797  LYS798  CYS799  TRP800  GLU811  SER814 

> <Gold.Protein.RotatedAtoms>
  150.7588  133.9467  159.3472 H   0  0  0  0  0  0  0  0  0  0  0  0  # atno 6907 bound_to 6896
  151.7380  135.0858  160.0320 H   0  0  0  0  0  0  0  0  0  0  0  0  # atno 6908 bound_to 6896
  152.3547  133.6185  159.6006 H   0  0  0  0  0  0  0  0  0  0  0  0  # atno 6909 bound_to 6896
  145.7749  140.8793  143.0361 H   0  0  0  0  0  0  0  0  0  0  0  0  # atno 7974 bound_to 7965
  154.5001  140.2151  155.9364 H   0  0  0  0  0  0  0  0  0  0  0  0  # atno 8008 bound_to 7997
  156.1423  140.3177  155.8482 H   0  0  0  0  0  0  0  0  0  0  0  0  # atno 8009 bound_to 7997
  155.4097  140.0490  157.3023 H   0  0  0  0  0  0  0  0  0  0  0  0  # atno 8010 bound_to 7997
  139.6017  144.7059  151.3046 H   0  0  0  0  0  0  0  0  0  0  0  0  # atno 10167 bound_to 10162
  157.5647  130.8862  149.9168 H   0  0  0  0  0  0  0  0  0  0  0  0  # atno 10718 bound_to 10713
  153.7352  135.3232  155.3293 H   0  0  0  0  0  0  0  0  0  0  0  0  # atno 10763 bound_to 10752
  154.8313  135.4531  154.1081 H   0  0  0  0  0  0  0  0  0  0  0  0  # atno 10764 bound_to 10752
  153.2240  135.6952  153.8048 H   0  0  0  0  0  0  0  0  0  0  0  0  # atno 10765 bound_to 10752
  141.1524  133.7814  157.0006 H   0  0  0  0  0  0  0  0  0  0  0  0  # atno 11005 bound_to 11000
  144.6806  139.9907  143.7484 LP  0  0  0  0  0  0  0  0  0  0  0  0  # atno 17320 bound_to 7965
  146.0133  139.3188  143.0857 LP  0  0  0  0  0  0  0  0  0  0  0  0  # atno 17321 bound_to 7965
  140.7255  143.7016  150.7840 LP  0  0  0  0  0  0  0  0  0  0  0  0  # atno 17342 bound_to 10162
  140.0594  143.5170  152.2635 LP  0  0  0  0  0  0  0  0  0  0  0  0  # atno 17343 bound_to 10162
  156.0696  130.3687  150.0803 LP  0  0  0  0  0  0  0  0  0  0  0  0  # atno 17370 bound_to 10713
  156.8963  130.9605  151.3582 LP  0  0  0  0  0  0  0  0  0  0  0  0  # atno 17371 bound_to 10713
  140.0942  134.9574  157.1824 LP  0  0  0  0  0  0  0  0  0  0  0  0  # atno 17394 bound_to 11000
  140.3404  134.2710  155.7213 LP  0  0  0  0  0  0  0  0  0  0  0  0  # atno 17395 bound_to 11000

$$$$
