#       Name:                AV-unprocessed.smi:100
#       Creating user name   scv26
#       Creation time:       Thu Mar 26 17:40:08 2020


#       File generated by GOLD software.
#

@<TRIPOS>MOLECULE
AV-unprocessed.smi:100
    40    42     1
SMALL
NO_CHARGES


@<TRIPOS>ATOM
      1 ****        -4.8106   0.5072  -0.4200 N.pl3          1 S1                 0.0000
      2 ****        -3.5973   0.9950  -0.1268 C.ar           1 S1                 0.0000
      3 ****        -3.5187   2.0984   0.6535 N.ar           1 S1                 0.0000
      4 ****        -2.3198   2.6068   0.9574 C.ar           1 S1                 0.0000
      5 ****        -1.1104   2.1708   0.5935 N.ar           1 S1                 0.0000
      6 ****        -1.1932   1.0547  -0.1886 C.ar           1 S1                 0.0000
      7 ****        -2.3937   0.4110  -0.5963 C.ar           1 S1                 0.0000
      8 ****        -2.0943  -0.6829  -1.3965 N.2            1 S1                 0.0000
      9 ****        -0.7895  -0.6776  -1.4607 C.2            1 S1                 0.0000
     10 ****        -0.1645   0.3204  -0.7402 N.pl3          1 S1                 0.0000
     11 ****         1.2977   0.6217  -0.6137 C.3            1 S1                 0.0000
     12 ****         2.0062  -0.4030  -1.2543 O.3            1 S1                 0.0000
     13 ****         2.6837  -1.2348  -0.3107 C.3            1 S1                 0.0000
     14 ****         1.7978  -2.4150   0.1370 C.3            1 S1                 0.0000
     15 ****         1.8064  -3.4265  -0.8469 O.3            1 S1                 0.0000
     16 ****         2.9884  -0.2508   0.8174 C.3            1 S1                 0.0000
     17 ****         4.0500   0.4704   0.4459 F              1 S1                 0.0000
     18 ****         1.7316   0.6052   0.8629 C.3            1 S1                 0.0000
     19 ****         2.0127   1.8857   1.3925 O.3            1 S1                 0.0000
     20 ****        -4.8949  -0.3145  -1.0013 H              1 S1                 0.0000
     21 ****        -5.6371   0.9620  -0.0605 H              1 S1                 0.0000
     22 ****        -2.3310   3.4875   1.5822 H              1 S1                 0.0000
     23 ****        -0.2477  -1.4145  -2.0360 H              1 S1                 0.0000
     24 ****         1.4380   1.5744  -1.1263 H              1 S1                 0.0000
     25 ****         3.6109  -1.6175  -0.7402 H              1 S1                 0.0000
     26 ****         2.1996  -2.8529   1.0511 H              1 S1                 0.0000
     27 ****         0.7753  -2.1116   0.3575 H              1 S1                 0.0000
     28 ****         1.2853  -4.1518  -0.5377 H              1 S1                 0.0000
     29 ****         3.2294  -0.7262   1.7686 H              1 S1                 0.0000
     30 ****         0.9710   0.1108   1.4694 H              1 S1                 0.0000
     31 ****         1.2181   2.3978   1.3688 H              1 S1                 0.0000
     32 ****        -4.3513   2.5303   1.0002 LP             1 S1                 0.0000
     33 ****        -0.2514   2.6076   0.8607 LP             1 S1                 0.0000
     34 ****        -2.7297  -1.3257  -1.8244 LP             1 S1                 0.0000
     35 ****         2.6792   0.0034  -1.8723 LP             1 S1                 0.0000
     36 ****         1.3656  -0.9623  -1.7804 LP             1 S1                 0.0000
     37 ****         2.7451  -3.7309  -1.0091 LP             1 S1                 0.0000
     38 ****         1.4192  -3.0720  -1.6981 LP             1 S1                 0.0000
     39 ****         2.7189   2.3315   0.8424 LP             1 S1                 0.0000
     40 ****         2.3309   1.7988   2.3365 LP             1 S1                 0.0000
@<TRIPOS>BOND
    1    1    2 1     
    2    1   20 1     
    3    1   21 1     
    4    2    7 ar    
    5    2    3 ar    
    6    3    4 ar    
    7    4    5 ar    
    8    4   22 1     
    9    5    6 ar    
   10    6   10 1     
   11    6    7 ar    
   12    7    8 1     
   13    8    9 2     
   14    9   10 1     
   15    9   23 1     
   16   10   11 1     
   17   11   18 1     
   18   11   12 1     
   19   11   24 1     
   20   12   13 1     
   21   13   14 1     
   22   13   16 1     
   23   13   25 1     
   24   14   15 1     
   25   14   26 1     
   26   14   27 1     
   27   15   28 1     
   28   16   17 1     
   29   16   18 1     
   30   16   29 1     
   31   18   19 1     
   32   18   30 1     
   33   19   31 1     
   34    3   32 1     
   35    5   33 1     
   36    8   34 1     
   37   12   35 1     
   38   12   36 1     
   39   15   37 1     
   40   15   38 1     
   41   19   39 1     
   42   19   40 1     
@<TRIPOS>SUBSTRUCTURE
      1 S1             1
@<TRIPOS>SET
LONE_PAIRS      STATIC     ATOMS    <user>   **** ""
9 32 33 34 35 36 37 38 39 40
DONOR_HYDROGENS      STATIC     ATOMS    <user>   **** ""
4 20 21 28 31
ATOM$BLUE        STATIC     ATOMS    COLORGROUP SYSTEM
9 32 33 34 35 36 37 38 39 40
ATOM$RED        STATIC     ATOMS    COLORGROUP SYSTEM
4 20 21 28 31
