AV-unprocessed.smi:3078|AV-procd|sdf|11736|dock8
  -GOLD-   2272017133D 1   1.00000     0.00000
 Structure written by MMmdl.
 24 24  0  0  0  0  0  0  0  0  3 V2000
  152.6094  138.4664  154.7835 C   0  0  0  0  0  0  0  0  0  0  0  0
  151.2629  138.9643  154.5988 N   0  0  0  0  0  0  0  0  0  0  0  0
  150.1675  138.3124  154.0759 C   0  0  0  0  0  0  0  0  0  0  0  0
  149.1144  139.1860  154.1053 C   0  0  0  0  0  0  0  0  0  0  0  0
  147.6893  138.9851  153.6544 C   0  0  1  0  0  0  0  0  0  0  0  0
  147.6658  138.7155  152.2054 N   0  3  0  0  0  0  0  0  0  0  0  0
  146.9740  137.8626  154.4323 C   0  0  0  0  0  0  0  0  0  0  0  0
  147.6185  136.5517  154.2270 N   0  3  0  0  0  0  0  0  0  0  0  0
  149.6836  140.3640  154.6696 C   0  0  0  0  0  0  0  0  0  0  0  0
  150.9644  140.2265  154.9664 N   0  0  0  0  0  0  0  0  0  0  0  0
  152.7209  137.4970  154.2967 H   0  0  0  0  0  0  0  0  0  0  0  0
  152.8181  138.3557  155.8479 H   0  0  0  0  0  0  0  0  0  0  0  0
  153.3261  139.1642  154.3488 H   0  0  0  0  0  0  0  0  0  0  0  0
  150.2293  137.2908  153.7300 H   0  0  0  0  0  0  0  0  0  0  0  0
  147.1238  139.9071  153.7970 H   0  0  0  0  0  0  0  0  0  0  0  0
  146.7268  138.8442  151.8549 H   0  0  0  0  0  0  0  0  0  0  0  0
  147.9595  137.7651  152.0296 H   0  0  0  0  0  0  0  0  0  0  0  0
  146.9879  138.0793  155.5011 H   0  0  0  0  0  0  0  0  0  0  0  0
  145.9263  137.7918  154.1377 H   0  0  0  0  0  0  0  0  0  0  0  0
  148.3283  136.4092  154.9318 H   0  0  0  0  0  0  0  0  0  0  0  0
  148.0462  136.5204  153.3122 H   0  0  0  0  0  0  0  0  0  0  0  0
  149.2043  141.3102  154.8741 H   0  0  0  0  0  0  0  0  0  0  0  0
  146.9264  135.8188  154.2974 H   0  0  0  0  0  0  0  0  0  0  0  0
  148.2878  139.3531  151.7290 H   0  0  0  0  0  0  0  0  0  0  0  0
  1  2  1  0  0  0  0
  1 11  1  0  0  0  0
  1 12  1  0  0  0  0
  1 13  1  0  0  0  0
  2 10  1  0  0  0  0
  2  3  1  0  0  0  0
  3  4  2  0  0  0  0
  3 14  1  0  0  0  0
  4  5  1  0  0  0  0
  4  9  1  0  0  0  0
  5  6  1  0  0  0  0
  5  7  1  0  0  0  0
  5 15  1  0  0  0  0
  6 16  1  0  0  0  0
  6 17  1  0  0  0  0
  6 24  1  0  0  0  0
  7  8  1  0  0  0  0
  7 18  1  0  0  0  0
  7 19  1  0  0  0  0
  8 20  1  0  0  0  0
  8 21  1  0  0  0  0
  8 23  1  0  0  0  0
  9 10  2  0  0  0  0
  9 22  1  0  0  0  0
M  CHG  1   6   1
M  CHG  1   8   1
M  END
> <s_m_source_file>
AV-unprocessed.smi

> <i_m_source_file_index>
3078

> <i_lp_mmshare_version>
43012

> <i_f3d_flags>
0

> <s_epik_input>
W0NIM11uMVtjSF1jKFtjSF1uMSlbQ0BIXShbTkgyXSlbQ0gyXVtOSDJd

> <s_epik_cmdline>
J2VwaWtfcHl0aG9uJywgJy1waCcsICc3LjAnLCAnLXRuJywgJzgnLCAnLW1hJywgJzIwMCcsICctbWV0YWxfYmluZGluZycsICctaW1hZScsICc8aW5maWxlLm1hZT4nLCAnLW9tYWUnLCAnPG91dGZpbGUubWFlPic=

> <r_lp_tautomer_probability>
1

> <r_epik_Ionization_Penalty>
2.39325

> <r_epik_Ionization_Penalty_Charging>
2.39325

> <r_epik_Ionization_Penalty_Neutral>
1.68997e-07

> <r_epik_State_Penalty>
1.77229

> <r_epik_Charging_Adjusted_Penalty>
4.16555

> <i_epik_Tot_Q>
2

> <i_epik_Tot_abs_Q>
2

> <r_epik_Metal_State_Penalty>
1.77233

> <b_epik_Metal_Only>
0

> <s_lp_Force_Field>
OPLS_2005

> <r_lp_Energy>
8.51806

> <b_lp_Chiralities_Consistent>
1

> <s_lp_Variant>
AV-unprocessed.smi:3078-6

> <Gold.Version>
5.8.1

> <Gold.Id.Protein>
6NUR|6NUR_protein|mol2

> <Gold.PLP.Fitness>
40.8340

> <Gold.PLP.PLP>
-20.7150

> <Gold.PLP.part.hbond>
-4.0000

> <Gold.PLP.part.metal>
0.0000

> <Gold.PLP.part.buried>
-0.9526

> <Gold.PLP.part.nonpolar>
-15.7875

> <Gold.PLP.part.repulsive>
0.1392

> <Gold.PLP.ligand.clash>
0.0000

> <Gold.PLP.ligand.torsion>
0.0095

> <Gold.PLP.Chemscore.Hbond>
5.6175

> <Gold.PLP.Chemscore.CHOScore>
1.0896

> <Gold.PLP.Chemscore.Metal>
0.0000

> <Gold.Chemscore.Hbonds>
donor molecule, donor type, donor heavy atom, donor atom, acceptor molecule, acceptor atom, score
      L1  H     6    17       P1  7948  2.00
      L1  H     6    24       P1  7957  1.00
      L1  H     8    21       P1  7948  2.00
      P1  H  7989  7998       L1    10  0.54
      L1  C     3    14       P1  7948  0.96
      L1  C     3    14       P1  7949  0.13

> <Gold.PLP.Chemscore.Internal.Correction>
0.0169

> <Gold.Rescore>
     Score         DG    S(hbond)    S(metal)    S(lipo)     H(rot)  DE(clash)    DE(int)     intcor
     16.31     -16.35       2.99        0.00      38.81       1.43       0.03       0.01       ----

> <Gold.Chemscore.Fitness>
16.3091

> <Gold.Chemscore.DG>
-16.3501

> <Gold.Chemscore.ZeroCoef>
-5.4800

> <Gold.Chemscore.Hbond>
2.9915

> <Gold.Chemscore.Metal>
0.0000

> <Gold.Chemscore.Lipo>
38.8055

> <Gold.Chemscore.Internal_Hbond>
0.0000

> <Gold.Chemscore.DEClash>
0.0323

> <Gold.Chemscore.DEInternal>
0.0088

> <Gold.Chemscore.Rot>
1.4304

> <Gold.Chemscore.Internal.Correction>
   9.000000E+99

> <Gold.Chemscore.Hbonds>
donor molecule, donor type, donor heavy atom, donor atom, acceptor molecule, acceptor atom, score
      L1  H     6    17       P1  7948  1.00
      L1  H     6    24       P1  7957  0.95
      L1  H     8    21       P1  7948  1.00
      P1  H  7989  7998       L1    10  0.01

> <Gold.Chemscore.Hbond.Weighted>
-9.9917

> <Gold.Chemscore.Metal.Weighted>
-0.0000

> <Gold.Chemscore.Lipo.Weighted>
-4.5402

> <Gold.Chemscore.Internal_Hbond.Weighted>
0.0000

> <Gold.Chemscore.DEClash.Weighted>
0.0323

> <Gold.Chemscore.DEInternal.Weighted>
0.0088

> <Gold.Chemscore.Rot.Weighted>
3.6618

> <Gold.Chemscore.Internal.Correction.Weighted>
   9.000000E+99

> <Gold.Protein.RotatedTorsions>
[ 6907 6896 6895 6894 ] final  100.46 input  -60.11 | X-H torsion
[ 7974 7965 7964 7962 ] final  157.06 input  175.53 | X-H torsion
[ 8008 7997 7996 7995 ] final   39.39 input   59.86 | X-H torsion
[ 10167 10162 10161 10158 ] final   15.88 input  -65.29 | X-H torsion
[ 10718 10713 10712 10709 ] final   84.50 input   66.30 | X-H torsion
[ 10763 10752 10751 10750 ] final  133.25 input  -60.55 | X-H torsion
[ 11005 11000 10999 10996 ] final  135.60 input  -57.11 | X-H torsion

> <Gold.Protein.ActiveResidues>
 VAL166  LYS551  ARG553  GLY616  TRP617  ASP618  TYR619  PRO620  LYS621  CYS622 
 ASP623  PHE694  ASN695  SER759  ASP760  ASP761  ALA762  ILE779  LEU786  VAL792 
 PHE793  MET794  SER795  GLU796  ALA797  LYS798  CYS799  TRP800  GLU811  SER814 

> <Gold.Protein.RotatedAtoms>
  152.5371  134.0273  159.8008 H   0  0  0  0  0  0  0  0  0  0  0  0  # atno 6907 bound_to 6896
  151.0450  133.5666  159.2655 H   0  0  0  0  0  0  0  0  0  0  0  0  # atno 6908 bound_to 6896
  151.2621  135.0665  159.9156 H   0  0  0  0  0  0  0  0  0  0  0  0  # atno 6909 bound_to 6896
  144.7926  139.7289  143.6215 H   0  0  0  0  0  0  0  0  0  0  0  0  # atno 7974 bound_to 7965
  155.2359  140.3342  155.4298 H   0  0  0  0  0  0  0  0  0  0  0  0  # atno 8008 bound_to 7997
  156.2276  140.1836  156.7370 H   0  0  0  0  0  0  0  0  0  0  0  0  # atno 8009 bound_to 7997
  154.5924  140.0636  156.9242 H   0  0  0  0  0  0  0  0  0  0  0  0  # atno 8010 bound_to 7997
  140.5837  143.8932  150.6811 H   0  0  0  0  0  0  0  0  0  0  0  0  # atno 10167 bound_to 10162
  157.6899  131.0136  150.2683 H   0  0  0  0  0  0  0  0  0  0  0  0  # atno 10718 bound_to 10713
  153.8040  135.3138  155.3393 H   0  0  0  0  0  0  0  0  0  0  0  0  # atno 10763 bound_to 10752
  154.8078  135.4687  154.0439 H   0  0  0  0  0  0  0  0  0  0  0  0  # atno 10764 bound_to 10752
  153.1796  135.6891  153.8583 H   0  0  0  0  0  0  0  0  0  0  0  0  # atno 10765 bound_to 10752
  139.9990  134.9486  157.0030 H   0  0  0  0  0  0  0  0  0  0  0  0  # atno 11005 bound_to 11000
  146.2183  139.5589  142.9635 LP  0  0  0  0  0  0  0  0  0  0  0  0  # atno 17320 bound_to 7965
  145.5756  141.0389  143.2150 LP  0  0  0  0  0  0  0  0  0  0  0  0  # atno 17321 bound_to 7965
  140.2437  143.3644  152.1464 LP  0  0  0  0  0  0  0  0  0  0  0  0  # atno 17342 bound_to 10162
  139.5184  144.7006  151.5504 LP  0  0  0  0  0  0  0  0  0  0  0  0  # atno 17343 bound_to 10162
  156.3250  130.3791  149.7541 LP  0  0  0  0  0  0  0  0  0  0  0  0  # atno 17370 bound_to 10713
  156.5099  130.8167  151.3165 LP  0  0  0  0  0  0  0  0  0  0  0  0  # atno 17371 bound_to 10713
  140.4763  134.1335  155.7210 LP  0  0  0  0  0  0  0  0  0  0  0  0  # atno 17394 bound_to 11000
  141.1627  133.8761  157.1802 LP  0  0  0  0  0  0  0  0  0  0  0  0  # atno 17395 bound_to 11000

$$$$
