AV-unprocessed.smi:2607|AV-procd|sdf|10198|dock3
  -GOLD-   2272014213D 1   1.00000     0.00000
 Structure written by MMmdl.
 22 23  0  0  0  0  0  0  0  0  1 V2000
  151.4955  139.7180  158.9037 C   0  0  0  0  0  0  0  0  0  0  0  0
  151.1395  140.7759  157.8412 C   0  0  1  0  0  0  0  0  0  0  0  0
  151.5977  142.1833  158.2565 C   0  0  0  0  0  0  0  0  0  0  0  0
  151.3273  143.3342  157.4728 C   0  0  0  0  0  0  0  0  0  0  0  0
  151.7353  144.5683  157.8433 N   0  0  0  0  0  0  0  0  0  0  0  0
  152.4211  144.6573  159.0034 C   0  0  0  0  0  0  0  0  0  0  0  0
  152.6999  143.5195  159.7877 C   0  0  0  0  0  0  0  0  0  0  0  0
  152.2927  142.2860  159.4172 N   0  0  0  0  0  0  0  0  0  0  0  0
  151.6578  140.3634  156.5424 N   0  0  0  0  0  0  0  0  0  0  0  0
  150.7026  140.2146  155.6156 C   0  0  0  0  0  0  0  0  0  0  0  0
  150.8787  139.9060  154.4396 O   0  0  0  0  0  0  0  0  0  0  0  0
  149.5255  140.4501  156.2003 N   0  0  0  0  0  0  0  0  0  0  0  0
  149.6509  140.7540  157.4908 C   0  0  0  0  0  0  0  0  0  0  0  0
  148.7327  140.9683  158.2811 O   0  0  0  0  0  0  0  0  0  0  0  0
  151.0567  139.9591  159.8726 H   0  0  0  0  0  0  0  0  0  0  0  0
  152.5753  139.6500  159.0406 H   0  0  0  0  0  0  0  0  0  0  0  0
  151.1374  138.7268  158.6211 H   0  0  0  0  0  0  0  0  0  0  0  0
  150.7829  143.2803  156.5421 H   0  0  0  0  0  0  0  0  0  0  0  0
  152.7504  145.6400  159.3070 H   0  0  0  0  0  0  0  0  0  0  0  0
  153.2504  143.5986  160.7134 H   0  0  0  0  0  0  0  0  0  0  0  0
  152.6438  140.2395  156.3642 H   0  0  0  0  0  0  0  0  0  0  0  0
  148.6384  140.3845  155.7229 H   0  0  0  0  0  0  0  0  0  0  0  0
  1  2  1  0  0  0  0
  1 15  1  0  0  0  0
  1 16  1  0  0  0  0
  1 17  1  0  0  0  0
  2 13  1  0  0  0  0
  2  3  1  0  0  0  0
  2  9  1  0  0  0  0
  3  8  1  0  0  0  0
  3  4  2  0  0  0  0
  4  5  1  0  0  0  0
  4 18  1  0  0  0  0
  5  6  2  0  0  0  0
  6  7  1  0  0  0  0
  6 19  1  0  0  0  0
  7  8  2  0  0  0  0
  7 20  1  0  0  0  0
  9 10  1  0  0  0  0
  9 21  1  0  0  0  0
 10 11  2  0  0  0  0
 10 12  1  0  0  0  0
 12 13  1  0  0  0  0
 12 22  1  0  0  0  0
 13 14  2  0  0  0  0
M  END
> <s_m_source_file>
AV-unprocessed.smi

> <i_m_source_file_index>
2607

> <i_lp_mmshare_version>
43012

> <i_f3d_flags>
0

> <s_epik_input>
Tz1DMVtOSF1DKD1PKVtOSF1bQ0BAXTEoW0NIM10pYzJbY0hdbltjSF1bY0hdbjI=

> <s_epik_cmdline>
J2VwaWtfcHl0aG9uJywgJy1waCcsICc3LjAnLCAnLXRuJywgJzgnLCAnLW1hJywgJzIwMCcsICctbWV0YWxfYmluZGluZycsICctaW1hZScsICc8aW5maWxlLm1hZT4nLCAnLW9tYWUnLCAnPG91dGZpbGUubWFlPic=

> <r_lp_tautomer_probability>
1

> <r_epik_Ionization_Penalty>
0.0333762

> <r_epik_Ionization_Penalty_Charging>
0

> <r_epik_Ionization_Penalty_Neutral>
0.0333762

> <r_epik_State_Penalty>
0.027503

> <r_epik_Charging_Adjusted_Penalty>
0.027503

> <i_epik_Tot_Q>
0

> <i_epik_Tot_abs_Q>
0

> <r_epik_Metal_State_Penalty>
0.445281

> <b_epik_Metal_Only>
0

> <s_lp_Force_Field>
OPLS_2005

> <r_lp_Energy>
24.1998

> <b_lp_Chiralities_Consistent>
1

> <s_lp_Variant>
AV-unprocessed.smi:2607-1

> <Gold.Version>
5.8.1

> <Gold.Id.Protein>
6NUR|6NUR_protein|mol2

> <Gold.PLP.Fitness>
30.1789

> <Gold.PLP.PLP>
-24.2568

> <Gold.PLP.part.hbond>
-1.7302

> <Gold.PLP.part.metal>
0.0000

> <Gold.PLP.part.buried>
-5.1505

> <Gold.PLP.part.nonpolar>
-18.6722

> <Gold.PLP.part.repulsive>
0.4133

> <Gold.PLP.ligand.clash>
0.0000

> <Gold.PLP.ligand.torsion>
0.0975

> <Gold.PLP.Chemscore.Hbond>
1.0000

> <Gold.PLP.Chemscore.CHOScore>
0.9998

> <Gold.PLP.Chemscore.Metal>
0.0000

> <Gold.Chemscore.Hbonds>
donor molecule, donor type, donor heavy atom, donor atom, acceptor molecule, acceptor atom, score
      P1  H  7989  7998       L1    11  1.00
      L1  C     4    18       P1  8028  1.00

> <Gold.PLP.Chemscore.Internal.Correction>
0.1177

> <Gold.Rescore>
     Score         DG    S(hbond)    S(metal)    S(lipo)     H(rot)  DE(clash)    DE(int)     intcor
     12.85     -12.97       0.99        0.00      57.67       1.00       0.06       0.06       ----

> <Gold.Chemscore.Fitness>
12.8522

> <Gold.Chemscore.DG>
-12.9746

> <Gold.Chemscore.ZeroCoef>
-5.4800

> <Gold.Chemscore.Hbond>
0.9903

> <Gold.Chemscore.Metal>
0.0000

> <Gold.Chemscore.Lipo>
57.6657

> <Gold.Chemscore.Internal_Hbond>
0.0000

> <Gold.Chemscore.DEClash>
0.0624

> <Gold.Chemscore.DEInternal>
0.0601

> <Gold.Chemscore.Rot>
1.0000

> <Gold.Chemscore.Internal.Correction>
   9.000000E+99

> <Gold.Chemscore.Hbonds>
donor molecule, donor type, donor heavy atom, donor atom, acceptor molecule, acceptor atom, score
      P1  H  7989  7998       L1    11  0.92

> <Gold.Chemscore.Hbond.Weighted>
-3.3078

> <Gold.Chemscore.Metal.Weighted>
-0.0000

> <Gold.Chemscore.Lipo.Weighted>
-6.7469

> <Gold.Chemscore.Internal_Hbond.Weighted>
0.0000

> <Gold.Chemscore.DEClash.Weighted>
0.0624

> <Gold.Chemscore.DEInternal.Weighted>
0.0601

> <Gold.Chemscore.Rot.Weighted>
2.5600

> <Gold.Chemscore.Internal.Correction.Weighted>
   9.000000E+99

> <Gold.Protein.RotatedTorsions>
[ 6907 6896 6895 6894 ] final  -73.87 input  -60.11 | X-H torsion
[ 7974 7965 7964 7962 ] final  -84.00 input  175.53 | X-H torsion
[ 8008 7997 7996 7995 ] final -127.49 input   59.86 | X-H torsion
[ 10167 10162 10161 10158 ] final -159.37 input  -65.29 | X-H torsion
[ 10718 10713 10712 10709 ] final   28.97 input   66.30 | X-H torsion
[ 10763 10752 10751 10750 ] final -173.77 input  -60.55 | X-H torsion
[ 11005 11000 10999 10996 ] final -166.09 input  -57.11 | X-H torsion

> <Gold.Protein.ActiveResidues>
 VAL166  LYS551  ARG553  GLY616  TRP617  ASP618  TYR619  PRO620  LYS621  CYS622 
 ASP623  PHE694  ASN695  SER759  ASP760  ASP761  ALA762  ILE779  LEU786  VAL792 
 PHE793  MET794  SER795  GLU796  ALA797  LYS798  CYS799  TRP800  GLU811  SER814 

> <Gold.Protein.RotatedAtoms>
  150.7114  134.4953  159.5534 H   0  0  0  0  0  0  0  0  0  0  0  0  # atno 6907 bound_to 6896
  152.2562  134.8079  160.0447 H   0  0  0  0  0  0  0  0  0  0  0  0  # atno 6908 bound_to 6896
  151.8809  133.3460  159.3803 H   0  0  0  0  0  0  0  0  0  0  0  0  # atno 6909 bound_to 6896
  145.5124  140.9539  143.1700 H   0  0  0  0  0  0  0  0  0  0  0  0  # atno 7974 bound_to 7965
  155.2471  140.0431  157.2982 H   0  0  0  0  0  0  0  0  0  0  0  0  # atno 8008 bound_to 7997
  154.5792  140.2396  155.8048 H   0  0  0  0  0  0  0  0  0  0  0  0  # atno 8009 bound_to 7997
  156.2181  140.2978  155.9894 H   0  0  0  0  0  0  0  0  0  0  0  0  # atno 8010 bound_to 7997
  139.6620  143.9895  152.2231 H   0  0  0  0  0  0  0  0  0  0  0  0  # atno 10167 bound_to 10162
  157.2405  130.7067  149.6356 H   0  0  0  0  0  0  0  0  0  0  0  0  # atno 10718 bound_to 10713
  154.6040  135.2857  155.0504 H   0  0  0  0  0  0  0  0  0  0  0  0  # atno 10763 bound_to 10752
  154.1759  135.6465  153.5025 H   0  0  0  0  0  0  0  0  0  0  0  0  # atno 10764 bound_to 10752
  153.0168  135.5412  154.6769 H   0  0  0  0  0  0  0  0  0  0  0  0  # atno 10765 bound_to 10752
  140.5684  134.5263  157.5157 H   0  0  0  0  0  0  0  0  0  0  0  0  # atno 11005 bound_to 11000
  144.7720  139.6714  143.7191 LP  0  0  0  0  0  0  0  0  0  0  0  0  # atno 17320 bound_to 7965
  146.2158  139.5547  142.9651 LP  0  0  0  0  0  0  0  0  0  0  0  0  # atno 17321 bound_to 7965
  139.9637  144.6541  150.8055 LP  0  0  0  0  0  0  0  0  0  0  0  0  # atno 17342 bound_to 10162
  140.7584  143.3106  151.2854 LP  0  0  0  0  0  0  0  0  0  0  0  0  # atno 17343 bound_to 10162
  155.9670  130.4460  150.5522 LP  0  0  0  0  0  0  0  0  0  0  0  0  # atno 17370 bound_to 10713
  157.3384  131.0712  151.1807 LP  0  0  0  0  0  0  0  0  0  0  0  0  # atno 17371 bound_to 10713
  139.9374  134.7850  156.0768 LP  0  0  0  0  0  0  0  0  0  0  0  0  # atno 17394 bound_to 11000
  141.1071  133.6656  156.2891 LP  0  0  0  0  0  0  0  0  0  0  0  0  # atno 17395 bound_to 11000

$$$$
