AV-unprocessed.smi:2671|AV-procd|sdf|10347|dock4
  -GOLD-   2272014373D 1   1.00000     0.00000
 Structure written by MMmdl.
 28 29  0  0  0  0  0  0  0  0  2 V2000
  155.1445  136.8394  156.5150 O   0  0  0  0  0  0  0  0  0  0  0  0
  154.6635  137.2211  157.5799 C   0  0  0  0  0  0  0  0  0  0  0  0
  155.0327  136.5421  158.8209 C   0  0  0  0  0  0  0  0  0  0  0  0
  154.5034  136.9761  159.9922 C   0  0  0  0  0  0  0  0  0  0  0  0
  154.8349  136.2980  161.3111 C   0  0  0  0  0  0  0  0  0  0  0  0
  156.1361  136.4109  161.5786 F   0  0  0  0  0  0  0  0  0  0  0  0
  154.1568  136.8712  162.3050 F   0  0  0  0  0  0  0  0  0  0  0  0
  154.5250  135.0004  161.2884 F   0  0  0  0  0  0  0  0  0  0  0  0
  153.6016  138.0566  160.0083 N   0  0  0  0  0  0  0  0  0  0  0  0
  153.2906  138.6342  158.9081 C   0  0  0  0  0  0  0  0  0  0  0  0
  152.1390  140.0200  158.9233 S   0  0  0  0  0  0  0  0  0  0  0  0
  153.1718  141.4390  159.3973 C   0  0  0  0  0  0  0  0  0  0  0  0
  152.3548  142.5261  160.1085 C   0  0  1  0  0  0  0  0  0  0  0  0
  152.6399  142.6619  161.6083 C   0  0  0  0  0  0  0  0  0  0  0  0
  152.4754  144.1501  161.8893 C   0  0  0  0  0  0  0  0  0  0  0  0
  152.1786  144.7595  160.5196 C   0  0  0  0  0  0  0  0  0  0  0  0
  152.6906  143.8080  159.6007 O   0  0  0  0  0  0  0  0  0  0  0  0
  153.7868  138.2623  157.6767 N   0  5  0  0  0  0  0  0  0  0  0  0
  155.7169  135.7064  158.8020 H   0  0  0  0  0  0  0  0  0  0  0  0
  153.6239  141.8541  158.4960 H   0  0  0  0  0  0  0  0  0  0  0  0
  153.9862  141.0988  160.0379 H   0  0  0  0  0  0  0  0  0  0  0  0
  151.2879  142.3626  159.9446 H   0  0  0  0  0  0  0  0  0  0  0  0
  151.9665  142.0462  162.2056 H   0  0  0  0  0  0  0  0  0  0  0  0
  153.6613  142.3568  161.8394 H   0  0  0  0  0  0  0  0  0  0  0  0
  151.6753  144.3549  162.6011 H   0  0  0  0  0  0  0  0  0  0  0  0
  153.4008  144.5579  162.2980 H   0  0  0  0  0  0  0  0  0  0  0  0
  151.1029  144.8641  160.3682 H   0  0  0  0  0  0  0  0  0  0  0  0
  152.6395  145.7383  160.3840 H   0  0  0  0  0  0  0  0  0  0  0  0
  1  2  2  0  0  0  0
  2 18  1  0  0  0  0
  2  3  1  0  0  0  0
  3 19  1  0  0  0  0
  3  4  2  0  0  0  0
  4  5  1  0  0  0  0
  4  9  1  0  0  0  0
  5  6  1  0  0  0  0
  5  7  1  0  0  0  0
  5  8  1  0  0  0  0
  9 10  2  0  0  0  0
 10 11  1  0  0  0  0
 10 18  1  0  0  0  0
 11 12  1  0  0  0  0
 12 13  1  0  0  0  0
 12 20  1  0  0  0  0
 12 21  1  0  0  0  0
 13 17  1  0  0  0  0
 13 14  1  0  0  0  0
 13 22  1  0  0  0  0
 14 15  1  0  0  0  0
 14 23  1  0  0  0  0
 14 24  1  0  0  0  0
 15 16  1  0  0  0  0
 15 25  1  0  0  0  0
 15 26  1  0  0  0  0
 16 17  1  0  0  0  0
 16 27  1  0  0  0  0
 16 28  1  0  0  0  0
M  CHG  1  18  -1
M  END
> <s_m_source_file>
AV-unprocessed.smi

> <i_m_source_file_index>
2671

> <i_lp_mmshare_version>
43012

> <i_f3d_flags>
0

> <s_epik_input>
W09IXWMxW2NIXWMoQyhGKShGKUYpbmMobjEpU1tDSDJdW0NAQEhdMltDSDJdW0NIMl1bQ0gyXU8y

> <s_epik_cmdline>
J2VwaWtfcHl0aG9uJywgJy1waCcsICc3LjAnLCAnLXRuJywgJzgnLCAnLW1hJywgJzIwMCcsICctbWV0YWxfYmluZGluZycsICctaW1hZScsICc8aW5maWxlLm1hZT4nLCAnLW9tYWUnLCAnPG91dGZpbGUubWFlPic=

> <r_lp_tautomer_probability>
1

> <r_epik_Ionization_Penalty>
0.972901

> <r_epik_Ionization_Penalty_Charging>
0.00136034

> <r_epik_Ionization_Penalty_Neutral>
0.971541

> <r_epik_State_Penalty>
0.242243

> <r_epik_Charging_Adjusted_Penalty>
0.243604

> <i_epik_Tot_Q>
-1

> <i_epik_Tot_abs_Q>
1

> <r_epik_Metal_State_Penalty>
0.0617458

> <b_epik_Metal_Only>
0

> <s_lp_Force_Field>
OPLS_2005

> <r_lp_Energy>
24.5089

> <b_lp_Chiralities_Consistent>
1

> <s_lp_Variant>
AV-unprocessed.smi:2671-2

> <Gold.Version>
5.8.1

> <Gold.Id.Protein>
6NUR|6NUR_protein|mol2

> <Gold.PLP.Fitness>
36.2572

> <Gold.PLP.PLP>
-30.5844

> <Gold.PLP.part.hbond>
-2.0000

> <Gold.PLP.part.metal>
0.0000

> <Gold.PLP.part.buried>
-5.0575

> <Gold.PLP.part.nonpolar>
-22.3584

> <Gold.PLP.part.repulsive>
0.0000

> <Gold.PLP.ligand.clash>
0.0000

> <Gold.PLP.ligand.torsion>
1.1400

> <Gold.PLP.Chemscore.Hbond>
2.6465

> <Gold.PLP.Chemscore.CHOScore>
0.0000

> <Gold.PLP.Chemscore.Metal>
0.0000

> <Gold.Chemscore.Hbonds>
donor molecule, donor type, donor heavy atom, donor atom, acceptor molecule, acceptor atom, score
      P1  H  7997  8010       L1    18  1.97
      P1  H 10752 10765       L1     1  0.65

> <Gold.PLP.Chemscore.Internal.Correction>
0.0133

> <Gold.Rescore>
     Score         DG    S(hbond)    S(metal)    S(lipo)     H(rot)  DE(clash)    DE(int)     intcor
     12.09     -13.10       1.00        0.00      73.02       1.66       0.02       0.99       ----

> <Gold.Chemscore.Fitness>
12.0881

> <Gold.Chemscore.DG>
-13.0986

> <Gold.Chemscore.ZeroCoef>
-5.4800

> <Gold.Chemscore.Hbond>
0.9991

> <Gold.Chemscore.Metal>
0.0000

> <Gold.Chemscore.Lipo>
73.0225

> <Gold.Chemscore.Internal_Hbond>
0.0000

> <Gold.Chemscore.DEClash>
0.0224

> <Gold.Chemscore.DEInternal>
0.9880

> <Gold.Chemscore.Rot>
1.6649

> <Gold.Chemscore.Internal.Correction>
   9.000000E+99

> <Gold.Chemscore.Hbonds>
donor molecule, donor type, donor heavy atom, donor atom, acceptor molecule, acceptor atom, score
      P1  H  7997  8010       L1    18  0.23
      P1  H 10752 10765       L1     1  0.64

> <Gold.Chemscore.Hbond.Weighted>
-3.3369

> <Gold.Chemscore.Metal.Weighted>
-0.0000

> <Gold.Chemscore.Lipo.Weighted>
-8.5436

> <Gold.Chemscore.Internal_Hbond.Weighted>
0.0000

> <Gold.Chemscore.DEClash.Weighted>
0.0224

> <Gold.Chemscore.DEInternal.Weighted>
0.9880

> <Gold.Chemscore.Rot.Weighted>
4.2620

> <Gold.Chemscore.Internal.Correction.Weighted>
   9.000000E+99

> <Gold.Protein.RotatedTorsions>
[ 6907 6896 6895 6894 ] final  121.70 input  -60.11 | X-H torsion
[ 7974 7965 7964 7962 ] final  144.53 input  175.53 | X-H torsion
[ 8008 7997 7996 7995 ] final   31.56 input   59.86 | X-H torsion
[ 10167 10162 10161 10158 ] final -176.53 input  -65.29 | X-H torsion
[ 10718 10713 10712 10709 ] final  -76.76 input   66.30 | X-H torsion
[ 10763 10752 10751 10750 ] final  -77.26 input  -60.55 | X-H torsion
[ 11005 11000 10999 10996 ] final  121.03 input  -57.11 | X-H torsion

> <Gold.Protein.ActiveResidues>
 VAL166  LYS551  ARG553  GLY616  TRP617  ASP618  TYR619  PRO620  LYS621  CYS622 
 ASP623  PHE694  ASN695  SER759  ASP760  ASP761  ALA762  ILE779  LEU786  VAL792 
 PHE793  MET794  SER795  GLU796  ALA797  LYS798  CYS799  TRP800  GLU811  SER814 

> <Gold.Protein.RotatedAtoms>
  152.4301  133.7263  159.6561 H   0  0  0  0  0  0  0  0  0  0  0  0  # atno 6907 bound_to 6896
  150.8180  133.8292  159.3158 H   0  0  0  0  0  0  0  0  0  0  0  0  # atno 6908 bound_to 6896
  151.5983  135.1051  160.0106 H   0  0  0  0  0  0  0  0  0  0  0  0  # atno 6909 bound_to 6896
  144.8828  139.5673  143.5835 H   0  0  0  0  0  0  0  0  0  0  0  0  # atno 7974 bound_to 7965
  155.1083  140.3236  155.4528 H   0  0  0  0  0  0  0  0  0  0  0  0  # atno 8008 bound_to 7997
  156.2697  140.2048  156.6156 H   0  0  0  0  0  0  0  0  0  0  0  0  # atno 8009 bound_to 7997
  154.6775  140.0530  157.0218 H   0  0  0  0  0  0  0  0  0  0  0  0  # atno 8010 bound_to 7997
  139.5525  144.2072  152.1102 H   0  0  0  0  0  0  0  0  0  0  0  0  # atno 10167 bound_to 10162
  156.0165  130.4474  150.3242 H   0  0  0  0  0  0  0  0  0  0  0  0  # atno 10718 bound_to 10713
  154.5107  135.5770  153.6602 H   0  0  0  0  0  0  0  0  0  0  0  0  # atno 10763 bound_to 10752
  152.9896  135.6158  154.2883 H   0  0  0  0  0  0  0  0  0  0  0  0  # atno 10764 bound_to 10752
  154.2797  135.2851  155.2682 H   0  0  0  0  0  0  0  0  0  0  0  0  # atno 10765 bound_to 10752
  139.9209  134.9637  156.7896 H   0  0  0  0  0  0  0  0  0  0  0  0  # atno 11005 bound_to 11000
  146.3005  139.7413  142.9094 LP  0  0  0  0  0  0  0  0  0  0  0  0  # atno 17320 bound_to 7965
  145.3923  141.0374  143.3117 LP  0  0  0  0  0  0  0  0  0  0  0  0  # atno 17321 bound_to 7965
  140.1570  144.5061  150.6654 LP  0  0  0  0  0  0  0  0  0  0  0  0  # atno 17342 bound_to 10162
  140.6791  143.2318  151.5431 LP  0  0  0  0  0  0  0  0  0  0  0  0  # atno 17343 bound_to 10162
  157.1342  131.0279  151.2956 LP  0  0  0  0  0  0  0  0  0  0  0  0  # atno 17370 bound_to 10713
  157.4525  130.7607  149.7164 LP  0  0  0  0  0  0  0  0  0  0  0  0  # atno 17371 bound_to 10713
  140.6477  133.9760  155.7739 LP  0  0  0  0  0  0  0  0  0  0  0  0  # atno 17394 bound_to 11000
  141.0729  134.0179  157.3500 LP  0  0  0  0  0  0  0  0  0  0  0  0  # atno 17395 bound_to 11000

$$$$
