AV-unprocessed.smi:234|AV-procd|sdf|1794|dock3
  -GOLD-   2262020353D 1   1.00000     0.00000
 Structure written by MMmdl.
 59 62  0  0  0  0  0  0  0  0  1 V2000
  146.6491  134.5956  161.8995 C   0  0  0  0  0  0  0  0  0  0  0  0
  147.1591  135.5702  160.8360 C   0  0  0  0  0  0  0  0  0  0  0  0
  147.5008  134.8373  159.6717 O   0  0  0  0  0  0  0  0  0  0  0  0
  147.5245  135.6340  158.4973 C   0  0  1  0  0  0  0  0  0  0  0  0
  148.7681  136.5183  158.4320 C   0  0  0  0  0  0  0  0  0  0  0  0
  148.7378  136.2588  156.9205 C   0  0  1  0  0  0  0  0  0  0  0  0
  150.0598  136.1276  156.3029 N   0  0  0  0  0  0  0  0  0  0  0  0
  150.1508  135.3142  155.0977 C   0  0  0  0  0  0  0  0  0  0  0  0
  150.7813  137.2655  156.1784 C   0  0  0  0  0  0  0  0  0  0  0  0
  151.9588  137.1794  155.5104 N   0  0  0  0  0  0  0  0  0  0  0  0
  152.7259  138.2635  155.3626 C   0  0  0  0  0  0  0  0  0  0  0  0
  152.5057  139.5073  155.7935 N   0  0  0  0  0  0  0  0  0  0  0  0
  151.3158  139.6004  156.4537 C   0  0  0  0  0  0  0  0  0  0  0  0
  150.3945  138.5401  156.6841 C   0  0  0  0  0  0  0  0  0  0  0  0
  149.2869  139.0196  157.3738 N   0  0  0  0  0  0  0  0  0  0  0  0
  149.5467  140.2851  157.5562 C   0  0  0  0  0  0  0  0  0  0  0  0
  150.7495  140.7162  157.0446 N   0  0  0  0  0  0  0  0  0  0  0  0
  151.2921  142.0633  157.1182 C   0  0  0  0  0  0  0  0  0  0  0  0
  151.5061  142.5544  158.5695 C   0  0  1  0  0  0  0  0  0  0  0  0
  150.2575  142.9873  159.0866 O   0  0  0  0  0  0  0  0  0  0  0  0
  152.0781  141.4990  159.5044 C   0  0  0  0  0  0  0  0  0  0  0  0
  152.7217  142.3409  160.5988 C   0  0  0  0  0  0  0  0  0  0  0  0
  153.2387  143.4814  159.9250 O   0  0  0  0  0  0  0  0  0  0  0  0
  152.5622  143.6752  158.6831 C   0  0  2  0  0  0  0  0  0  0  0  0
  152.0497  145.1189  158.5569 C   0  0  0  0  0  0  0  0  0  0  0  0
  148.0134  134.9144  157.2114 C   0  0  0  0  0  0  0  0  0  0  0  0
  148.8943  133.6724  157.4385 C   0  0  0  0  0  0  0  0  0  0  0  0
  146.9169  134.5208  156.2202 C   0  0  0  0  0  0  0  0  0  0  0  0
  146.3798  135.1236  162.8144 H   0  0  0  0  0  0  0  0  0  0  0  0
  147.4103  133.8565  162.1503 H   0  0  0  0  0  0  0  0  0  0  0  0
  145.7658  134.0621  161.5479 H   0  0  0  0  0  0  0  0  0  0  0  0
  146.3881  136.3073  160.6119 H   0  0  0  0  0  0  0  0  0  0  0  0
  148.0316  136.1080  161.2099 H   0  0  0  0  0  0  0  0  0  0  0  0
  146.6140  136.2205  158.3508 H   0  0  0  0  0  0  0  0  0  0  0  0
  148.6039  137.5568  158.7208 H   0  0  0  0  0  0  0  0  0  0  0  0
  149.6328  136.0882  158.9406 H   0  0  0  0  0  0  0  0  0  0  0  0
  148.0805  136.9604  156.4035 H   0  0  0  0  0  0  0  0  0  0  0  0
  151.1908  135.1458  154.8146 H   0  0  0  0  0  0  0  0  0  0  0  0
  149.6429  135.8042  154.2661 H   0  0  0  0  0  0  0  0  0  0  0  0
  149.6901  134.3392  155.2484 H   0  0  0  0  0  0  0  0  0  0  0  0
  153.6504  138.1120  154.8250 H   0  0  0  0  0  0  0  0  0  0  0  0
  148.8675  140.9424  158.0797 H   0  0  0  0  0  0  0  0  0  0  0  0
  152.2347  142.0798  156.5694 H   0  0  0  0  0  0  0  0  0  0  0  0
  150.6176  142.7361  156.5866 H   0  0  0  0  0  0  0  0  0  0  0  0
  150.1294  143.8901  158.8383 H   0  0  0  0  0  0  0  0  0  0  0  0
  151.3356  140.7950  159.8829 H   0  0  0  0  0  0  0  0  0  0  0  0
  152.8536  140.9261  158.9944 H   0  0  0  0  0  0  0  0  0  0  0  0
  151.9729  142.6662  161.3221 H   0  0  0  0  0  0  0  0  0  0  0  0
  153.5032  141.8048  161.1373 H   0  0  0  0  0  0  0  0  0  0  0  0
  153.3201  143.5158  157.9146 H   0  0  0  0  0  0  0  0  0  0  0  0
  151.5205  145.2664  157.6150 H   0  0  0  0  0  0  0  0  0  0  0  0
  152.8793  145.8255  158.5852 H   0  0  0  0  0  0  0  0  0  0  0  0
  151.3718  145.3792  159.3702 H   0  0  0  0  0  0  0  0  0  0  0  0
  149.3225  133.3037  156.5066 H   0  0  0  0  0  0  0  0  0  0  0  0
  148.3234  132.8524  157.8743 H   0  0  0  0  0  0  0  0  0  0  0  0
  149.7248  133.8753  158.1146 H   0  0  0  0  0  0  0  0  0  0  0  0
  147.3320  134.2079  155.2624 H   0  0  0  0  0  0  0  0  0  0  0  0
  146.2418  135.3536  156.0209 H   0  0  0  0  0  0  0  0  0  0  0  0
  146.3099  133.6973  156.5959 H   0  0  0  0  0  0  0  0  0  0  0  0
  1  2  1  0  0  0  0
  1 29  1  0  0  0  0
  1 30  1  0  0  0  0
  1 31  1  0  0  0  0
  2  3  1  0  0  0  0
  2 32  1  0  0  0  0
  2 33  1  0  0  0  0
  3  4  1  0  0  0  0
  4 26  1  0  0  0  0
  4  5  1  0  0  0  0
  4 34  1  0  0  0  0
  5  6  1  0  0  0  0
  5 35  1  0  0  0  0
  5 36  1  0  0  0  0
  6  7  1  0  0  0  0
  6 26  1  0  0  0  0
  6 37  1  0  0  0  0
  7  8  1  0  0  0  0
  7  9  1  0  0  0  0
  8 38  1  0  0  0  0
  8 39  1  0  0  0  0
  8 40  1  0  0  0  0
  9 14  1  0  0  0  0
  9 10  2  0  0  0  0
 10 11  1  0  0  0  0
 11 12  2  0  0  0  0
 11 41  1  0  0  0  0
 12 13  1  0  0  0  0
 13 17  1  0  0  0  0
 13 14  2  0  0  0  0
 14 15  1  0  0  0  0
 15 16  2  0  0  0  0
 16 17  1  0  0  0  0
 16 42  1  0  0  0  0
 17 18  1  0  0  0  0
 18 19  1  0  0  0  0
 18 43  1  0  0  0  0
 18 44  1  0  0  0  0
 19 24  1  0  0  0  0
 19 20  1  0  0  0  0
 19 21  1  0  0  0  0
 20 45  1  0  0  0  0
 21 22  1  0  0  0  0
 21 46  1  0  0  0  0
 21 47  1  0  0  0  0
 22 23  1  0  0  0  0
 22 48  1  0  0  0  0
 22 49  1  0  0  0  0
 23 24  1  0  0  0  0
 24 25  1  0  0  0  0
 24 50  1  0  0  0  0
 25 51  1  0  0  0  0
 25 52  1  0  0  0  0
 25 53  1  0  0  0  0
 26 27  1  0  0  0  0
 26 28  1  0  0  0  0
 27 54  1  0  0  0  0
 27 55  1  0  0  0  0
 27 56  1  0  0  0  0
 28 57  1  0  0  0  0
 28 58  1  0  0  0  0
 28 59  1  0  0  0  0
M  END
> <s_m_source_file>
AV-unprocessed.smi

> <i_m_source_file_index>
234

> <i_lp_mmshare_version>
43012

> <i_f3d_flags>
0

> <s_epik_input>
W0NIM11bQ0gyXU9bQ0BASF0oQzEoW0NIM10pW0NIM10pW0NIMl1bQ0BIXTFOKFtDSDNdKWMobltjSF1uMiljKGMyMyluW2NIXW4zW0NIMl1bQ0BAXTQoW09IXSlbQ0gyXVtDSDJdT1tDQEhdNFtDSDNd

> <s_epik_cmdline>
J2VwaWtfcHl0aG9uJywgJy1waCcsICc3LjAnLCAnLXRuJywgJzgnLCAnLW1hJywgJzIwMCcsICctbWV0YWxfYmluZGluZycsICctaW1hZScsICc8aW5maWxlLm1hZT4nLCAnLW9tYWUnLCAnPG91dGZpbGUubWFlPic=

> <r_lp_tautomer_probability>
1

> <r_epik_Ionization_Penalty>
0.00349132

> <r_epik_Ionization_Penalty_Charging>
0

> <r_epik_Ionization_Penalty_Neutral>
0.00349132

> <r_epik_State_Penalty>
0.00242418

> <r_epik_Charging_Adjusted_Penalty>
0.00242418

> <i_epik_Tot_Q>
0

> <i_epik_Tot_abs_Q>
0

> <r_epik_Metal_State_Penalty>
-0

> <b_epik_Metal_Only>
0

> <s_lp_Force_Field>
OPLS_2005

> <r_lp_Energy>
47.8711

> <b_lp_Chiralities_Consistent>
1

> <s_lp_Variant>
AV-unprocessed.smi:234-10

> <Gold.Version>
5.8.1

> <Gold.Id.Protein>
6NUR|6NUR_protein|mol2

> <Gold.PLP.Fitness>
47.0764

> <Gold.PLP.PLP>
-42.7126

> <Gold.PLP.part.hbond>
-2.6964

> <Gold.PLP.part.metal>
0.0000

> <Gold.PLP.part.buried>
-6.4505

> <Gold.PLP.part.nonpolar>
-32.5697

> <Gold.PLP.part.repulsive>
0.0902

> <Gold.PLP.ligand.clash>
0.0000

> <Gold.PLP.ligand.torsion>
1.0431

> <Gold.PLP.Chemscore.Hbond>
1.8800

> <Gold.PLP.Chemscore.CHOScore>
0.0000

> <Gold.PLP.Chemscore.Metal>
0.0000

> <Gold.Chemscore.Hbonds>
donor molecule, donor type, donor heavy atom, donor atom, acceptor molecule, acceptor atom, score
      P1  H  7997  8009       L1    12  1.00
      P1  H 10752 10764       L1    10  0.86

> <Gold.PLP.Chemscore.Internal.Correction>
0.8100

> <Gold.Rescore>
     Score         DG    S(hbond)    S(metal)    S(lipo)     H(rot)  DE(clash)    DE(int)     intcor
     11.35     -15.49       1.54        0.00      99.02       2.62       0.11       4.02       ----

> <Gold.Chemscore.Fitness>
11.3532

> <Gold.Chemscore.DG>
-15.4896

> <Gold.Chemscore.ZeroCoef>
-5.4800

> <Gold.Chemscore.Hbond>
1.5380

> <Gold.Chemscore.Metal>
0.0000

> <Gold.Chemscore.Lipo>
99.0163

> <Gold.Chemscore.Internal_Hbond>
0.0000

> <Gold.Chemscore.DEClash>
0.1124

> <Gold.Chemscore.DEInternal>
4.0240

> <Gold.Chemscore.Rot>
2.6219

> <Gold.Chemscore.Internal.Correction>
   9.000000E+99

> <Gold.Chemscore.Hbonds>
donor molecule, donor type, donor heavy atom, donor atom, acceptor molecule, acceptor atom, score
      P1  H  7997  8009       L1    12  0.38
      P1  H 10752 10764       L1    10  0.49

> <Gold.Chemscore.Hbond.Weighted>
-5.1368

> <Gold.Chemscore.Metal.Weighted>
-0.0000

> <Gold.Chemscore.Lipo.Weighted>
-11.5849

> <Gold.Chemscore.Internal_Hbond.Weighted>
0.0000

> <Gold.Chemscore.DEClash.Weighted>
0.1124

> <Gold.Chemscore.DEInternal.Weighted>
4.0240

> <Gold.Chemscore.Rot.Weighted>
6.7121

> <Gold.Chemscore.Internal.Correction.Weighted>
   9.000000E+99

> <Gold.Protein.RotatedTorsions>
[ 6907 6896 6895 6894 ] final  104.16 input  -60.11 | X-H torsion
[ 7974 7965 7964 7962 ] final  -78.45 input  175.53 | X-H torsion
[ 8008 7997 7996 7995 ] final -162.84 input   59.86 | X-H torsion
[ 10167 10162 10161 10158 ] final  158.44 input  -65.29 | X-H torsion
[ 10718 10713 10712 10709 ] final  109.63 input   66.30 | X-H torsion
[ 10763 10752 10751 10750 ] final  -56.80 input  -60.55 | X-H torsion
[ 11005 11000 10999 10996 ] final  -40.40 input  -57.11 | X-H torsion

> <Gold.Protein.ActiveResidues>
 VAL166  LYS551  ARG553  GLY616  TRP617  ASP618  TYR619  PRO620  LYS621  CYS622 
 ASP623  PHE694  ASN695  SER759  ASP760  ASP761  ALA762  ILE779  LEU786  VAL792 
 PHE793  MET794  SER795  GLU796  ALA797  LYS798  CYS799  TRP800  GLU811  SER814 

> <Gold.Protein.RotatedAtoms>
  152.5273  133.9719  159.7765 H   0  0  0  0  0  0  0  0  0  0  0  0  # atno 6907 bound_to 6896
  150.9989  133.6068  159.2705 H   0  0  0  0  0  0  0  0  0  0  0  0  # atno 6908 bound_to 6896
  151.3184  135.0818  159.9350 H   0  0  0  0  0  0  0  0  0  0  0  0  # atno 6909 bound_to 6896
  145.5863  140.9438  143.1316 H   0  0  0  0  0  0  0  0  0  0  0  0  # atno 7974 bound_to 7965
  155.8126  140.0908  157.1895 H   0  0  0  0  0  0  0  0  0  0  0  0  # atno 8008 bound_to 7997
  154.3979  140.1451  156.3465 H   0  0  0  0  0  0  0  0  0  0  0  0  # atno 8009 bound_to 7997
  155.8349  140.3441  155.5598 H   0  0  0  0  0  0  0  0  0  0  0  0  # atno 8010 bound_to 7997
  139.4827  144.4824  151.8425 H   0  0  0  0  0  0  0  0  0  0  0  0  # atno 10167 bound_to 10162
  157.6532  131.0917  150.6482 H   0  0  0  0  0  0  0  0  0  0  0  0  # atno 10718 bound_to 10713
  154.2123  135.6392  153.5119 H   0  0  0  0  0  0  0  0  0  0  0  0  # atno 10763 bound_to 10752
  152.9987  135.5477  154.6202 H   0  0  0  0  0  0  0  0  0  0  0  0  # atno 10764 bound_to 10752
  154.5641  135.2911  155.0864 H   0  0  0  0  0  0  0  0  0  0  0  0  # atno 10765 bound_to 10752
  141.0172  133.6880  156.2317 H   0  0  0  0  0  0  0  0  0  0  0  0  # atno 11005 bound_to 11000
  144.7371  139.7554  143.7325 LP  0  0  0  0  0  0  0  0  0  0  0  0  # atno 17320 bound_to 7965
  146.1679  139.4818  142.9946 LP  0  0  0  0  0  0  0  0  0  0  0  0  # atno 17321 bound_to 7965
  140.4301  144.2127  150.5888 LP  0  0  0  0  0  0  0  0  0  0  0  0  # atno 17342 bound_to 10162
  140.4788  143.2386  151.8985 LP  0  0  0  0  0  0  0  0  0  0  0  0  # atno 17343 bound_to 10162
  156.6791  130.4562  149.5633 LP  0  0  0  0  0  0  0  0  0  0  0  0  # atno 17370 bound_to 10713
  156.1942  130.6579  151.1095 LP  0  0  0  0  0  0  0  0  0  0  0  0  # atno 17371 bound_to 10713
  140.6634  134.4943  157.5584 LP  0  0  0  0  0  0  0  0  0  0  0  0  # atno 17394 bound_to 11000
  139.9124  134.8317  156.1482 LP  0  0  0  0  0  0  0  0  0  0  0  0  # atno 17395 bound_to 11000

$$$$
