AV-unprocessed.smi:2505|AV-procd|sdf|9858|dock2
  -GOLD-   2272013483D 1   1.00000     0.00000
 Structure written by MMmdl.
 48 52  0  0  0  0  0  0  0  0  1 V2000
  147.5032  138.0059  152.8834 O   0  0  0  0  0  0  0  0  0  0  0  0
  146.4721  138.6743  152.8708 C   0  0  0  0  0  0  0  0  0  0  0  0
  145.2464  138.1904  152.5915 N   0  0  0  0  0  0  0  0  0  0  0  0
  144.8639  136.8512  152.3154 C   0  0  0  0  0  0  0  0  0  0  0  0
  145.7301  136.0368  151.5562 C   0  0  0  0  0  0  0  0  0  0  0  0
  145.4211  134.7605  151.2421 N   0  0  0  0  0  0  0  0  0  0  0  0
  144.2406  134.3038  151.6690 C   0  0  0  0  0  0  0  0  0  0  0  0
  143.9176  132.8756  151.3566 C   0  0  0  0  0  0  0  0  0  0  0  0
  144.9592  131.9543  150.7550 C   0  0  0  0  0  0  0  0  0  0  0  0
  143.7938  132.4076  149.9209 C   0  0  0  0  0  0  0  0  0  0  0  0
  143.3407  134.9766  152.3913 N   0  0  0  0  0  0  0  0  0  0  0  0
  143.6426  136.2535  152.7126 C   0  0  0  0  0  0  0  0  0  0  0  0
  146.4909  139.9914  153.1394 N   0  0  0  0  0  0  0  0  0  0  0  0
  147.6525  140.8235  153.4795 C   0  0  1  0  0  0  0  0  0  0  0  0
  147.2954  142.2989  153.7862 C   0  0  1  0  0  0  0  0  0  0  0  0
  145.9466  142.9064  153.4836 C   0  0  0  0  0  0  0  0  0  0  0  0
  145.2070  142.7824  154.8191 C   0  0  0  0  0  0  0  0  0  0  0  0
  145.9129  141.7740  155.5388 O   0  0  0  0  0  0  0  0  0  0  0  0
  147.3021  141.9314  155.2614 C   0  0  1  0  0  0  0  0  0  0  0  0
  148.0901  140.6422  154.9525 C   0  0  0  0  0  0  0  0  0  0  0  0
  147.7149  139.3764  155.7261 C   0  0  0  0  0  0  0  0  0  0  0  0
  148.6001  139.3296  156.9755 C   0  0  0  0  0  0  0  0  0  0  0  0
  149.7972  140.2351  156.6710 C   0  0  0  0  0  0  0  0  0  0  0  0
  149.5891  140.7190  155.2343 C   0  0  0  0  0  0  0  0  0  0  0  0
  144.5042  138.8732  152.5416 H   0  0  0  0  0  0  0  0  0  0  0  0
  146.6799  136.4089  151.2009 H   0  0  0  0  0  0  0  0  0  0  0  0
  143.2301  132.4561  152.0887 H   0  0  0  0  0  0  0  0  0  0  0  0
  145.9353  132.3743  150.5203 H   0  0  0  0  0  0  0  0  0  0  0  0
  144.9654  130.9192  151.0903 H   0  0  0  0  0  0  0  0  0  0  0  0
  143.0193  131.6769  149.6977 H   0  0  0  0  0  0  0  0  0  0  0  0
  143.9955  133.1294  149.1315 H   0  0  0  0  0  0  0  0  0  0  0  0
  142.8861  136.7830  153.2698 H   0  0  0  0  0  0  0  0  0  0  0  0
  145.6024  140.4708  153.1106 H   0  0  0  0  0  0  0  0  0  0  0  0
  148.4917  140.7220  152.7893 H   0  0  0  0  0  0  0  0  0  0  0  0
  148.1342  142.9537  153.5446 H   0  0  0  0  0  0  0  0  0  0  0  0
  146.0261  143.9496  153.1775 H   0  0  0  0  0  0  0  0  0  0  0  0
  145.4215  142.3781  152.6895 H   0  0  0  0  0  0  0  0  0  0  0  0
  145.2628  143.7188  155.3760 H   0  0  0  0  0  0  0  0  0  0  0  0
  144.1559  142.5214  154.6944 H   0  0  0  0  0  0  0  0  0  0  0  0
  147.7972  142.6620  155.9028 H   0  0  0  0  0  0  0  0  0  0  0  0
  146.6578  139.3399  155.9913 H   0  0  0  0  0  0  0  0  0  0  0  0
  147.9138  138.4956  155.1139 H   0  0  0  0  0  0  0  0  0  0  0  0
  148.0573  139.7100  157.8416 H   0  0  0  0  0  0  0  0  0  0  0  0
  148.9091  138.3090  157.2034 H   0  0  0  0  0  0  0  0  0  0  0  0
  149.7984  141.0850  157.3546 H   0  0  0  0  0  0  0  0  0  0  0  0
  150.7490  139.7165  156.7890 H   0  0  0  0  0  0  0  0  0  0  0  0
  150.1286  140.0609  154.5517 H   0  0  0  0  0  0  0  0  0  0  0  0
  149.9939  141.7214  155.0890 H   0  0  0  0  0  0  0  0  0  0  0  0
  1  2  2  0  0  0  0
  2  3  1  0  0  0  0
  2 13  1  0  0  0  0
  3  4  1  0  0  0  0
  3 25  1  0  0  0  0
  4 12  1  0  0  0  0
  4  5  2  0  0  0  0
  5  6  1  0  0  0  0
  5 26  1  0  0  0  0
  6  7  2  0  0  0  0
  7  8  1  0  0  0  0
  7 11  1  0  0  0  0
  8 10  1  0  0  0  0
  8  9  1  0  0  0  0
  8 27  1  0  0  0  0
  9 10  1  0  0  0  0
  9 28  1  0  0  0  0
  9 29  1  0  0  0  0
 10 30  1  0  0  0  0
 10 31  1  0  0  0  0
 11 12  2  0  0  0  0
 12 32  1  0  0  0  0
 13 14  1  0  0  0  0
 13 33  1  0  0  0  0
 14 20  1  0  0  0  0
 14 15  1  0  0  0  0
 14 34  1  0  0  0  0
 15 19  1  0  0  0  0
 15 16  1  0  0  0  0
 15 35  1  0  0  0  0
 16 17  1  0  0  0  0
 16 36  1  0  0  0  0
 16 37  1  0  0  0  0
 17 18  1  0  0  0  0
 17 38  1  0  0  0  0
 17 39  1  0  0  0  0
 18 19  1  0  0  0  0
 19 20  1  0  0  0  0
 19 40  1  0  0  0  0
 20 24  1  0  0  0  0
 20 21  1  0  0  0  0
 21 22  1  0  0  0  0
 21 41  1  0  0  0  0
 21 42  1  0  0  0  0
 22 23  1  0  0  0  0
 22 43  1  0  0  0  0
 22 44  1  0  0  0  0
 23 24  1  0  0  0  0
 23 45  1  0  0  0  0
 23 46  1  0  0  0  0
 24 47  1  0  0  0  0
 24 48  1  0  0  0  0
M  END
> <s_m_source_file>
AV-unprocessed.smi

> <i_m_source_file_index>
2505

> <i_lp_mmshare_version>
43012

> <i_f3d_flags>
0

> <s_epik_input>
W0NIMl0xW0NIMl1bQ0hdMWMobltjSF0yKW5bY0hdYzJbTkhdQyg9TylbTkhdW0NAQEhdM1tDQEBIXShbQ0gyXVtDSDJdTzQpW0NASF00QzM1W0NIMl1bQ0gyXVtDSDJdW0NIMl01

> <s_epik_cmdline>
J2VwaWtfcHl0aG9uJywgJy1waCcsICc3LjAnLCAnLXRuJywgJzgnLCAnLW1hJywgJzIwMCcsICctbWV0YWxfYmluZGluZycsICctaW1hZScsICc8aW5maWxlLm1hZT4nLCAnLW9tYWUnLCAnPG91dGZpbGUubWFlPic=

> <r_lp_tautomer_probability>
1

> <r_epik_Ionization_Penalty>
2.6075e-05

> <r_epik_Ionization_Penalty_Charging>
0

> <r_epik_Ionization_Penalty_Neutral>
2.6075e-05

> <r_epik_State_Penalty>
-0

> <r_epik_Charging_Adjusted_Penalty>
0

> <i_epik_Tot_Q>
0

> <i_epik_Tot_abs_Q>
0

> <r_epik_Metal_State_Penalty>
-0

> <b_epik_Metal_Only>
0

> <s_lp_Force_Field>
OPLS_2005

> <r_lp_Energy>
64.3287

> <b_lp_Chiralities_Consistent>
1

> <s_lp_Variant>
AV-unprocessed.smi:2505-6

> <Gold.Version>
5.8.1

> <Gold.Id.Protein>
6NUR|6NUR_protein|mol2

> <Gold.PLP.Fitness>
45.3056

> <Gold.PLP.PLP>
-37.1180

> <Gold.PLP.part.hbond>
-2.9685

> <Gold.PLP.part.metal>
0.0000

> <Gold.PLP.part.buried>
-6.6607

> <Gold.PLP.part.nonpolar>
-33.1058

> <Gold.PLP.part.repulsive>
4.7523

> <Gold.PLP.ligand.clash>
0.0000

> <Gold.PLP.ligand.torsion>
0.4794

> <Gold.PLP.Chemscore.Hbond>
1.9440

> <Gold.PLP.Chemscore.CHOScore>
1.0000

> <Gold.PLP.Chemscore.Metal>
0.0000

> <Gold.Chemscore.Hbonds>
donor molecule, donor type, donor heavy atom, donor atom, acceptor molecule, acceptor atom, score
      L1  H     3    25       P1 10175  1.00
      L1  H    13    33       P1 10175  0.96
      L1  C     5    26       P1  7948  1.00

> <Gold.PLP.Chemscore.Internal.Correction>
0.3143

> <Gold.Rescore>
     Score         DG    S(hbond)    S(metal)    S(lipo)     H(rot)  DE(clash)    DE(int)     intcor
     15.57     -18.77       1.90        0.00      84.95       1.17       1.58       1.62       ----

> <Gold.Chemscore.Fitness>
15.5671

> <Gold.Chemscore.DG>
-18.7669

> <Gold.Chemscore.ZeroCoef>
-5.4800

> <Gold.Chemscore.Hbond>
1.9026

> <Gold.Chemscore.Metal>
0.0000

> <Gold.Chemscore.Lipo>
84.9456

> <Gold.Chemscore.Internal_Hbond>
0.0000

> <Gold.Chemscore.DEClash>
1.5847

> <Gold.Chemscore.DEInternal>
1.6151

> <Gold.Chemscore.Rot>
1.1744

> <Gold.Chemscore.Internal.Correction>
   9.000000E+99

> <Gold.Chemscore.Hbonds>
donor molecule, donor type, donor heavy atom, donor atom, acceptor molecule, acceptor atom, score
      L1  H     3    25       P1 10175  1.00
      L1  H    13    33       P1 10175  0.79

> <Gold.Chemscore.Hbond.Weighted>
-6.3547

> <Gold.Chemscore.Metal.Weighted>
-0.0000

> <Gold.Chemscore.Lipo.Weighted>
-9.9386

> <Gold.Chemscore.Internal_Hbond.Weighted>
0.0000

> <Gold.Chemscore.DEClash.Weighted>
1.5847

> <Gold.Chemscore.DEInternal.Weighted>
1.6151

> <Gold.Chemscore.Rot.Weighted>
3.0064

> <Gold.Chemscore.Internal.Correction.Weighted>
   9.000000E+99

> <Gold.Protein.RotatedTorsions>
[ 6907 6896 6895 6894 ] final   95.87 input  -60.11 | X-H torsion
[ 7974 7965 7964 7962 ] final -162.48 input  175.53 | X-H torsion
[ 8008 7997 7996 7995 ] final    1.09 input   59.86 | X-H torsion
[ 10167 10162 10161 10158 ] final  113.19 input  -65.29 | X-H torsion
[ 10718 10713 10712 10709 ] final   70.87 input   66.30 | X-H torsion
[ 10763 10752 10751 10750 ] final -116.68 input  -60.55 | X-H torsion
[ 11005 11000 10999 10996 ] final -147.41 input  -57.11 | X-H torsion

> <Gold.Protein.ActiveResidues>
 VAL166  LYS551  ARG553  GLY616  TRP617  ASP618  TYR619  PRO620  LYS621  CYS622 
 ASP623  PHE694  ASN695  SER759  ASP760  ASP761  ALA762  ILE779  LEU786  VAL792 
 PHE793  MET794  SER795  GLU796  ALA797  LYS798  CYS799  TRP800  GLU811  SER814 

> <Gold.Protein.RotatedAtoms>
  152.5440  134.0974  159.8302 H   0  0  0  0  0  0  0  0  0  0  0  0  # atno 6907 bound_to 6896
  151.1056  133.5203  159.2615 H   0  0  0  0  0  0  0  0  0  0  0  0  # atno 6908 bound_to 6896
  151.1942  135.0424  159.8899 H   0  0  0  0  0  0  0  0  0  0  0  0  # atno 6909 bound_to 6896
  144.7356  140.3247  143.6164 H   0  0  0  0  0  0  0  0  0  0  0  0  # atno 7974 bound_to 7965
  154.6756  140.2621  155.6961 H   0  0  0  0  0  0  0  0  0  0  0  0  # atno 8008 bound_to 7997
  156.2677  140.2820  156.1204 H   0  0  0  0  0  0  0  0  0  0  0  0  # atno 8009 bound_to 7997
  155.1104  140.0375  157.2712 H   0  0  0  0  0  0  0  0  0  0  0  0  # atno 8010 bound_to 7997
  139.6480  144.7127  151.2105 H   0  0  0  0  0  0  0  0  0  0  0  0  # atno 10167 bound_to 10162
  157.6423  130.9499  150.0711 H   0  0  0  0  0  0  0  0  0  0  0  0  # atno 10718 bound_to 10713
  154.8528  135.4337  154.1860 H   0  0  0  0  0  0  0  0  0  0  0  0  # atno 10763 bound_to 10752
  153.2939  135.6963  153.7273 H   0  0  0  0  0  0  0  0  0  0  0  0  # atno 10764 bound_to 10752
  153.6429  135.3465  155.3051 H   0  0  0  0  0  0  0  0  0  0  0  0  # atno 10765 bound_to 10752
  140.7720  134.3178  157.5072 H   0  0  0  0  0  0  0  0  0  0  0  0  # atno 11005 bound_to 11000
  145.7533  139.1801  143.2309 LP  0  0  0  0  0  0  0  0  0  0  0  0  # atno 17320 bound_to 7965
  146.1044  140.7505  142.9534 LP  0  0  0  0  0  0  0  0  0  0  0  0  # atno 17321 bound_to 7965
  140.7524  143.6198  150.8524 LP  0  0  0  0  0  0  0  0  0  0  0  0  # atno 17342 bound_to 10162
  139.9843  143.5916  152.2932 LP  0  0  0  0  0  0  0  0  0  0  0  0  # atno 17343 bound_to 10162
  156.1715  130.3646  149.9159 LP  0  0  0  0  0  0  0  0  0  0  0  0  # atno 17370 bound_to 10713
  156.7133  130.8978  151.3611 LP  0  0  0  0  0  0  0  0  0  0  0  0  # atno 17371 bound_to 10713
  139.8754  134.9266  156.3405 LP  0  0  0  0  0  0  0  0  0  0  0  0  # atno 17394 bound_to 11000
  140.9565  133.7416  156.0343 LP  0  0  0  0  0  0  0  0  0  0  0  0  # atno 17395 bound_to 11000

$$$$
