AV-unprocessed.smi:1762|AV-procd|sdf|7118|dock7
  -GOLD-   22720 8343D 1   1.00000     0.00000
 Structure written by MMmdl.
 53 54  0  0  0  0  0  0  0  0  2 V2000
  149.3878  132.8997  153.6256 C   0  0  0  0  0  0  0  0  0  0  0  0
  147.9454  132.8168  154.1571 C   0  0  1  0  0  0  0  0  0  0  0  0
  147.4124  134.1558  154.6989 C   0  0  0  0  0  0  0  0  0  0  0  0
  147.1302  135.1226  153.5987 N   0  3  2  0  0  0  0  0  0  0  0  0
  146.7243  136.4805  154.1016 C   0  0  1  0  0  0  0  0  0  0  0  0
  147.8733  137.1399  154.8953 C   0  0  0  0  0  0  0  0  0  0  0  0
  147.7315  137.3959  156.0919 O   0  0  0  0  0  0  0  0  0  0  0  0
  148.9993  137.4072  154.2169 N   0  0  0  0  0  0  0  0  0  0  0  0
  150.1916  138.0172  154.7902 C   0  0  0  0  0  0  0  0  0  0  0  0
  150.1422  139.5433  154.6341 C   0  0  0  0  0  0  0  0  0  0  0  0
  150.5472  140.2655  155.9054 C   0  0  0  0  0  0  0  0  0  0  0  0
  150.4842  141.6730  155.9865 C   0  0  0  0  0  0  0  0  0  0  0  0
  150.8676  142.2931  157.1916 C   0  0  0  0  0  0  0  0  0  0  0  0
  151.2950  141.4861  158.2635 C   0  0  0  0  0  0  0  0  0  0  0  0
  151.3206  140.0890  158.0819 C   0  0  0  0  0  0  0  0  0  0  0  0
  150.9568  139.4844  156.9303 N   0  0  0  0  0  0  0  0  0  0  0  0
  146.1957  137.4509  152.9907 C   0  0  0  0  0  0  0  0  0  0  0  0
  146.3934  138.9458  153.3181 C   0  0  0  0  0  0  0  0  0  0  0  0
  144.7287  137.1865  152.5975 C   0  0  0  0  0  0  0  0  0  0  0  0
  146.1899  134.4885  152.6343 C   0  0  0  0  0  0  0  0  0  0  0  0
  146.7543  133.1559  152.1072 C   0  0  2  0  0  0  0  0  0  0  0  0
  145.7648  132.4421  151.1797 C   0  0  0  0  0  0  0  0  0  0  0  0
  147.0371  132.2850  153.1962 O   0  0  0  0  0  0  0  0  0  0  0  0
  150.0774  133.1747  154.4240 H   0  0  0  0  0  0  0  0  0  0  0  0
  149.4978  133.6425  152.8361 H   0  0  0  0  0  0  0  0  0  0  0  0
  149.7115  131.9373  153.2286 H   0  0  0  0  0  0  0  0  0  0  0  0
  147.9561  132.1059  154.9838 H   0  0  0  0  0  0  0  0  0  0  0  0
  146.4923  133.9809  155.2588 H   0  0  0  0  0  0  0  0  0  0  0  0
  148.1353  134.5496  155.4128 H   0  0  0  0  0  0  0  0  0  0  0  0
  145.8978  136.3124  154.7951 H   0  0  0  0  0  0  0  0  0  0  0  0
  149.0367  137.1638  153.2374 H   0  0  0  0  0  0  0  0  0  0  0  0
  150.2524  137.7463  155.8450 H   0  0  0  0  0  0  0  0  0  0  0  0
  151.0888  137.6279  154.3053 H   0  0  0  0  0  0  0  0  0  0  0  0
  150.8038  139.8571  153.8251 H   0  0  0  0  0  0  0  0  0  0  0  0
  149.1376  139.8576  154.3477 H   0  0  0  0  0  0  0  0  0  0  0  0
  150.1499  142.2654  155.1475 H   0  0  0  0  0  0  0  0  0  0  0  0
  150.8333  143.3681  157.2919 H   0  0  0  0  0  0  0  0  0  0  0  0
  151.5958  141.9268  159.2025 H   0  0  0  0  0  0  0  0  0  0  0  0
  151.6423  139.4398  158.8827 H   0  0  0  0  0  0  0  0  0  0  0  0
  146.7462  137.2407  152.0751 H   0  0  0  0  0  0  0  0  0  0  0  0
  145.7646  139.2631  154.1502 H   0  0  0  0  0  0  0  0  0  0  0  0
  146.1319  139.5676  152.4614 H   0  0  0  0  0  0  0  0  0  0  0  0
  147.4259  139.1756  153.5799 H   0  0  0  0  0  0  0  0  0  0  0  0
  144.0331  137.4663  153.3894 H   0  0  0  0  0  0  0  0  0  0  0  0
  144.5662  136.1338  152.3641 H   0  0  0  0  0  0  0  0  0  0  0  0
  144.4548  137.7615  151.7124 H   0  0  0  0  0  0  0  0  0  0  0  0
  145.2227  134.3337  153.1153 H   0  0  0  0  0  0  0  0  0  0  0  0
  146.0213  135.1222  151.7662 H   0  0  0  0  0  0  0  0  0  0  0  0
  147.6668  133.3448  151.5416 H   0  0  0  0  0  0  0  0  0  0  0  0
  145.5226  133.0586  150.3137 H   0  0  0  0  0  0  0  0  0  0  0  0
  144.8333  132.2117  151.6973 H   0  0  0  0  0  0  0  0  0  0  0  0
  146.1822  131.5043  150.8123 H   0  0  0  0  0  0  0  0  0  0  0  0
  147.9989  135.2609  153.1015 H   0  0  0  0  0  0  0  0  0  0  0  0
  1  2  1  0  0  0  0
  1 24  1  0  0  0  0
  1 25  1  0  0  0  0
  1 26  1  0  0  0  0
  2 23  1  0  0  0  0
  2  3  1  0  0  0  0
  2 27  1  0  0  0  0
  3  4  1  0  0  0  0
  3 28  1  0  0  0  0
  3 29  1  0  0  0  0
  4  5  1  0  0  0  0
  4 20  1  0  0  0  0
  4 53  1  0  0  0  0
  5  6  1  0  0  0  0
  5 17  1  0  0  0  0
  5 30  1  0  0  0  0
  6  7  2  0  0  0  0
  6  8  1  0  0  0  0
  8  9  1  0  0  0  0
  8 31  1  0  0  0  0
  9 10  1  0  0  0  0
  9 32  1  0  0  0  0
  9 33  1  0  0  0  0
 10 11  1  0  0  0  0
 10 34  1  0  0  0  0
 10 35  1  0  0  0  0
 11 16  1  0  0  0  0
 11 12  2  0  0  0  0
 12 13  1  0  0  0  0
 12 36  1  0  0  0  0
 13 14  2  0  0  0  0
 13 37  1  0  0  0  0
 14 15  1  0  0  0  0
 14 38  1  0  0  0  0
 15 16  2  0  0  0  0
 15 39  1  0  0  0  0
 17 18  1  0  0  0  0
 17 19  1  0  0  0  0
 17 40  1  0  0  0  0
 18 41  1  0  0  0  0
 18 42  1  0  0  0  0
 18 43  1  0  0  0  0
 19 44  1  0  0  0  0
 19 45  1  0  0  0  0
 19 46  1  0  0  0  0
 20 21  1  0  0  0  0
 20 47  1  0  0  0  0
 20 48  1  0  0  0  0
 21 22  1  0  0  0  0
 21 23  1  0  0  0  0
 21 49  1  0  0  0  0
 22 50  1  0  0  0  0
 22 51  1  0  0  0  0
 22 52  1  0  0  0  0
M  CHG  1   4   1
M  END
> <s_m_source_file>
AV-unprocessed.smi

> <i_m_source_file_index>
1762

> <i_lp_mmshare_version>
43012

> <i_f3d_flags>
0

> <s_epik_input>
W0NIM11bQ0BASF0xW0NIMl1OKFtDSDJdW0NASF0oTzEpW0NIM10pW0NAQEhdKFtDSF0oW0NIM10pW0NIM10pQyg9TylbTkhdW0NIMl1bQ0gyXWMyW2NIXVtjSF1bY0hdW2NIXW4y

> <s_epik_cmdline>
J2VwaWtfcHl0aG9uJywgJy1waCcsICc3LjAnLCAnLXRuJywgJzgnLCAnLW1hJywgJzIwMCcsICctbWV0YWxfYmluZGluZycsICctaW1hZScsICc8aW5maWxlLm1hZT4nLCAnLW9tYWUnLCAnPG91dGZpbGUubWFlPic=

> <r_epik_Ionization_Penalty>
2.27005

> <r_epik_Ionization_Penalty_Charging>
2.24983

> <r_epik_Ionization_Penalty_Neutral>
0.0202209

> <r_epik_State_Penalty>
2.40228

> <r_epik_Charging_Adjusted_Penalty>
4.65211

> <i_epik_Tot_Q>
1

> <i_epik_Tot_abs_Q>
1

> <r_epik_Metal_State_Penalty>
2.40762

> <b_epik_Metal_Only>
0

> <s_lp_Force_Field>
OPLS_2005

> <r_lp_Energy>
25.0813

> <b_lp_Chiralities_Consistent>
1

> <s_lp_Variant>
AV-unprocessed.smi:1762-20

> <Gold.Version>
5.8.1

> <Gold.Id.Protein>
6NUR|6NUR_protein|mol2

> <Gold.PLP.Fitness>
39.9267

> <Gold.PLP.PLP>
-33.2314

> <Gold.PLP.part.hbond>
-2.0000

> <Gold.PLP.part.metal>
0.0000

> <Gold.PLP.part.buried>
-3.4288

> <Gold.PLP.part.nonpolar>
-27.7922

> <Gold.PLP.part.repulsive>
0.1253

> <Gold.PLP.ligand.clash>
0.0000

> <Gold.PLP.ligand.torsion>
1.2716

> <Gold.PLP.Chemscore.Hbond>
3.0000

> <Gold.PLP.Chemscore.CHOScore>
0.0000

> <Gold.PLP.Chemscore.Metal>
0.0000

> <Gold.Chemscore.Hbonds>
donor molecule, donor type, donor heavy atom, donor atom, acceptor molecule, acceptor atom, score
      L1  H     4    53       P1  7948  1.95
      L1  H     8    31       P1  7948  1.00

> <Gold.PLP.Chemscore.Internal.Correction>
0.2385

> <Gold.Rescore>
     Score         DG    S(hbond)    S(metal)    S(lipo)     H(rot)  DE(clash)    DE(int)     intcor
     17.43     -18.74       1.97        0.00      93.57       1.66       0.07       1.24       ----

> <Gold.Chemscore.Fitness>
17.4259

> <Gold.Chemscore.DG>
-18.7424

> <Gold.Chemscore.ZeroCoef>
-5.4800

> <Gold.Chemscore.Hbond>
1.9682

> <Gold.Chemscore.Metal>
0.0000

> <Gold.Chemscore.Lipo>
93.5666

> <Gold.Chemscore.Internal_Hbond>
0.0000

> <Gold.Chemscore.DEClash>
0.0748

> <Gold.Chemscore.DEInternal>
1.2417

> <Gold.Chemscore.Rot>
1.6635

> <Gold.Chemscore.Internal.Correction>
   9.000000E+99

> <Gold.Chemscore.Hbonds>
donor molecule, donor type, donor heavy atom, donor atom, acceptor molecule, acceptor atom, score
      L1  H     4    53       P1  7948  0.93
      L1  H     8    31       P1  7948  0.99

> <Gold.Chemscore.Hbond.Weighted>
-6.5738

> <Gold.Chemscore.Metal.Weighted>
-0.0000

> <Gold.Chemscore.Lipo.Weighted>
-10.9473

> <Gold.Chemscore.Internal_Hbond.Weighted>
0.0000

> <Gold.Chemscore.DEClash.Weighted>
0.0748

> <Gold.Chemscore.DEInternal.Weighted>
1.2417

> <Gold.Chemscore.Rot.Weighted>
4.2586

> <Gold.Chemscore.Internal.Correction.Weighted>
   9.000000E+99

> <Gold.Protein.RotatedTorsions>
[ 6907 6896 6895 6894 ] final -108.08 input  -60.11 | X-H torsion
[ 7974 7965 7964 7962 ] final -112.51 input  175.53 | X-H torsion
[ 8008 7997 7996 7995 ] final  -63.70 input   59.86 | X-H torsion
[ 10167 10162 10161 10158 ] final  -21.04 input  -65.29 | X-H torsion
[ 10718 10713 10712 10709 ] final  -72.06 input   66.30 | X-H torsion
[ 10763 10752 10751 10750 ] final  174.29 input  -60.55 | X-H torsion
[ 11005 11000 10999 10996 ] final  170.35 input  -57.11 | X-H torsion

> <Gold.Protein.ActiveResidues>
 VAL166  LYS551  ARG553  GLY616  TRP617  ASP618  TYR619  PRO620  LYS621  CYS622 
 ASP623  PHE694  ASN695  SER759  ASP760  ASP761  ALA762  ILE779  LEU786  VAL792 
 PHE793  MET794  SER795  GLU796  ALA797  LYS798  CYS799  TRP800  GLU811  SER814 

> <Gold.Protein.RotatedAtoms>
  150.7481  133.9731  159.3551 H   0  0  0  0  0  0  0  0  0  0  0  0  # atno 6907 bound_to 6896
  151.7667  135.0795  160.0363 H   0  0  0  0  0  0  0  0  0  0  0  0  # atno 6908 bound_to 6896
  152.3367  133.5983  159.5883 H   0  0  0  0  0  0  0  0  0  0  0  0  # atno 6909 bound_to 6896
  145.1431  140.8789  143.3690 H   0  0  0  0  0  0  0  0  0  0  0  0  # atno 7974 bound_to 7965
  154.4569  140.0969  156.6783 H   0  0  0  0  0  0  0  0  0  0  0  0  # atno 8008 bound_to 7997
  155.5110  140.3476  155.4370 H   0  0  0  0  0  0  0  0  0  0  0  0  # atno 8009 bound_to 7997
  156.0795  140.1369  156.9718 H   0  0  0  0  0  0  0  0  0  0  0  0  # atno 8010 bound_to 7997
  140.7280  143.4665  151.0306 H   0  0  0  0  0  0  0  0  0  0  0  0  # atno 10167 bound_to 10162
  156.0336  130.4364  150.2536 H   0  0  0  0  0  0  0  0  0  0  0  0  # atno 10718 bound_to 10713
  154.4518  135.2765  155.1775 H   0  0  0  0  0  0  0  0  0  0  0  0  # atno 10763 bound_to 10752
  154.3599  135.6131  153.5689 H   0  0  0  0  0  0  0  0  0  0  0  0  # atno 10764 bound_to 10752
  152.9847  135.5832  154.4864 H   0  0  0  0  0  0  0  0  0  0  0  0  # atno 10765 bound_to 10752
  140.3074  134.7545  157.3964 H   0  0  0  0  0  0  0  0  0  0  0  0  # atno 11005 bound_to 11000
  145.0511  139.3181  143.5928 LP  0  0  0  0  0  0  0  0  0  0  0  0  # atno 17320 bound_to 7965
  146.3503  139.9919  142.8685 LP  0  0  0  0  0  0  0  0  0  0  0  0  # atno 17321 bound_to 7965
  139.8353  143.7635  152.3180 LP  0  0  0  0  0  0  0  0  0  0  0  0  # atno 17342 bound_to 10162
  139.7765  144.7459  151.0149 LP  0  0  0  0  0  0  0  0  0  0  0  0  # atno 17343 bound_to 10162
  157.0637  131.0097  151.3214 LP  0  0  0  0  0  0  0  0  0  0  0  0  # atno 17370 bound_to 10713
  157.5051  130.7904  149.7645 LP  0  0  0  0  0  0  0  0  0  0  0  0  # atno 17371 bound_to 10713
  140.1055  134.5416  155.8313 LP  0  0  0  0  0  0  0  0  0  0  0  0  # atno 17394 bound_to 11000
  141.2115  133.6708  156.6590 LP  0  0  0  0  0  0  0  0  0  0  0  0  # atno 17395 bound_to 11000

$$$$
