AV-unprocessed.smi:132|AV-procd|sdf|1163|dock10
  -GOLD-   2262018303D 1   1.00000     0.00000
 Structure written by MMmdl.
 41 44  0  0  0  0  0  0  0  0  1 V2000
  158.7504  137.5350  162.9434 O   0  0  0  0  0  0  0  0  0  0  0  0
  157.8399  136.7090  163.0258 C   0  0  0  0  0  0  0  0  0  0  0  0
  158.0508  135.2697  162.9131 C   0  0  0  0  0  0  0  0  0  0  0  0
  159.2878  134.7945  162.6902 F   0  0  0  0  0  0  0  0  0  0  0  0
  157.0216  134.4034  163.0301 C   0  0  0  0  0  0  0  0  0  0  0  0
  155.7178  134.8052  163.2621 N   0  0  0  0  0  0  0  0  0  0  0  0
  154.6164  133.7810  163.3964 C   0  0  2  0  0  0  0  0  0  0  0  0
  153.9929  133.8411  164.7975 C   0  0  0  0  0  0  0  0  0  0  0  0
  154.5763  132.6133  165.4670 C   0  0  0  0  0  0  0  0  0  0  0  0
  154.7500  131.6667  164.2862 C   0  0  0  0  0  0  0  0  0  0  0  0
  155.1705  132.5098  163.2215 O   0  0  0  0  0  0  0  0  0  0  0  0
  155.4200  136.1790  163.3975 C   0  0  0  0  0  0  0  0  0  0  0  0
  154.2747  136.5623  163.6470 O   0  0  0  0  0  0  0  0  0  0  0  0
  156.4940  137.0895  163.2544 N   0  0  0  0  0  0  0  0  0  0  0  0
  156.2005  138.5074  163.3954 C   0  0  0  0  0  0  0  0  0  0  0  0
  155.4099  139.0404  162.2364 C   0  0  0  0  0  0  0  0  0  0  0  0
  155.1169  138.4413  161.0783 N   0  0  0  0  0  0  0  0  0  0  0  0
  154.3676  139.3479  160.3650 N   0  0  0  0  0  0  0  0  0  0  0  0
  154.2549  140.4313  161.1411 C   0  0  0  0  0  0  0  0  0  0  0  0
  153.5496  141.6813  160.8600 C   0  0  0  0  0  0  0  0  0  0  0  0
  153.3000  142.0901  159.5294 C   0  0  0  0  0  0  0  0  0  0  0  0
  152.6230  143.2977  159.2697 C   0  0  0  0  0  0  0  0  0  0  0  0
  152.1889  144.1071  160.3366 C   0  0  0  0  0  0  0  0  0  0  0  0
  151.3614  145.5869  160.0171 Cl  0  0  0  0  0  0  0  0  0  0  0  0
  152.4322  143.7069  161.6643 C   0  0  0  0  0  0  0  0  0  0  0  0
  153.1092  142.4996  161.9247 C   0  0  0  0  0  0  0  0  0  0  0  0
  154.8948  140.2926  162.3339 O   0  0  0  0  0  0  0  0  0  0  0  0
  157.2354  133.3488  162.9402 H   0  0  0  0  0  0  0  0  0  0  0  0
  153.8981  133.9654  162.5969 H   0  0  0  0  0  0  0  0  0  0  0  0
  154.2204  134.7750  165.3135 H   0  0  0  0  0  0  0  0  0  0  0  0
  152.9108  133.7465  164.6998 H   0  0  0  0  0  0  0  0  0  0  0  0
  155.5449  132.8475  165.9098 H   0  0  0  0  0  0  0  0  0  0  0  0
  153.9342  132.2063  166.2484 H   0  0  0  0  0  0  0  0  0  0  0  0
  155.4739  130.8752  164.4807 H   0  0  0  0  0  0  0  0  0  0  0  0
  153.7975  131.2045  164.0223 H   0  0  0  0  0  0  0  0  0  0  0  0
  155.6635  138.6665  164.3311 H   0  0  0  0  0  0  0  0  0  0  0  0
  157.1460  139.0423  163.4979 H   0  0  0  0  0  0  0  0  0  0  0  0
  153.6246  141.4856  158.6954 H   0  0  0  0  0  0  0  0  0  0  0  0
  152.4382  143.6016  158.2499 H   0  0  0  0  0  0  0  0  0  0  0  0
  152.1009  144.3253  162.4855 H   0  0  0  0  0  0  0  0  0  0  0  0
  153.2881  142.2079  162.9493 H   0  0  0  0  0  0  0  0  0  0  0  0
  1  2  2  0  0  0  0
  2 14  1  0  0  0  0
  2  3  1  0  0  0  0
  3  4  1  0  0  0  0
  3  5  2  0  0  0  0
  5  6  1  0  0  0  0
  5 28  1  0  0  0  0
  6  7  1  0  0  0  0
  6 12  1  0  0  0  0
  7 11  1  0  0  0  0
  7  8  1  0  0  0  0
  7 29  1  0  0  0  0
  8  9  1  0  0  0  0
  8 30  1  0  0  0  0
  8 31  1  0  0  0  0
  9 10  1  0  0  0  0
  9 32  1  0  0  0  0
  9 33  1  0  0  0  0
 10 11  1  0  0  0  0
 10 34  1  0  0  0  0
 10 35  1  0  0  0  0
 12 13  2  0  0  0  0
 12 14  1  0  0  0  0
 14 15  1  0  0  0  0
 15 16  1  0  0  0  0
 15 36  1  0  0  0  0
 15 37  1  0  0  0  0
 16 27  1  0  0  0  0
 16 17  2  0  0  0  0
 17 18  1  0  0  0  0
 18 19  2  0  0  0  0
 19 20  1  0  0  0  0
 19 27  1  0  0  0  0
 20 26  1  0  0  0  0
 20 21  2  0  0  0  0
 21 22  1  0  0  0  0
 21 38  1  0  0  0  0
 22 23  2  0  0  0  0
 22 39  1  0  0  0  0
 23 24  1  0  0  0  0
 23 25  1  0  0  0  0
 25 26  2  0  0  0  0
 25 40  1  0  0  0  0
 26 41  1  0  0  0  0
M  END
> <s_m_source_file>
AV-unprocessed.smi

> <i_m_source_file_index>
132

> <i_lp_mmshare_version>
43012

> <i_f3d_flags>
0

> <s_epik_input>
TzFbQ0gyXVtDSDJdW0NIMl1bQ0BIXTFuKFtjSF1jKEYpYzI9TyljKD1PKW4yW0NIMl1jM25uYyhvMyktYzRbY0hdW2NIXWMoQ2wpW2NIXVtjSF00

> <s_epik_cmdline>
J2VwaWtfcHl0aG9uJywgJy1waCcsICc3LjAnLCAnLXRuJywgJzgnLCAnLW1hJywgJzIwMCcsICctbWV0YWxfYmluZGluZycsICctaW1hZScsICc8aW5maWxlLm1hZT4nLCAnLW9tYWUnLCAnPG91dGZpbGUubWFlPic=

> <r_lp_tautomer_probability>
1

> <r_epik_Ionization_Penalty>
2.5553e-09

> <r_epik_Ionization_Penalty_Charging>
2.54231e-09

> <r_epik_Ionization_Penalty_Neutral>
1.29923e-11

> <r_epik_State_Penalty>
-0

> <r_epik_Charging_Adjusted_Penalty>
2.54231e-09

> <i_epik_Tot_Q>
0

> <i_epik_Tot_abs_Q>
0

> <r_epik_Metal_State_Penalty>
-0

> <b_epik_Metal_Only>
0

> <s_epik_Chemistry_Notes>
This compound contains an acetal/aminal-like group ( X-CH(R)-Y where X, Y are N, S, or O) that may be acid/base labile, releasing an aldehyde.

> <s_lp_Force_Field>
OPLS_2005

> <r_lp_Energy>
32.6339

> <b_lp_Chiralities_Consistent>
1

> <s_lp_Variant>
AV-unprocessed.smi:132-1

> <Gold.Version>
5.8.1

> <Gold.Id.Protein>
6NUR|6NUR_protein|mol2

> <Gold.PLP.Fitness>
44.9890

> <Gold.PLP.PLP>
-45.8353

> <Gold.PLP.part.hbond>
0.0000

> <Gold.PLP.part.metal>
0.0000

> <Gold.PLP.part.buried>
-6.1629

> <Gold.PLP.part.nonpolar>
-38.9133

> <Gold.PLP.part.repulsive>
0.0465

> <Gold.PLP.ligand.clash>
0.0000

> <Gold.PLP.ligand.torsion>
0.4281

> <Gold.PLP.Chemscore.Hbond>
0.0000

> <Gold.PLP.Chemscore.CHOScore>
0.0000

> <Gold.PLP.Chemscore.Metal>
0.0000

> <Gold.PLP.Chemscore.Internal.Correction>
0.0098

> <Gold.Rescore>
     Score         DG    S(hbond)    S(metal)    S(lipo)     H(rot)  DE(clash)    DE(int)     intcor
     12.76     -14.32       0.00        0.00     112.71       1.70       0.00       1.56       ----

> <Gold.Chemscore.Fitness>
12.7611

> <Gold.Chemscore.DG>
-14.3200

> <Gold.Chemscore.ZeroCoef>
-5.4800

> <Gold.Chemscore.Hbond>
0.0000

> <Gold.Chemscore.Metal>
0.0000

> <Gold.Chemscore.Lipo>
112.7084

> <Gold.Chemscore.Internal_Hbond>
0.0000

> <Gold.Chemscore.DEClash>
0.0009

> <Gold.Chemscore.DEInternal>
1.5580

> <Gold.Chemscore.Rot>
1.6980

> <Gold.Chemscore.Internal.Correction>
   9.000000E+99

> <Gold.Chemscore.Hbond.Weighted>
-0.0000

> <Gold.Chemscore.Metal.Weighted>
-0.0000

> <Gold.Chemscore.Lipo.Weighted>
-13.1869

> <Gold.Chemscore.Internal_Hbond.Weighted>
0.0000

> <Gold.Chemscore.DEClash.Weighted>
0.0009

> <Gold.Chemscore.DEInternal.Weighted>
1.5580

> <Gold.Chemscore.Rot.Weighted>
4.3469

> <Gold.Chemscore.Internal.Correction.Weighted>
   9.000000E+99

> <Gold.Protein.RotatedTorsions>
[ 6907 6896 6895 6894 ] final  -86.44 input  -60.11 | X-H torsion
[ 7974 7965 7964 7962 ] final  -69.36 input  175.53 | X-H torsion
[ 8008 7997 7996 7995 ] final   90.32 input   59.86 | X-H torsion
[ 10167 10162 10161 10158 ] final  179.10 input  -65.29 | X-H torsion
[ 10718 10713 10712 10709 ] final   -1.59 input   66.30 | X-H torsion
[ 10763 10752 10751 10750 ] final -101.77 input  -60.55 | X-H torsion
[ 11005 11000 10999 10996 ] final   -3.37 input  -57.11 | X-H torsion

> <Gold.Protein.ActiveResidues>
 VAL166  LYS551  ARG553  GLY616  TRP617  ASP618  TYR619  PRO620  LYS621  CYS622 
 ASP623  PHE694  ASN695  SER759  ASP760  ASP761  ALA762  ILE779  LEU786  VAL792 
 PHE793  MET794  SER795  GLU796  ALA797  LYS798  CYS799  TRP800  GLU811  SER814 

> <Gold.Protein.RotatedAtoms>
  150.6867  134.3050  159.4721 H   0  0  0  0  0  0  0  0  0  0  0  0  # atno 6907 bound_to 6896
  152.0942  134.9384  160.0580 H   0  0  0  0  0  0  0  0  0  0  0  0  # atno 6908 bound_to 6896
  152.0688  133.4062  159.4487 H   0  0  0  0  0  0  0  0  0  0  0  0  # atno 6909 bound_to 6896
  145.7048  140.9102  143.0712 H   0  0  0  0  0  0  0  0  0  0  0  0  # atno 7974 bound_to 7965
  156.0106  140.3350  155.6937 H   0  0  0  0  0  0  0  0  0  0  0  0  # atno 8008 bound_to 7997
  155.6163  140.0670  157.2709 H   0  0  0  0  0  0  0  0  0  0  0  0  # atno 8009 bound_to 7997
  154.4280  140.1784  156.1312 H   0  0  0  0  0  0  0  0  0  0  0  0  # atno 8010 bound_to 7997
  139.5322  144.2601  152.0714 H   0  0  0  0  0  0  0  0  0  0  0  0  # atno 10167 bound_to 10162
  156.8034  130.5400  149.5718 H   0  0  0  0  0  0  0  0  0  0  0  0  # atno 10718 bound_to 10713
  154.7683  135.4885  153.9598 H   0  0  0  0  0  0  0  0  0  0  0  0  # atno 10763 bound_to 10752
  153.1335  135.6758  153.9147 H   0  0  0  0  0  0  0  0  0  0  0  0  # atno 10764 bound_to 10752
  153.8844  135.3128  155.3424 H   0  0  0  0  0  0  0  0  0  0  0  0  # atno 10765 bound_to 10752
  140.6686  133.9256  155.8480 H   0  0  0  0  0  0  0  0  0  0  0  0  # atno 11005 bound_to 11000
  144.6958  139.8996  143.7458 LP  0  0  0  0  0  0  0  0  0  0  0  0  # atno 17320 bound_to 7965
  146.0765  139.3753  143.0490 LP  0  0  0  0  0  0  0  0  0  0  0  0  # atno 17321 bound_to 7965
  140.2066  144.4605  150.6406 LP  0  0  0  0  0  0  0  0  0  0  0  0  # atno 17342 bound_to 10162
  140.6507  143.2224  151.6083 LP  0  0  0  0  0  0  0  0  0  0  0  0  # atno 17343 bound_to 10162
  156.1087  130.6024  151.0013 LP  0  0  0  0  0  0  0  0  0  0  0  0  # atno 17370 bound_to 10713
  157.6542  131.0892  150.7984 LP  0  0  0  0  0  0  0  0  0  0  0  0  # atno 17371 bound_to 10713
  141.0409  134.0622  157.3902 LP  0  0  0  0  0  0  0  0  0  0  0  0  # atno 17394 bound_to 11000
  139.8989  135.0156  156.7170 LP  0  0  0  0  0  0  0  0  0  0  0  0  # atno 17395 bound_to 11000

$$$$
