AV-unprocessed.smi:2107|AV-procd|sdf|8602|dock3
  -GOLD-   2272011343D 1   1.00000     0.00000
 Structure written by MMmdl.
 45 46  0  0  0  0  0  0  0  0  2 V2000
  147.0078  134.4564  162.0496 C   0  0  0  0  0  0  0  0  0  0  0  0
  148.3405  133.9470  161.4813 C   0  0  0  0  0  0  0  0  0  0  0  0
  148.5963  134.4344  160.1112 N   0  0  0  0  0  0  0  0  0  0  0  0
  148.6418  133.4270  159.0314 C   0  0  0  0  0  0  0  0  0  0  0  0
  147.5361  133.6192  157.9827 C   0  0  0  0  0  0  0  0  0  0  0  0
  148.6041  136.1451  159.7552 S   0  0  0  0  0  0  0  0  0  0  0  0
  147.6780  136.3097  158.6241 O   0  0  0  0  0  0  0  0  0  0  0  0
  148.2668  136.8348  161.0130 O   0  0  0  0  0  0  0  0  0  0  0  0
  150.1576  136.2930  159.2848 N   0  5  0  0  0  0  0  0  0  0  0  0
  150.8895  137.5453  159.4123 C   0  0  0  0  0  0  0  0  0  0  0  0
  151.4605  138.0019  158.0626 C   0  0  0  0  0  0  0  0  0  0  0  0
  151.5324  137.0481  157.0177 C   0  0  0  0  0  0  0  0  0  0  0  0
  152.0480  137.4213  155.7640 C   0  0  0  0  0  0  0  0  0  0  0  0
  152.4816  138.7451  155.5917 C   0  0  0  0  0  0  0  0  0  0  0  0
  152.4258  139.6710  156.5684 N   0  0  0  0  0  0  0  0  0  0  0  0
  151.9329  139.3261  157.7859 C   0  0  0  0  0  0  0  0  0  0  0  0
  151.9161  140.3650  158.7425 N   0  0  0  0  0  0  0  0  0  0  0  0
  153.2039  140.5952  159.3883 C   0  0  0  0  0  0  0  0  0  0  0  0
  153.0704  141.6723  160.4791 C   0  0  0  0  0  0  0  0  0  0  0  0
  152.5168  142.8588  159.9178 O   0  0  0  0  0  0  0  0  0  0  0  0
  151.2188  142.6360  159.3743 C   0  0  0  0  0  0  0  0  0  0  0  0
  151.3034  141.5920  158.2481 C   0  0  0  0  0  0  0  0  0  0  0  0
  146.8101  134.0102  163.0240 H   0  0  0  0  0  0  0  0  0  0  0  0
  146.1714  134.2111  161.3974 H   0  0  0  0  0  0  0  0  0  0  0  0
  147.0193  135.5379  162.1844 H   0  0  0  0  0  0  0  0  0  0  0  0
  149.1589  134.2648  162.1273 H   0  0  0  0  0  0  0  0  0  0  0  0
  148.3592  132.8569  161.4934 H   0  0  0  0  0  0  0  0  0  0  0  0
  149.6128  133.4623  158.5385 H   0  0  0  0  0  0  0  0  0  0  0  0
  148.5613  132.4343  159.4745 H   0  0  0  0  0  0  0  0  0  0  0  0
  147.6600  132.9131  157.1618 H   0  0  0  0  0  0  0  0  0  0  0  0
  147.5637  134.6211  157.5596 H   0  0  0  0  0  0  0  0  0  0  0  0
  146.5429  133.4591  158.4015 H   0  0  0  0  0  0  0  0  0  0  0  0
  150.2529  138.3460  159.7900 H   0  0  0  0  0  0  0  0  0  0  0  0
  151.7046  137.4710  160.1317 H   0  0  0  0  0  0  0  0  0  0  0  0
  151.1999  136.0276  157.1552 H   0  0  0  0  0  0  0  0  0  0  0  0
  152.1104  136.7075  154.9561 H   0  0  0  0  0  0  0  0  0  0  0  0
  152.8837  139.0708  154.6440 H   0  0  0  0  0  0  0  0  0  0  0  0
  153.5668  139.6632  159.8235 H   0  0  0  0  0  0  0  0  0  0  0  0
  153.9390  140.9152  158.6490 H   0  0  0  0  0  0  0  0  0  0  0  0
  152.4469  141.3247  161.3027 H   0  0  0  0  0  0  0  0  0  0  0  0
  154.0493  141.9015  160.8997 H   0  0  0  0  0  0  0  0  0  0  0  0
  150.5336  142.3111  160.1583 H   0  0  0  0  0  0  0  0  0  0  0  0
  150.8310  143.5771  158.9847 H   0  0  0  0  0  0  0  0  0  0  0  0
  151.8906  141.9909  157.4198 H   0  0  0  0  0  0  0  0  0  0  0  0
  150.3063  141.3750  157.8634 H   0  0  0  0  0  0  0  0  0  0  0  0
  1  2  1  0  0  0  0
  1 23  1  0  0  0  0
  1 24  1  0  0  0  0
  1 25  1  0  0  0  0
  2  3  1  0  0  0  0
  2 26  1  0  0  0  0
  2 27  1  0  0  0  0
  3  4  1  0  0  0  0
  3  6  1  0  0  0  0
  4  5  1  0  0  0  0
  4 28  1  0  0  0  0
  4 29  1  0  0  0  0
  5 30  1  0  0  0  0
  5 31  1  0  0  0  0
  5 32  1  0  0  0  0
  6  7  2  0  0  0  0
  6  8  2  0  0  0  0
  6  9  1  0  0  0  0
  9 10  1  0  0  0  0
 10 11  1  0  0  0  0
 10 33  1  0  0  0  0
 10 34  1  0  0  0  0
 11 16  1  0  0  0  0
 11 12  2  0  0  0  0
 12 13  1  0  0  0  0
 12 35  1  0  0  0  0
 13 14  2  0  0  0  0
 13 36  1  0  0  0  0
 14 15  1  0  0  0  0
 14 37  1  0  0  0  0
 15 16  2  0  0  0  0
 16 17  1  0  0  0  0
 17 22  1  0  0  0  0
 17 18  1  0  0  0  0
 18 19  1  0  0  0  0
 18 38  1  0  0  0  0
 18 39  1  0  0  0  0
 19 20  1  0  0  0  0
 19 40  1  0  0  0  0
 19 41  1  0  0  0  0
 20 21  1  0  0  0  0
 21 22  1  0  0  0  0
 21 42  1  0  0  0  0
 21 43  1  0  0  0  0
 22 44  1  0  0  0  0
 22 45  1  0  0  0  0
M  CHG  1   9  -1
M  END
> <s_m_source_file>
AV-unprocessed.smi

> <i_m_source_file_index>
2107

> <i_lp_mmshare_version>
43012

> <i_f3d_flags>
0

> <s_epik_input>
W0NIM11bQ0gyXU4oW0NIMl1bQ0gzXSlTKD1PKSg9TylbTkhdW0NIMl1jMVtjSF1bY0hdW2NIXW5jMU4yW0NIMl1bQ0gyXU9bQ0gyXVtDSDJdMg==

> <s_epik_cmdline>
J2VwaWtfcHl0aG9uJywgJy1waCcsICc3LjAnLCAnLXRuJywgJzgnLCAnLW1hJywgJzIwMCcsICctbWV0YWxfYmluZGluZycsICctaW1hZScsICc8aW5maWxlLm1hZT4nLCAnLW9tYWUnLCAnPG91dGZpbGUubWFlPic=

> <r_lp_tautomer_probability>
1

> <r_epik_Ionization_Penalty>
2.49252

> <r_epik_Ionization_Penalty_Charging>
2.41478

> <r_epik_Ionization_Penalty_Neutral>
0.0777344

> <r_epik_State_Penalty>
2.68884

> <r_epik_Charging_Adjusted_Penalty>
5.10362

> <i_epik_Tot_Q>
-1

> <i_epik_Tot_abs_Q>
1

> <r_epik_Metal_State_Penalty>
0.584574

> <b_epik_Metal_Only>
0

> <s_lp_Force_Field>
OPLS_2005

> <r_lp_Energy>
22.2252

> <b_lp_Chiralities_Consistent>
1

> <s_lp_Variant>
AV-unprocessed.smi:2107-3

> <Gold.Version>
5.8.1

> <Gold.Id.Protein>
6NUR|6NUR_protein|mol2

> <Gold.PLP.Fitness>
44.7587

> <Gold.PLP.PLP>
-32.0881

> <Gold.PLP.part.hbond>
-4.0000

> <Gold.PLP.part.metal>
0.0000

> <Gold.PLP.part.buried>
-5.1727

> <Gold.PLP.part.nonpolar>
-23.1813

> <Gold.PLP.part.repulsive>
0.0000

> <Gold.PLP.ligand.clash>
0.0000

> <Gold.PLP.ligand.torsion>
2.3048

> <Gold.PLP.Chemscore.Hbond>
4.6160

> <Gold.PLP.Chemscore.CHOScore>
0.0000

> <Gold.PLP.Chemscore.Metal>
0.0000

> <Gold.Chemscore.Hbonds>
donor molecule, donor type, donor heavy atom, donor atom, acceptor molecule, acceptor atom, score
      P1  H  6896  6908       L1     9  2.00
      P1  H  6931  6943       L1     8  1.00
      P1  H  7997  8009       L1    15  0.85

> <Gold.PLP.Chemscore.Internal.Correction>
3.4323

> <Gold.Rescore>
     Score         DG    S(hbond)    S(metal)    S(lipo)     H(rot)  DE(clash)    DE(int)     intcor
     15.73     -20.37       3.02        0.00      77.42       1.66       1.10       3.54       ----

> <Gold.Chemscore.Fitness>
15.7296

> <Gold.Chemscore.DG>
-20.3722

> <Gold.Chemscore.ZeroCoef>
-5.4800

> <Gold.Chemscore.Hbond>
3.0222

> <Gold.Chemscore.Metal>
0.0000

> <Gold.Chemscore.Lipo>
77.4226

> <Gold.Chemscore.Internal_Hbond>
0.0000

> <Gold.Chemscore.DEClash>
1.1016

> <Gold.Chemscore.DEInternal>
3.5410

> <Gold.Chemscore.Rot>
1.6642

> <Gold.Chemscore.Internal.Correction>
   9.000000E+99

> <Gold.Chemscore.Hbonds>
donor molecule, donor type, donor heavy atom, donor atom, acceptor molecule, acceptor atom, score
      P1  H  6896  6908       L1     9  0.48
      P1  H  6931  6943       L1     8  0.99
      P1  H  6934  6947       L1     8  0.04
      P1  H  7997  8009       L1    15  0.12

> <Gold.Chemscore.Hbond.Weighted>
-10.0941

> <Gold.Chemscore.Metal.Weighted>
-0.0000

> <Gold.Chemscore.Lipo.Weighted>
-9.0585

> <Gold.Chemscore.Internal_Hbond.Weighted>
0.0000

> <Gold.Chemscore.DEClash.Weighted>
1.1016

> <Gold.Chemscore.DEInternal.Weighted>
3.5410

> <Gold.Chemscore.Rot.Weighted>
4.2604

> <Gold.Chemscore.Internal.Correction.Weighted>
   9.000000E+99

> <Gold.Protein.RotatedTorsions>
[ 6907 6896 6895 6894 ] final -167.29 input  -60.11 | X-H torsion
[ 7974 7965 7964 7962 ] final   39.30 input  175.53 | X-H torsion
[ 8008 7997 7996 7995 ] final -178.12 input   59.86 | X-H torsion
[ 10167 10162 10161 10158 ] final  -59.84 input  -65.29 | X-H torsion
[ 10718 10713 10712 10709 ] final  169.27 input   66.30 | X-H torsion
[ 10763 10752 10751 10750 ] final  -99.38 input  -60.55 | X-H torsion
[ 11005 11000 10999 10996 ] final   67.99 input  -57.11 | X-H torsion

> <Gold.Protein.ActiveResidues>
 VAL166  LYS551  ARG553  GLY616  TRP617  ASP618  TYR619  PRO620  LYS621  CYS622 
 ASP623  PHE694  ASN695  SER759  ASP760  ASP761  ALA762  ILE779  LEU786  VAL792 
 PHE793  MET794  SER795  GLU796  ALA797  LYS798  CYS799  TRP800  GLU811  SER814 

> <Gold.Protein.RotatedAtoms>
  151.4572  133.3602  159.2803 H   0  0  0  0  0  0  0  0  0  0  0  0  # atno 6907 bound_to 6896
  150.9050  134.8466  159.7397 H   0  0  0  0  0  0  0  0  0  0  0  0  # atno 6908 bound_to 6896
  152.4901  134.4496  159.9622 H   0  0  0  0  0  0  0  0  0  0  0  0  # atno 6909 bound_to 6896
  146.0995  139.5668  142.9424 H   0  0  0  0  0  0  0  0  0  0  0  0  # atno 7974 bound_to 7965
  156.0150  140.1249  157.0415 H   0  0  0  0  0  0  0  0  0  0  0  0  # atno 8008 bound_to 7997
  154.4290  140.1080  156.5953 H   0  0  0  0  0  0  0  0  0  0  0  0  # atno 8009 bound_to 7997
  155.6026  140.3470  155.4600 H   0  0  0  0  0  0  0  0  0  0  0  0  # atno 8010 bound_to 7997
  140.6109  143.2387  151.5711 H   0  0  0  0  0  0  0  0  0  0  0  0  # atno 10167 bound_to 10162
  157.0250  131.0243  151.2762 H   0  0  0  0  0  0  0  0  0  0  0  0  # atno 10718 bound_to 10713
  154.7493  135.4974  153.9260 H   0  0  0  0  0  0  0  0  0  0  0  0  # atno 10763 bound_to 10752
  153.1126  135.6713  153.9482 H   0  0  0  0  0  0  0  0  0  0  0  0  # atno 10764 bound_to 10752
  153.9237  135.3085  155.3426 H   0  0  0  0  0  0  0  0  0  0  0  0  # atno 10765 bound_to 10752
  139.9738  134.6857  156.0395 H   0  0  0  0  0  0  0  0  0  0  0  0  # atno 11005 bound_to 11000
  145.5883  141.0373  143.2084 LP  0  0  0  0  0  0  0  0  0  0  0  0  # atno 17320 bound_to 7965
  144.7421  139.7420  143.7306 LP  0  0  0  0  0  0  0  0  0  0  0  0  # atno 17321 bound_to 7965
  139.5361  144.2778  152.1253 LP  0  0  0  0  0  0  0  0  0  0  0  0  # atno 17342 bound_to 10162
  140.1977  144.4689  150.6447 LP  0  0  0  0  0  0  0  0  0  0  0  0  # atno 17343 bound_to 10162
  157.5221  130.8004  149.7820 LP  0  0  0  0  0  0  0  0  0  0  0  0  # atno 17370 bound_to 10713
  156.0089  130.3842  150.2333 LP  0  0  0  0  0  0  0  0  0  0  0  0  # atno 17371 bound_to 10713
  141.1416  133.6563  156.3746 LP  0  0  0  0  0  0  0  0  0  0  0  0  # atno 17394 bound_to 11000
  140.5238  134.6278  157.5327 LP  0  0  0  0  0  0  0  0  0  0  0  0  # atno 17395 bound_to 11000

$$$$
