AV-unprocessed.smi:3318|AV-procd|sdf|12762|dock10
  -GOLD-   2272019103D 1   1.00000     0.00000
 Structure written by MMmdl.
 45 46  0  0  0  0  0  0  0  0  3 V2000
  148.4582  132.9552  152.7980 C   0  0  0  0  0  0  0  0  0  0  0  0
  149.2978  133.3704  154.0111 C   0  0  0  0  0  0  0  0  0  0  0  0
  148.5953  134.4356  154.8713 C   0  0  0  0  0  0  0  0  0  0  0  0
  149.1786  135.7899  154.6910 N   0  3  2  0  0  0  0  0  0  0  0  0
  150.6213  135.8314  155.0450 C   0  0  0  0  0  0  0  0  0  0  0  0
  151.2362  137.2049  154.7236 C   0  0  0  0  0  0  0  0  0  0  0  0
  150.4855  138.3394  155.4407 C   0  0  1  0  0  0  0  0  0  0  0  0
  151.0730  139.6482  155.0722 N   0  3  0  0  0  0  0  0  0  0  0  0
  150.7167  140.7774  155.9592 C   0  0  0  0  0  0  0  0  0  0  0  0
  151.4985  140.7263  157.2815 C   0  0  0  0  0  0  0  0  0  0  0  0
  151.5528  142.0675  157.9912 C   0  0  0  0  0  0  0  0  0  0  0  0
  152.3001  142.2279  159.1778 C   0  0  0  0  0  0  0  0  0  0  0  0
  152.3159  143.4945  159.7938 C   0  0  0  0  0  0  0  0  0  0  0  0
  151.5847  144.5441  159.2051 C   0  0  0  0  0  0  0  0  0  0  0  0
  150.8685  144.2809  158.0206 C   0  0  0  0  0  0  0  0  0  0  0  0
  150.8462  143.0698  157.4228 N   0  0  0  0  0  0  0  0  0  0  0  0
  148.9891  138.2518  155.0822 C   0  0  0  0  0  0  0  0  0  0  0  0
  148.4179  136.8570  155.3944 C   0  0  0  0  0  0  0  0  0  0  0  0
  148.9782  132.2024  152.2052 H   0  0  0  0  0  0  0  0  0  0  0  0
  148.2546  133.8072  152.1489 H   0  0  0  0  0  0  0  0  0  0  0  0
  147.5018  132.5317  153.1059 H   0  0  0  0  0  0  0  0  0  0  0  0
  149.5073  132.4887  154.6179 H   0  0  0  0  0  0  0  0  0  0  0  0
  150.2605  133.7368  153.6558 H   0  0  0  0  0  0  0  0  0  0  0  0
  147.5244  134.4590  154.6635 H   0  0  0  0  0  0  0  0  0  0  0  0
  148.6990  134.1414  155.9168 H   0  0  0  0  0  0  0  0  0  0  0  0
  150.7450  135.6009  156.1044 H   0  0  0  0  0  0  0  0  0  0  0  0
  151.1597  135.0626  154.4890 H   0  0  0  0  0  0  0  0  0  0  0  0
  152.2878  137.2109  155.0135 H   0  0  0  0  0  0  0  0  0  0  0  0
  151.2130  137.3671  153.6446 H   0  0  0  0  0  0  0  0  0  0  0  0
  150.6064  138.2029  156.5167 H   0  0  0  0  0  0  0  0  0  0  0  0
  152.0783  139.5508  155.1070 H   0  0  0  0  0  0  0  0  0  0  0  0
  150.9322  141.7191  155.4550 H   0  0  0  0  0  0  0  0  0  0  0  0
  149.6448  140.7608  156.1616 H   0  0  0  0  0  0  0  0  0  0  0  0
  151.0605  139.9794  157.9453 H   0  0  0  0  0  0  0  0  0  0  0  0
  152.5198  140.3951  157.0884 H   0  0  0  0  0  0  0  0  0  0  0  0
  152.8533  141.4048  159.6061 H   0  0  0  0  0  0  0  0  0  0  0  0
  152.8790  143.6581  160.7008 H   0  0  0  0  0  0  0  0  0  0  0  0
  151.5756  145.5287  159.6490 H   0  0  0  0  0  0  0  0  0  0  0  0
  150.2985  145.0628  157.5409 H   0  0  0  0  0  0  0  0  0  0  0  0
  148.4168  138.9964  155.6357 H   0  0  0  0  0  0  0  0  0  0  0  0
  148.8462  138.4746  154.0238 H   0  0  0  0  0  0  0  0  0  0  0  0
  147.3699  136.8353  155.0978 H   0  0  0  0  0  0  0  0  0  0  0  0
  148.4436  136.6745  156.4699 H   0  0  0  0  0  0  0  0  0  0  0  0
  149.1252  135.9888  153.7021 H   0  0  0  0  0  0  0  0  0  0  0  0
  150.8085  139.8767  154.1246 H   0  0  0  0  0  0  0  0  0  0  0  0
  1  2  1  0  0  0  0
  1 19  1  0  0  0  0
  1 20  1  0  0  0  0
  1 21  1  0  0  0  0
  2  3  1  0  0  0  0
  2 22  1  0  0  0  0
  2 23  1  0  0  0  0
  3  4  1  0  0  0  0
  3 24  1  0  0  0  0
  3 25  1  0  0  0  0
  4 18  1  0  0  0  0
  4  5  1  0  0  0  0
  4 44  1  0  0  0  0
  5  6  1  0  0  0  0
  5 26  1  0  0  0  0
  5 27  1  0  0  0  0
  6  7  1  0  0  0  0
  6 28  1  0  0  0  0
  6 29  1  0  0  0  0
  7  8  1  0  0  0  0
  7 17  1  0  0  0  0
  7 30  1  0  0  0  0
  8  9  1  0  0  0  0
  8 31  1  0  0  0  0
  8 45  1  0  0  0  0
  9 10  1  0  0  0  0
  9 32  1  0  0  0  0
  9 33  1  0  0  0  0
 10 11  1  0  0  0  0
 10 34  1  0  0  0  0
 10 35  1  0  0  0  0
 11 16  1  0  0  0  0
 11 12  2  0  0  0  0
 12 13  1  0  0  0  0
 12 36  1  0  0  0  0
 13 14  2  0  0  0  0
 13 37  1  0  0  0  0
 14 15  1  0  0  0  0
 14 38  1  0  0  0  0
 15 16  2  0  0  0  0
 15 39  1  0  0  0  0
 17 18  1  0  0  0  0
 17 40  1  0  0  0  0
 17 41  1  0  0  0  0
 18 42  1  0  0  0  0
 18 43  1  0  0  0  0
M  CHG  1   4   1
M  CHG  1   8   1
M  END
> <s_m_source_file>
AV-unprocessed.smi

> <i_m_source_file_index>
3318

> <i_lp_mmshare_version>
43012

> <i_f3d_flags>
0

> <s_epik_input>
W0NIM11bQ0gyXVtDSDJdTjFbQ0gyXVtDSDJdW0NIXShbQ0gyXVtDSDJdMSlbTkhdW0NIMl1bQ0gyXWMyW2NIXVtjSF1bY0hdW2NIXW4y

> <s_epik_cmdline>
J2VwaWtfcHl0aG9uJywgJy1waCcsICc3LjAnLCAnLXRuJywgJzgnLCAnLW1hJywgJzIwMCcsICctbWV0YWxfYmluZGluZycsICctaW1hZScsICc8aW5maWxlLm1hZT4nLCAnLW9tYWUnLCAnPG91dGZpbGUubWFlPic=

> <r_epik_Ionization_Penalty>
0.0638186

> <r_epik_Ionization_Penalty_Charging>
0.0628538

> <r_epik_Ionization_Penalty_Neutral>
0.000964829

> <r_epik_State_Penalty>
0.0518488

> <r_epik_Charging_Adjusted_Penalty>
0.114703

> <i_epik_Tot_Q>
2

> <i_epik_Tot_abs_Q>
2

> <r_epik_Metal_State_Penalty>
0.0535981

> <b_epik_Metal_Only>
0

> <s_lp_Force_Field>
OPLS_2005

> <r_lp_Energy>
28.1617

> <b_lp_Chiralities_Consistent>
1

> <s_lp_Variant>
AV-unprocessed.smi:3318-1

> <Gold.Version>
5.8.1

> <Gold.Id.Protein>
6NUR|6NUR_protein|mol2

> <Gold.PLP.Fitness>
44.2754

> <Gold.PLP.PLP>
-36.8968

> <Gold.PLP.part.hbond>
-1.0000

> <Gold.PLP.part.metal>
0.0000

> <Gold.PLP.part.buried>
-4.8521

> <Gold.PLP.part.nonpolar>
-32.5306

> <Gold.PLP.part.repulsive>
1.0891

> <Gold.PLP.ligand.clash>
0.0000

> <Gold.PLP.ligand.torsion>
0.6298

> <Gold.PLP.Chemscore.Hbond>
2.0000

> <Gold.PLP.Chemscore.CHOScore>
0.8618

> <Gold.PLP.Chemscore.Metal>
0.0000

> <Gold.Chemscore.Hbonds>
donor molecule, donor type, donor heavy atom, donor atom, acceptor molecule, acceptor atom, score
      L1  H     4    44       P1  7948  2.00
      L1  C    15    39       P1  8028  0.61
      L1  C    15    39       P1  8029  0.17

> <Gold.PLP.Chemscore.Internal.Correction>
0.0527

> <Gold.Rescore>
     Score         DG    S(hbond)    S(metal)    S(lipo)     H(rot)  DE(clash)    DE(int)     intcor
     16.57     -17.24       0.97        0.00     106.82       1.55       0.09       0.57       ----

> <Gold.Chemscore.Fitness>
16.5709

> <Gold.Chemscore.DG>
-17.2365

> <Gold.Chemscore.ZeroCoef>
-5.4800

> <Gold.Chemscore.Hbond>
0.9687

> <Gold.Chemscore.Metal>
0.0000

> <Gold.Chemscore.Lipo>
106.8153

> <Gold.Chemscore.Internal_Hbond>
0.0000

> <Gold.Chemscore.DEClash>
0.0932

> <Gold.Chemscore.DEInternal>
0.5724

> <Gold.Chemscore.Rot>
1.5532

> <Gold.Chemscore.Internal.Correction>
   9.000000E+99

> <Gold.Chemscore.Hbonds>
donor molecule, donor type, donor heavy atom, donor atom, acceptor molecule, acceptor atom, score
      L1  H     4    44       P1  7948  0.91

> <Gold.Chemscore.Hbond.Weighted>
-3.2354

> <Gold.Chemscore.Metal.Weighted>
-0.0000

> <Gold.Chemscore.Lipo.Weighted>
-12.4974

> <Gold.Chemscore.Internal_Hbond.Weighted>
0.0000

> <Gold.Chemscore.DEClash.Weighted>
0.0932

> <Gold.Chemscore.DEInternal.Weighted>
0.5724

> <Gold.Chemscore.Rot.Weighted>
3.9762

> <Gold.Chemscore.Internal.Correction.Weighted>
   9.000000E+99

> <Gold.Protein.RotatedTorsions>
[ 6907 6896 6895 6894 ] final   44.86 input  -60.11 | X-H torsion
[ 7974 7965 7964 7962 ] final  173.50 input  175.53 | X-H torsion
[ 8008 7997 7996 7995 ] final   35.60 input   59.86 | X-H torsion
[ 10167 10162 10161 10158 ] final  -34.73 input  -65.29 | X-H torsion
[ 10718 10713 10712 10709 ] final  -86.81 input   66.30 | X-H torsion
[ 10763 10752 10751 10750 ] final  -25.57 input  -60.55 | X-H torsion
[ 11005 11000 10999 10996 ] final   69.63 input  -57.11 | X-H torsion

> <Gold.Protein.ActiveResidues>
 VAL166  LYS551  ARG553  GLY616  TRP617  ASP618  TYR619  PRO620  LYS621  CYS622 
 ASP623  PHE694  ASN695  SER759  ASP760  ASP761  ALA762  ILE779  LEU786  VAL792 
 PHE793  MET794  SER795  GLU796  ALA797  LYS798  CYS799  TRP800  GLU811  SER814 

> <Gold.Protein.RotatedAtoms>
  152.2377  134.8260  160.0464 H   0  0  0  0  0  0  0  0  0  0  0  0  # atno 6907 bound_to 6896
  151.8986  133.3527  159.3831 H   0  0  0  0  0  0  0  0  0  0  0  0  # atno 6908 bound_to 6896
  150.7044  134.4777  159.5500 H   0  0  0  0  0  0  0  0  0  0  0  0  # atno 6909 bound_to 6896
  144.7242  139.9657  143.6436 H   0  0  0  0  0  0  0  0  0  0  0  0  # atno 7974 bound_to 7965
  155.1738  140.3294  155.4388 H   0  0  0  0  0  0  0  0  0  0  0  0  # atno 8008 bound_to 7997
  156.2501  140.1939  156.6790 H   0  0  0  0  0  0  0  0  0  0  0  0  # atno 8009 bound_to 7997
  154.6319  140.0581  156.9728 H   0  0  0  0  0  0  0  0  0  0  0  0  # atno 8010 bound_to 7997
  140.7180  143.3527  151.2122 H   0  0  0  0  0  0  0  0  0  0  0  0  # atno 10167 bound_to 10162
  155.9988  130.4778  150.4771 H   0  0  0  0  0  0  0  0  0  0  0  0  # atno 10718 bound_to 10713
  153.7020  135.6956  153.5060 H   0  0  0  0  0  0  0  0  0  0  0  0  # atno 10763 bound_to 10752
  153.2335  135.4329  155.0620 H   0  0  0  0  0  0  0  0  0  0  0  0  # atno 10764 bound_to 10752
  154.8341  135.3490  154.6559 H   0  0  0  0  0  0  0  0  0  0  0  0  # atno 10765 bound_to 10752
  139.9643  134.7008  156.0579 H   0  0  0  0  0  0  0  0  0  0  0  0  # atno 11005 bound_to 11000
  146.0602  139.3596  143.0586 LP  0  0  0  0  0  0  0  0  0  0  0  0  # atno 17320 bound_to 7965
  145.8102  140.9729  143.0953 LP  0  0  0  0  0  0  0  0  0  0  0  0  # atno 17321 bound_to 7965
  139.7062  143.9452  152.2927 LP  0  0  0  0  0  0  0  0  0  0  0  0  # atno 17342 bound_to 10162
  139.9161  144.6827  150.8510 LP  0  0  0  0  0  0  0  0  0  0  0  0  # atno 17343 bound_to 10162
  157.2780  131.0601  151.2216 LP  0  0  0  0  0  0  0  0  0  0  0  0  # atno 17370 bound_to 10713
  157.3273  130.6967  149.6303 LP  0  0  0  0  0  0  0  0  0  0  0  0  # atno 17371 bound_to 10713
  141.1322  133.6583  156.3495 LP  0  0  0  0  0  0  0  0  0  0  0  0  # atno 17394 bound_to 11000
  140.5431  134.6101  157.5386 LP  0  0  0  0  0  0  0  0  0  0  0  0  # atno 17395 bound_to 11000

$$$$
