AV-unprocessed.smi:315|AV-procd|sdf|2322|dock1
  -GOLD-   2262022223D 1   1.00000     0.00000
 Structure written by MMmdl.
 47 49  0  0  0  0  0  0  0  0  2 V2000
  151.7558  138.5069  155.5791 C   0  0  0  0  0  0  0  0  0  0  0  0
  151.3661  138.0990  154.1559 C   0  0  0  0  0  0  0  0  0  0  0  0
  149.9459  138.0929  154.0652 O   0  0  0  0  0  0  0  0  0  0  0  0
  149.2680  139.2961  154.1088 C   0  0  0  0  0  0  0  0  0  0  0  0
  149.8272  140.3332  154.7797 N   0  0  0  0  0  0  0  0  0  0  0  0
  149.1594  141.5053  154.8176 C   0  0  0  0  0  0  0  0  0  0  0  0
  147.9149  141.7054  154.1906 C   0  0  0  0  0  0  0  0  0  0  0  0
  147.3328  140.6294  153.4950 C   0  0  0  0  0  0  0  0  0  0  0  0
  148.0162  139.3914  153.4597 C   0  0  0  0  0  0  0  0  0  0  0  0
  147.5322  138.2478  152.7740 N   0  0  0  0  0  0  0  0  0  0  0  0
  146.2577  137.9338  152.4773 C   0  0  0  0  0  0  0  0  0  0  0  0
  145.3049  138.7023  152.5829 O   0  0  0  0  0  0  0  0  0  0  0  0
  146.0924  136.6657  152.0580 N   0  0  0  0  0  0  0  0  0  0  0  0
  144.8485  135.9993  151.6568 C   0  0  2  0  0  0  0  0  0  0  0  0
  144.0466  135.4601  152.8505 C   0  0  0  0  0  0  0  0  0  0  0  0
  143.3387  134.1966  152.3285 C   0  0  0  0  0  0  0  0  0  0  0  0
  143.7404  134.0578  150.9118 N   0  3  2  0  0  0  0  0  0  0  0  0
  143.6717  132.6925  150.3311 C   0  0  0  0  0  0  0  0  0  0  0  0
  144.8647  131.8121  150.7393 C   0  0  0  0  0  0  0  0  0  0  0  0
  146.1896  132.5133  150.4232 C   0  0  0  0  0  0  0  0  0  0  0  0
  146.2386  133.8669  151.1392 C   0  0  0  0  0  0  0  0  0  0  0  0
  145.0320  134.7613  150.7574 C   0  0  2  0  0  0  0  0  0  0  0  0
  152.8394  138.5199  155.6974 H   0  0  0  0  0  0  0  0  0  0  0  0
  151.3476  137.8097  156.3112 H   0  0  0  0  0  0  0  0  0  0  0  0
  151.3809  139.5021  155.8180 H   0  0  0  0  0  0  0  0  0  0  0  0
  151.7910  138.8058  153.4414 H   0  0  0  0  0  0  0  0  0  0  0  0
  151.7675  137.1088  153.9344 H   0  0  0  0  0  0  0  0  0  0  0  0
  149.6342  142.3095  155.3595 H   0  0  0  0  0  0  0  0  0  0  0  0
  147.4201  142.6641  154.2383 H   0  0  0  0  0  0  0  0  0  0  0  0
  146.3878  140.7729  152.9935 H   0  0  0  0  0  0  0  0  0  0  0  0
  148.2019  137.5007  152.6666 H   0  0  0  0  0  0  0  0  0  0  0  0
  146.9252  136.0950  152.0273 H   0  0  0  0  0  0  0  0  0  0  0  0
  144.2172  136.7197  151.1326 H   0  0  0  0  0  0  0  0  0  0  0  0
  144.7071  135.1926  153.6769 H   0  0  0  0  0  0  0  0  0  0  0  0
  143.3392  136.2010  153.2247 H   0  0  0  0  0  0  0  0  0  0  0  0
  143.6538  133.3285  152.9086 H   0  0  0  0  0  0  0  0  0  0  0  0
  142.2542  134.2728  152.4055 H   0  0  0  0  0  0  0  0  0  0  0  0
  142.7293  132.2193  150.6093 H   0  0  0  0  0  0  0  0  0  0  0  0
  143.6579  132.7935  149.2452 H   0  0  0  0  0  0  0  0  0  0  0  0
  144.8150  131.5790  151.8034 H   0  0  0  0  0  0  0  0  0  0  0  0
  144.8153  130.8575  150.2147 H   0  0  0  0  0  0  0  0  0  0  0  0
  147.0287  131.8917  150.7377 H   0  0  0  0  0  0  0  0  0  0  0  0
  146.2911  132.6568  149.3468 H   0  0  0  0  0  0  0  0  0  0  0  0
  146.2580  133.6983  152.2167 H   0  0  0  0  0  0  0  0  0  0  0  0
  147.1734  134.3705  150.8920 H   0  0  0  0  0  0  0  0  0  0  0  0
  145.1334  135.0567  149.7132 H   0  0  0  0  0  0  0  0  0  0  0  0
  143.0698  134.6138  150.4007 H   0  0  0  0  0  0  0  0  0  0  0  0
  1  2  1  0  0  0  0
  1 23  1  0  0  0  0
  1 24  1  0  0  0  0
  1 25  1  0  0  0  0
  2  3  1  0  0  0  0
  2 26  1  0  0  0  0
  2 27  1  0  0  0  0
  3  4  1  0  0  0  0
  4  9  1  0  0  0  0
  4  5  2  0  0  0  0
  5  6  1  0  0  0  0
  6  7  2  0  0  0  0
  6 28  1  0  0  0  0
  7  8  1  0  0  0  0
  7 29  1  0  0  0  0
  8  9  2  0  0  0  0
  8 30  1  0  0  0  0
  9 10  1  0  0  0  0
 10 11  1  0  0  0  0
 10 31  1  0  0  0  0
 11 12  2  0  0  0  0
 11 13  1  0  0  0  0
 13 14  1  0  0  0  0
 13 32  1  0  0  0  0
 14 22  1  0  0  0  0
 14 15  1  0  0  0  0
 14 33  1  0  0  0  0
 15 16  1  0  0  0  0
 15 34  1  0  0  0  0
 15 35  1  0  0  0  0
 16 17  1  0  0  0  0
 16 36  1  0  0  0  0
 16 37  1  0  0  0  0
 17 22  1  0  0  0  0
 17 18  1  0  0  0  0
 17 47  1  0  0  0  0
 18 19  1  0  0  0  0
 18 38  1  0  0  0  0
 18 39  1  0  0  0  0
 19 20  1  0  0  0  0
 19 40  1  0  0  0  0
 19 41  1  0  0  0  0
 20 21  1  0  0  0  0
 20 42  1  0  0  0  0
 20 43  1  0  0  0  0
 21 22  1  0  0  0  0
 21 44  1  0  0  0  0
 21 45  1  0  0  0  0
 22 46  1  0  0  0  0
M  CHG  1  17   1
M  END
> <s_m_source_file>
AV-unprocessed.smi

> <i_m_source_file_index>
315

> <i_lp_mmshare_version>
43012

> <i_f3d_flags>
0

> <s_epik_input>
W0NIM11bQ0gyXU9jMW5bY0hdW2NIXVtjSF1jMVtOSF1DKD1PKVtOSF1bQ0BIXShbQ0gyXVtDSDJdMilbQ0BASF0oTjIzKVtDSDJdW0NIMl1bQ0gyXVtDSDJdMw==

> <s_epik_cmdline>
J2VwaWtfcHl0aG9uJywgJy1waCcsICc3LjAnLCAnLXRuJywgJzgnLCAnLW1hJywgJzIwMCcsICctbWV0YWxfYmluZGluZycsICctaW1hZScsICc8aW5maWxlLm1hZT4nLCAnLW9tYWUnLCAnPG91dGZpbGUubWFlPic=

> <r_lp_tautomer_probability>
1

> <r_epik_Ionization_Penalty>
0.00106455

> <r_epik_Ionization_Penalty_Charging>
0.000974069

> <r_epik_Ionization_Penalty_Neutral>
9.04821e-05

> <r_epik_State_Penalty>
0.000633842

> <r_epik_Charging_Adjusted_Penalty>
0.00160791

> <i_epik_Tot_Q>
1

> <i_epik_Tot_abs_Q>
1

> <r_epik_Metal_State_Penalty>
-0

> <b_epik_Metal_Only>
0

> <s_lp_Force_Field>
OPLS_2005

> <r_lp_Energy>
48.3447

> <b_lp_Chiralities_Consistent>
1

> <s_lp_Variant>
AV-unprocessed.smi:315-7

> <Gold.Version>
5.8.1

> <Gold.Id.Protein>
6NUR|6NUR_protein|mol2

> <Gold.PLP.Fitness>
48.8803

> <Gold.PLP.PLP>
-38.0024

> <Gold.PLP.part.hbond>
-4.4085

> <Gold.PLP.part.metal>
0.0000

> <Gold.PLP.part.buried>
-2.5508

> <Gold.PLP.part.nonpolar>
-38.7082

> <Gold.PLP.part.repulsive>
6.4973

> <Gold.PLP.ligand.clash>
0.0000

> <Gold.PLP.ligand.torsion>
0.8438

> <Gold.PLP.Chemscore.Hbond>
3.1969

> <Gold.PLP.Chemscore.CHOScore>
0.9890

> <Gold.PLP.Chemscore.Metal>
0.0000

> <Gold.Chemscore.Hbonds>
donor molecule, donor type, donor heavy atom, donor atom, acceptor molecule, acceptor atom, score
      L1  H    10    31       P1  7948  1.00
      L1  H    13    32       P1  7948  0.85
      L1  H    17    47       P1 10186  0.81
      P1  H  7989  7998       L1     5  0.38
      L1  C     6    28       P1  8028  0.97

> <Gold.PLP.Chemscore.Internal.Correction>
0.0079

> <Gold.Rescore>
     Score         DG    S(hbond)    S(metal)    S(lipo)     H(rot)  DE(clash)    DE(int)     intcor
     14.89     -20.10       2.07        0.00      96.13       1.38       1.86       3.35       ----

> <Gold.Chemscore.Fitness>
14.8916

> <Gold.Chemscore.DG>
-20.1017

> <Gold.Chemscore.ZeroCoef>
-5.4800

> <Gold.Chemscore.Hbond>
2.0659

> <Gold.Chemscore.Metal>
0.0000

> <Gold.Chemscore.Lipo>
96.1251

> <Gold.Chemscore.Internal_Hbond>
0.0000

> <Gold.Chemscore.DEClash>
1.8567

> <Gold.Chemscore.DEInternal>
3.3535

> <Gold.Chemscore.Rot>
1.3770

> <Gold.Chemscore.Internal.Correction>
   9.000000E+99

> <Gold.Chemscore.Hbonds>
donor molecule, donor type, donor heavy atom, donor atom, acceptor molecule, acceptor atom, score
      L1  H    10    31       P1  7948  0.98
      L1  H    13    32       P1  7948  0.79
      L1  H    17    47       P1 10186  0.22
      P1  H  7989  7998       L1     5  0.04

> <Gold.Chemscore.Hbond.Weighted>
-6.9003

> <Gold.Chemscore.Metal.Weighted>
-0.0000

> <Gold.Chemscore.Lipo.Weighted>
-11.2466

> <Gold.Chemscore.Internal_Hbond.Weighted>
0.0000

> <Gold.Chemscore.DEClash.Weighted>
1.8567

> <Gold.Chemscore.DEInternal.Weighted>
3.3535

> <Gold.Chemscore.Rot.Weighted>
3.5252

> <Gold.Chemscore.Internal.Correction.Weighted>
   9.000000E+99

> <Gold.Protein.RotatedTorsions>
[ 6907 6896 6895 6894 ] final -156.96 input  -60.11 | X-H torsion
[ 7974 7965 7964 7962 ] final -127.93 input  175.53 | X-H torsion
[ 8008 7997 7996 7995 ] final -147.99 input   59.86 | X-H torsion
[ 10167 10162 10161 10158 ] final  -29.38 input  -65.29 | X-H torsion
[ 10718 10713 10712 10709 ] final  -86.53 input   66.30 | X-H torsion
[ 10763 10752 10751 10750 ] final  -96.38 input  -60.55 | X-H torsion
[ 11005 11000 10999 10996 ] final  130.75 input  -57.11 | X-H torsion

> <Gold.Protein.ActiveResidues>
 VAL166  LYS551  ARG553  GLY616  TRP617  ASP618  TYR619  PRO620  LYS621  CYS622 
 ASP623  PHE694  ASN695  SER759  ASP760  ASP761  ALA762  ILE779  LEU786  VAL792 
 PHE793  MET794  SER795  GLU796  ALA797  LYS798  CYS799  TRP800  GLU811  SER814 

> <Gold.Protein.RotatedAtoms>
  151.2956  133.4145  159.2635 H   0  0  0  0  0  0  0  0  0  0  0  0  # atno 6907 bound_to 6896
  151.0240  134.9490  159.8085 H   0  0  0  0  0  0  0  0  0  0  0  0  # atno 6908 bound_to 6896
  152.5331  134.2918  159.9098 H   0  0  0  0  0  0  0  0  0  0  0  0  # atno 6909 bound_to 6896
  144.9722  140.7556  143.4664 H   0  0  0  0  0  0  0  0  0  0  0  0  # atno 7974 bound_to 7965
  155.5844  140.0646  157.2775 H   0  0  0  0  0  0  0  0  0  0  0  0  # atno 8008 bound_to 7997
  154.4323  140.1846  156.1056 H   0  0  0  0  0  0  0  0  0  0  0  0  # atno 8009 bound_to 7997
  156.0281  140.3309  155.7113 H   0  0  0  0  0  0  0  0  0  0  0  0  # atno 8010 bound_to 7997
  140.7261  143.3934  151.1391 H   0  0  0  0  0  0  0  0  0  0  0  0  # atno 10167 bound_to 10162
  155.9989  130.4768  150.4729 H   0  0  0  0  0  0  0  0  0  0  0  0  # atno 10718 bound_to 10713
  154.7234  135.5085  153.8848 H   0  0  0  0  0  0  0  0  0  0  0  0  # atno 10763 bound_to 10752
  153.0883  135.6652  153.9913 H   0  0  0  0  0  0  0  0  0  0  0  0  # atno 10764 bound_to 10752
  153.9731  135.3036  155.3405 H   0  0  0  0  0  0  0  0  0  0  0  0  # atno 10765 bound_to 10752
  139.9690  134.9583  156.9338 H   0  0  0  0  0  0  0  0  0  0  0  0  # atno 11005 bound_to 11000
  145.2543  139.2018  143.4926 LP  0  0  0  0  0  0  0  0  0  0  0  0  # atno 17320 bound_to 7965
  146.3385  140.2461  142.8597 LP  0  0  0  0  0  0  0  0  0  0  0  0  # atno 17321 bound_to 7965
  139.7542  143.8732  152.3084 LP  0  0  0  0  0  0  0  0  0  0  0  0  # atno 17342 bound_to 10162
  139.8596  144.7124  150.9115 LP  0  0  0  0  0  0  0  0  0  0  0  0  # atno 17343 bound_to 10162
  157.2742  131.0593  151.2240 LP  0  0  0  0  0  0  0  0  0  0  0  0  # atno 17370 bound_to 10713
  157.3309  130.6984  149.6324 LP  0  0  0  0  0  0  0  0  0  0  0  0  # atno 17371 bound_to 10713
  140.5335  134.0790  155.7322 LP  0  0  0  0  0  0  0  0  0  0  0  0  # atno 17394 bound_to 11000
  141.1370  133.9205  157.2412 LP  0  0  0  0  0  0  0  0  0  0  0  0  # atno 17395 bound_to 11000

$$$$
