AV-unprocessed.smi:1391|AV-procd|sdf|5658|dock1
  -GOLD-   22720 5283D 1   1.00000     0.00000
 Structure written by MMmdl.
 44 45  0  0  0  0  0  0  0  0  2 V2000
  150.0476  136.5834  156.3845 O   0  0  0  0  0  0  0  0  0  0  0  0
  150.0890  136.6543  155.1556 C   0  0  0  0  0  0  0  0  0  0  0  0
  151.0603  137.6166  154.4566 C   0  0  0  0  0  0  0  0  0  0  0  0
  150.8065  139.0298  154.7835 N   0  0  0  0  0  0  0  0  0  0  0  0
  149.6326  139.6101  154.2628 C   0  0  0  0  0  0  0  0  0  0  0  0
  149.3039  140.8887  154.5069 C   0  0  0  0  0  0  0  0  0  0  0  0
  150.1912  141.6768  155.3291 C   0  0  0  0  0  0  0  0  0  0  0  0
  151.3154  141.1311  155.8341 C   0  0  0  0  0  0  0  0  0  0  0  0
  151.6777  139.7335  155.5712 C   0  0  0  0  0  0  0  0  0  0  0  0
  152.6994  139.2246  156.0336 O   0  0  0  0  0  0  0  0  0  0  0  0
  149.2990  135.9234  154.3546 N   0  0  0  0  0  0  0  0  0  0  0  0
  148.3213  134.9454  154.8168 C   0  0  0  0  0  0  0  0  0  0  0  0
  146.9227  135.2269  154.2313 C   0  0  0  0  0  0  0  0  0  0  0  0
  146.8600  135.0297  152.7579 N   0  3  0  0  0  0  0  0  0  0  0  0
  145.6723  135.6914  152.1485 C   0  0  0  0  0  0  0  0  0  0  0  0
  144.3872  134.8420  152.1620 C   0  0  0  0  0  0  0  0  0  0  0  0
  144.2289  133.9897  150.8933 C   0  0  0  0  0  0  0  0  0  0  0  0
  145.2297  132.8318  150.7866 C   0  0  0  0  0  0  0  0  0  0  0  0
  146.7031  133.2558  150.9094 C   0  0  0  0  0  0  0  0  0  0  0  0
  147.1053  133.6152  152.3533 C   0  0  0  0  0  0  0  0  0  0  0  0
  152.0877  137.3548  154.7170 H   0  0  0  0  0  0  0  0  0  0  0  0
  150.9865  137.4497  153.3811 H   0  0  0  0  0  0  0  0  0  0  0  0
  149.0189  138.9524  153.6646 H   0  0  0  0  0  0  0  0  0  0  0  0
  148.3976  141.3151  154.1029 H   0  0  0  0  0  0  0  0  0  0  0  0
  149.9511  142.7079  155.5423 H   0  0  0  0  0  0  0  0  0  0  0  0
  151.9665  141.7353  156.4489 H   0  0  0  0  0  0  0  0  0  0  0  0
  149.3879  136.0481  153.3561 H   0  0  0  0  0  0  0  0  0  0  0  0
  148.6500  133.9370  154.5591 H   0  0  0  0  0  0  0  0  0  0  0  0
  148.3037  135.0004  155.9049 H   0  0  0  0  0  0  0  0  0  0  0  0
  146.1735  134.6013  154.7187 H   0  0  0  0  0  0  0  0  0  0  0  0
  146.6578  136.2592  154.4636 H   0  0  0  0  0  0  0  0  0  0  0  0
  145.4831  136.6365  152.6590 H   0  0  0  0  0  0  0  0  0  0  0  0
  145.9171  135.9812  151.1263 H   0  0  0  0  0  0  0  0  0  0  0  0
  144.3201  134.2296  153.0618 H   0  0  0  0  0  0  0  0  0  0  0  0
  143.5358  135.5224  152.2047 H   0  0  0  0  0  0  0  0  0  0  0  0
  143.2192  133.5784  150.8663 H   0  0  0  0  0  0  0  0  0  0  0  0
  144.3117  134.6265  150.0116 H   0  0  0  0  0  0  0  0  0  0  0  0
  144.9999  132.0782  151.5411 H   0  0  0  0  0  0  0  0  0  0  0  0
  145.0833  132.3395  149.8245 H   0  0  0  0  0  0  0  0  0  0  0  0
  147.3084  132.4017  150.6030 H   0  0  0  0  0  0  0  0  0  0  0  0
  146.9528  134.0538  150.2093 H   0  0  0  0  0  0  0  0  0  0  0  0
  148.1742  133.4303  152.4603 H   0  0  0  0  0  0  0  0  0  0  0  0
  146.6119  132.9353  153.0495 H   0  0  0  0  0  0  0  0  0  0  0  0
  147.6425  135.5539  152.3927 H   0  0  0  0  0  0  0  0  0  0  0  0
  1  2  2  0  0  0  0
  2  3  1  0  0  0  0
  2 11  1  0  0  0  0
  3  4  1  0  0  0  0
  3 21  1  0  0  0  0
  3 22  1  0  0  0  0
  4  9  1  0  0  0  0
  4  5  1  0  0  0  0
  5  6  2  0  0  0  0
  5 23  1  0  0  0  0
  6  7  1  0  0  0  0
  6 24  1  0  0  0  0
  7  8  2  0  0  0  0
  7 25  1  0  0  0  0
  8  9  1  0  0  0  0
  8 26  1  0  0  0  0
  9 10  2  0  0  0  0
 11 12  1  0  0  0  0
 11 27  1  0  0  0  0
 12 13  1  0  0  0  0
 12 28  1  0  0  0  0
 12 29  1  0  0  0  0
 13 14  1  0  0  0  0
 13 30  1  0  0  0  0
 13 31  1  0  0  0  0
 14 20  1  0  0  0  0
 14 15  1  0  0  0  0
 14 44  1  0  0  0  0
 15 16  1  0  0  0  0
 15 32  1  0  0  0  0
 15 33  1  0  0  0  0
 16 17  1  0  0  0  0
 16 34  1  0  0  0  0
 16 35  1  0  0  0  0
 17 18  1  0  0  0  0
 17 36  1  0  0  0  0
 17 37  1  0  0  0  0
 18 19  1  0  0  0  0
 18 38  1  0  0  0  0
 18 39  1  0  0  0  0
 19 20  1  0  0  0  0
 19 40  1  0  0  0  0
 19 41  1  0  0  0  0
 20 42  1  0  0  0  0
 20 43  1  0  0  0  0
M  CHG  1  14   1
M  END
> <s_m_source_file>
AV-unprocessed.smi

> <i_m_source_file_index>
1391

> <i_lp_mmshare_version>
43012

> <i_f3d_flags>
0

> <s_epik_input>
Tz1jMVtjSF1bY0hdW2NIXVtjSF1uMVtDSDJdQyg9TylbTkhdW0NIMl1bQ0gyXU4yW0NIMl1bQ0gyXVtDSDJdW0NIMl1bQ0gyXVtDSDJdMg==

> <s_epik_cmdline>
J2VwaWtfcHl0aG9uJywgJy1waCcsICc3LjAnLCAnLXRuJywgJzgnLCAnLW1hJywgJzIwMCcsICctbWV0YWxfYmluZGluZycsICctaW1hZScsICc8aW5maWxlLm1hZT4nLCAnLW9tYWUnLCAnPG91dGZpbGUubWFlPic=

> <r_lp_tautomer_probability>
1

> <r_epik_Ionization_Penalty>
0.00237247

> <r_epik_Ionization_Penalty_Charging>
0.00237238

> <r_epik_Ionization_Penalty_Neutral>
8.2065e-08

> <r_epik_State_Penalty>
0.00163922

> <r_epik_Charging_Adjusted_Penalty>
0.0040116

> <i_epik_Tot_Q>
1

> <i_epik_Tot_abs_Q>
1

> <r_epik_Metal_State_Penalty>
-0

> <b_epik_Metal_Only>
0

> <s_lp_Force_Field>
OPLS_2005

> <r_lp_Energy>
31.2173

> <b_lp_Chiralities_Consistent>
1

> <s_lp_Variant>
AV-unprocessed.smi:1391-1

> <Gold.Version>
5.8.1

> <Gold.Id.Protein>
6NUR|6NUR_protein|mol2

> <Gold.PLP.Fitness>
49.4207

> <Gold.PLP.PLP>
-37.7203

> <Gold.PLP.part.hbond>
-3.0000

> <Gold.PLP.part.metal>
0.0000

> <Gold.PLP.part.buried>
-3.7954

> <Gold.PLP.part.nonpolar>
-30.5628

> <Gold.PLP.part.repulsive>
0.0374

> <Gold.PLP.ligand.clash>
0.0000

> <Gold.PLP.ligand.torsion>
0.2155

> <Gold.PLP.Chemscore.Hbond>
4.0000

> <Gold.PLP.Chemscore.CHOScore>
0.0000

> <Gold.PLP.Chemscore.Metal>
0.0000

> <Gold.Chemscore.Hbonds>
donor molecule, donor type, donor heavy atom, donor atom, acceptor molecule, acceptor atom, score
      L1  H    11    27       P1  7948  1.00
      L1  H    14    44       P1  7948  2.00
      P1  H  7997  8008       L1    10  1.00
      L1  C     5    23       P1  7957  0.13

> <Gold.PLP.Chemscore.Internal.Correction>
0.1313

> <Gold.Rescore>
     Score         DG    S(hbond)    S(metal)    S(lipo)     H(rot)  DE(clash)    DE(int)     intcor
     18.68     -19.02       2.91        0.00      73.36       1.86       0.09       0.25       ----

> <Gold.Chemscore.Fitness>
18.6799

> <Gold.Chemscore.DG>
-19.0186

> <Gold.Chemscore.ZeroCoef>
-5.4800

> <Gold.Chemscore.Hbond>
2.9083

> <Gold.Chemscore.Metal>
0.0000

> <Gold.Chemscore.Lipo>
73.3580

> <Gold.Chemscore.Internal_Hbond>
0.0000

> <Gold.Chemscore.DEClash>
0.0920

> <Gold.Chemscore.DEInternal>
0.2466

> <Gold.Chemscore.Rot>
1.8586

> <Gold.Chemscore.Internal.Correction>
   9.000000E+99

> <Gold.Chemscore.Hbonds>
donor molecule, donor type, donor heavy atom, donor atom, acceptor molecule, acceptor atom, score
      L1  H    11    27       P1  7948  0.51
      L1  H    14    44       P1  7948  0.94
      P1  H  7997  8008       L1    10  0.99

> <Gold.Chemscore.Hbond.Weighted>
-9.7138

> <Gold.Chemscore.Metal.Weighted>
-0.0000

> <Gold.Chemscore.Lipo.Weighted>
-8.5829

> <Gold.Chemscore.Internal_Hbond.Weighted>
0.0000

> <Gold.Chemscore.DEClash.Weighted>
0.0920

> <Gold.Chemscore.DEInternal.Weighted>
0.2466

> <Gold.Chemscore.Rot.Weighted>
4.7581

> <Gold.Chemscore.Internal.Correction.Weighted>
   9.000000E+99

> <Gold.Protein.RotatedTorsions>
[ 6907 6896 6895 6894 ] final  -48.92 input  -60.11 | X-H torsion
[ 7974 7965 7964 7962 ] final   47.07 input  175.53 | X-H torsion
[ 8008 7997 7996 7995 ] final  -36.28 input   59.86 | X-H torsion
[ 10167 10162 10161 10158 ] final  167.88 input  -65.29 | X-H torsion
[ 10718 10713 10712 10709 ] final  135.25 input   66.30 | X-H torsion
[ 10763 10752 10751 10750 ] final  -12.68 input  -60.55 | X-H torsion
[ 11005 11000 10999 10996 ] final  144.21 input  -57.11 | X-H torsion

> <Gold.Protein.ActiveResidues>
 VAL166  LYS551  ARG553  GLY616  TRP617  ASP618  TYR619  PRO620  LYS621  CYS622 
 ASP623  PHE694  ASN695  SER759  ASP760  ASP761  ALA762  ILE779  LEU786  VAL792 
 PHE793  MET794  SER795  GLU796  ALA797  LYS798  CYS799  TRP800  GLU811  SER814 

> <Gold.Protein.RotatedAtoms>
  150.8857  134.8254  159.7256 H   0  0  0  0  0  0  0  0  0  0  0  0  # atno 6907 bound_to 6896
  152.4806  134.4727  159.9650 H   0  0  0  0  0  0  0  0  0  0  0  0  # atno 6908 bound_to 6896
  151.4796  133.3511  159.2871 H   0  0  0  0  0  0  0  0  0  0  0  0  # atno 6909 bound_to 6896
  146.0331  139.4788  142.9825 H   0  0  0  0  0  0  0  0  0  0  0  0  # atno 7974 bound_to 7965
  154.4076  140.1635  156.2348 H   0  0  0  0  0  0  0  0  0  0  0  0  # atno 8008 bound_to 7997
  155.9251  140.3418  155.6181 H   0  0  0  0  0  0  0  0  0  0  0  0  # atno 8009 bound_to 7997
  155.7174  140.0764  157.2336 H   0  0  0  0  0  0  0  0  0  0  0  0  # atno 8010 bound_to 7997
  139.4955  144.3875  151.9554 H   0  0  0  0  0  0  0  0  0  0  0  0  # atno 10167 bound_to 10162
  157.4590  131.1072  150.9943 H   0  0  0  0  0  0  0  0  0  0  0  0  # atno 10718 bound_to 10713
  153.5021  135.7017  153.5826 H   0  0  0  0  0  0  0  0  0  0  0  0  # atno 10763 bound_to 10752
  153.3953  135.3885  155.1951 H   0  0  0  0  0  0  0  0  0  0  0  0  # atno 10764 bound_to 10752
  154.8710  135.3868  154.4493 H   0  0  0  0  0  0  0  0  0  0  0  0  # atno 10765 bound_to 10752
  140.0615  134.9202  157.1191 H   0  0  0  0  0  0  0  0  0  0  0  0  # atno 11005 bound_to 11000
  145.7007  141.0136  143.1505 LP  0  0  0  0  0  0  0  0  0  0  0  0  # atno 17320 bound_to 7965
  144.7039  139.8641  143.7436 LP  0  0  0  0  0  0  0  0  0  0  0  0  # atno 17321 bound_to 7965
  140.3312  144.3314  150.5987 LP  0  0  0  0  0  0  0  0  0  0  0  0  # atno 17342 bound_to 10162
  140.5644  143.2188  151.7710 LP  0  0  0  0  0  0  0  0  0  0  0  0  # atno 17343 bound_to 10162
  157.0746  130.5878  149.5409 LP  0  0  0  0  0  0  0  0  0  0  0  0  # atno 17370 bound_to 10713
  156.0020  130.5101  150.7697 LP  0  0  0  0  0  0  0  0  0  0  0  0  # atno 17371 bound_to 10713
  140.3764  134.2335  155.7174 LP  0  0  0  0  0  0  0  0  0  0  0  0  # atno 17394 bound_to 11000
  141.1975  133.8058  157.0625 LP  0  0  0  0  0  0  0  0  0  0  0  0  # atno 17395 bound_to 11000

$$$$
