AV-unprocessed.smi:691|AV-procd|sdf|3365|dock3
  -GOLD-   22720 0343D 1   1.00000     0.00000
 Structure written by MMmdl.
 37 38  0  0  0  0  0  0  0  0  1 V2000
  146.3029  139.3376  155.7779 C   0  0  0  0  0  0  0  0  0  0  0  0
  146.7850  140.8080  155.8213 C   0  0  2  0  0  0  0  0  0  0  0  0
  146.2017  141.5040  157.0803 C   0  0  0  0  0  0  0  0  0  0  0  0
  146.6326  140.8795  158.2733 O   0  0  0  0  0  0  0  0  0  0  0  0
  146.3839  141.5361  154.5263 C   0  0  0  0  0  0  0  0  0  0  0  0
  147.4133  141.1207  153.4724 C   0  0  0  0  0  0  0  0  0  0  0  0
  148.6839  140.7440  154.2453 C   0  0  0  0  0  0  0  0  0  0  0  0
  148.3378  140.8298  155.7444 C   0  0  1  0  0  0  0  0  0  0  0  0
  148.9270  142.0516  156.2992 N   0  0  0  0  0  0  0  0  0  0  0  0
  149.6591  142.1315  157.4200 C   0  0  0  0  0  0  0  0  0  0  0  0
  149.9255  141.1613  158.1283 O   0  0  0  0  0  0  0  0  0  0  0  0
  150.0542  143.3960  157.6474 N   0  0  0  0  0  0  0  0  0  0  0  0
  150.8385  143.9126  158.7155 C   0  0  0  0  0  0  0  0  0  0  0  0
  151.7315  143.1470  159.5052 C   0  0  0  0  0  0  0  0  0  0  0  0
  152.4391  143.7840  160.5431 C   0  0  0  0  0  0  0  0  0  0  0  0
  152.2260  145.1592  160.7581 C   0  0  0  0  0  0  0  0  0  0  0  0
  151.3705  145.8987  160.0217 N   0  0  0  0  0  0  0  0  0  0  0  0
  150.6955  145.2811  159.0289 C   0  0  0  0  0  0  0  0  0  0  0  0
  145.2188  139.2697  155.6837 H   0  0  0  0  0  0  0  0  0  0  0  0
  146.5860  138.8060  156.6870 H   0  0  0  0  0  0  0  0  0  0  0  0
  146.7300  138.7894  154.9380 H   0  0  0  0  0  0  0  0  0  0  0  0
  146.4985  142.5530  157.1076 H   0  0  0  0  0  0  0  0  0  0  0  0
  145.1119  141.4818  157.0813 H   0  0  0  0  0  0  0  0  0  0  0  0
  147.5547  140.6881  158.1960 H   0  0  0  0  0  0  0  0  0  0  0  0
  145.3620  141.3174  154.2144 H   0  0  0  0  0  0  0  0  0  0  0  0
  146.4483  142.6148  154.6761 H   0  0  0  0  0  0  0  0  0  0  0  0
  147.0497  140.2550  152.9171 H   0  0  0  0  0  0  0  0  0  0  0  0
  147.5925  141.9175  152.7498 H   0  0  0  0  0  0  0  0  0  0  0  0
  148.9791  139.7263  153.9867 H   0  0  0  0  0  0  0  0  0  0  0  0
  149.5214  141.3892  153.9755 H   0  0  0  0  0  0  0  0  0  0  0  0
  148.7571  139.9632  156.2591 H   0  0  0  0  0  0  0  0  0  0  0  0
  148.7632  142.9027  155.7819 H   0  0  0  0  0  0  0  0  0  0  0  0
  149.7961  144.0702  156.9417 H   0  0  0  0  0  0  0  0  0  0  0  0
  151.8826  142.0908  159.3503 H   0  0  0  0  0  0  0  0  0  0  0  0
  153.1278  143.2287  161.1627 H   0  0  0  0  0  0  0  0  0  0  0  0
  152.7524  145.6773  161.5462 H   0  0  0  0  0  0  0  0  0  0  0  0
  150.0184  145.9042  158.4628 H   0  0  0  0  0  0  0  0  0  0  0  0
  1  2  1  0  0  0  0
  1 19  1  0  0  0  0
  1 20  1  0  0  0  0
  1 21  1  0  0  0  0
  2  8  1  0  0  0  0
  2  3  1  0  0  0  0
  2  5  1  0  0  0  0
  3  4  1  0  0  0  0
  3 22  1  0  0  0  0
  3 23  1  0  0  0  0
  4 24  1  0  0  0  0
  5  6  1  0  0  0  0
  5 25  1  0  0  0  0
  5 26  1  0  0  0  0
  6  7  1  0  0  0  0
  6 27  1  0  0  0  0
  6 28  1  0  0  0  0
  7  8  1  0  0  0  0
  7 29  1  0  0  0  0
  7 30  1  0  0  0  0
  8  9  1  0  0  0  0
  8 31  1  0  0  0  0
  9 10  1  0  0  0  0
  9 32  1  0  0  0  0
 10 11  2  0  0  0  0
 10 12  1  0  0  0  0
 12 13  1  0  0  0  0
 12 33  1  0  0  0  0
 13 18  1  0  0  0  0
 13 14  2  0  0  0  0
 14 15  1  0  0  0  0
 14 34  1  0  0  0  0
 15 16  2  0  0  0  0
 15 35  1  0  0  0  0
 16 17  1  0  0  0  0
 16 36  1  0  0  0  0
 17 18  2  0  0  0  0
 18 37  1  0  0  0  0
M  END
> <s_m_source_file>
AV-unprocessed.smi

> <i_m_source_file_index>
691

> <i_lp_mmshare_version>
43012

> <i_f3d_flags>
0

> <s_epik_input>
W09IXVtDSDJdW0NAXTEoW0NIM10pW0NIMl1bQ0gyXVtDSDJdW0NASF0xW05IXUMoPU8pW05IXWMyW2NIXVtjSF1bY0hdbltjSF0y

> <s_epik_cmdline>
J2VwaWtfcHl0aG9uJywgJy1waCcsICc3LjAnLCAnLXRuJywgJzgnLCAnLW1hJywgJzIwMCcsICctbWV0YWxfYmluZGluZycsICctaW1hZScsICc8aW5maWxlLm1hZT4nLCAnLW9tYWUnLCAnPG91dGZpbGUubWFlPic=

> <r_epik_Ionization_Penalty>
0.00496828

> <r_epik_Ionization_Penalty_Charging>
0

> <r_epik_Ionization_Penalty_Neutral>
0.00496828

> <r_epik_State_Penalty>
0.00358054

> <r_epik_Charging_Adjusted_Penalty>
0.00358054

> <i_epik_Tot_Q>
0

> <i_epik_Tot_abs_Q>
0

> <r_epik_Metal_State_Penalty>
-0

> <b_epik_Metal_Only>
0

> <s_lp_Force_Field>
OPLS_2005

> <r_lp_Energy>
30.5868

> <b_lp_Chiralities_Consistent>
1

> <s_lp_Variant>
AV-unprocessed.smi:691-2

> <Gold.Version>
5.8.1

> <Gold.Id.Protein>
6NUR|6NUR_protein|mol2

> <Gold.PLP.Fitness>
38.1209

> <Gold.PLP.PLP>
-29.5084

> <Gold.PLP.part.hbond>
-4.6317

> <Gold.PLP.part.metal>
0.0000

> <Gold.PLP.part.buried>
-5.5160

> <Gold.PLP.part.nonpolar>
-20.7517

> <Gold.PLP.part.repulsive>
0.3114

> <Gold.PLP.ligand.clash>
0.0000

> <Gold.PLP.ligand.torsion>
0.2120

> <Gold.PLP.Chemscore.Hbond>
2.0088

> <Gold.PLP.Chemscore.CHOScore>
1.0000

> <Gold.PLP.Chemscore.Metal>
0.0000

> <Gold.Chemscore.Hbonds>
donor molecule, donor type, donor heavy atom, donor atom, acceptor molecule, acceptor atom, score
      L1  H     9    32       P1  8028  1.00
      L1  H    12    33       P1  8028  1.00
      L1  C    18    37       P1  8029  1.00

> <Gold.PLP.Chemscore.Internal.Correction>
0.0100

> <Gold.Rescore>
     Score         DG    S(hbond)    S(metal)    S(lipo)     H(rot)  DE(clash)    DE(int)     intcor
     16.12     -17.38       2.12        0.00      80.29       1.78       0.07       1.19       ----

> <Gold.Chemscore.Fitness>
16.1229

> <Gold.Chemscore.DG>
-17.3780

> <Gold.Chemscore.ZeroCoef>
-5.4800

> <Gold.Chemscore.Hbond>
2.1169

> <Gold.Chemscore.Metal>
0.0000

> <Gold.Chemscore.Lipo>
80.2926

> <Gold.Chemscore.Internal_Hbond>
0.0000

> <Gold.Chemscore.DEClash>
0.0691

> <Gold.Chemscore.DEInternal>
1.1860

> <Gold.Chemscore.Rot>
1.7838

> <Gold.Chemscore.Internal.Correction>
   9.000000E+99

> <Gold.Chemscore.Hbonds>
donor molecule, donor type, donor heavy atom, donor atom, acceptor molecule, acceptor atom, score
      L1  H     9    32       P1  8028  0.94
      L1  H    12    33       P1  8028  0.85

> <Gold.Chemscore.Hbond.Weighted>
-7.0704

> <Gold.Chemscore.Metal.Weighted>
-0.0000

> <Gold.Chemscore.Lipo.Weighted>
-9.3942

> <Gold.Chemscore.Internal_Hbond.Weighted>
0.0000

> <Gold.Chemscore.DEClash.Weighted>
0.0691

> <Gold.Chemscore.DEInternal.Weighted>
1.1860

> <Gold.Chemscore.Rot.Weighted>
4.5666

> <Gold.Chemscore.Internal.Correction.Weighted>
   9.000000E+99

> <Gold.Protein.RotatedTorsions>
[ 6907 6896 6895 6894 ] final   66.33 input  -60.11 | X-H torsion
[ 7974 7965 7964 7962 ] final   18.36 input  175.53 | X-H torsion
[ 8008 7997 7996 7995 ] final   28.28 input   59.86 | X-H torsion
[ 10167 10162 10161 10158 ] final   33.70 input  -65.29 | X-H torsion
[ 10718 10713 10712 10709 ] final  147.66 input   66.30 | X-H torsion
[ 10763 10752 10751 10750 ] final  156.93 input  -60.55 | X-H torsion
[ 11005 11000 10999 10996 ] final  -67.50 input  -57.11 | X-H torsion

> <Gold.Protein.ActiveResidues>
 VAL166  LYS551  ARG553  GLY616  TRP617  ASP618  TYR619  PRO620  LYS621  CYS622 
 ASP623  PHE694  ASN695  SER759  ASP760  ASP761  ALA762  ILE779  LEU786  VAL792 
 PHE793  MET794  SER795  GLU796  ALA797  LYS798  CYS799  TRP800  GLU811  SER814 

> <Gold.Protein.RotatedAtoms>
  152.4473  134.5467  159.9854 H   0  0  0  0  0  0  0  0  0  0  0  0  # atno 6907 bound_to 6896
  151.5549  133.3406  159.2968 H   0  0  0  0  0  0  0  0  0  0  0  0  # atno 6908 bound_to 6896
  150.8393  134.7711  159.6982 H   0  0  0  0  0  0  0  0  0  0  0  0  # atno 6909 bound_to 6896
  146.2187  139.8469  142.8630 H   0  0  0  0  0  0  0  0  0  0  0  0  # atno 7974 bound_to 7965
  155.0561  140.3185  155.4676 H   0  0  0  0  0  0  0  0  0  0  0  0  # atno 8008 bound_to 7997
  156.2823  140.2137  156.5632 H   0  0  0  0  0  0  0  0  0  0  0  0  # atno 8009 bound_to 7997
  154.7170  140.0493  157.0591 H   0  0  0  0  0  0  0  0  0  0  0  0  # atno 8010 bound_to 7997
  140.4383  144.1225  150.6170 H   0  0  0  0  0  0  0  0  0  0  0  0  # atno 10167 bound_to 10162
  157.3182  131.0900  151.1261 H   0  0  0  0  0  0  0  0  0  0  0  0  # atno 10718 bound_to 10713
  154.1921  135.2794  155.3018 H   0  0  0  0  0  0  0  0  0  0  0  0  # atno 10763 bound_to 10752
  154.5920  135.5556  153.7291 H   0  0  0  0  0  0  0  0  0  0  0  0  # atno 10764 bound_to 10752
  153.0109  135.6370  154.2060 H   0  0  0  0  0  0  0  0  0  0  0  0  # atno 10765 bound_to 10752
  141.1509  133.6720  156.6302 H   0  0  0  0  0  0  0  0  0  0  0  0  # atno 11005 bound_to 11000
  145.2842  141.0148  143.3700 LP  0  0  0  0  0  0  0  0  0  0  0  0  # atno 17320 bound_to 7965
  144.9127  139.4509  143.6579 LP  0  0  0  0  0  0  0  0  0  0  0  0  # atno 17321 bound_to 7965
  140.4348  143.2552  151.9549 LP  0  0  0  0  0  0  0  0  0  0  0  0  # atno 17342 bound_to 10162
  139.4788  144.5710  151.8088 LP  0  0  0  0  0  0  0  0  0  0  0  0  # atno 17343 bound_to 10162
  157.2557  130.6635  149.5951 LP  0  0  0  0  0  0  0  0  0  0  0  0  # atno 17370 bound_to 10713
  155.9683  130.4524  150.5774 LP  0  0  0  0  0  0  0  0  0  0  0  0  # atno 17371 bound_to 10713
  140.3473  134.7799  157.4441 LP  0  0  0  0  0  0  0  0  0  0  0  0  # atno 17394 bound_to 11000
  140.0889  134.5628  155.8464 LP  0  0  0  0  0  0  0  0  0  0  0  0  # atno 17395 bound_to 11000

$$$$
