AV-unprocessed.smi:54|AV-procd|sdf|556|dock2
  -GOLD-   2262016453D 1   1.00000     0.00000
 Structure written by MMmdl.
 43 45  0  0  0  0  0  0  0  0  2 V2000
  146.5863  137.0103  162.5622 C   0  0  0  0  0  0  0  0  0  0  0  0
  146.7327  135.8285  161.5896 C   0  0  0  0  0  0  0  0  0  0  0  0
  147.1852  134.5549  162.3228 C   0  0  0  0  0  0  0  0  0  0  0  0
  147.7050  136.1775  160.4539 C   0  0  0  0  0  0  0  0  0  0  0  0
  148.2214  137.2967  160.4288 O   0  0  0  0  0  0  0  0  0  0  0  0
  147.9029  135.1985  159.5438 N   0  0  0  0  0  0  0  0  0  0  0  0
  148.6919  135.2159  158.3884 C   0  0  0  0  0  0  0  0  0  0  0  0
  148.5173  136.2942  157.6650 N   0  0  0  0  0  0  0  0  0  0  0  0
  149.2998  136.3079  156.5267 C   0  0  0  0  0  0  0  0  0  0  0  0
  150.1733  135.3433  156.1038 C   0  0  0  0  0  0  0  0  0  0  0  0
  150.7891  135.7012  154.9105 N   0  0  0  0  0  0  0  0  0  0  0  0
  150.2467  136.8923  154.6645 C   0  0  0  0  0  0  0  0  0  0  0  0
  149.3534  137.3245  155.5762 N   0  0  0  0  0  0  0  0  0  0  0  0
  148.6092  138.6209  155.5370 C   0  0  1  0  0  0  0  0  0  0  0  0
  148.8947  139.3204  156.7076 O   0  0  0  0  0  0  0  0  0  0  0  0
  149.0493  140.6995  156.4105 C   0  0  1  0  0  0  0  0  0  0  0  0
  149.8392  141.4069  157.5258 C   0  0  0  0  0  0  0  0  0  0  0  0
  150.3112  142.6597  157.0768 O   0  0  0  0  0  0  0  0  0  0  0  0
  149.6553  140.7215  154.9985 C   0  0  1  0  0  0  0  0  0  0  0  0
  151.0677  140.6471  155.0253 O   0  0  0  0  0  0  0  0  0  0  0  0
  149.0630  139.4778  154.3406 C   0  0  2  0  0  0  0  0  0  0  0  0
  147.9586  139.8480  153.5389 O   0  0  0  0  0  0  0  0  0  0  0  0
  150.3048  134.1375  156.9556 C   0  0  0  0  0  0  0  0  0  0  0  0
  151.0723  133.2416  156.6094 O   0  0  0  0  0  0  0  0  0  0  0  0
  149.5350  134.1286  158.0847 N   0  5  0  0  0  0  0  0  0  0  0  0
  147.5554  138.3398  155.5039 H   0  0  0  0  0  0  0  0  0  0  0  0
  148.0437  141.1214  156.3614 H   0  0  0  0  0  0  0  0  0  0  0  0
  149.3920  141.6393  154.4706 H   0  0  0  0  0  0  0  0  0  0  0  0
  149.7873  138.9452  153.7215 H   0  0  0  0  0  0  0  0  0  0  0  0
  146.2713  137.9154  162.0413 H   0  0  0  0  0  0  0  0  0  0  0  0
  147.5250  137.2292  163.0728 H   0  0  0  0  0  0  0  0  0  0  0  0
  145.8379  136.7960  163.3254 H   0  0  0  0  0  0  0  0  0  0  0  0
  145.7511  135.6316  161.1551 H   0  0  0  0  0  0  0  0  0  0  0  0
  147.2951  133.7183  161.6318 H   0  0  0  0  0  0  0  0  0  0  0  0
  146.4562  134.2614  163.0785 H   0  0  0  0  0  0  0  0  0  0  0  0
  148.1419  134.6994  162.8262 H   0  0  0  0  0  0  0  0  0  0  0  0
  147.3427  134.3712  159.6843 H   0  0  0  0  0  0  0  0  0  0  0  0
  150.5097  137.4719  153.7918 H   0  0  0  0  0  0  0  0  0  0  0  0
  149.1916  141.5742  158.3867 H   0  0  0  0  0  0  0  0  0  0  0  0
  150.6745  140.7989  157.8747 H   0  0  0  0  0  0  0  0  0  0  0  0
  149.5904  143.1279  156.6838 H   0  0  0  0  0  0  0  0  0  0  0  0
  151.3442  140.5482  155.9234 H   0  0  0  0  0  0  0  0  0  0  0  0
  148.2455  139.9015  152.6403 H   0  0  0  0  0  0  0  0  0  0  0  0
  1  2  1  0  0  0  0
  1 30  1  0  0  0  0
  1 31  1  0  0  0  0
  1 32  1  0  0  0  0
  2  3  1  0  0  0  0
  2  4  1  0  0  0  0
  2 33  1  0  0  0  0
  3 34  1  0  0  0  0
  3 35  1  0  0  0  0
  3 36  1  0  0  0  0
  4  5  2  0  0  0  0
  4  6  1  0  0  0  0
  6 37  1  0  0  0  0
  6  7  1  0  0  0  0
  7 25  1  0  0  0  0
  7  8  2  0  0  0  0
  8  9  1  0  0  0  0
  9 13  1  0  0  0  0
  9 10  2  0  0  0  0
 10 11  1  0  0  0  0
 10 23  1  0  0  0  0
 11 12  2  0  0  0  0
 12 13  1  0  0  0  0
 12 38  1  0  0  0  0
 13 14  1  0  0  0  0
 14 26  1  0  0  0  0
 14 21  1  0  0  0  0
 14 15  1  0  0  0  0
 15 16  1  0  0  0  0
 16 27  1  0  0  0  0
 16 17  1  0  0  0  0
 16 19  1  0  0  0  0
 17 18  1  0  0  0  0
 17 39  1  0  0  0  0
 17 40  1  0  0  0  0
 18 41  1  0  0  0  0
 19 28  1  0  0  0  0
 19 20  1  0  0  0  0
 19 21  1  0  0  0  0
 20 42  1  0  0  0  0
 21 29  1  0  0  0  0
 21 22  1  0  0  0  0
 22 43  1  0  0  0  0
 23 24  2  0  0  0  0
 23 25  1  0  0  0  0
M  CHG  1  25  -1
M  END
> <s_m_source_file>
AV-unprocessed.smi

> <i_m_source_file_index>
54

> <i_lp_mmshare_version>
43012

> <i_f3d_flags>
0

> <s_epik_input>
W0NIM11bQ0hdKFtDSDNdKUMoPU8pW05IXWMobjEpW25IXWMoPU8pYyhjMTIpbltjSF1uMltDQEBIXTNPW0NASF0oW0NIMl1bT0hdKVtDQEBIXShbT0hdKVtDQEhdM1tPSF0=

> <s_epik_cmdline>
J2VwaWtfcHl0aG9uJywgJy1waCcsICc3LjAnLCAnLXRuJywgJzgnLCAnLW1hJywgJzIwMCcsICctbWV0YWxfYmluZGluZycsICctaW1hZScsICc8aW5maWxlLm1hZT4nLCAnLW9tYWUnLCAnPG91dGZpbGUubWFlPic=

> <r_lp_tautomer_probability>
0.85571

> <r_epik_Ionization_Penalty>
1.75936

> <r_epik_Ionization_Penalty_Charging>
4.55893e-11

> <r_epik_Ionization_Penalty_Neutral>
1.75936

> <r_epik_State_Penalty>
1.72072

> <r_epik_Charging_Adjusted_Penalty>
1.72072

> <i_epik_Tot_Q>
-1

> <i_epik_Tot_abs_Q>
1

> <r_epik_Metal_State_Penalty>
0.400338

> <b_epik_Metal_Only>
1

> <s_epik_Chemistry_Notes>
This compound contains an acetal/aminal-like group ( X-CH(R)-Y where X, Y are N, S, or O) that may be acid/base labile, releasing an aldehyde.

> <s_lp_Force_Field>
OPLS_2005

> <r_lp_Energy>
57.3422

> <b_lp_Chiralities_Consistent>
1

> <s_lp_Variant>
AV-unprocessed.smi:54-28

> <Gold.Version>
5.8.1

> <Gold.Id.Protein>
6NUR|6NUR_protein|mol2

> <Gold.PLP.Fitness>
51.6757

> <Gold.PLP.PLP>
-30.0418

> <Gold.PLP.part.hbond>
-6.8399

> <Gold.PLP.part.metal>
0.0000

> <Gold.PLP.part.buried>
-1.1636

> <Gold.PLP.part.nonpolar>
-22.4454

> <Gold.PLP.part.repulsive>
0.2208

> <Gold.PLP.ligand.clash>
0.0000

> <Gold.PLP.ligand.torsion>
0.5501

> <Gold.PLP.Chemscore.Hbond>
7.1593

> <Gold.PLP.Chemscore.CHOScore>
0.4075

> <Gold.PLP.Chemscore.Metal>
0.0000

> <Gold.Chemscore.Hbonds>
donor molecule, donor type, donor heavy atom, donor atom, acceptor molecule, acceptor atom, score
      L1  H    18    41       P1  8028  1.00
      L1  H    22    43       P1  7957  1.00
      P1  H  6896  6908       L1    25  2.00
      P1  H  6931  6943       L1     5  0.69
      P1  H  6934  6947       L1     5  0.57
      P1  H  7989  7998       L1    20  0.91
      P1  H 10752 10765       L1    11  0.65
      L1  C    12    38       P1  7948  0.18
      L1  C    12    38       P1  7949  0.13

> <Gold.PLP.Chemscore.Internal.Correction>
0.0338

> <Gold.Rescore>
     Score         DG    S(hbond)    S(metal)    S(lipo)     H(rot)  DE(clash)    DE(int)     intcor
     15.41     -17.89       5.03        0.00      50.54       4.02       0.70       1.78       ----

> <Gold.Chemscore.Fitness>
15.4076

> <Gold.Chemscore.DG>
-17.8923

> <Gold.Chemscore.ZeroCoef>
-5.4800

> <Gold.Chemscore.Hbond>
5.0264

> <Gold.Chemscore.Metal>
0.0000

> <Gold.Chemscore.Lipo>
50.5412

> <Gold.Chemscore.Internal_Hbond>
0.0000

> <Gold.Chemscore.DEClash>
0.7034

> <Gold.Chemscore.DEInternal>
1.7814

> <Gold.Chemscore.Rot>
4.0192

> <Gold.Chemscore.Internal.Correction>
   9.000000E+99

> <Gold.Chemscore.Hbonds>
donor molecule, donor type, donor heavy atom, donor atom, acceptor molecule, acceptor atom, score
      L1  H    18    41       P1  8028  0.89
      L1  H    22    43       P1  7957  0.94
      P1  H  6896  6908       L1    25  0.21
      P1  H  6931  6943       L1     5  0.68
      P1  H  6934  6947       L1     5  0.55
      P1  H  7989  7998       L1    20  0.62
      P1  H 10752 10765       L1    11  0.59

> <Gold.Chemscore.Hbond.Weighted>
-16.7883

> <Gold.Chemscore.Metal.Weighted>
-0.0000

> <Gold.Chemscore.Lipo.Weighted>
-5.9133

> <Gold.Chemscore.Internal_Hbond.Weighted>
0.0000

> <Gold.Chemscore.DEClash.Weighted>
0.7034

> <Gold.Chemscore.DEInternal.Weighted>
1.7814

> <Gold.Chemscore.Rot.Weighted>
10.2893

> <Gold.Chemscore.Internal.Correction.Weighted>
   9.000000E+99

> <Gold.Protein.RotatedTorsions>
[ 6907 6896 6895 6894 ] final  125.14 input  -60.11 | X-H torsion
[ 7974 7965 7964 7962 ] final   41.27 input  175.53 | X-H torsion
[ 8008 7997 7996 7995 ] final  165.95 input   59.86 | X-H torsion
[ 10167 10162 10161 10158 ] final  -84.77 input  -65.29 | X-H torsion
[ 10718 10713 10712 10709 ] final   26.81 input   66.30 | X-H torsion
[ 10763 10752 10751 10750 ] final -177.56 input  -60.55 | X-H torsion
[ 11005 11000 10999 10996 ] final   47.06 input  -57.11 | X-H torsion

> <Gold.Protein.ActiveResidues>
 VAL166  LYS551  ARG553  GLY616  TRP617  ASP618  TYR619  PRO620  LYS621  CYS622 
 ASP623  PHE694  ASN695  SER759  ASP760  ASP761  ALA762  ILE779  LEU786  VAL792 
 PHE793  MET794  SER795  GLU796  ALA797  LYS798  CYS799  TRP800  GLU811  SER814 

> <Gold.Protein.RotatedAtoms>
  152.4018  133.6829  159.6322 H   0  0  0  0  0  0  0  0  0  0  0  0  # atno 6907 bound_to 6896
  150.7908  133.8778  159.3286 H   0  0  0  0  0  0  0  0  0  0  0  0  # atno 6908 bound_to 6896
  151.6542  135.0999  160.0218 H   0  0  0  0  0  0  0  0  0  0  0  0  # atno 6909 bound_to 6896
  146.0837  139.5435  142.9520 H   0  0  0  0  0  0  0  0  0  0  0  0  # atno 7974 bound_to 7965
  156.1759  140.1656  156.8364 H   0  0  0  0  0  0  0  0  0  0  0  0  # atno 8008 bound_to 7997
  154.5306  140.0757  156.8372 H   0  0  0  0  0  0  0  0  0  0  0  0  # atno 8009 bound_to 7997
  155.3415  140.3385  155.4241 H   0  0  0  0  0  0  0  0  0  0  0  0  # atno 8010 bound_to 7997
  140.4101  143.2626  151.9028 H   0  0  0  0  0  0  0  0  0  0  0  0  # atno 10167 bound_to 10162
  157.2118  130.6938  149.6232 H   0  0  0  0  0  0  0  0  0  0  0  0  # atno 10718 bound_to 10713
  154.5586  135.2818  155.0940 H   0  0  0  0  0  0  0  0  0  0  0  0  # atno 10763 bound_to 10752
  154.2358  135.6366  153.5194 H   0  0  0  0  0  0  0  0  0  0  0  0  # atno 10764 bound_to 10752
  153.0023  135.5548  154.6174 H   0  0  0  0  0  0  0  0  0  0  0  0  # atno 10765 bound_to 10752
  140.1313  134.4702  155.8519 H   0  0  0  0  0  0  0  0  0  0  0  0  # atno 11005 bound_to 11000
  145.6170  141.0329  143.1935 LP  0  0  0  0  0  0  0  0  0  0  0  0  # atno 17320 bound_to 7965
  144.7311  139.7724  143.7347 LP  0  0  0  0  0  0  0  0  0  0  0  0  # atno 17321 bound_to 7965
  139.4783  144.5545  151.8334 LP  0  0  0  0  0  0  0  0  0  0  0  0  # atno 17342 bound_to 10162
  140.4647  144.1673  150.5910 LP  0  0  0  0  0  0  0  0  0  0  0  0  # atno 17343 bound_to 10162
  155.9690  130.4548  150.5865 LP  0  0  0  0  0  0  0  0  0  0  0  0  # atno 17370 bound_to 10713
  157.3664  131.0758  151.1594 LP  0  0  0  0  0  0  0  0  0  0  0  0  # atno 17371 bound_to 10713
  141.2170  133.6797  156.7074 LP  0  0  0  0  0  0  0  0  0  0  0  0  # atno 17394 bound_to 11000
  140.2839  134.8295  157.3957 LP  0  0  0  0  0  0  0  0  0  0  0  0  # atno 17395 bound_to 11000

$$$$
