AV-unprocessed.smi:256|AV-procd|sdf|1959|dock8
  -GOLD-   2262021103D 1   1.00000     0.00000
 Structure written by MMmdl.
 62 65  0  0  0  0  0  0  0  0  2 V2000
  147.6536  129.2425  155.9226 C   0  0  0  0  0  0  0  0  0  0  0  0
  147.1765  130.3537  154.9770 C   0  0  0  0  0  0  0  0  0  0  0  0
  148.0180  130.4864  153.6794 C   0  0  2  0  0  0  0  0  0  0  0  0
  149.4444  131.0335  153.9266 C   0  0  0  0  0  0  0  0  0  0  0  0
  149.4191  132.4638  154.2321 N   0  0  0  0  0  0  0  0  0  0  0  0
  149.4355  132.8475  155.5392 C   0  0  0  0  0  0  0  0  0  0  0  0
  149.4449  131.8615  156.4743 N   0  0  0  0  0  0  0  0  0  0  0  0
  149.4546  132.1527  157.7772 C   0  0  0  0  0  0  0  0  0  0  0  0
  149.4561  133.3498  158.3612 N   0  0  0  0  0  0  0  0  0  0  0  0
  149.4462  134.3505  157.4363 C   0  0  0  0  0  0  0  0  0  0  0  0
  149.4411  134.1946  156.0188 C   0  0  0  0  0  0  0  0  0  0  0  0
  149.4262  135.4514  155.4208 N   0  0  0  0  0  0  0  0  0  0  0  0
  149.4351  136.2919  156.4178 C   0  0  0  0  0  0  0  0  0  0  0  0
  149.4333  135.7150  157.6657 N   0  0  0  0  0  0  0  0  0  0  0  0
  149.4304  136.4046  158.9471 C   0  0  0  0  0  0  0  0  0  0  0  0
  148.1998  136.0861  159.8325 C   0  0  0  0  0  0  0  0  0  0  0  0
  148.1565  137.0391  160.8806 O   0  0  0  0  0  0  0  0  0  0  0  0
  146.9024  136.2112  159.0089 C   0  0  0  0  0  0  0  0  0  0  0  0
  145.6676  135.7366  159.7952 C   0  0  0  0  0  0  0  0  0  0  0  0
  145.8640  134.4023  160.2467 O   0  0  0  0  0  0  0  0  0  0  0  0
  146.9529  134.2840  161.1542 C   0  0  0  0  0  0  0  0  0  0  0  0
  148.2690  134.6762  160.4591 C   0  0  0  0  0  0  0  0  0  0  0  0
  148.7718  133.2746  153.2080 C   0  0  0  0  0  0  0  0  0  0  0  0
  147.3477  132.7644  152.9200 C   0  0  0  0  0  0  0  0  0  0  0  0
  147.3476  131.3076  152.6201 N   0  3  2  0  0  0  0  0  0  0  0  0
  146.0169  130.8310  152.1530 C   0  0  0  0  0  0  0  0  0  0  0  0
  145.9873  129.3292  151.8059 C   0  0  0  0  0  0  0  0  0  0  0  0
  147.2866  128.8141  151.5447 O   0  0  0  0  0  0  0  0  0  0  0  0
  147.3080  127.4507  151.1509 C   0  0  0  0  0  0  0  0  0  0  0  0
  146.9674  129.1331  156.7627 H   0  0  0  0  0  0  0  0  0  0  0  0
  148.6376  129.4570  156.3387 H   0  0  0  0  0  0  0  0  0  0  0  0
  147.7046  128.2815  155.4102 H   0  0  0  0  0  0  0  0  0  0  0  0
  146.1415  130.1274  154.7256 H   0  0  0  0  0  0  0  0  0  0  0  0
  147.1528  131.2976  155.5210 H   0  0  0  0  0  0  0  0  0  0  0  0
  148.1534  129.4823  153.2789 H   0  0  0  0  0  0  0  0  0  0  0  0
  149.9639  130.4456  154.6817 H   0  0  0  0  0  0  0  0  0  0  0  0
  150.0337  130.9079  153.0173 H   0  0  0  0  0  0  0  0  0  0  0  0
  149.4602  131.3055  158.4471 H   0  0  0  0  0  0  0  0  0  0  0  0
  149.4314  137.3621  156.2699 H   0  0  0  0  0  0  0  0  0  0  0  0
  150.3511  136.1500  159.4742 H   0  0  0  0  0  0  0  0  0  0  0  0
  149.4821  137.4764  158.7514 H   0  0  0  0  0  0  0  0  0  0  0  0
  147.5794  136.7176  161.5562 H   0  0  0  0  0  0  0  0  0  0  0  0
  146.7597  137.2394  158.6734 H   0  0  0  0  0  0  0  0  0  0  0  0
  146.9885  135.6056  158.1056 H   0  0  0  0  0  0  0  0  0  0  0  0
  145.4623  136.3939  160.6414 H   0  0  0  0  0  0  0  0  0  0  0  0
  144.7859  135.7643  159.1549 H   0  0  0  0  0  0  0  0  0  0  0  0
  146.7754  134.9010  162.0362 H   0  0  0  0  0  0  0  0  0  0  0  0
  147.0092  133.2514  161.4992 H   0  0  0  0  0  0  0  0  0  0  0  0
  148.4780  133.9460  159.6763 H   0  0  0  0  0  0  0  0  0  0  0  0
  149.0911  134.6056  161.1720 H   0  0  0  0  0  0  0  0  0  0  0  0
  148.7768  134.3335  153.4625 H   0  0  0  0  0  0  0  0  0  0  0  0
  149.3694  133.1933  152.2994 H   0  0  0  0  0  0  0  0  0  0  0  0
  146.6869  132.9601  153.7643 H   0  0  0  0  0  0  0  0  0  0  0  0
  146.9392  133.3159  152.0724 H   0  0  0  0  0  0  0  0  0  0  0  0
  145.2514  131.0602  152.8940 H   0  0  0  0  0  0  0  0  0  0  0  0
  145.7357  131.4017  151.2680 H   0  0  0  0  0  0  0  0  0  0  0  0
  145.5539  128.7616  152.6290 H   0  0  0  0  0  0  0  0  0  0  0  0
  145.3322  129.1505  150.9522 H   0  0  0  0  0  0  0  0  0  0  0  0
  148.3413  127.1246  151.0331 H   0  0  0  0  0  0  0  0  0  0  0  0
  146.8041  127.2956  150.1971 H   0  0  0  0  0  0  0  0  0  0  0  0
  146.8413  126.8133  151.9031 H   0  0  0  0  0  0  0  0  0  0  0  0
  147.9485  131.2149  151.8135 H   0  0  0  0  0  0  0  0  0  0  0  0
  1  2  1  0  0  0  0
  1 30  1  0  0  0  0
  1 31  1  0  0  0  0
  1 32  1  0  0  0  0
  2  3  1  0  0  0  0
  2 33  1  0  0  0  0
  2 34  1  0  0  0  0
  3 25  1  0  0  0  0
  3  4  1  0  0  0  0
  3 35  1  0  0  0  0
  4  5  1  0  0  0  0
  4 36  1  0  0  0  0
  4 37  1  0  0  0  0
  5  6  1  0  0  0  0
  5 23  1  0  0  0  0
  6 11  1  0  0  0  0
  6  7  2  0  0  0  0
  7  8  1  0  0  0  0
  8  9  2  0  0  0  0
  8 38  1  0  0  0  0
  9 10  1  0  0  0  0
 10 14  1  0  0  0  0
 10 11  2  0  0  0  0
 11 12  1  0  0  0  0
 12 13  2  0  0  0  0
 13 14  1  0  0  0  0
 13 39  1  0  0  0  0
 14 15  1  0  0  0  0
 15 16  1  0  0  0  0
 15 40  1  0  0  0  0
 15 41  1  0  0  0  0
 16 22  1  0  0  0  0
 16 17  1  0  0  0  0
 16 18  1  0  0  0  0
 17 42  1  0  0  0  0
 18 19  1  0  0  0  0
 18 43  1  0  0  0  0
 18 44  1  0  0  0  0
 19 20  1  0  0  0  0
 19 45  1  0  0  0  0
 19 46  1  0  0  0  0
 20 21  1  0  0  0  0
 21 22  1  0  0  0  0
 21 47  1  0  0  0  0
 21 48  1  0  0  0  0
 22 49  1  0  0  0  0
 22 50  1  0  0  0  0
 23 24  1  0  0  0  0
 23 51  1  0  0  0  0
 23 52  1  0  0  0  0
 24 25  1  0  0  0  0
 24 53  1  0  0  0  0
 24 54  1  0  0  0  0
 25 26  1  0  0  0  0
 25 62  1  0  0  0  0
 26 27  1  0  0  0  0
 26 55  1  0  0  0  0
 26 56  1  0  0  0  0
 27 28  1  0  0  0  0
 27 57  1  0  0  0  0
 27 58  1  0  0  0  0
 28 29  1  0  0  0  0
 29 59  1  0  0  0  0
 29 60  1  0  0  0  0
 29 61  1  0  0  0  0
M  CHG  1  25   1
M  END
> <s_m_source_file>
AV-unprocessed.smi

> <i_m_source_file_index>
256

> <i_lp_mmshare_version>
43012

> <i_f3d_flags>
0

> <s_epik_input>
W0NIM11PW0NIMl1bQ0gyXU4xW0NIMl1bQ0gyXU4oW0NIMl1bQ0BIXTFbQ0gyXVtDSDNdKWMobltjSF1uMiljKGMyMyluW2NIXW4zW0NIMl1DNChbT0hdKVtDSDJdW0NIMl1PW0NIMl1bQ0gyXTQ=

> <s_epik_cmdline>
J2VwaWtfcHl0aG9uJywgJy1waCcsICc3LjAnLCAnLXRuJywgJzgnLCAnLW1hJywgJzIwMCcsICctbWV0YWxfYmluZGluZycsICctaW1hZScsICc8aW5maWxlLm1hZT4nLCAnLW9tYWUnLCAnPG91dGZpbGUubWFlPic=

> <r_lp_tautomer_probability>
1

> <r_epik_Ionization_Penalty>
0.233023

> <r_epik_Ionization_Penalty_Charging>
0.23295

> <r_epik_Ionization_Penalty_Neutral>
7.2493e-05

> <r_epik_State_Penalty>
0.223667

> <r_epik_Charging_Adjusted_Penalty>
0.456618

> <i_epik_Tot_Q>
1

> <i_epik_Tot_abs_Q>
1

> <r_epik_Metal_State_Penalty>
0.226879

> <b_epik_Metal_Only>
0

> <s_lp_Force_Field>
OPLS_2005

> <r_lp_Energy>
46.9359

> <b_lp_Chiralities_Consistent>
1

> <s_lp_Variant>
AV-unprocessed.smi:256-3

> <Gold.Version>
5.8.1

> <Gold.Id.Protein>
6NUR|6NUR_protein|mol2

> <Gold.PLP.Fitness>
47.7546

> <Gold.PLP.PLP>
-37.4800

> <Gold.PLP.part.hbond>
-4.0000

> <Gold.PLP.part.metal>
0.0000

> <Gold.PLP.part.buried>
-5.5320

> <Gold.PLP.part.nonpolar>
-28.9582

> <Gold.PLP.part.repulsive>
1.5691

> <Gold.PLP.ligand.clash>
0.0000

> <Gold.PLP.ligand.torsion>
0.7139

> <Gold.PLP.Chemscore.Hbond>
3.7527

> <Gold.PLP.Chemscore.CHOScore>
0.0000

> <Gold.PLP.Chemscore.Metal>
0.0000

> <Gold.Chemscore.Hbonds>
donor molecule, donor type, donor heavy atom, donor atom, acceptor molecule, acceptor atom, score
      L1  H    25    62       P1 10747  1.00
      P1  H  6896  6909       L1     9  1.00
      P1  H  6931  6943       L1    17  0.83
      P1  H  6934  6947       L1    17  0.24

> <Gold.PLP.Chemscore.Internal.Correction>
0.4442

> <Gold.Rescore>
     Score         DG    S(hbond)    S(metal)    S(lipo)     H(rot)  DE(clash)    DE(int)     intcor
     11.87     -15.61       2.20        0.00      81.65       2.65       0.09       3.65       ----

> <Gold.Chemscore.Fitness>
11.8685

> <Gold.Chemscore.DG>
-15.6098

> <Gold.Chemscore.ZeroCoef>
-5.4800

> <Gold.Chemscore.Hbond>
2.2008

> <Gold.Chemscore.Metal>
0.0000

> <Gold.Chemscore.Lipo>
81.6517

> <Gold.Chemscore.Internal_Hbond>
0.0000

> <Gold.Chemscore.DEClash>
0.0905

> <Gold.Chemscore.DEInternal>
3.6508

> <Gold.Chemscore.Rot>
2.6462

> <Gold.Chemscore.Internal.Correction>
   9.000000E+99

> <Gold.Chemscore.Hbonds>
donor molecule, donor type, donor heavy atom, donor atom, acceptor molecule, acceptor atom, score
      L1  H    25    62       P1 10747  1.00
      P1  H  6896  6909       L1     9  0.25
      P1  H  6931  6943       L1    17  0.14
      P1  H  6934  6947       L1    17  0.02

> <Gold.Chemscore.Hbond.Weighted>
-7.3507

> <Gold.Chemscore.Metal.Weighted>
-0.0000

> <Gold.Chemscore.Lipo.Weighted>
-9.5533

> <Gold.Chemscore.Internal_Hbond.Weighted>
0.0000

> <Gold.Chemscore.DEClash.Weighted>
0.0905

> <Gold.Chemscore.DEInternal.Weighted>
3.6508

> <Gold.Chemscore.Rot.Weighted>
6.7742

> <Gold.Chemscore.Internal.Correction.Weighted>
   9.000000E+99

> <Gold.Protein.RotatedTorsions>
[ 6907 6896 6895 6894 ] final    1.17 input  -60.11 | X-H torsion
[ 7974 7965 7964 7962 ] final   -1.94 input  175.53 | X-H torsion
[ 8008 7997 7996 7995 ] final  -97.92 input   59.86 | X-H torsion
[ 10167 10162 10161 10158 ] final  127.03 input  -65.29 | X-H torsion
[ 10718 10713 10712 10709 ] final  157.14 input   66.30 | X-H torsion
[ 10763 10752 10751 10750 ] final  154.51 input  -60.55 | X-H torsion
[ 11005 11000 10999 10996 ] final   43.74 input  -57.11 | X-H torsion

> <Gold.Protein.ActiveResidues>
 VAL166  LYS551  ARG553  GLY616  TRP617  ASP618  TYR619  PRO620  LYS621  CYS622 
 ASP623  PHE694  ASN695  SER759  ASP760  ASP761  ALA762  ILE779  LEU786  VAL792 
 PHE793  MET794  SER795  GLU796  ALA797  LYS798  CYS799  TRP800  GLU811  SER814 

> <Gold.Protein.RotatedAtoms>
  151.5883  135.1055  160.0032 H   0  0  0  0  0  0  0  0  0  0  0  0  # atno 6907 bound_to 6896
  152.4319  133.7289  159.6586 H   0  0  0  0  0  0  0  0  0  0  0  0  # atno 6908 bound_to 6896
  150.8213  133.8178  159.3161 H   0  0  0  0  0  0  0  0  0  0  0  0  # atno 6909 bound_to 6896
  146.2411  140.1496  142.8334 H   0  0  0  0  0  0  0  0  0  0  0  0  # atno 7974 bound_to 7965
  154.7942  140.0459  157.1224 H   0  0  0  0  0  0  0  0  0  0  0  0  # atno 8008 bound_to 7997
  154.9555  140.3070  155.5035 H   0  0  0  0  0  0  0  0  0  0  0  0  # atno 8009 bound_to 7997
  156.2954  140.2280  156.4636 H   0  0  0  0  0  0  0  0  0  0  0  0  # atno 8010 bound_to 7997
  139.5599  144.6875  151.4072 H   0  0  0  0  0  0  0  0  0  0  0  0  # atno 10167 bound_to 10162
  157.1955  131.0664  151.2055 H   0  0  0  0  0  0  0  0  0  0  0  0  # atno 10718 bound_to 10713
  154.1535  135.2814  155.3129 H   0  0  0  0  0  0  0  0  0  0  0  0  # atno 10763 bound_to 10752
  154.6200  135.5470  153.7568 H   0  0  0  0  0  0  0  0  0  0  0  0  # atno 10764 bound_to 10752
  153.0214  135.6436  154.1678 H   0  0  0  0  0  0  0  0  0  0  0  0  # atno 10765 bound_to 10752
  140.1617  134.4333  155.8313 H   0  0  0  0  0  0  0  0  0  0  0  0  # atno 11005 bound_to 11000
  145.0178  140.8768  143.5185 LP  0  0  0  0  0  0  0  0  0  0  0  0  # atno 17320 bound_to 7965
  145.1540  139.2497  143.5426 LP  0  0  0  0  0  0  0  0  0  0  0  0  # atno 17321 bound_to 7965
  140.6878  143.7933  150.7211 LP  0  0  0  0  0  0  0  0  0  0  0  0  # atno 17342 bound_to 10162
  140.1406  143.4444  152.2196 LP  0  0  0  0  0  0  0  0  0  0  0  0  # atno 17343 bound_to 10162
  157.3819  130.7235  149.6636 LP  0  0  0  0  0  0  0  0  0  0  0  0  # atno 17370 bound_to 10713
  155.9706  130.4170  150.4259 LP  0  0  0  0  0  0  0  0  0  0  0  0  # atno 17371 bound_to 10713
  141.2210  133.6916  156.7605 LP  0  0  0  0  0  0  0  0  0  0  0  0  # atno 17394 bound_to 11000
  140.2482  134.8561  157.3641 LP  0  0  0  0  0  0  0  0  0  0  0  0  # atno 17395 bound_to 11000

$$$$
