AV-unprocessed.smi:1955|AV-procd|sdf|7898|dock2
  -GOLD-   2272010 53D 1   1.00000     0.00000
 Structure written by MMmdl.
 34 35  0  0  0  0  0  0  0  0  1 V2000
  150.0093  140.5130  156.9604 O   0  0  0  0  0  0  0  0  0  0  0  0
  149.8549  141.6231  156.4502 C   0  0  0  0  0  0  0  0  0  0  0  0
  150.4302  142.7621  156.8743 N   0  0  0  0  0  0  0  0  0  0  0  0
  151.3197  142.9428  157.9668 C   0  0  0  0  0  0  0  0  0  0  0  0
  151.3677  144.2554  158.4882 C   0  0  0  0  0  0  0  0  0  0  0  0
  152.2197  144.5395  159.5731 C   0  0  0  0  0  0  0  0  0  0  0  0
  153.0030  143.5019  160.1094 C   0  0  0  0  0  0  0  0  0  0  0  0
  152.8961  142.2235  159.5314 C   0  0  0  0  0  0  0  0  0  0  0  0
  152.0803  141.9493  158.4916 N   0  0  0  0  0  0  0  0  0  0  0  0
  149.0731  141.8429  155.3817 N   0  0  0  0  0  0  0  0  0  0  0  0
  148.2746  140.8271  154.6933 C   0  0  2  0  0  0  0  0  0  0  0  0
  147.2978  140.2036  155.7218 C   0  0  0  0  0  0  0  0  0  0  0  0
  146.6347  138.8686  155.3138 C   0  0  0  0  0  0  0  0  0  0  0  0
  146.1268  138.8085  153.8589 C   0  0  0  0  0  0  0  0  0  0  0  0
  147.1922  138.9619  152.7416 C   0  0  0  0  0  0  0  0  0  0  0  0
  148.5811  138.8867  153.1960 N   0  0  0  0  0  0  0  0  0  0  0  0
  149.1592  139.7207  154.0770 C   0  0  0  0  0  0  0  0  0  0  0  0
  150.3386  139.5917  154.4042 O   0  0  0  0  0  0  0  0  0  0  0  0
  150.2046  143.5982  156.3563 H   0  0  0  0  0  0  0  0  0  0  0  0
  150.7588  145.0407  158.0642 H   0  0  0  0  0  0  0  0  0  0  0  0
  152.2703  145.5362  159.9857 H   0  0  0  0  0  0  0  0  0  0  0  0
  153.6681  143.6802  160.9412 H   0  0  0  0  0  0  0  0  0  0  0  0
  153.4806  141.3995  159.9130 H   0  0  0  0  0  0  0  0  0  0  0  0
  149.0005  142.7870  155.0324 H   0  0  0  0  0  0  0  0  0  0  0  0
  147.7033  141.3182  153.9042 H   0  0  0  0  0  0  0  0  0  0  0  0
  147.8085  140.0457  156.6731 H   0  0  0  0  0  0  0  0  0  0  0  0
  146.5138  140.9333  155.9284 H   0  0  0  0  0  0  0  0  0  0  0  0
  147.3310  138.0461  155.4839 H   0  0  0  0  0  0  0  0  0  0  0  0
  145.8008  138.6753  155.9892 H   0  0  0  0  0  0  0  0  0  0  0  0
  145.6275  137.8484  153.7223 H   0  0  0  0  0  0  0  0  0  0  0  0
  145.3495  139.5598  153.7158 H   0  0  0  0  0  0  0  0  0  0  0  0
  147.0418  138.1886  151.9879 H   0  0  0  0  0  0  0  0  0  0  0  0
  147.0480  139.9075  152.2170 H   0  0  0  0  0  0  0  0  0  0  0  0
  149.1513  138.1533  152.8000 H   0  0  0  0  0  0  0  0  0  0  0  0
  1  2  2  0  0  0  0
  2  3  1  0  0  0  0
  2 10  1  0  0  0  0
  3  4  1  0  0  0  0
  3 19  1  0  0  0  0
  4  9  1  0  0  0  0
  4  5  2  0  0  0  0
  5  6  1  0  0  0  0
  5 20  1  0  0  0  0
  6  7  2  0  0  0  0
  6 21  1  0  0  0  0
  7  8  1  0  0  0  0
  7 22  1  0  0  0  0
  8  9  2  0  0  0  0
  8 23  1  0  0  0  0
 10 11  1  0  0  0  0
 10 24  1  0  0  0  0
 11 17  1  0  0  0  0
 11 12  1  0  0  0  0
 11 25  1  0  0  0  0
 12 13  1  0  0  0  0
 12 26  1  0  0  0  0
 12 27  1  0  0  0  0
 13 14  1  0  0  0  0
 13 28  1  0  0  0  0
 13 29  1  0  0  0  0
 14 15  1  0  0  0  0
 14 30  1  0  0  0  0
 14 31  1  0  0  0  0
 15 16  1  0  0  0  0
 15 32  1  0  0  0  0
 15 33  1  0  0  0  0
 16 17  1  0  0  0  0
 16 34  1  0  0  0  0
 17 18  2  0  0  0  0
M  END
> <s_m_source_file>
AV-unprocessed.smi

> <i_m_source_file_index>
1955

> <i_lp_mmshare_version>
43012

> <i_f3d_flags>
0

> <s_epik_input>
bjFbY0hdW2NIXVtjSF1bY0hdYzFbTkhdQyg9TylbTkhdW0NAQEhdMltDSDJdW0NIMl1bQ0gyXVtDSDJdW05IXUMyPU8=

> <s_epik_cmdline>
J2VwaWtfcHl0aG9uJywgJy1waCcsICc3LjAnLCAnLXRuJywgJzgnLCAnLW1hJywgJzIwMCcsICctbWV0YWxfYmluZGluZycsICctaW1hZScsICc8aW5maWxlLm1hZT4nLCAnLW9tYWUnLCAnPG91dGZpbGUubWFlPic=

> <r_lp_tautomer_probability>
1

> <r_epik_Ionization_Penalty>
4.19487e-05

> <r_epik_Ionization_Penalty_Charging>
0

> <r_epik_Ionization_Penalty_Neutral>
4.19487e-05

> <r_epik_State_Penalty>
-0

> <r_epik_Charging_Adjusted_Penalty>
0

> <i_epik_Tot_Q>
0

> <i_epik_Tot_abs_Q>
0

> <r_epik_Metal_State_Penalty>
-0

> <b_epik_Metal_Only>
0

> <s_lp_Force_Field>
OPLS_2005

> <r_lp_Energy>
16.6797

> <b_lp_Chiralities_Consistent>
1

> <s_lp_Variant>
AV-unprocessed.smi:1955-1

> <Gold.Version>
5.8.1

> <Gold.Id.Protein>
6NUR|6NUR_protein|mol2

> <Gold.PLP.Fitness>
42.9828

> <Gold.PLP.PLP>
-32.5769

> <Gold.PLP.part.hbond>
-5.0000

> <Gold.PLP.part.metal>
0.0000

> <Gold.PLP.part.buried>
-3.5377

> <Gold.PLP.part.nonpolar>
-25.4887

> <Gold.PLP.part.repulsive>
0.4137

> <Gold.PLP.ligand.clash>
0.0000

> <Gold.PLP.ligand.torsion>
0.1182

> <Gold.PLP.Chemscore.Hbond>
3.5472

> <Gold.PLP.Chemscore.CHOScore>
0.0000

> <Gold.PLP.Chemscore.Metal>
0.0000

> <Gold.Chemscore.Hbonds>
donor molecule, donor type, donor heavy atom, donor atom, acceptor molecule, acceptor atom, score
      L1  H     3    19       P1  8028  0.98
      L1  H    10    24       P1  8028  0.85
      L1  H    16    34       P1  7948  0.66
      P1  H  7989  7998       L1    18  1.00

> <Gold.PLP.Chemscore.Internal.Correction>
0.0007

> <Gold.Rescore>
     Score         DG    S(hbond)    S(metal)    S(lipo)     H(rot)  DE(clash)    DE(int)     intcor
     16.84     -21.97       3.39        0.00      66.13       1.00       0.14       4.99       ----

> <Gold.Chemscore.Fitness>
16.8359

> <Gold.Chemscore.DG>
-21.9694

> <Gold.Chemscore.ZeroCoef>
-5.4800

> <Gold.Chemscore.Hbond>
3.3868

> <Gold.Chemscore.Metal>
0.0000

> <Gold.Chemscore.Lipo>
66.1335

> <Gold.Chemscore.Internal_Hbond>
0.0000

> <Gold.Chemscore.DEClash>
0.1403

> <Gold.Chemscore.DEInternal>
4.9932

> <Gold.Chemscore.Rot>
1.0000

> <Gold.Chemscore.Internal.Correction>
   9.000000E+99

> <Gold.Chemscore.Hbonds>
donor molecule, donor type, donor heavy atom, donor atom, acceptor molecule, acceptor atom, score
      L1  H     3    19       P1  8028  0.93
      L1  H    10    24       P1  8028  0.79
      L1  H    16    34       P1  7948  0.64
      P1  H  7989  7998       L1    18  0.85

> <Gold.Chemscore.Hbond.Weighted>
-11.3118

> <Gold.Chemscore.Metal.Weighted>
-0.0000

> <Gold.Chemscore.Lipo.Weighted>
-7.7376

> <Gold.Chemscore.Internal_Hbond.Weighted>
0.0000

> <Gold.Chemscore.DEClash.Weighted>
0.1403

> <Gold.Chemscore.DEInternal.Weighted>
4.9932

> <Gold.Chemscore.Rot.Weighted>
2.5600

> <Gold.Chemscore.Internal.Correction.Weighted>
   9.000000E+99

> <Gold.Protein.RotatedTorsions>
[ 6907 6896 6895 6894 ] final   16.95 input  -60.11 | X-H torsion
[ 7974 7965 7964 7962 ] final  100.40 input  175.53 | X-H torsion
[ 8008 7997 7996 7995 ] final   85.10 input   59.86 | X-H torsion
[ 10167 10162 10161 10158 ] final  122.76 input  -65.29 | X-H torsion
[ 10718 10713 10712 10709 ] final -102.05 input   66.30 | X-H torsion
[ 10763 10752 10751 10750 ] final -114.34 input  -60.55 | X-H torsion
[ 11005 11000 10999 10996 ] final  -26.49 input  -57.11 | X-H torsion

> <Gold.Protein.ActiveResidues>
 VAL166  LYS551  ARG553  GLY616  TRP617  ASP618  TYR619  PRO620  LYS621  CYS622 
 ASP623  PHE694  ASN695  SER759  ASP760  ASP761  ALA762  ILE779  LEU786  VAL792 
 PHE793  MET794  SER795  GLU796  ALA797  LYS798  CYS799  TRP800  GLU811  SER814 

> <Gold.Protein.RotatedAtoms>
  151.8419  135.0587  160.0448 H   0  0  0  0  0  0  0  0  0  0  0  0  # atno 6907 bound_to 6896
  152.2802  133.5459  159.5501 H   0  0  0  0  0  0  0  0  0  0  0  0  # atno 6908 bound_to 6896
  150.7186  134.0490  159.3834 H   0  0  0  0  0  0  0  0  0  0  0  0  # atno 6909 bound_to 6896
  145.3861  139.2371  143.3377 H   0  0  0  0  0  0  0  0  0  0  0  0  # atno 7974 bound_to 7965
  155.9457  140.3405  155.6365 H   0  0  0  0  0  0  0  0  0  0  0  0  # atno 8008 bound_to 7997
  155.6984  140.0757  157.2439 H   0  0  0  0  0  0  0  0  0  0  0  0  # atno 8009 bound_to 7997
  154.4111  140.1644  156.2151 H   0  0  0  0  0  0  0  0  0  0  0  0  # atno 8010 bound_to 7997
  139.5840  144.6998  151.3457 H   0  0  0  0  0  0  0  0  0  0  0  0  # atno 10167 bound_to 10162
  156.0215  130.5402  150.7052 H   0  0  0  0  0  0  0  0  0  0  0  0  # atno 10718 bound_to 10713
  154.8436  135.4421  154.1490 H   0  0  0  0  0  0  0  0  0  0  0  0  # atno 10763 bound_to 10752
  153.2656  135.6940  153.7540 H   0  0  0  0  0  0  0  0  0  0  0  0  # atno 10764 bound_to 10752
  153.6800  135.3404  155.3151 H   0  0  0  0  0  0  0  0  0  0  0  0  # atno 10765 bound_to 10752
  140.9033  133.7509  156.0573 H   0  0  0  0  0  0  0  0  0  0  0  0  # atno 11005 bound_to 11000
  146.2819  140.4536  142.8773 LP  0  0  0  0  0  0  0  0  0  0  0  0  # atno 17320 bound_to 7965
  144.8473  140.6948  143.6191 LP  0  0  0  0  0  0  0  0  0  0  0  0  # atno 17321 bound_to 7965
  140.7114  143.7380  150.7574 LP  0  0  0  0  0  0  0  0  0  0  0  0  # atno 17342 bound_to 10162
  140.0920  143.4869  152.2473 LP  0  0  0  0  0  0  0  0  0  0  0  0  # atno 17343 bound_to 10162
  157.4703  131.0892  151.0649 LP  0  0  0  0  0  0  0  0  0  0  0  0  # atno 17370 bound_to 10713
  157.1111  130.6022  149.5482 LP  0  0  0  0  0  0  0  0  0  0  0  0  # atno 17371 bound_to 10713
  140.8202  134.3298  157.5384 LP  0  0  0  0  0  0  0  0  0  0  0  0  # atno 17394 bound_to 11000
  139.8745  134.9305  156.3503 LP  0  0  0  0  0  0  0  0  0  0  0  0  # atno 17395 bound_to 11000

$$$$
