AV-unprocessed.smi:2776|AV-procd|sdf|10707|dock2
  -GOLD-   2272015143D 1   1.00000     0.00000
 Structure written by MMmdl.
 26 27  0  0  0  0  0  0  0  0  2 V2000
  151.5094  137.4473  157.1651 O   0  0  0  0  0  0  0  0  0  0  0  0
  151.1162  138.6348  156.5035 C   0  0  1  0  0  0  0  0  0  0  0  0
  152.1772  139.7340  156.7196 C   0  0  0  0  0  0  0  0  0  0  0  0
  151.5894  141.0290  157.0928 N   0  0  0  0  0  0  0  0  0  0  0  0
  150.7168  141.8161  156.4067 C   0  0  0  0  0  0  0  0  0  0  0  0
  150.4672  142.9165  157.1692 N   0  3  0  0  0  0  0  0  0  0  0  0
  151.1898  142.8312  158.3613 C   0  0  0  0  0  0  0  0  0  0  0  0
  151.2624  143.6986  159.4466 C   0  0  0  0  0  0  0  0  0  0  0  0
  152.0980  143.3113  160.5148 C   0  0  0  0  0  0  0  0  0  0  0  0
  152.2044  144.1189  161.5964 F   0  0  0  0  0  0  0  0  0  0  0  0
  152.8223  142.1009  160.4781 C   0  0  0  0  0  0  0  0  0  0  0  0
  153.6114  141.7652  161.5259 F   0  0  0  0  0  0  0  0  0  0  0  0
  152.7415  141.2303  159.3713 C   0  0  0  0  0  0  0  0  0  0  0  0
  151.9137  141.6210  158.3194 C   0  0  0  0  0  0  0  0  0  0  0  0
  150.8697  138.3242  155.0146 C   0  0  0  0  0  0  0  0  0  0  0  0
  150.3080  139.3751  154.4167 F   0  0  0  0  0  0  0  0  0  0  0  0
  152.0338  138.0804  154.4130 F   0  0  0  0  0  0  0  0  0  0  0  0
  150.0835  137.2565  154.8735 F   0  0  0  0  0  0  0  0  0  0  0  0
  152.2794  137.1072  156.7346 H   0  0  0  0  0  0  0  0  0  0  0  0
  150.1765  138.9596  156.9521 H   0  0  0  0  0  0  0  0  0  0  0  0
  152.9067  139.4395  157.4743 H   0  0  0  0  0  0  0  0  0  0  0  0
  152.7401  139.8930  155.7993 H   0  0  0  0  0  0  0  0  0  0  0  0
  150.2975  141.6055  155.4332 H   0  0  0  0  0  0  0  0  0  0  0  0
  150.7086  144.6252  159.4796 H   0  0  0  0  0  0  0  0  0  0  0  0
  153.2962  140.3039  159.3576 H   0  0  0  0  0  0  0  0  0  0  0  0
  149.8478  143.6681  156.8939 H   0  0  0  0  0  0  0  0  0  0  0  0
  1  2  1  0  0  0  0
  1 19  1  0  0  0  0
  2  3  1  0  0  0  0
  2 15  1  0  0  0  0
  2 20  1  0  0  0  0
  3  4  1  0  0  0  0
  3 21  1  0  0  0  0
  3 22  1  0  0  0  0
  4 14  1  0  0  0  0
  4  5  1  0  0  0  0
  5  6  2  0  0  0  0
  5 23  1  0  0  0  0
  6  7  1  0  0  0  0
  6 26  1  0  0  0  0
  7 14  2  0  0  0  0
  7  8  1  0  0  0  0
  8  9  2  0  0  0  0
  8 24  1  0  0  0  0
  9 10  1  0  0  0  0
  9 11  1  0  0  0  0
 11 12  1  0  0  0  0
 11 13  2  0  0  0  0
 13 14  1  0  0  0  0
 13 25  1  0  0  0  0
 15 16  1  0  0  0  0
 15 17  1  0  0  0  0
 15 18  1  0  0  0  0
M  CHG  1   6   1
M  END
> <s_m_source_file>
AV-unprocessed.smi

> <i_m_source_file_index>
2776

> <i_lp_mmshare_version>
43012

> <i_f3d_flags>
0

> <s_epik_input>
RkMoRikoRilbQ0BIXShbT0hdKVtDSDJdbihbY0hdbjEpYyhjMTIpW2NIXWMoRiljKEYpW2NIXTI=

> <s_epik_cmdline>
J2VwaWtfcHl0aG9uJywgJy1waCcsICc3LjAnLCAnLXRuJywgJzgnLCAnLW1hJywgJzIwMCcsICctbWV0YWxfYmluZGluZycsICctaW1hZScsICc8aW5maWxlLm1hZT4nLCAnLW9tYWUnLCAnPG91dGZpbGUubWFlPic=

> <r_epik_Ionization_Penalty>
2.38424

> <r_epik_Ionization_Penalty_Charging>
2.37244

> <r_epik_Ionization_Penalty_Neutral>
0.0117937

> <r_epik_State_Penalty>
2.52832

> <r_epik_Charging_Adjusted_Penalty>
4.90076

> <i_epik_Tot_Q>
1

> <i_epik_Tot_abs_Q>
1

> <r_epik_Metal_State_Penalty>
6.61271

> <b_epik_Metal_Only>
0

> <s_lp_Force_Field>
OPLS_2005

> <r_lp_Energy>
13.8942

> <b_lp_Chiralities_Consistent>
1

> <s_lp_Variant>
AV-unprocessed.smi:2776-4

> <Gold.Version>
5.8.1

> <Gold.Id.Protein>
6NUR|6NUR_protein|mol2

> <Gold.PLP.Fitness>
46.2581

> <Gold.PLP.PLP>
-41.7879

> <Gold.PLP.part.hbond>
-1.0000

> <Gold.PLP.part.metal>
0.0000

> <Gold.PLP.part.buried>
-4.4442

> <Gold.PLP.part.nonpolar>
-36.7723

> <Gold.PLP.part.repulsive>
0.0090

> <Gold.PLP.ligand.clash>
0.0000

> <Gold.PLP.ligand.torsion>
0.7701

> <Gold.PLP.Chemscore.Hbond>
2.0000

> <Gold.PLP.Chemscore.CHOScore>
0.0000

> <Gold.PLP.Chemscore.Metal>
0.0000

> <Gold.Chemscore.Hbonds>
donor molecule, donor type, donor heavy atom, donor atom, acceptor molecule, acceptor atom, score
      L1  H     6    26       P1  8028  2.00

> <Gold.PLP.Chemscore.Internal.Correction>
0.0104

> <Gold.Rescore>
     Score         DG    S(hbond)    S(metal)    S(lipo)     H(rot)  DE(clash)    DE(int)     intcor
     11.75     -12.42       1.00        0.00      77.09       2.12       0.00       0.67       ----

> <Gold.Chemscore.Fitness>
11.7501

> <Gold.Chemscore.DG>
-12.4187

> <Gold.Chemscore.ZeroCoef>
-5.4800

> <Gold.Chemscore.Hbond>
0.9997

> <Gold.Chemscore.Metal>
0.0000

> <Gold.Chemscore.Lipo>
77.0929

> <Gold.Chemscore.Internal_Hbond>
0.0000

> <Gold.Chemscore.DEClash>
0.0034

> <Gold.Chemscore.DEInternal>
0.6652

> <Gold.Chemscore.Rot>
2.1173

> <Gold.Chemscore.Internal.Correction>
   9.000000E+99

> <Gold.Chemscore.Hbonds>
donor molecule, donor type, donor heavy atom, donor atom, acceptor molecule, acceptor atom, score
      L1  H     6    26       P1  8028  0.97

> <Gold.Chemscore.Hbond.Weighted>
-3.3390

> <Gold.Chemscore.Metal.Weighted>
-0.0000

> <Gold.Chemscore.Lipo.Weighted>
-9.0199

> <Gold.Chemscore.Internal_Hbond.Weighted>
0.0000

> <Gold.Chemscore.DEClash.Weighted>
0.0034

> <Gold.Chemscore.DEInternal.Weighted>
0.6652

> <Gold.Chemscore.Rot.Weighted>
5.4202

> <Gold.Chemscore.Internal.Correction.Weighted>
   9.000000E+99

> <Gold.Protein.RotatedTorsions>
[ 6907 6896 6895 6894 ] final  117.05 input  -60.11 | X-H torsion
[ 7974 7965 7964 7962 ] final  -33.55 input  175.53 | X-H torsion
[ 8008 7997 7996 7995 ] final  -26.32 input   59.86 | X-H torsion
[ 10167 10162 10161 10158 ] final    4.47 input  -65.29 | X-H torsion
[ 10718 10713 10712 10709 ] final  -91.43 input   66.30 | X-H torsion
[ 10763 10752 10751 10750 ] final -167.33 input  -60.55 | X-H torsion
[ 11005 11000 10999 10996 ] final  -33.92 input  -57.11 | X-H torsion

> <Gold.Protein.ActiveResidues>
 VAL166  LYS551  ARG553  GLY616  TRP617  ASP618  TYR619  PRO620  LYS621  CYS622 
 ASP623  PHE694  ASN695  SER759  ASP760  ASP761  ALA762  ILE779  LEU786  VAL792 
 PHE793  MET794  SER795  GLU796  ALA797  LYS798  CYS799  TRP800  GLU811  SER814 

> <Gold.Protein.RotatedAtoms>
  152.4637  133.7877  159.6884 H   0  0  0  0  0  0  0  0  0  0  0  0  # atno 6907 bound_to 6896
  150.8592  133.7659  159.3004 H   0  0  0  0  0  0  0  0  0  0  0  0  # atno 6908 bound_to 6896
  151.5229  135.1070  159.9935 H   0  0  0  0  0  0  0  0  0  0  0  0  # atno 6909 bound_to 6896
  146.0901  140.5930  142.8868 H   0  0  0  0  0  0  0  0  0  0  0  0  # atno 7974 bound_to 7965
  154.4431  140.1902  156.0757 H   0  0  0  0  0  0  0  0  0  0  0  0  # atno 8008 bound_to 7997
  156.0477  140.3312  155.7288 H   0  0  0  0  0  0  0  0  0  0  0  0  # atno 8009 bound_to 7997
  155.5605  140.0603  157.2821 H   0  0  0  0  0  0  0  0  0  0  0  0  # atno 8010 bound_to 7997
  140.6533  143.7491  150.7611 H   0  0  0  0  0  0  0  0  0  0  0  0  # atno 10167 bound_to 10162
  155.9994  130.4948  150.5473 H   0  0  0  0  0  0  0  0  0  0  0  0  # atno 10718 bound_to 10713
  154.6743  135.2944  154.9699 H   0  0  0  0  0  0  0  0  0  0  0  0  # atno 10763 bound_to 10752
  154.0716  135.6617  153.4829 H   0  0  0  0  0  0  0  0  0  0  0  0  # atno 10764 bound_to 10752
  153.0506  135.5176  154.7755 H   0  0  0  0  0  0  0  0  0  0  0  0  # atno 10765 bound_to 10752
  140.9674  133.7129  156.1468 H   0  0  0  0  0  0  0  0  0  0  0  0  # atno 11005 bound_to 11000
  144.7354  140.4793  143.6907 LP  0  0  0  0  0  0  0  0  0  0  0  0  # atno 17320 bound_to 7965
  145.6055  139.1508  143.3105 LP  0  0  0  0  0  0  0  0  0  0  0  0  # atno 17321 bound_to 7965
  140.1146  143.4668  152.2350 LP  0  0  0  0  0  0  0  0  0  0  0  0  # atno 17342 bound_to 10162
  139.5751  144.7483  151.3786 LP  0  0  0  0  0  0  0  0  0  0  0  0  # atno 17343 bound_to 10162
  157.3401  131.0715  151.1794 LP  0  0  0  0  0  0  0  0  0  0  0  0  # atno 17370 bound_to 10713
  157.2645  130.6675  149.5990 LP  0  0  0  0  0  0  0  0  0  0  0  0  # atno 17371 bound_to 10713
  140.7378  134.4183  157.5558 LP  0  0  0  0  0  0  0  0  0  0  0  0  # atno 17394 bound_to 11000
  139.8900  134.8817  156.2394 LP  0  0  0  0  0  0  0  0  0  0  0  0  # atno 17395 bound_to 11000

$$$$
