#       Name:                AV-unprocessed.smi:1703
#       Creating user name   scv26
#       Creation time:       Fri Mar 27 08:06:59 2020


#       File generated by GOLD software.
#

@<TRIPOS>MOLECULE
AV-unprocessed.smi:1703
    56    58     1
SMALL
NO_CHARGES


@<TRIPOS>ATOM
      1 ****        -5.5868   1.8552   1.4615 C.3            1 S1                 0.0000
      2 ****        -4.0960   2.0037   1.1407 C.3            1 S1                 0.0000
      3 ****        -3.4675   0.6756   0.6832 C.3            1 S1                 0.0000
      4 ****        -2.0694   0.8376   0.3056 N.3            1 S1                 0.0000
      5 ****        -1.4746  -0.4418  -0.0783 C.3            1 S1                 0.0000
      6 ****         0.0570  -0.4178  -0.2680 C.3            1 S1                 0.0000
      7 ****         0.3518  -0.2184  -1.6371 O.3            1 S1                 0.0000
      8 ****         0.7178  -1.7300   0.1990 C.3            1 S1                 0.0000
      9 ****         2.1860  -1.6967   0.0927 N.pl3          1 S1                 0.0000
     10 ****         3.1089  -1.1585   0.9411 C.2            1 S1                 0.0000
     11 ****         2.8271  -0.4481   2.2272 C.3            1 S1                 0.0000
     12 ****         3.9956  -0.0851   2.9325 O.3            1 S1                 0.0000
     13 ****         4.3376  -1.3860   0.3951 N.pl3          1 S1                 1.0000
     14 ****         4.2012  -2.0737  -0.8104 C.ar           1 S1                 0.0000
     15 ****         5.1586  -2.5215  -1.7156 C.ar           1 S1                 0.0000
     16 ****         4.6818  -3.1929  -2.8601 C.ar           1 S1                 0.0000
     17 ****         3.3025  -3.3950  -3.0708 C.ar           1 S1                 0.0000
     18 ****         2.3413  -2.9372  -2.1453 C.ar           1 S1                 0.0000
     19 ****         2.8204  -2.2762  -1.0138 C.ar           1 S1                 0.0000
     20 ****        -1.9762   1.8402  -0.7533 C.3            1 S1                 0.0000
     21 ****        -2.6244   3.1831  -0.3613 C.3            1 S1                 0.0000
     22 ****        -1.7885   3.9902   0.6467 C.3            1 S1                 0.0000
     23 ****        -3.9589   2.9735   0.1037 O.3            1 S1                 0.0000
     24 ****        -5.7463   1.1287   2.2587 H              1 S1                 0.0000
     25 ****        -6.1474   1.5221   0.5876 H              1 S1                 0.0000
     26 ****        -6.0112   2.8048   1.7881 H              1 S1                 0.0000
     27 ****        -3.5864   2.3577   2.0374 H              1 S1                 0.0000
     28 ****        -3.5494  -0.0541   1.4898 H              1 S1                 0.0000
     29 ****        -4.0333   0.2735  -0.1590 H              1 S1                 0.0000
     30 ****        -1.6938  -1.1551   0.7175 H              1 S1                 0.0000
     31 ****        -1.9666  -0.8430  -0.9662 H              1 S1                 0.0000
     32 ****         0.4846   0.4080   0.3019 H              1 S1                 0.0000
     33 ****        -0.0616  -0.9057  -2.1364 H              1 S1                 0.0000
     34 ****         0.4800  -1.9109   1.2478 H              1 S1                 0.0000
     35 ****         0.3290  -2.5885  -0.3486 H              1 S1                 0.0000
     36 ****         2.2484   0.4519   2.0192 H              1 S1                 0.0000
     37 ****         2.2164  -1.0879   2.8646 H              1 S1                 0.0000
     38 ****         3.7411   0.3637   3.7247 H              1 S1                 0.0000
     39 ****         6.2156  -2.3656  -1.5568 H              1 S1                 0.0000
     40 ****         5.3878  -3.5589  -3.5916 H              1 S1                 0.0000
     41 ****         2.9743  -3.9112  -3.9616 H              1 S1                 0.0000
     42 ****         1.2882  -3.0955  -2.3224 H              1 S1                 0.0000
     43 ****        -0.9347   2.0159  -1.0217 H              1 S1                 0.0000
     44 ****        -2.4656   1.4621  -1.6522 H              1 S1                 0.0000
     45 ****        -2.7063   3.7908  -1.2628 H              1 S1                 0.0000
     46 ****        -0.8129   4.2390   0.2283 H              1 S1                 0.0000
     47 ****        -1.6145   3.4393   1.5710 H              1 S1                 0.0000
     48 ****        -2.2859   4.9256   0.9033 H              1 S1                 0.0000
     49 ****         5.2042  -1.0867   0.8235 H              1 S1                 0.0000
     50 ****        -1.5420   1.1613   1.0911 LP             1 S1                 0.0000
     51 ****         1.3415  -0.2487  -1.7768 LP             1 S1                 0.0000
     52 ****         0.0007   0.6704  -1.9317 LP             1 S1                 0.0000
     53 ****         4.5563   0.5201   2.3674 LP             1 S1                 0.0000
     54 ****         4.5189  -0.9055   3.1630 LP             1 S1                 0.0000
     55 ****        -4.3070   3.8455   0.4478 LP             1 S1                 0.0000
     56 ****        -4.5140   2.6762  -0.6731 LP             1 S1                 0.0000
@<TRIPOS>BOND
    1    1    2 1     
    2    1   24 1     
    3    1   25 1     
    4    1   26 1     
    5    2   23 1     
    6    2    3 1     
    7    2   27 1     
    8    3    4 1     
    9    3   28 1     
   10    3   29 1     
   11    4    5 1     
   12    4   20 1     
   13    5    6 1     
   14    5   30 1     
   15    5   31 1     
   16    6    7 1     
   17    6    8 1     
   18    6   32 1     
   19    7   33 1     
   20    8    9 1     
   21    8   34 1     
   22    8   35 1     
   23    9   19 1     
   24    9   10 1     
   25   10   11 1     
   26   10   13 2     
   27   11   12 1     
   28   11   36 1     
   29   11   37 1     
   30   12   38 1     
   31   13   14 1     
   32   13   49 1     
   33   14   19 ar    
   34   14   15 ar    
   35   15   16 ar    
   36   15   39 1     
   37   16   17 ar    
   38   16   40 1     
   39   17   18 ar    
   40   17   41 1     
   41   18   19 ar    
   42   18   42 1     
   43   20   21 1     
   44   20   43 1     
   45   20   44 1     
   46   21   22 1     
   47   21   23 1     
   48   21   45 1     
   49   22   46 1     
   50   22   47 1     
   51   22   48 1     
   52    4   50 1     
   53    7   51 1     
   54    7   52 1     
   55   12   53 1     
   56   12   54 1     
   57   23   55 1     
   58   23   56 1     
@<TRIPOS>SUBSTRUCTURE
      1 S1             1
@<TRIPOS>SET
LONE_PAIRS      STATIC     ATOMS    <user>   **** ""
7 50 51 52 53 54 55 56
DONOR_HYDROGENS      STATIC     ATOMS    <user>   **** ""
3 33 38 49
ATOM$BLUE        STATIC     ATOMS    COLORGROUP SYSTEM
7 50 51 52 53 54 55 56
ATOM$RED        STATIC     ATOMS    COLORGROUP SYSTEM
3 33 38 49
