AV-unprocessed.smi:3091|AV-procd|sdf|11779|dock2
  -GOLD-   2272017163D 1   1.00000     0.00000
 Structure written by MMmdl.
 29 30  0  0  0  0  0  0  0  0  2 V2000
  149.7896  138.4314  153.0167 N   0  3  0  0  0  0  0  0  0  0  0  0
  150.8288  138.5218  154.0548 C   0  0  0  0  0  0  0  0  0  0  0  0
  150.6008  139.7317  154.9372 C   0  0  0  0  0  0  0  0  0  0  0  0
  149.6371  140.7012  154.5943 C   0  0  0  0  0  0  0  0  0  0  0  0
  149.4688  141.8090  155.4480 C   0  0  0  0  0  0  0  0  0  0  0  0
  150.1868  141.9890  156.5766 N   0  0  0  0  0  0  0  0  0  0  0  0
  151.1139  141.0558  156.9070 C   0  0  0  0  0  0  0  0  0  0  0  0
  151.8580  141.2247  158.0579 O   0  0  0  0  0  0  0  0  0  0  0  0
  151.4779  142.2297  158.9990 C   0  0  1  0  0  0  0  0  0  0  0  0
  152.3720  142.2101  160.2374 C   0  0  0  0  0  0  0  0  0  0  0  0
  152.7088  143.6789  160.4563 C   0  0  0  0  0  0  0  0  0  0  0  0
  152.8104  144.1708  159.1322 O   0  0  0  0  0  0  0  0  0  0  0  0
  151.7277  143.6193  158.3955 C   0  0  0  0  0  0  0  0  0  0  0  0
  151.3544  139.9144  156.1147 C   0  0  0  0  0  0  0  0  0  0  0  0
  149.8252  137.5212  152.5805 H   0  0  0  0  0  0  0  0  0  0  0  0
  149.9484  139.1459  152.3209 H   0  0  0  0  0  0  0  0  0  0  0  0
  150.8187  137.6127  154.6568 H   0  0  0  0  0  0  0  0  0  0  0  0
  151.8090  138.5851  153.5810 H   0  0  0  0  0  0  0  0  0  0  0  0
  149.0374  140.6026  153.7012 H   0  0  0  0  0  0  0  0  0  0  0  0
  148.7393  142.5710  155.2174 H   0  0  0  0  0  0  0  0  0  0  0  0
  150.4215  142.1518  159.2621 H   0  0  0  0  0  0  0  0  0  0  0  0
  151.8921  141.7540  161.1037 H   0  0  0  0  0  0  0  0  0  0  0  0
  153.2895  141.6571  160.0312 H   0  0  0  0  0  0  0  0  0  0  0  0
  151.9028  144.1936  160.9820 H   0  0  0  0  0  0  0  0  0  0  0  0
  153.6349  143.8219  161.0133 H   0  0  0  0  0  0  0  0  0  0  0  0
  151.9565  143.5871  157.3299 H   0  0  0  0  0  0  0  0  0  0  0  0
  150.8509  144.2545  158.5300 H   0  0  0  0  0  0  0  0  0  0  0  0
  152.1032  139.1943  156.4111 H   0  0  0  0  0  0  0  0  0  0  0  0
  148.8821  138.5692  153.4379 H   0  0  0  0  0  0  0  0  0  0  0  0
  1  2  1  0  0  0  0
  1 15  1  0  0  0  0
  1 16  1  0  0  0  0
  1 29  1  0  0  0  0
  2  3  1  0  0  0  0
  2 17  1  0  0  0  0
  2 18  1  0  0  0  0
  3 14  1  0  0  0  0
  3  4  2  0  0  0  0
  4  5  1  0  0  0  0
  4 19  1  0  0  0  0
  5  6  2  0  0  0  0
  5 20  1  0  0  0  0
  6  7  1  0  0  0  0
  7  8  1  0  0  0  0
  7 14  2  0  0  0  0
  8  9  1  0  0  0  0
  9 13  1  0  0  0  0
  9 10  1  0  0  0  0
  9 21  1  0  0  0  0
 10 11  1  0  0  0  0
 10 22  1  0  0  0  0
 10 23  1  0  0  0  0
 11 12  1  0  0  0  0
 11 24  1  0  0  0  0
 11 25  1  0  0  0  0
 12 13  1  0  0  0  0
 13 26  1  0  0  0  0
 13 27  1  0  0  0  0
 14 28  1  0  0  0  0
M  CHG  1   1   1
M  END
> <s_m_source_file>
AV-unprocessed.smi

> <i_m_source_file_index>
3091

> <i_lp_mmshare_version>
43012

> <i_f3d_flags>
0

> <s_epik_input>
W05IMl1bQ0gyXWMxW2NIXVtjSF1uYyhbY0hdMSlPW0NAQEhdMltDSDJdW0NIMl1PW0NIMl0y

> <s_epik_cmdline>
J2VwaWtfcHl0aG9uJywgJy1waCcsICc3LjAnLCAnLXRuJywgJzgnLCAnLW1hJywgJzIwMCcsICctbWV0YWxfYmluZGluZycsICctaW1hZScsICc8aW5maWxlLm1hZT4nLCAnLW9tYWUnLCAnPG91dGZpbGUubWFlPic=

> <r_lp_tautomer_probability>
1

> <r_epik_Ionization_Penalty>
0.0773124

> <r_epik_Ionization_Penalty_Charging>
0.0773118

> <r_epik_Ionization_Penalty_Neutral>
5.92883e-07

> <r_epik_State_Penalty>
0.0682686

> <r_epik_Charging_Adjusted_Penalty>
0.14558

> <i_epik_Tot_Q>
1

> <i_epik_Tot_abs_Q>
1

> <r_epik_Metal_State_Penalty>
0.0682821

> <b_epik_Metal_Only>
0

> <s_lp_Force_Field>
OPLS_2005

> <r_lp_Energy>
12.8261

> <b_lp_Chiralities_Consistent>
1

> <s_lp_Variant>
AV-unprocessed.smi:3091-2

> <Gold.Version>
5.8.1

> <Gold.Id.Protein>
6NUR|6NUR_protein|mol2

> <Gold.PLP.Fitness>
39.9027

> <Gold.PLP.PLP>
-28.8621

> <Gold.PLP.part.hbond>
-2.1526

> <Gold.PLP.part.metal>
0.0000

> <Gold.PLP.part.buried>
-2.1764

> <Gold.PLP.part.nonpolar>
-24.0356

> <Gold.PLP.part.repulsive>
0.2104

> <Gold.PLP.ligand.clash>
0.0000

> <Gold.PLP.ligand.torsion>
0.2229

> <Gold.PLP.Chemscore.Hbond>
3.0000

> <Gold.PLP.Chemscore.CHOScore>
0.8246

> <Gold.PLP.Chemscore.Metal>
0.0000

> <Gold.Chemscore.Hbonds>
donor molecule, donor type, donor heavy atom, donor atom, acceptor molecule, acceptor atom, score
      L1  H     1    15       P1  7948  1.76
      L1  H     1    16       P1  7957  0.89
      L1  C     5    20       P1  8028  0.96

> <Gold.PLP.Chemscore.Internal.Correction>
0.0126

> <Gold.Rescore>
     Score         DG    S(hbond)    S(metal)    S(lipo)     H(rot)  DE(clash)    DE(int)     intcor
     15.32     -16.71       1.95        0.00      75.01       1.59       0.10       1.29       ----

> <Gold.Chemscore.Fitness>
15.3177

> <Gold.Chemscore.DG>
-16.7057

> <Gold.Chemscore.ZeroCoef>
-5.4800

> <Gold.Chemscore.Hbond>
1.9539

> <Gold.Chemscore.Metal>
0.0000

> <Gold.Chemscore.Lipo>
75.0112

> <Gold.Chemscore.Internal_Hbond>
0.0000

> <Gold.Chemscore.DEClash>
0.0998

> <Gold.Chemscore.DEInternal>
1.2881

> <Gold.Chemscore.Rot>
1.5924

> <Gold.Chemscore.Internal.Correction>
   9.000000E+99

> <Gold.Chemscore.Hbonds>
donor molecule, donor type, donor heavy atom, donor atom, acceptor molecule, acceptor atom, score
      L1  H     1    15       P1  7948  0.17
      L1  H     1    16       P1  7957  0.47

> <Gold.Chemscore.Hbond.Weighted>
-6.5259

> <Gold.Chemscore.Metal.Weighted>
-0.0000

> <Gold.Chemscore.Lipo.Weighted>
-8.7763

> <Gold.Chemscore.Internal_Hbond.Weighted>
0.0000

> <Gold.Chemscore.DEClash.Weighted>
0.0998

> <Gold.Chemscore.DEInternal.Weighted>
1.2881

> <Gold.Chemscore.Rot.Weighted>
4.0765

> <Gold.Chemscore.Internal.Correction.Weighted>
   9.000000E+99

> <Gold.Protein.RotatedTorsions>
[ 6907 6896 6895 6894 ] final  -51.40 input  -60.11 | X-H torsion
[ 7974 7965 7964 7962 ] final  166.24 input  175.53 | X-H torsion
[ 8008 7997 7996 7995 ] final   45.99 input   59.86 | X-H torsion
[ 10167 10162 10161 10158 ] final -120.79 input  -65.29 | X-H torsion
[ 10718 10713 10712 10709 ] final  -74.59 input   66.30 | X-H torsion
[ 10763 10752 10751 10750 ] final -115.78 input  -60.55 | X-H torsion
[ 11005 11000 10999 10996 ] final  122.65 input  -57.11 | X-H torsion

> <Gold.Protein.ActiveResidues>
 VAL166  LYS551  ARG553  GLY616  TRP617  ASP618  TYR619  PRO620  LYS621  CYS622 
 ASP623  PHE694  ASN695  SER759  ASP760  ASP761  ALA762  ILE779  LEU786  VAL792 
 PHE793  MET794  SER795  GLU796  ALA797  LYS798  CYS799  TRP800  GLU811  SER814 

> <Gold.Protein.RotatedAtoms>
  150.8615  134.7968  159.7086 H   0  0  0  0  0  0  0  0  0  0  0  0  # atno 6907 bound_to 6896
  152.4651  134.5092  159.9758 H   0  0  0  0  0  0  0  0  0  0  0  0  # atno 6908 bound_to 6896
  151.5195  133.3431  159.2934 H   0  0  0  0  0  0  0  0  0  0  0  0  # atno 6909 bound_to 6896
  144.7470  139.8586  143.6379 H   0  0  0  0  0  0  0  0  0  0  0  0  # atno 7974 bound_to 7965
  155.3451  140.3410  155.4239 H   0  0  0  0  0  0  0  0  0  0  0  0  # atno 8008 bound_to 7997
  156.1793  140.1658  156.8340 H   0  0  0  0  0  0  0  0  0  0  0  0  # atno 8009 bound_to 7997
  154.5316  140.0744  156.8337 H   0  0  0  0  0  0  0  0  0  0  0  0  # atno 8010 bound_to 7997
  140.0320  143.5239  152.2172 H   0  0  0  0  0  0  0  0  0  0  0  0  # atno 10167 bound_to 10162
  156.0237  130.4420  150.2915 H   0  0  0  0  0  0  0  0  0  0  0  0  # atno 10718 bound_to 10713
  154.8494  135.4369  154.1717 H   0  0  0  0  0  0  0  0  0  0  0  0  # atno 10763 bound_to 10752
  153.2829  135.6955  153.7374 H   0  0  0  0  0  0  0  0  0  0  0  0  # atno 10764 bound_to 10752
  153.6571  135.3441  155.3091 H   0  0  0  0  0  0  0  0  0  0  0  0  # atno 10765 bound_to 10752
  139.9277  134.9641  156.8140 H   0  0  0  0  0  0  0  0  0  0  0  0  # atno 11005 bound_to 11000
  146.1364  139.4411  143.0136 LP  0  0  0  0  0  0  0  0  0  0  0  0  # atno 17320 bound_to 7965
  145.7085  141.0114  143.1466 LP  0  0  0  0  0  0  0  0  0  0  0  0  # atno 17321 bound_to 7965
  139.6070  144.7599  151.3039 LP  0  0  0  0  0  0  0  0  0  0  0  0  # atno 17342 bound_to 10162
  140.7298  143.6898  150.7931 LP  0  0  0  0  0  0  0  0  0  0  0  0  # atno 17343 bound_to 10162
  157.1019  131.0198  151.3082 LP  0  0  0  0  0  0  0  0  0  0  0  0  # atno 17370 bound_to 10713
  157.4773  130.7744  149.7380 LP  0  0  0  0  0  0  0  0  0  0  0  0  # atno 17371 bound_to 10713
  140.6288  133.9925  155.7652 LP  0  0  0  0  0  0  0  0  0  0  0  0  # atno 17394 bound_to 11000
  141.0846  134.0010  157.3333 LP  0  0  0  0  0  0  0  0  0  0  0  0  # atno 17395 bound_to 11000

$$$$
