AV-unprocessed.smi:1978|AV-procd|sdf|8003|dock6
  -GOLD-   2272010193D 1   1.00000     0.00000
 Structure written by MMmdl.
 44 45  0  0  0  0  0  0  0  0  3 V2000
  146.1258  134.4200  162.5259 C   0  0  0  0  0  0  0  0  0  0  0  0
  146.9341  135.3580  161.6961 C   0  0  0  0  0  0  0  0  0  0  0  0
  147.8770  135.1619  160.7273 C   0  0  0  0  0  0  0  0  0  0  0  0
  148.2437  136.4851  160.3581 C   0  0  0  0  0  0  0  0  0  0  0  0
  149.1403  136.8253  159.4192 N   0  5  0  0  0  0  0  0  0  0  0  0
  149.1319  138.0688  158.8874 C   0  0  0  0  0  0  0  0  0  0  0  0
  148.1867  138.6127  158.3118 O   0  0  0  0  0  0  0  0  0  0  0  0
  150.2947  138.7193  159.0309 N   0  0  0  0  0  0  0  0  0  0  0  0
  150.6007  140.0559  158.5300 C   0  0  0  0  0  0  0  0  0  0  0  0
  151.7156  140.7227  159.3672 C   0  0  1  0  0  0  0  0  0  0  0  0
  153.1227  140.2002  159.0020 C   0  0  0  0  0  0  0  0  0  0  0  0
  151.6229  142.2190  159.3209 N   0  3  2  0  0  0  0  0  0  0  0  0
  151.6572  142.7844  157.9388 C   0  0  0  0  0  0  0  0  0  0  0  0
  151.2884  144.2747  157.9297 C   0  0  0  0  0  0  0  0  0  0  0  0
  152.2314  145.0674  158.8367 C   0  0  0  0  0  0  0  0  0  0  0  0
  152.2159  144.4654  160.2452 C   0  0  0  0  0  0  0  0  0  0  0  0
  152.5591  142.9592  160.2334 C   0  0  1  0  0  0  0  0  0  0  0  0
  152.5584  142.4372  161.6849 C   0  0  0  0  0  0  0  0  0  0  0  0
  147.5717  137.4027  161.0326 N   0  0  0  0  0  0  0  0  0  0  0  0
  146.7333  136.6882  161.8969 O   0  0  0  0  0  0  0  0  0  0  0  0
  145.4185  133.8695  161.9054 H   0  0  0  0  0  0  0  0  0  0  0  0
  145.5603  134.9558  163.2888 H   0  0  0  0  0  0  0  0  0  0  0  0
  146.7692  133.6979  163.0285 H   0  0  0  0  0  0  0  0  0  0  0  0
  148.2488  134.2229  160.3458 H   0  0  0  0  0  0  0  0  0  0  0  0
  151.0347  138.2322  159.5152 H   0  0  0  0  0  0  0  0  0  0  0  0
  150.8934  139.9900  157.4830 H   0  0  0  0  0  0  0  0  0  0  0  0
  149.6889  140.6531  158.5691 H   0  0  0  0  0  0  0  0  0  0  0  0
  151.5064  140.3997  160.3843 H   0  0  0  0  0  0  0  0  0  0  0  0
  153.2012  139.1267  159.1750 H   0  0  0  0  0  0  0  0  0  0  0  0
  153.8993  140.6712  159.6038 H   0  0  0  0  0  0  0  0  0  0  0  0
  153.3588  140.3724  157.9518 H   0  0  0  0  0  0  0  0  0  0  0  0
  152.6508  142.6538  157.5085 H   0  0  0  0  0  0  0  0  0  0  0  0
  150.9625  142.2670  157.2808 H   0  0  0  0  0  0  0  0  0  0  0  0
  151.3368  144.6647  156.9125 H   0  0  0  0  0  0  0  0  0  0  0  0
  150.2575  144.4025  158.2628 H   0  0  0  0  0  0  0  0  0  0  0  0
  153.2445  145.0425  158.4329 H   0  0  0  0  0  0  0  0  0  0  0  0
  151.9322  146.1154  158.8701 H   0  0  0  0  0  0  0  0  0  0  0  0
  152.9243  145.0076  160.8729 H   0  0  0  0  0  0  0  0  0  0  0  0
  151.2323  144.6157  160.6927 H   0  0  0  0  0  0  0  0  0  0  0  0
  153.5719  142.8520  159.8427 H   0  0  0  0  0  0  0  0  0  0  0  0
  153.1249  143.1019  162.3377 H   0  0  0  0  0  0  0  0  0  0  0  0
  153.0305  141.4586  161.7697 H   0  0  0  0  0  0  0  0  0  0  0  0
  151.5462  142.3695  162.0849 H   0  0  0  0  0  0  0  0  0  0  0  0
  150.6993  142.4247  159.6743 H   0  0  0  0  0  0  0  0  0  0  0  0
  1  2  1  0  0  0  0
  1 21  1  0  0  0  0
  1 22  1  0  0  0  0
  1 23  1  0  0  0  0
  2 20  1  0  0  0  0
  2  3  2  0  0  0  0
  3  4  1  0  0  0  0
  3 24  1  0  0  0  0
  4  5  1  0  0  0  0
  4 19  2  0  0  0  0
  5  6  1  0  0  0  0
  6  7  2  0  0  0  0
  6  8  1  0  0  0  0
  8  9  1  0  0  0  0
  8 25  1  0  0  0  0
  9 10  1  0  0  0  0
  9 26  1  0  0  0  0
  9 27  1  0  0  0  0
 10 11  1  0  0  0  0
 10 12  1  0  0  0  0
 10 28  1  0  0  0  0
 11 29  1  0  0  0  0
 11 30  1  0  0  0  0
 11 31  1  0  0  0  0
 12 17  1  0  0  0  0
 12 13  1  0  0  0  0
 12 44  1  0  0  0  0
 13 14  1  0  0  0  0
 13 32  1  0  0  0  0
 13 33  1  0  0  0  0
 14 15  1  0  0  0  0
 14 34  1  0  0  0  0
 14 35  1  0  0  0  0
 15 16  1  0  0  0  0
 15 36  1  0  0  0  0
 15 37  1  0  0  0  0
 16 17  1  0  0  0  0
 16 38  1  0  0  0  0
 16 39  1  0  0  0  0
 17 18  1  0  0  0  0
 17 40  1  0  0  0  0
 18 41  1  0  0  0  0
 18 42  1  0  0  0  0
 18 43  1  0  0  0  0
 19 20  1  0  0  0  0
M  CHG  1   5  -1
M  CHG  1  12   1
M  END
> <s_m_source_file>
AV-unprocessed.smi

> <i_m_source_file_index>
1978

> <i_lp_mmshare_version>
43012

> <i_f3d_flags>
0

> <s_epik_input>
W0NIM11jMVtjSF1jKG5vMSlbTkhdQyg9TylbTkhdW0NIMl1bQ0BIXShbQ0gzXSlOMltDSDJdW0NIMl1bQ0gyXVtDSDJdW0NASF0yW0NIM10=

> <s_epik_cmdline>
J2VwaWtfcHl0aG9uJywgJy1waCcsICc3LjAnLCAnLXRuJywgJzgnLCAnLW1hJywgJzIwMCcsICctbWV0YWxfYmluZGluZycsICctaW1hZScsICc8aW5maWxlLm1hZT4nLCAnLW9tYWUnLCAnPG91dGZpbGUubWFlPic=

> <r_epik_Ionization_Penalty>
6.22372

> <r_epik_Ionization_Penalty_Charging>
6.22362

> <r_epik_Ionization_Penalty_Neutral>
9.65074e-05

> <r_epik_State_Penalty>
6.22363

> <r_epik_Charging_Adjusted_Penalty>
12.4472

> <i_epik_Tot_Q>
0

> <i_epik_Tot_abs_Q>
2

> <r_epik_Metal_State_Penalty>
2.16675

> <b_epik_Metal_Only>
1

> <s_lp_Force_Field>
OPLS_2005

> <r_lp_Energy>
13.2836

> <b_lp_Chiralities_Consistent>
1

> <s_lp_Variant>
AV-unprocessed.smi:1978-12

> <Gold.Version>
5.8.1

> <Gold.Id.Protein>
6NUR|6NUR_protein|mol2

> <Gold.PLP.Fitness>
44.2218

> <Gold.PLP.PLP>
-40.9209

> <Gold.PLP.part.hbond>
-2.5905

> <Gold.PLP.part.metal>
0.0000

> <Gold.PLP.part.buried>
-4.5572

> <Gold.PLP.part.nonpolar>
-34.0789

> <Gold.PLP.part.repulsive>
0.3108

> <Gold.PLP.ligand.clash>
0.0000

> <Gold.PLP.ligand.torsion>
1.0618

> <Gold.PLP.Chemscore.Hbond>
1.7600

> <Gold.PLP.Chemscore.CHOScore>
0.0000

> <Gold.PLP.Chemscore.Metal>
0.0000

> <Gold.Chemscore.Hbonds>
donor molecule, donor type, donor heavy atom, donor atom, acceptor molecule, acceptor atom, score
      P1  H  6931  6943       L1    19  0.73
      P1  H  6934  6947       L1    19  0.93

> <Gold.PLP.Chemscore.Internal.Correction>
0.1446

> <Gold.Rescore>
     Score         DG    S(hbond)    S(metal)    S(lipo)     H(rot)  DE(clash)    DE(int)     intcor
     18.06     -19.18       1.50        0.00     107.58       1.52       0.01       1.11       ----

> <Gold.Chemscore.Fitness>
18.0626

> <Gold.Chemscore.DG>
-19.1803

> <Gold.Chemscore.ZeroCoef>
-5.4800

> <Gold.Chemscore.Hbond>
1.4976

> <Gold.Chemscore.Metal>
0.0000

> <Gold.Chemscore.Lipo>
107.5798

> <Gold.Chemscore.Internal_Hbond>
0.0000

> <Gold.Chemscore.DEClash>
0.0073

> <Gold.Chemscore.DEInternal>
1.1104

> <Gold.Chemscore.Rot>
1.5190

> <Gold.Chemscore.Internal.Correction>
   9.000000E+99

> <Gold.Chemscore.Hbonds>
donor molecule, donor type, donor heavy atom, donor atom, acceptor molecule, acceptor atom, score
      P1  H  6931  6943       L1    19  0.15
      P1  H  6934  6947       L1    19  0.76

> <Gold.Chemscore.Hbond.Weighted>
-5.0021

> <Gold.Chemscore.Metal.Weighted>
-0.0000

> <Gold.Chemscore.Lipo.Weighted>
-12.5868

> <Gold.Chemscore.Internal_Hbond.Weighted>
0.0000

> <Gold.Chemscore.DEClash.Weighted>
0.0073

> <Gold.Chemscore.DEInternal.Weighted>
1.1104

> <Gold.Chemscore.Rot.Weighted>
3.8886

> <Gold.Chemscore.Internal.Correction.Weighted>
   9.000000E+99

> <Gold.Protein.RotatedTorsions>
[ 6907 6896 6895 6894 ] final  -15.52 input  -60.11 | X-H torsion
[ 7974 7965 7964 7962 ] final   25.81 input  175.53 | X-H torsion
[ 8008 7997 7996 7995 ] final  -83.67 input   59.86 | X-H torsion
[ 10167 10162 10161 10158 ] final  -77.49 input  -65.29 | X-H torsion
[ 10718 10713 10712 10709 ] final -107.65 input   66.30 | X-H torsion
[ 10763 10752 10751 10750 ] final   52.69 input  -60.55 | X-H torsion
[ 11005 11000 10999 10996 ] final  137.48 input  -57.11 | X-H torsion

> <Gold.Protein.ActiveResidues>
 VAL166  LYS551  ARG553  GLY616  TRP617  ASP618  TYR619  PRO620  LYS621  CYS622 
 ASP623  PHE694  ASN695  SER759  ASP760  ASP761  ALA762  ILE779  LEU786  VAL792 
 PHE793  MET794  SER795  GLU796  ALA797  LYS798  CYS799  TRP800  GLU811  SER814 

> <Gold.Protein.RotatedAtoms>
  151.3228  135.0822  159.9311 H   0  0  0  0  0  0  0  0  0  0  0  0  # atno 6907 bound_to 6896
  152.5253  133.9622  159.7733 H   0  0  0  0  0  0  0  0  0  0  0  0  # atno 6908 bound_to 6896
  150.9946  133.6063  159.2733 H   0  0  0  0  0  0  0  0  0  0  0  0  # atno 6909 bound_to 6896
  146.1870  139.7415  142.8859 H   0  0  0  0  0  0  0  0  0  0  0  0  # atno 7974 bound_to 7965
  154.6215  140.0615  156.9621 H   0  0  0  0  0  0  0  0  0  0  0  0  # atno 8008 bound_to 7997
  155.1810  140.3299  155.4357 H   0  0  0  0  0  0  0  0  0  0  0  0  # atno 8009 bound_to 7997
  156.2434  140.1897  156.6906 H   0  0  0  0  0  0  0  0  0  0  0  0  # atno 8010 bound_to 7997
  140.4765  143.2413  151.8124 H   0  0  0  0  0  0  0  0  0  0  0  0  # atno 10167 bound_to 10162
  156.0447  130.5673  150.7851 H   0  0  0  0  0  0  0  0  0  0  0  0  # atno 10718 bound_to 10713
  152.9790  135.5804  154.4620 H   0  0  0  0  0  0  0  0  0  0  0  0  # atno 10763 bound_to 10752
  154.4194  135.2771  155.1987 H   0  0  0  0  0  0  0  0  0  0  0  0  # atno 10764 bound_to 10752
  154.3742  135.6161  153.5810 H   0  0  0  0  0  0  0  0  0  0  0  0  # atno 10765 bound_to 10752
  140.0117  134.9436  157.0291 H   0  0  0  0  0  0  0  0  0  0  0  0  # atno 11005 bound_to 11000
  145.3909  141.0372  143.3124 LP  0  0  0  0  0  0  0  0  0  0  0  0  # atno 17320 bound_to 7965
  144.8415  139.5464  143.6898 LP  0  0  0  0  0  0  0  0  0  0  0  0  # atno 17321 bound_to 7965
  139.4826  144.4826  151.9287 LP  0  0  0  0  0  0  0  0  0  0  0  0  # atno 17342 bound_to 10162
  140.3912  144.2613  150.5899 LP  0  0  0  0  0  0  0  0  0  0  0  0  # atno 17343 bound_to 10162
  157.5307  131.0936  150.9958 LP  0  0  0  0  0  0  0  0  0  0  0  0  # atno 17370 bound_to 10713
  157.0265  130.5694  149.5338 LP  0  0  0  0  0  0  0  0  0  0  0  0  # atno 17371 bound_to 10713
  140.4543  134.1550  155.7184 LP  0  0  0  0  0  0  0  0  0  0  0  0  # atno 17394 bound_to 11000
  141.1715  133.8598  157.1555 LP  0  0  0  0  0  0  0  0  0  0  0  0  # atno 17395 bound_to 11000

$$$$
