AV-unprocessed.smi:242|AV-procd|sdf|1846|dock7
  -GOLD-   2262020463D 1   1.00000     0.00000
 Structure written by MMmdl.
 58 61  0  0  0  0  0  0  0  0  2 V2000
  146.4101  133.9031  151.1720 C   0  0  0  0  0  0  0  0  0  0  0  0
  146.5379  134.0877  152.6958 C   0  0  0  0  0  0  0  0  0  0  0  0
  145.7814  135.3601  153.1241 C   0  0  0  0  0  0  0  0  0  0  0  0
  147.9689  134.1253  153.1104 N   0  3  2  0  0  0  0  0  0  0  0  0
  148.7941  132.9853  152.6345 C   0  0  0  0  0  0  0  0  0  0  0  0
  149.6878  132.5559  153.8053 C   0  0  0  0  0  0  0  0  0  0  0  0
  149.6446  133.7421  154.7668 C   0  0  2  0  0  0  0  0  0  0  0  0
  149.9746  133.3943  156.1504 N   0  0  0  0  0  0  0  0  0  0  0  0
  151.2243  132.6724  156.3604 C   0  0  0  0  0  0  0  0  0  0  0  0
  149.8490  134.4149  157.0278 C   0  0  0  0  0  0  0  0  0  0  0  0
  148.8477  134.3998  157.9466 N   0  0  0  0  0  0  0  0  0  0  0  0
  148.7212  135.4144  158.8080 C   0  0  0  0  0  0  0  0  0  0  0  0
  149.4705  136.5139  158.9189 N   0  0  0  0  0  0  0  0  0  0  0  0
  150.4758  136.5264  157.9966 C   0  0  0  0  0  0  0  0  0  0  0  0
  150.7375  135.5207  157.0258 C   0  0  0  0  0  0  0  0  0  0  0  0
  151.8501  135.8618  156.2685 N   0  0  0  0  0  0  0  0  0  0  0  0
  152.2223  137.0128  156.7595 C   0  0  0  0  0  0  0  0  0  0  0  0
  151.4441  137.4931  157.7898 N   0  0  0  0  0  0  0  0  0  0  0  0
  151.6203  138.7487  158.5031 C   0  0  0  0  0  0  0  0  0  0  0  0
  151.3904  140.0060  157.6270 C   0  0  0  0  0  0  0  0  0  0  0  0
  152.3861  140.0201  156.6187 O   0  0  0  0  0  0  0  0  0  0  0  0
  150.0098  139.9392  156.9441 C   0  0  0  0  0  0  0  0  0  0  0  0
  149.6656  141.2425  156.2015 C   0  0  0  0  0  0  0  0  0  0  0  0
  149.7473  142.3468  157.0943 O   0  0  0  0  0  0  0  0  0  0  0  0
  151.0595  142.5435  157.6067 C   0  0  0  0  0  0  0  0  0  0  0  0
  151.4957  141.3202  158.4322 C   0  0  0  0  0  0  0  0  0  0  0  0
  148.2109  134.2424  154.5647 C   0  0  0  0  0  0  0  0  0  0  0  0
  145.3633  133.8834  150.8674 H   0  0  0  0  0  0  0  0  0  0  0  0
  146.8564  132.9692  150.8307 H   0  0  0  0  0  0  0  0  0  0  0  0
  146.8941  134.7186  150.6335 H   0  0  0  0  0  0  0  0  0  0  0  0
  146.0655  133.2352  153.1868 H   0  0  0  0  0  0  0  0  0  0  0  0
  144.7507  135.3378  152.7691 H   0  0  0  0  0  0  0  0  0  0  0  0
  146.2497  136.2574  152.7183 H   0  0  0  0  0  0  0  0  0  0  0  0
  145.7365  135.4652  154.2082 H   0  0  0  0  0  0  0  0  0  0  0  0
  148.1860  132.1419  152.3049 H   0  0  0  0  0  0  0  0  0  0  0  0
  149.3918  133.3164  151.7848 H   0  0  0  0  0  0  0  0  0  0  0  0
  149.2586  131.6731  154.2823 H   0  0  0  0  0  0  0  0  0  0  0  0
  150.7006  132.3035  153.4895 H   0  0  0  0  0  0  0  0  0  0  0  0
  150.3404  134.5049  154.4125 H   0  0  0  0  0  0  0  0  0  0  0  0
  151.4576  132.5786  157.4224 H   0  0  0  0  0  0  0  0  0  0  0  0
  152.0547  133.1831  155.8715 H   0  0  0  0  0  0  0  0  0  0  0  0
  151.1536  131.6650  155.9505 H   0  0  0  0  0  0  0  0  0  0  0  0
  147.9007  135.3364  159.5059 H   0  0  0  0  0  0  0  0  0  0  0  0
  153.0741  137.5537  156.3732 H   0  0  0  0  0  0  0  0  0  0  0  0
  150.9451  138.7546  159.3600 H   0  0  0  0  0  0  0  0  0  0  0  0
  152.6308  138.7605  158.9142 H   0  0  0  0  0  0  0  0  0  0  0  0
  152.0713  140.5348  155.8915 H   0  0  0  0  0  0  0  0  0  0  0  0
  149.9632  139.0936  156.2568 H   0  0  0  0  0  0  0  0  0  0  0  0
  149.2419  139.7608  157.6982 H   0  0  0  0  0  0  0  0  0  0  0  0
  150.3288  141.3979  155.3492 H   0  0  0  0  0  0  0  0  0  0  0  0
  148.6518  141.1879  155.8048 H   0  0  0  0  0  0  0  0  0  0  0  0
  151.7567  142.7353  156.7898 H   0  0  0  0  0  0  0  0  0  0  0  0
  151.0599  143.4343  158.2351 H   0  0  0  0  0  0  0  0  0  0  0  0
  150.8586  141.2522  159.3149 H   0  0  0  0  0  0  0  0  0  0  0  0
  152.5118  141.4735  158.7975 H   0  0  0  0  0  0  0  0  0  0  0  0
  148.0768  135.2679  154.9112 H   0  0  0  0  0  0  0  0  0  0  0  0
  147.5106  133.6030  155.1060 H   0  0  0  0  0  0  0  0  0  0  0  0
  148.3746  134.9532  152.6977 H   0  0  0  0  0  0  0  0  0  0  0  0
  1  2  1  0  0  0  0
  1 28  1  0  0  0  0
  1 29  1  0  0  0  0
  1 30  1  0  0  0  0
  2  3  1  0  0  0  0
  2  4  1  0  0  0  0
  2 31  1  0  0  0  0
  3 32  1  0  0  0  0
  3 33  1  0  0  0  0
  3 34  1  0  0  0  0
  4 27  1  0  0  0  0
  4  5  1  0  0  0  0
  4 58  1  0  0  0  0
  5  6  1  0  0  0  0
  5 35  1  0  0  0  0
  5 36  1  0  0  0  0
  6  7  1  0  0  0  0
  6 37  1  0  0  0  0
  6 38  1  0  0  0  0
  7  8  1  0  0  0  0
  7 27  1  0  0  0  0
  7 39  1  0  0  0  0
  8  9  1  0  0  0  0
  8 10  1  0  0  0  0
  9 40  1  0  0  0  0
  9 41  1  0  0  0  0
  9 42  1  0  0  0  0
 10 15  1  0  0  0  0
 10 11  2  0  0  0  0
 11 12  1  0  0  0  0
 12 13  2  0  0  0  0
 12 43  1  0  0  0  0
 13 14  1  0  0  0  0
 14 18  1  0  0  0  0
 14 15  2  0  0  0  0
 15 16  1  0  0  0  0
 16 17  2  0  0  0  0
 17 18  1  0  0  0  0
 17 44  1  0  0  0  0
 18 19  1  0  0  0  0
 19 20  1  0  0  0  0
 19 45  1  0  0  0  0
 19 46  1  0  0  0  0
 20 26  1  0  0  0  0
 20 21  1  0  0  0  0
 20 22  1  0  0  0  0
 21 47  1  0  0  0  0
 22 23  1  0  0  0  0
 22 48  1  0  0  0  0
 22 49  1  0  0  0  0
 23 24  1  0  0  0  0
 23 50  1  0  0  0  0
 23 51  1  0  0  0  0
 24 25  1  0  0  0  0
 25 26  1  0  0  0  0
 25 52  1  0  0  0  0
 25 53  1  0  0  0  0
 26 54  1  0  0  0  0
 26 55  1  0  0  0  0
 27 56  1  0  0  0  0
 27 57  1  0  0  0  0
M  CHG  1   4   1
M  END
> <s_m_source_file>
AV-unprocessed.smi

> <i_m_source_file_index>
242

> <i_lp_mmshare_version>
43012

> <i_f3d_flags>
0

> <s_epik_input>
W0NIM11bQ0hdKFtDSDNdKU4xW0NIMl1bQ0gyXVtDQEhdKFtDSDJdMSlOKFtDSDNdKWMobltjSF1uMiljKGMyMyluW2NIXW4zW0NIMl1DNChbT0hdKVtDSDJdW0NIMl1PW0NIMl1bQ0gyXTQ=

> <s_epik_cmdline>
J2VwaWtfcHl0aG9uJywgJy1waCcsICc3LjAnLCAnLXRuJywgJzgnLCAnLW1hJywgJzIwMCcsICctbWV0YWxfYmluZGluZycsICctaW1hZScsICc8aW5maWxlLm1hZT4nLCAnLW9tYWUnLCAnPG91dGZpbGUubWFlPic=

> <r_lp_tautomer_probability>
1

> <r_epik_Ionization_Penalty>
0.000825961

> <r_epik_Ionization_Penalty_Charging>
0.00034898

> <r_epik_Ionization_Penalty_Neutral>
0.000476981

> <r_epik_State_Penalty>
-0

> <r_epik_Charging_Adjusted_Penalty>
0.00034898

> <i_epik_Tot_Q>
1

> <i_epik_Tot_abs_Q>
1

> <r_epik_Metal_State_Penalty>
-0

> <b_epik_Metal_Only>
0

> <s_lp_Force_Field>
OPLS_2005

> <r_lp_Energy>
47.5475

> <b_lp_Chiralities_Consistent>
1

> <s_lp_Variant>
AV-unprocessed.smi:242-3

> <Gold.Version>
5.8.1

> <Gold.Id.Protein>
6NUR|6NUR_protein|mol2

> <Gold.PLP.Fitness>
43.2650

> <Gold.PLP.PLP>
-31.5388

> <Gold.PLP.part.hbond>
-3.0000

> <Gold.PLP.part.metal>
0.0000

> <Gold.PLP.part.buried>
-5.1817

> <Gold.PLP.part.nonpolar>
-25.3939

> <Gold.PLP.part.repulsive>
1.6905

> <Gold.PLP.ligand.clash>
0.0000

> <Gold.PLP.ligand.torsion>
0.2382

> <Gold.PLP.Chemscore.Hbond>
3.9500

> <Gold.PLP.Chemscore.CHOScore>
0.0000

> <Gold.PLP.Chemscore.Metal>
0.0000

> <Gold.Chemscore.Hbonds>
donor molecule, donor type, donor heavy atom, donor atom, acceptor molecule, acceptor atom, score
      L1  H     4    58       P1  7948  2.00
      P1  H  7997  8009       L1    21  1.00
      P1  H 10752 10763       L1    16  1.00

> <Gold.PLP.Chemscore.Internal.Correction>
0.3527

> <Gold.Rescore>
     Score         DG    S(hbond)    S(metal)    S(lipo)     H(rot)  DE(clash)    DE(int)     intcor
     13.83     -14.36       1.95        0.00      74.88       2.50       0.06       0.47       ----

> <Gold.Chemscore.Fitness>
13.8328

> <Gold.Chemscore.DG>
-14.3602

> <Gold.Chemscore.ZeroCoef>
-5.4800

> <Gold.Chemscore.Hbond>
1.9514

> <Gold.Chemscore.Metal>
0.0000

> <Gold.Chemscore.Lipo>
74.8833

> <Gold.Chemscore.Internal_Hbond>
0.0000

> <Gold.Chemscore.DEClash>
0.0617

> <Gold.Chemscore.DEInternal>
0.4658

> <Gold.Chemscore.Rot>
2.4996

> <Gold.Chemscore.Internal.Correction>
   9.000000E+99

> <Gold.Chemscore.Hbonds>
donor molecule, donor type, donor heavy atom, donor atom, acceptor molecule, acceptor atom, score
      L1  H     4    58       P1  7948  0.59
      P1  H  7997  8009       L1    21  0.34
      P1  H 10752 10763       L1    16  0.50

> <Gold.Chemscore.Hbond.Weighted>
-6.5178

> <Gold.Chemscore.Metal.Weighted>
-0.0000

> <Gold.Chemscore.Lipo.Weighted>
-8.7613

> <Gold.Chemscore.Internal_Hbond.Weighted>
0.0000

> <Gold.Chemscore.DEClash.Weighted>
0.0617

> <Gold.Chemscore.DEInternal.Weighted>
0.4658

> <Gold.Chemscore.Rot.Weighted>
6.3990

> <Gold.Chemscore.Internal.Correction.Weighted>
   9.000000E+99

> <Gold.Protein.RotatedTorsions>
[ 6907 6896 6895 6894 ] final   17.78 input  -60.11 | X-H torsion
[ 7974 7965 7964 7962 ] final  114.69 input  175.53 | X-H torsion
[ 8008 7997 7996 7995 ] final -165.50 input   59.86 | X-H torsion
[ 10167 10162 10161 10158 ] final  112.43 input  -65.29 | X-H torsion
[ 10718 10713 10712 10709 ] final  -64.90 input   66.30 | X-H torsion
[ 10763 10752 10751 10750 ] final   82.08 input  -60.55 | X-H torsion
[ 11005 11000 10999 10996 ] final -102.74 input  -57.11 | X-H torsion

> <Gold.Protein.ActiveResidues>
 VAL166  LYS551  ARG553  GLY616  TRP617  ASP618  TYR619  PRO620  LYS621  CYS622 
 ASP623  PHE694  ASN695  SER759  ASP760  ASP761  ALA762  ILE779  LEU786  VAL792 
 PHE793  MET794  SER795  GLU796  ALA797  LYS798  CYS799  TRP800  GLU811  SER814 

> <Gold.Protein.RotatedAtoms>
  151.8549  135.0544  160.0462 H   0  0  0  0  0  0  0  0  0  0  0  0  # atno 6907 bound_to 6896
  152.2708  133.5376  159.5446 H   0  0  0  0  0  0  0  0  0  0  0  0  # atno 6908 bound_to 6896
  150.7151  134.0617  159.3876 H   0  0  0  0  0  0  0  0  0  0  0  0  # atno 6909 bound_to 6896
  145.2012  139.2951  143.4317 H   0  0  0  0  0  0  0  0  0  0  0  0  # atno 7974 bound_to 7965
  155.8507  140.0962  157.1677 H   0  0  0  0  0  0  0  0  0  0  0  0  # atno 8008 bound_to 7997
  154.3985  140.1383  156.3902 H   0  0  0  0  0  0  0  0  0  0  0  0  # atno 8009 bound_to 7997
  155.7965  140.3454  155.5381 H   0  0  0  0  0  0  0  0  0  0  0  0  # atno 8010 bound_to 7997
  139.6536  144.7129  151.2000 H   0  0  0  0  0  0  0  0  0  0  0  0  # atno 10167 bound_to 10162
  156.0701  130.4240  150.1487 H   0  0  0  0  0  0  0  0  0  0  0  0  # atno 10718 bound_to 10713
  153.1172  135.4741  154.9135 H   0  0  0  0  0  0  0  0  0  0  0  0  # atno 10763 bound_to 10752
  154.7540  135.3113  154.8507 H   0  0  0  0  0  0  0  0  0  0  0  0  # atno 10764 bound_to 10752
  153.9081  135.6868  153.4806 H   0  0  0  0  0  0  0  0  0  0  0  0  # atno 10765 bound_to 10752
  141.1176  133.8583  157.1397 H   0  0  0  0  0  0  0  0  0  0  0  0  # atno 11005 bound_to 11000
  146.3417  140.2258  142.8592 LP  0  0  0  0  0  0  0  0  0  0  0  0  # atno 17320 bound_to 7965
  144.9946  140.8577  143.5319 LP  0  0  0  0  0  0  0  0  0  0  0  0  # atno 17321 bound_to 7965
  140.7549  143.6109  150.8606 LP  0  0  0  0  0  0  0  0  0  0  0  0  # atno 17342 bound_to 10162
  139.9760  143.6004  152.2958 LP  0  0  0  0  0  0  0  0  0  0  0  0  # atno 17343 bound_to 10162
  156.9539  130.9783  151.3492 LP  0  0  0  0  0  0  0  0  0  0  0  0  # atno 17370 bound_to 10713
  157.5767  130.8348  149.8465 LP  0  0  0  0  0  0  0  0  0  0  0  0  # atno 17371 bound_to 10713
  140.0110  134.9988  157.0394 LP  0  0  0  0  0  0  0  0  0  0  0  0  # atno 17394 bound_to 11000
  140.4600  134.1494  155.7190 LP  0  0  0  0  0  0  0  0  0  0  0  0  # atno 17395 bound_to 11000

$$$$
