#       Name:                AV-unprocessed.smi:1703
#       Creating user name   scv26
#       Creation time:       Fri Mar 27 08:05:03 2020


#       File generated by GOLD software.
#

@<TRIPOS>MOLECULE
AV-unprocessed.smi:1703
    56    58     1
SMALL
NO_CHARGES


@<TRIPOS>ATOM
      1 ****        -2.3598   3.5837  -2.8107 C.3            1 S1                 0.0000
      2 ****        -2.3719   2.9247  -1.4272 C.3            1 S1                 0.0000
      3 ****        -1.9016   1.4597  -1.4802 C.3            1 S1                 0.0000
      4 ****        -2.0106   0.8375  -0.1393 N.4            1 S1                 1.0000
      5 ****        -1.4699  -0.5442  -0.0738 C.3            1 S1                 0.0000
      6 ****         0.0681  -0.5665   0.0227 C.3            1 S1                 0.0000
      7 ****         0.4556   0.0634   1.2293 O.3            1 S1                 0.0000
      8 ****         0.6247  -2.0042  -0.0112 C.3            1 S1                 0.0000
      9 ****         2.0798  -2.0469   0.0578 N.pl3          1 S1                 0.0000
     10 ****         2.9698  -1.9788  -0.9645 C.2            1 S1                 0.0000
     11 ****         2.5395  -1.8545  -2.3939 C.3            1 S1                 0.0000
     12 ****         2.0784  -3.0751  -2.9321 O.3            1 S1                 0.0000
     13 ****         4.2563  -2.0349  -0.6191 N.2            1 S1                 0.0000
     14 ****         4.1974  -2.1567   0.7553 C.ar           1 S1                 0.0000
     15 ****         5.2315  -2.2618   1.7128 C.ar           1 S1                 0.0000
     16 ****         4.9253  -2.3777   3.0844 C.ar           1 S1                 0.0000
     17 ****         3.5837  -2.3918   3.5175 C.ar           1 S1                 0.0000
     18 ****         2.5380  -2.2887   2.5800 C.ar           1 S1                 0.0000
     19 ****         2.8488  -2.1709   1.2117 C.ar           1 S1                 0.0000
     20 ****        -3.4025   0.9333   0.3593 C.3            1 S1                 0.0000
     21 ****        -3.8885   2.3961   0.3632 C.3            1 S1                 0.0000
     22 ****        -3.2611   3.2487   1.4807 C.3            1 S1                 0.0000
     23 ****        -3.7062   2.9779  -0.9279 O.3            1 S1                 0.0000
     24 ****        -1.3571   3.5794  -3.2391 H              1 S1                 0.0000
     25 ****        -2.6902   4.6211  -2.7503 H              1 S1                 0.0000
     26 ****        -3.0224   3.0632  -3.5027 H              1 S1                 0.0000
     27 ****        -1.7117   3.4978  -0.7762 H              1 S1                 0.0000
     28 ****        -2.5021   0.8948  -2.1950 H              1 S1                 0.0000
     29 ****        -0.8716   1.4246  -1.8334 H              1 S1                 0.0000
     30 ****        -1.8786  -1.0591   0.7974 H              1 S1                 0.0000
     31 ****        -1.8093  -1.1066  -0.9450 H              1 S1                 0.0000
     32 ****         0.5033  -0.0035  -0.8018 H              1 S1                 0.0000
     33 ****         0.1793  -0.4755   1.9552 H              1 S1                 0.0000
     34 ****         0.2220  -2.5861   0.8190 H              1 S1                 0.0000
     35 ****         0.2994  -2.5148  -0.9176 H              1 S1                 0.0000
     36 ****         1.7578  -1.1008  -2.4823 H              1 S1                 0.0000
     37 ****         3.3805  -1.5056  -2.9942 H              1 S1                 0.0000
     38 ****         1.8731  -2.9427  -3.8449 H              1 S1                 0.0000
     39 ****         6.2624  -2.2523   1.3912 H              1 S1                 0.0000
     40 ****         5.7240  -2.4566   3.8075 H              1 S1                 0.0000
     41 ****         3.3581  -2.4809   4.5701 H              1 S1                 0.0000
     42 ****         1.5105  -2.2982   2.9105 H              1 S1                 0.0000
     43 ****        -4.0508   0.3304  -0.2787 H              1 S1                 0.0000
     44 ****        -3.4734   0.5171   1.3652 H              1 S1                 0.0000
     45 ****        -4.9643   2.3879   0.5411 H              1 S1                 0.0000
     46 ****        -3.5266   2.8548   2.4619 H              1 S1                 0.0000
     47 ****        -3.6191   4.2774   1.4322 H              1 S1                 0.0000
     48 ****        -2.1730   3.2702   1.4260 H              1 S1                 0.0000
     49 ****        -1.4464   1.3899   0.4913 H              1 S1                 0.0000
     50 ****         0.0224   0.9624   1.2936 LP             1 S1                 0.0000
     51 ****         1.4497   0.1703   1.2488 LP             1 S1                 0.0000
     52 ****         1.2588  -3.3715  -2.4418 LP             1 S1                 0.0000
     53 ****         2.7898  -3.7723  -2.8443 LP             1 S1                 0.0000
     54 ****         5.0632  -1.9979  -1.2087 LP             1 S1                 0.0000
     55 ****        -4.2986   2.4950  -1.5728 LP             1 S1                 0.0000
     56 ****        -3.9810   3.9381  -0.8776 LP             1 S1                 0.0000
@<TRIPOS>BOND
    1    1    2 1     
    2    1   24 1     
    3    1   25 1     
    4    1   26 1     
    5    2   23 1     
    6    2    3 1     
    7    2   27 1     
    8    3    4 1     
    9    3   28 1     
   10    3   29 1     
   11    4    5 1     
   12    4   20 1     
   13    4   49 1     
   14    5    6 1     
   15    5   30 1     
   16    5   31 1     
   17    6    7 1     
   18    6    8 1     
   19    6   32 1     
   20    7   33 1     
   21    8    9 1     
   22    8   34 1     
   23    8   35 1     
   24    9   19 1     
   25    9   10 1     
   26   10   11 1     
   27   10   13 2     
   28   11   12 1     
   29   11   36 1     
   30   11   37 1     
   31   12   38 1     
   32   13   14 1     
   33   14   19 ar    
   34   14   15 ar    
   35   15   16 ar    
   36   15   39 1     
   37   16   17 ar    
   38   16   40 1     
   39   17   18 ar    
   40   17   41 1     
   41   18   19 ar    
   42   18   42 1     
   43   20   21 1     
   44   20   43 1     
   45   20   44 1     
   46   21   22 1     
   47   21   23 1     
   48   21   45 1     
   49   22   46 1     
   50   22   47 1     
   51   22   48 1     
   52    7   50 1     
   53    7   51 1     
   54   12   52 1     
   55   12   53 1     
   56   13   54 1     
   57   23   55 1     
   58   23   56 1     
@<TRIPOS>SUBSTRUCTURE
      1 S1             1
@<TRIPOS>SET
LONE_PAIRS      STATIC     ATOMS    <user>   **** ""
7 50 51 52 53 54 55 56
DONOR_HYDROGENS      STATIC     ATOMS    <user>   **** ""
3 49 33 38
ATOM$BLUE        STATIC     ATOMS    COLORGROUP SYSTEM
7 50 51 52 53 54 55 56
ATOM$RED        STATIC     ATOMS    COLORGROUP SYSTEM
3 49 33 38
