AV-unprocessed.smi:203|AV-procd|sdf|1597|dock6
  -GOLD-   2262019503D 1   1.00000     0.00000
 Structure written by MMmdl.
 57 61  0  0  0  0  0  0  0  0  1 V2000
  146.5826  130.9477  156.4353 O   0  0  0  0  0  0  0  0  0  0  0  0
  146.2009  132.0764  156.7355 C   0  0  0  0  0  0  0  0  0  0  0  0
  147.1153  133.1467  157.3058 C   0  0  0  0  0  0  0  0  0  0  0  0
  146.1440  134.2685  157.7268 C   0  0  2  0  0  0  0  0  0  0  0  0
  146.0214  134.4726  159.2705 C   0  0  1  0  0  0  0  0  0  0  0  0
  145.9202  133.1326  160.0471 C   0  0  0  0  0  0  0  0  0  0  0  0
  145.8031  133.3588  161.5602 C   0  0  0  0  0  0  0  0  0  0  0  0
  146.9810  134.2057  162.0528 C   0  0  0  0  0  0  0  0  0  0  0  0
  147.0508  135.5260  161.2745 C   0  0  0  0  0  0  0  0  0  0  0  0
  147.1114  135.2914  159.8320 N   0  0  0  0  0  0  0  0  0  0  0  0
  147.4021  136.4410  159.1829 C   0  0  0  0  0  0  0  0  0  0  0  0
  146.3662  137.1152  158.6263 N   0  0  0  0  0  0  0  0  0  0  0  0
  146.5885  138.2628  157.9783 C   0  0  0  0  0  0  0  0  0  0  0  0
  147.7458  138.8962  157.7738 N   0  0  0  0  0  0  0  0  0  0  0  0
  148.7895  138.2142  158.3266 C   0  0  0  0  0  0  0  0  0  0  0  0
  148.7096  136.9859  159.0404 C   0  0  0  0  0  0  0  0  0  0  0  0
  149.9779  136.5908  159.4493 N   0  0  0  0  0  0  0  0  0  0  0  0
  150.7630  137.5346  159.0056 C   0  0  0  0  0  0  0  0  0  0  0  0
  150.1322  138.5478  158.3201 N   0  0  0  0  0  0  0  0  0  0  0  0
  150.7618  139.7148  157.7264 C   0  0  0  0  0  0  0  0  0  0  0  0
  151.9833  140.2044  158.5335 C   0  0  1  0  0  0  0  0  0  0  0  0
  153.1222  139.4959  158.0832 O   0  0  0  0  0  0  0  0  0  0  0  0
  152.2649  141.7095  158.3505 C   0  0  1  0  0  0  0  0  0  0  0  0
  151.0302  142.6102  158.4261 C   0  0  0  0  0  0  0  0  0  0  0  0
  151.5973  143.9613  158.8289 C   0  0  0  0  0  0  0  0  0  0  0  0
  152.9717  143.6222  159.4102 C   0  0  0  0  0  0  0  0  0  0  0  0
  153.0187  142.2025  159.4484 O   0  0  0  0  0  0  0  0  0  0  0  0
  144.8046  133.9105  157.0471 C   0  0  0  0  0  0  0  0  0  0  0  0
  144.9576  132.5359  156.6119 N   0  0  0  0  0  0  0  0  0  0  0  0
  147.7151  132.7607  158.1303 H   0  0  0  0  0  0  0  0  0  0  0  0
  147.7957  133.4900  156.5261 H   0  0  0  0  0  0  0  0  0  0  0  0
  146.4784  135.2015  157.2722 H   0  0  0  0  0  0  0  0  0  0  0  0
  145.0925  135.0139  159.4529 H   0  0  0  0  0  0  0  0  0  0  0  0
  145.0619  132.5516  159.7121 H   0  0  0  0  0  0  0  0  0  0  0  0
  146.7983  132.5161  159.8546 H   0  0  0  0  0  0  0  0  0  0  0  0
  144.8630  133.8630  161.7876 H   0  0  0  0  0  0  0  0  0  0  0  0
  145.7821  132.4027  162.0834 H   0  0  0  0  0  0  0  0  0  0  0  0
  146.8816  134.4047  163.1201 H   0  0  0  0  0  0  0  0  0  0  0  0
  147.9126  133.6531  161.9232 H   0  0  0  0  0  0  0  0  0  0  0  0
  146.1764  136.1362  161.5053 H   0  0  0  0  0  0  0  0  0  0  0  0
  147.9266  136.0912  161.5977 H   0  0  0  0  0  0  0  0  0  0  0  0
  145.7137  138.7427  157.5647 H   0  0  0  0  0  0  0  0  0  0  0  0
  151.8313  137.5171  159.1655 H   0  0  0  0  0  0  0  0  0  0  0  0
  151.0522  139.4766  156.7021 H   0  0  0  0  0  0  0  0  0  0  0  0
  150.0061  140.4978  157.6598 H   0  0  0  0  0  0  0  0  0  0  0  0
  151.8276  139.9854  159.5907 H   0  0  0  0  0  0  0  0  0  0  0  0
  152.8943  138.5827  157.9995 H   0  0  0  0  0  0  0  0  0  0  0  0
  152.8009  141.8987  157.4177 H   0  0  0  0  0  0  0  0  0  0  0  0
  150.4756  142.6494  157.4883 H   0  0  0  0  0  0  0  0  0  0  0  0
  150.3533  142.2543  159.2041 H   0  0  0  0  0  0  0  0  0  0  0  0
  151.7017  144.6192  157.9652 H   0  0  0  0  0  0  0  0  0  0  0  0
  150.9548  144.4593  159.5561 H   0  0  0  0  0  0  0  0  0  0  0  0
  153.7655  143.9924  158.7604 H   0  0  0  0  0  0  0  0  0  0  0  0
  153.1208  144.0428  160.4047 H   0  0  0  0  0  0  0  0  0  0  0  0
  143.9415  134.0272  157.7028 H   0  0  0  0  0  0  0  0  0  0  0  0
  144.6356  134.5365  156.1702 H   0  0  0  0  0  0  0  0  0  0  0  0
  144.1874  131.9910  156.2515 H   0  0  0  0  0  0  0  0  0  0  0  0
  1  2  2  0  0  0  0
  2 29  1  0  0  0  0
  2  3  1  0  0  0  0
  3  4  1  0  0  0  0
  3 30  1  0  0  0  0
  3 31  1  0  0  0  0
  4  5  1  0  0  0  0
  4 28  1  0  0  0  0
  4 32  1  0  0  0  0
  5 10  1  0  0  0  0
  5  6  1  0  0  0  0
  5 33  1  0  0  0  0
  6  7  1  0  0  0  0
  6 34  1  0  0  0  0
  6 35  1  0  0  0  0
  7  8  1  0  0  0  0
  7 36  1  0  0  0  0
  7 37  1  0  0  0  0
  8  9  1  0  0  0  0
  8 38  1  0  0  0  0
  8 39  1  0  0  0  0
  9 10  1  0  0  0  0
  9 40  1  0  0  0  0
  9 41  1  0  0  0  0
 10 11  1  0  0  0  0
 11 16  1  0  0  0  0
 11 12  2  0  0  0  0
 12 13  1  0  0  0  0
 13 14  2  0  0  0  0
 13 42  1  0  0  0  0
 14 15  1  0  0  0  0
 15 19  1  0  0  0  0
 15 16  2  0  0  0  0
 16 17  1  0  0  0  0
 17 18  2  0  0  0  0
 18 19  1  0  0  0  0
 18 43  1  0  0  0  0
 19 20  1  0  0  0  0
 20 21  1  0  0  0  0
 20 44  1  0  0  0  0
 20 45  1  0  0  0  0
 21 22  1  0  0  0  0
 21 23  1  0  0  0  0
 21 46  1  0  0  0  0
 22 47  1  0  0  0  0
 23 27  1  0  0  0  0
 23 24  1  0  0  0  0
 23 48  1  0  0  0  0
 24 25  1  0  0  0  0
 24 49  1  0  0  0  0
 24 50  1  0  0  0  0
 25 26  1  0  0  0  0
 25 51  1  0  0  0  0
 25 52  1  0  0  0  0
 26 27  1  0  0  0  0
 26 53  1  0  0  0  0
 26 54  1  0  0  0  0
 28 29  1  0  0  0  0
 28 55  1  0  0  0  0
 28 56  1  0  0  0  0
 29 57  1  0  0  0  0
M  END
> <s_m_source_file>
AV-unprocessed.smi

> <i_m_source_file_index>
203

> <i_lp_mmshare_version>
43012

> <i_f3d_flags>
0

> <s_epik_input>
Tz1DMVtDSDJdW0NASF0oW0NIMl1bTkhdMSlbQ0BASF0yW0NIMl1bQ0gyXVtDSDJdW0NIMl1OMmMobltjSF1uMyljKGMzNCluW2NIXW40W0NIMl1bQ0BIXShbT0hdKVtDQEBIXTVbQ0gyXVtDSDJdW0NIMl1PNQ==

> <s_epik_cmdline>
J2VwaWtfcHl0aG9uJywgJy1waCcsICc3LjAnLCAnLXRuJywgJzgnLCAnLW1hJywgJzIwMCcsICctbWV0YWxfYmluZGluZycsICctaW1hZScsICc8aW5maWxlLm1hZT4nLCAnLW9tYWUnLCAnPG91dGZpbGUubWFlPic=

> <r_lp_tautomer_probability>
1

> <r_epik_Ionization_Penalty>
0.00175146

> <r_epik_Ionization_Penalty_Charging>
0

> <r_epik_Ionization_Penalty_Neutral>
0.00175146

> <r_epik_State_Penalty>
0.00109045

> <r_epik_Charging_Adjusted_Penalty>
0.00109045

> <i_epik_Tot_Q>
0

> <i_epik_Tot_abs_Q>
0

> <r_epik_Metal_State_Penalty>
-0

> <b_epik_Metal_Only>
0

> <s_lp_Force_Field>
OPLS_2005

> <r_lp_Energy>
57.64

> <b_lp_Chiralities_Consistent>
1

> <s_lp_Variant>
AV-unprocessed.smi:203-16

> <Gold.Version>
5.8.1

> <Gold.Id.Protein>
6NUR|6NUR_protein|mol2

> <Gold.PLP.Fitness>
40.0894

> <Gold.PLP.PLP>
-34.8977

> <Gold.PLP.part.hbond>
-3.5480

> <Gold.PLP.part.metal>
0.0000

> <Gold.PLP.part.buried>
-6.7876

> <Gold.PLP.part.nonpolar>
-25.0707

> <Gold.PLP.part.repulsive>
0.1235

> <Gold.PLP.ligand.clash>
0.0000

> <Gold.PLP.ligand.torsion>
2.0224

> <Gold.PLP.Chemscore.Hbond>
2.9760

> <Gold.PLP.Chemscore.CHOScore>
0.0000

> <Gold.PLP.Chemscore.Metal>
0.0000

> <Gold.Chemscore.Hbonds>
donor molecule, donor type, donor heavy atom, donor atom, acceptor molecule, acceptor atom, score
      L1  H    29    57       P1 10957  0.89
      P1  H  6896  6909       L1    17  1.00
      P1  H  7997  8010       L1    22  1.00

> <Gold.PLP.Chemscore.Internal.Correction>
0.3086

> <Gold.Rescore>
     Score         DG    S(hbond)    S(metal)    S(lipo)     H(rot)  DE(clash)    DE(int)     intcor
     15.91     -18.02       2.91        0.00      83.61       2.72       0.01       2.10       ----

> <Gold.Chemscore.Fitness>
15.9109

> <Gold.Chemscore.DG>
-18.0185

> <Gold.Chemscore.ZeroCoef>
-5.4800

> <Gold.Chemscore.Hbond>
2.9079

> <Gold.Chemscore.Metal>
0.0000

> <Gold.Chemscore.Lipo>
83.6054

> <Gold.Chemscore.Internal_Hbond>
0.0000

> <Gold.Chemscore.DEClash>
0.0089

> <Gold.Chemscore.DEInternal>
2.0987

> <Gold.Chemscore.Rot>
2.7171

> <Gold.Chemscore.Internal.Correction>
   9.000000E+99

> <Gold.Chemscore.Hbonds>
donor molecule, donor type, donor heavy atom, donor atom, acceptor molecule, acceptor atom, score
      L1  H    29    57       P1 10957  0.73
      P1  H  6896  6909       L1    17  0.88
      P1  H  7997  8010       L1    22  0.88

> <Gold.Chemscore.Hbond.Weighted>
-9.7123

> <Gold.Chemscore.Metal.Weighted>
-0.0000

> <Gold.Chemscore.Lipo.Weighted>
-9.7818

> <Gold.Chemscore.Internal_Hbond.Weighted>
0.0000

> <Gold.Chemscore.DEClash.Weighted>
0.0089

> <Gold.Chemscore.DEInternal.Weighted>
2.0987

> <Gold.Chemscore.Rot.Weighted>
6.9557

> <Gold.Chemscore.Internal.Correction.Weighted>
   9.000000E+99

> <Gold.Protein.RotatedTorsions>
[ 6907 6896 6895 6894 ] final   70.76 input  -60.11 | X-H torsion
[ 7974 7965 7964 7962 ] final  176.28 input  175.53 | X-H torsion
[ 8008 7997 7996 7995 ] final   44.25 input   59.86 | X-H torsion
[ 10167 10162 10161 10158 ] final   21.06 input  -65.29 | X-H torsion
[ 10718 10713 10712 10709 ] final  -54.18 input   66.30 | X-H torsion
[ 10763 10752 10751 10750 ] final  118.91 input  -60.55 | X-H torsion
[ 11005 11000 10999 10996 ] final  123.25 input  -57.11 | X-H torsion

> <Gold.Protein.ActiveResidues>
 VAL166  LYS551  ARG553  GLY616  TRP617  ASP618  TYR619  PRO620  LYS621  CYS622 
 ASP623  PHE694  ASN695  SER759  ASP760  ASP761  ALA762  ILE779  LEU786  VAL792 
 PHE793  MET794  SER795  GLU796  ALA797  LYS798  CYS799  TRP800  GLU811  SER814 

> <Gold.Protein.RotatedAtoms>
  152.4769  134.4820  159.9668 H   0  0  0  0  0  0  0  0  0  0  0  0  # atno 6907 bound_to 6896
  151.4834  133.3535  159.2850 H   0  0  0  0  0  0  0  0  0  0  0  0  # atno 6908 bound_to 6896
  150.8814  134.8232  159.7289 H   0  0  0  0  0  0  0  0  0  0  0  0  # atno 6909 bound_to 6896
  144.7187  140.0073  143.6440 H   0  0  0  0  0  0  0  0  0  0  0  0  # atno 7974 bound_to 7965
  155.3162  140.3394  155.4242 H   0  0  0  0  0  0  0  0  0  0  0  0  # atno 8008 bound_to 7997
  156.1931  140.1705  156.8090 H   0  0  0  0  0  0  0  0  0  0  0  0  # atno 8009 bound_to 7997
  154.5466  140.0714  156.8583 H   0  0  0  0  0  0  0  0  0  0  0  0  # atno 8010 bound_to 7997
  140.5455  143.9601  150.6545 H   0  0  0  0  0  0  0  0  0  0  0  0  # atno 10167 bound_to 10162
  156.1472  130.4152  150.0004 H   0  0  0  0  0  0  0  0  0  0  0  0  # atno 10718 bound_to 10713
  153.5749  135.3495  155.2852 H   0  0  0  0  0  0  0  0  0  0  0  0  # atno 10763 bound_to 10752
  154.8676  135.4168  154.2684 H   0  0  0  0  0  0  0  0  0  0  0  0  # atno 10764 bound_to 10752
  153.3458  135.7052  153.6899 H   0  0  0  0  0  0  0  0  0  0  0  0  # atno 10765 bound_to 10752
  139.9304  134.9641  156.8231 H   0  0  0  0  0  0  0  0  0  0  0  0  # atno 11005 bound_to 11000
  146.0286  139.3315  143.0769 LP  0  0  0  0  0  0  0  0  0  0  0  0  # atno 17320 bound_to 7965
  145.8480  140.9544  143.0764 LP  0  0  0  0  0  0  0  0  0  0  0  0  # atno 17321 bound_to 7965
  140.3013  143.3258  152.0969 LP  0  0  0  0  0  0  0  0  0  0  0  0  # atno 17342 bound_to 10162
  139.5006  144.6695  151.6277 LP  0  0  0  0  0  0  0  0  0  0  0  0  # atno 17343 bound_to 10162
  156.7872  130.9243  151.3646 LP  0  0  0  0  0  0  0  0  0  0  0  0  # atno 17370 bound_to 10713
  157.6627  130.8980  149.9864 LP  0  0  0  0  0  0  0  0  0  0  0  0  # atno 17371 bound_to 10713
  140.6217  133.9987  155.7621 LP  0  0  0  0  0  0  0  0  0  0  0  0  # atno 17394 bound_to 11000
  141.0889  133.9947  157.3269 LP  0  0  0  0  0  0  0  0  0  0  0  0  # atno 17395 bound_to 11000

$$$$
