AV-unprocessed.smi:2321|AV-procd|sdf|9282|dock2
  -GOLD-   2272012503D 1   1.00000     0.00000
 Structure written by MMmdl.
 36 37  0  0  0  0  0  0  0  0  1 V2000
  150.1182  136.4250  158.5866 O   0  0  0  0  0  0  0  0  0  0  0  0
  149.1518  137.1812  158.6529 C   0  0  0  0  0  0  0  0  0  0  0  0
  148.9184  138.2071  157.8112 N   0  0  0  0  0  0  0  0  0  0  0  0
  149.6859  138.6470  156.6991 C   0  0  0  0  0  0  0  0  0  0  0  0
  150.3210  137.7803  155.7768 C   0  0  0  0  0  0  0  0  0  0  0  0
  151.0397  138.3468  154.7048 C   0  0  0  0  0  0  0  0  0  0  0  0
  151.1496  139.6770  154.5025 N   0  0  0  0  0  0  0  0  0  0  0  0
  150.5306  140.4996  155.3757 C   0  0  0  0  0  0  0  0  0  0  0  0
  149.7876  140.0373  156.4805 C   0  0  0  0  0  0  0  0  0  0  0  0
  149.1868  140.9173  157.3178 F   0  0  0  0  0  0  0  0  0  0  0  0
  148.2329  137.0481  159.6274 N   0  0  0  0  0  0  0  0  0  0  0  0
  148.1793  136.0520  160.7002 C   0  0  1  0  0  0  0  0  0  0  0  0
  147.0702  136.4339  161.6965 C   0  0  0  0  0  0  0  0  0  0  0  0
  146.9407  135.3887  162.8143 C   0  0  0  0  0  0  0  0  0  0  0  0
  146.6990  133.9847  162.2387 C   0  0  0  0  0  0  0  0  0  0  0  0
  147.8063  133.5797  161.2430 C   0  0  1  0  0  0  0  0  0  0  0  0
  147.5822  132.1637  160.6731 C   0  0  0  0  0  0  0  0  0  0  0  0
  146.3735  132.0605  160.1196 F   0  0  0  0  0  0  0  0  0  0  0  0
  148.5043  131.8922  159.7494 F   0  0  0  0  0  0  0  0  0  0  0  0
  147.6894  131.2581  161.6454 F   0  0  0  0  0  0  0  0  0  0  0  0
  147.9306  134.6399  160.1276 C   0  0  0  0  0  0  0  0  0  0  0  0
  148.1242  138.7876  158.0384 H   0  0  0  0  0  0  0  0  0  0  0  0
  150.2628  136.7062  155.8596 H   0  0  0  0  0  0  0  0  0  0  0  0
  151.5351  137.7118  153.9853 H   0  0  0  0  0  0  0  0  0  0  0  0
  150.6285  141.5585  155.1873 H   0  0  0  0  0  0  0  0  0  0  0  0
  147.4904  137.7327  159.6341 H   0  0  0  0  0  0  0  0  0  0  0  0
  149.1253  136.0551  161.2449 H   0  0  0  0  0  0  0  0  0  0  0  0
  147.2784  137.4119  162.1324 H   0  0  0  0  0  0  0  0  0  0  0  0
  146.1164  136.5248  161.1744 H   0  0  0  0  0  0  0  0  0  0  0  0
  147.8477  135.3854  163.4199 H   0  0  0  0  0  0  0  0  0  0  0  0
  146.1241  135.6612  163.4835 H   0  0  0  0  0  0  0  0  0  0  0  0
  146.6463  133.2642  163.0554 H   0  0  0  0  0  0  0  0  0  0  0  0
  145.7280  133.9592  161.7425 H   0  0  0  0  0  0  0  0  0  0  0  0
  148.7510  133.5630  161.7888 H   0  0  0  0  0  0  0  0  0  0  0  0
  147.0213  134.6449  159.5249 H   0  0  0  0  0  0  0  0  0  0  0  0
  148.7418  134.3652  159.4527 H   0  0  0  0  0  0  0  0  0  0  0  0
  1  2  2  0  0  0  0
  2  3  1  0  0  0  0
  2 11  1  0  0  0  0
  3  4  1  0  0  0  0
  3 22  1  0  0  0  0
  4  9  1  0  0  0  0
  4  5  2  0  0  0  0
  5  6  1  0  0  0  0
  5 23  1  0  0  0  0
  6  7  2  0  0  0  0
  6 24  1  0  0  0  0
  7  8  1  0  0  0  0
  8  9  2  0  0  0  0
  8 25  1  0  0  0  0
  9 10  1  0  0  0  0
 11 12  1  0  0  0  0
 11 26  1  0  0  0  0
 12 21  1  0  0  0  0
 12 13  1  0  0  0  0
 12 27  1  0  0  0  0
 13 14  1  0  0  0  0
 13 28  1  0  0  0  0
 13 29  1  0  0  0  0
 14 15  1  0  0  0  0
 14 30  1  0  0  0  0
 14 31  1  0  0  0  0
 15 16  1  0  0  0  0
 15 32  1  0  0  0  0
 15 33  1  0  0  0  0
 16 17  1  0  0  0  0
 16 21  1  0  0  0  0
 16 34  1  0  0  0  0
 17 18  1  0  0  0  0
 17 19  1  0  0  0  0
 17 20  1  0  0  0  0
 21 35  1  0  0  0  0
 21 36  1  0  0  0  0
M  END
> <s_m_source_file>
AV-unprocessed.smi

> <i_m_source_file_index>
2321

> <i_lp_mmshare_version>
43012

> <i_f3d_flags>
0

> <s_epik_input>
RkMoRikoRilbQ0BASF0oW0NIMl0xKVtDSDJdW0NIMl1bQ0gyXVtDQEhdMVtOSF1DKD1PKVtOSF1jMltjSF1bY0hdbltjSF1jMkY=

> <s_epik_cmdline>
J2VwaWtfcHl0aG9uJywgJy1waCcsICc3LjAnLCAnLXRuJywgJzgnLCAnLW1hJywgJzIwMCcsICctbWV0YWxfYmluZGluZycsICctaW1hZScsICc8aW5maWxlLm1hZT4nLCAnLW9tYWUnLCAnPG91dGZpbGUubWFlPic=

> <r_epik_Ionization_Penalty>
0.00319438

> <r_epik_Ionization_Penalty_Charging>
0

> <r_epik_Ionization_Penalty_Neutral>
0.00319438

> <r_epik_State_Penalty>
0.00222511

> <r_epik_Charging_Adjusted_Penalty>
0.00222511

> <i_epik_Tot_Q>
0

> <i_epik_Tot_abs_Q>
0

> <r_epik_Metal_State_Penalty>
-0

> <b_epik_Metal_Only>
0

> <s_lp_Force_Field>
OPLS_2005

> <r_lp_Energy>
26.7556

> <b_lp_Chiralities_Consistent>
1

> <s_lp_Variant>
AV-unprocessed.smi:2321-2

> <Gold.Version>
5.8.1

> <Gold.Id.Protein>
6NUR|6NUR_protein|mol2

> <Gold.PLP.Fitness>
38.8447

> <Gold.PLP.PLP>
-33.6990

> <Gold.PLP.part.hbond>
-2.0000

> <Gold.PLP.part.metal>
0.0000

> <Gold.PLP.part.buried>
-5.0090

> <Gold.PLP.part.nonpolar>
-27.1992

> <Gold.PLP.part.repulsive>
0.3932

> <Gold.PLP.ligand.clash>
0.0000

> <Gold.PLP.ligand.torsion>
0.4374

> <Gold.PLP.Chemscore.Hbond>
2.0000

> <Gold.PLP.Chemscore.CHOScore>
0.0000

> <Gold.PLP.Chemscore.Metal>
0.0000

> <Gold.Chemscore.Hbonds>
donor molecule, donor type, donor heavy atom, donor atom, acceptor molecule, acceptor atom, score
      P1  H  6896  6909       L1     1  0.98
      P1  H  7989  7998       L1     7  0.80

> <Gold.PLP.Chemscore.Internal.Correction>
0.0204

> <Gold.Rescore>
     Score         DG    S(hbond)    S(metal)    S(lipo)     H(rot)  DE(clash)    DE(int)     intcor
     17.58     -17.99       1.94        0.00      73.51       1.00       0.04       0.37       ----

> <Gold.Chemscore.Fitness>
17.5791

> <Gold.Chemscore.DG>
-17.9869

> <Gold.Chemscore.ZeroCoef>
-5.4800

> <Gold.Chemscore.Hbond>
1.9358

> <Gold.Chemscore.Metal>
0.0000

> <Gold.Chemscore.Lipo>
73.5144

> <Gold.Chemscore.Internal_Hbond>
0.0000

> <Gold.Chemscore.DEClash>
0.0406

> <Gold.Chemscore.DEInternal>
0.3673

> <Gold.Chemscore.Rot>
1.0000

> <Gold.Chemscore.Internal.Correction>
   9.000000E+99

> <Gold.Chemscore.Hbonds>
donor molecule, donor type, donor heavy atom, donor atom, acceptor molecule, acceptor atom, score
      P1  H  6896  6909       L1     1  0.91
      P1  H  7989  7998       L1     7  0.12

> <Gold.Chemscore.Hbond.Weighted>
-6.4657

> <Gold.Chemscore.Metal.Weighted>
-0.0000

> <Gold.Chemscore.Lipo.Weighted>
-8.6012

> <Gold.Chemscore.Internal_Hbond.Weighted>
0.0000

> <Gold.Chemscore.DEClash.Weighted>
0.0406

> <Gold.Chemscore.DEInternal.Weighted>
0.3673

> <Gold.Chemscore.Rot.Weighted>
2.5600

> <Gold.Chemscore.Internal.Correction.Weighted>
   9.000000E+99

> <Gold.Protein.RotatedTorsions>
[ 6907 6896 6895 6894 ] final   75.63 input  -60.11 | X-H torsion
[ 7974 7965 7964 7962 ] final   -1.96 input  175.53 | X-H torsion
[ 8008 7997 7996 7995 ] final  103.65 input   59.86 | X-H torsion
[ 10167 10162 10161 10158 ] final -130.67 input  -65.29 | X-H torsion
[ 10718 10713 10712 10709 ] final  -67.55 input   66.30 | X-H torsion
[ 10763 10752 10751 10750 ] final   -8.25 input  -60.55 | X-H torsion
[ 11005 11000 10999 10996 ] final   18.66 input  -57.11 | X-H torsion

> <Gold.Protein.ActiveResidues>
 VAL166  LYS551  ARG553  GLY616  TRP617  ASP618  TYR619  PRO620  LYS621  CYS622 
 ASP623  PHE694  ASN695  SER759  ASP760  ASP761  ALA762  ILE779  LEU786  VAL792 
 PHE793  MET794  SER795  GLU796  ALA797  LYS798  CYS799  TRP800  GLU811  SER814 

> <Gold.Protein.RotatedAtoms>
  152.5035  134.4091  159.9442 H   0  0  0  0  0  0  0  0  0  0  0  0  # atno 6907 bound_to 6896
  151.4058  133.3737  159.2745 H   0  0  0  0  0  0  0  0  0  0  0  0  # atno 6908 bound_to 6896
  150.9328  134.8763  159.7621 H   0  0  0  0  0  0  0  0  0  0  0  0  # atno 6909 bound_to 6896
  146.2411  140.1499  142.8334 H   0  0  0  0  0  0  0  0  0  0  0  0  # atno 7974 bound_to 7965
  156.1503  140.3161  155.8637 H   0  0  0  0  0  0  0  0  0  0  0  0  # atno 8008 bound_to 7997
  155.3984  140.0498  157.3055 H   0  0  0  0  0  0  0  0  0  0  0  0  # atno 8009 bound_to 7997
  154.5052  140.2144  155.9276 H   0  0  0  0  0  0  0  0  0  0  0  0  # atno 8010 bound_to 7997
  139.9269  143.6317  152.2539 H   0  0  0  0  0  0  0  0  0  0  0  0  # atno 10167 bound_to 10162
  156.0552  130.4280  150.1870 H   0  0  0  0  0  0  0  0  0  0  0  0  # atno 10718 bound_to 10713
  153.4379  135.7013  153.6188 H   0  0  0  0  0  0  0  0  0  0  0  0  # atno 10763 bound_to 10752
  153.4576  135.3744  155.2320 H   0  0  0  0  0  0  0  0  0  0  0  0  # atno 10764 bound_to 10752
  154.8727  135.4012  154.3772 H   0  0  0  0  0  0  0  0  0  0  0  0  # atno 10765 bound_to 10752
  140.4224  134.1505  155.7674 H   0  0  0  0  0  0  0  0  0  0  0  0  # atno 11005 bound_to 11000
  145.0176  140.8767  143.5186 LP  0  0  0  0  0  0  0  0  0  0  0  0  # atno 17320 bound_to 7965
  145.1542  139.2496  143.5425 LP  0  0  0  0  0  0  0  0  0  0  0  0  # atno 17321 bound_to 7965
  139.6814  144.7655  151.1601 LP  0  0  0  0  0  0  0  0  0  0  0  0  # atno 17342 bound_to 10162
  140.7647  143.5719  150.8987 LP  0  0  0  0  0  0  0  0  0  0  0  0  # atno 17343 bound_to 10162
  156.9948  130.9904  151.3406 LP  0  0  0  0  0  0  0  0  0  0  0  0  # atno 17370 bound_to 10713
  157.5515  130.8185  149.8151 LP  0  0  0  0  0  0  0  0  0  0  0  0  # atno 17371 bound_to 10713
  141.1779  133.8476  157.1360 LP  0  0  0  0  0  0  0  0  0  0  0  0  # atno 17394 bound_to 11000
  140.0191  134.9954  157.0554 LP  0  0  0  0  0  0  0  0  0  0  0  0  # atno 17395 bound_to 11000

$$$$
