AV-unprocessed.smi:1363|AV-procd|sdf|5564|dock6
  -GOLD-   22720 5153D 1   1.00000     0.00000
 Structure written by MMmdl.
 44 45  0  0  0  0  0  0  0  0  1 V2000
  148.0855  141.2169  154.0266 C   0  0  0  0  0  0  0  0  0  0  0  0
  148.9690  140.0570  154.4342 C   0  0  0  0  0  0  0  0  0  0  0  0
  150.2573  140.0608  154.3294 N   0  0  0  0  0  0  0  0  0  0  0  0
  150.9694  138.9238  154.7358 C   0  0  0  0  0  0  0  0  0  0  0  0
  152.4780  139.0017  154.5741 C   0  0  0  0  0  0  0  0  0  0  0  0
  150.3356  137.8238  155.2386 C   0  0  0  0  0  0  0  0  0  0  0  0
  151.0845  136.5680  155.6829 C   0  0  0  0  0  0  0  0  0  0  0  0
  152.1412  136.7744  156.7709 C   0  0  0  0  0  0  0  0  0  0  0  0
  152.9343  135.8739  157.0474 O   0  0  0  0  0  0  0  0  0  0  0  0
  152.1469  137.9722  157.3750 N   0  0  0  0  0  0  0  0  0  0  0  0
  153.0873  138.3821  158.4110 C   0  0  0  0  0  0  0  0  0  0  0  0
  152.3800  139.1735  159.5289 C   0  0  0  0  0  0  0  0  0  0  0  0
  152.3298  140.6866  159.3421 C   0  0  0  0  0  0  0  0  0  0  0  0
  152.9076  141.5768  160.1772 C   0  0  0  0  0  0  0  0  0  0  0  0
  152.8856  143.0815  159.9706 C   0  0  0  0  0  0  0  0  0  0  0  0
  152.4582  143.4725  158.5469 C   0  0  0  0  0  0  0  0  0  0  0  0
  151.2558  142.6411  158.0868 C   0  0  0  0  0  0  0  0  0  0  0  0
  151.5792  141.1365  158.0939 C   0  0  0  0  0  0  0  0  0  0  0  0
  148.8643  137.8310  155.3548 C   0  0  0  0  0  0  0  0  0  0  0  0
  148.1935  136.8948  155.7867 O   0  0  0  0  0  0  0  0  0  0  0  0
  148.2614  138.9673  154.9390 N   0  0  0  0  0  0  0  0  0  0  0  0
  147.2547  139.0206  154.9960 H   0  0  0  0  0  0  0  0  0  0  0  0
  148.2228  141.4386  152.9680 H   0  0  0  0  0  0  0  0  0  0  0  0
  148.3459  142.1065  154.6003 H   0  0  0  0  0  0  0  0  0  0  0  0
  147.0299  140.9986  154.1948 H   0  0  0  0  0  0  0  0  0  0  0  0
  152.9708  138.9408  155.5444 H   0  0  0  0  0  0  0  0  0  0  0  0
  152.7779  139.9400  154.1060 H   0  0  0  0  0  0  0  0  0  0  0  0
  152.8416  138.1873  153.9475 H   0  0  0  0  0  0  0  0  0  0  0  0
  150.3537  135.8401  156.0375 H   0  0  0  0  0  0  0  0  0  0  0  0
  151.5646  136.0855  154.8311 H   0  0  0  0  0  0  0  0  0  0  0  0
  151.4584  138.6528  157.0876 H   0  0  0  0  0  0  0  0  0  0  0  0
  153.5424  137.4795  158.8197 H   0  0  0  0  0  0  0  0  0  0  0  0
  153.8920  138.9707  157.9668 H   0  0  0  0  0  0  0  0  0  0  0  0
  151.3532  138.8200  159.6302 H   0  0  0  0  0  0  0  0  0  0  0  0
  152.8720  138.9675  160.4802 H   0  0  0  0  0  0  0  0  0  0  0  0
  153.4257  141.2480  161.0650 H   0  0  0  0  0  0  0  0  0  0  0  0
  152.2014  143.5122  160.7023 H   0  0  0  0  0  0  0  0  0  0  0  0
  153.8748  143.4876  160.1838 H   0  0  0  0  0  0  0  0  0  0  0  0
  152.2239  144.5365  158.5062 H   0  0  0  0  0  0  0  0  0  0  0  0
  153.2892  143.3117  157.8587 H   0  0  0  0  0  0  0  0  0  0  0  0
  150.4122  142.8351  158.7506 H   0  0  0  0  0  0  0  0  0  0  0  0
  150.9403  142.9491  157.0897 H   0  0  0  0  0  0  0  0  0  0  0  0
  152.1906  140.8843  157.2268 H   0  0  0  0  0  0  0  0  0  0  0  0
  150.6526  140.5691  158.0001 H   0  0  0  0  0  0  0  0  0  0  0  0
  1  2  1  0  0  0  0
  1 23  1  0  0  0  0
  1 24  1  0  0  0  0
  1 25  1  0  0  0  0
  2 21  1  0  0  0  0
  2  3  2  0  0  0  0
  3  4  1  0  0  0  0
  4  5  1  0  0  0  0
  4  6  2  0  0  0  0
  5 26  1  0  0  0  0
  5 27  1  0  0  0  0
  5 28  1  0  0  0  0
  6  7  1  0  0  0  0
  6 19  1  0  0  0  0
  7  8  1  0  0  0  0
  7 29  1  0  0  0  0
  7 30  1  0  0  0  0
  8  9  2  0  0  0  0
  8 10  1  0  0  0  0
 10 11  1  0  0  0  0
 10 31  1  0  0  0  0
 11 12  1  0  0  0  0
 11 32  1  0  0  0  0
 11 33  1  0  0  0  0
 12 13  1  0  0  0  0
 12 34  1  0  0  0  0
 12 35  1  0  0  0  0
 13 18  1  0  0  0  0
 13 14  2  0  0  0  0
 14 15  1  0  0  0  0
 14 36  1  0  0  0  0
 15 16  1  0  0  0  0
 15 37  1  0  0  0  0
 15 38  1  0  0  0  0
 16 17  1  0  0  0  0
 16 39  1  0  0  0  0
 16 40  1  0  0  0  0
 17 18  1  0  0  0  0
 17 41  1  0  0  0  0
 17 42  1  0  0  0  0
 18 43  1  0  0  0  0
 18 44  1  0  0  0  0
 19 20  2  0  0  0  0
 19 21  1  0  0  0  0
 21 22  1  0  0  0  0
M  END
> <s_m_source_file>
AV-unprocessed.smi

> <i_m_source_file_index>
1363

> <i_lp_mmshare_version>
43012

> <i_f3d_flags>
0

> <s_epik_input>
W0NIM11jMW5jKFtDSDNdKWMoYyg9TylbbkhdMSlbQ0gyXUMoPU8pW05IXVtDSDJdW0NIMl1DMj1bQ0hdW0NIMl1bQ0gyXVtDSDJdW0NIMl0y

> <s_epik_cmdline>
J2VwaWtfcHl0aG9uJywgJy1waCcsICc3LjAnLCAnLXRuJywgJzgnLCAnLW1hJywgJzIwMCcsICctbWV0YWxfYmluZGluZycsICctaW1hZScsICc8aW5maWxlLm1hZT4nLCAnLW9tYWUnLCAnPG91dGZpbGUubWFlPic=

> <r_lp_tautomer_probability>
0.839158

> <r_epik_Ionization_Penalty>
0.000390001

> <r_epik_Ionization_Penalty_Charging>
0.000357609

> <r_epik_Ionization_Penalty_Neutral>
3.23917e-05

> <r_epik_State_Penalty>
0.0470088

> <r_epik_Charging_Adjusted_Penalty>
0.0473664

> <i_epik_Tot_Q>
0

> <i_epik_Tot_abs_Q>
0

> <r_epik_Metal_State_Penalty>
0.223611

> <b_epik_Metal_Only>
0

> <s_lp_Force_Field>
OPLS_2005

> <r_lp_Energy>
9.33337

> <b_lp_Chiralities_Consistent>
1

> <s_lp_Variant>
AV-unprocessed.smi:1363-1

> <Gold.Version>
5.8.1

> <Gold.Id.Protein>
6NUR|6NUR_protein|mol2

> <Gold.PLP.Fitness>
43.0360

> <Gold.PLP.PLP>
-37.9203

> <Gold.PLP.part.hbond>
-2.0000

> <Gold.PLP.part.metal>
0.0000

> <Gold.PLP.part.buried>
-4.0272

> <Gold.PLP.part.nonpolar>
-32.3832

> <Gold.PLP.part.repulsive>
0.2655

> <Gold.PLP.ligand.clash>
0.0000

> <Gold.PLP.ligand.torsion>
0.4478

> <Gold.PLP.Chemscore.Hbond>
2.0000

> <Gold.PLP.Chemscore.CHOScore>
0.0000

> <Gold.PLP.Chemscore.Metal>
0.0000

> <Gold.Chemscore.Hbonds>
donor molecule, donor type, donor heavy atom, donor atom, acceptor molecule, acceptor atom, score
      P1  H  7989  7998       L1     3  0.85
      P1  H 10752 10765       L1     9  1.00

> <Gold.PLP.Chemscore.Internal.Correction>
0.0112

> <Gold.Rescore>
     Score         DG    S(hbond)    S(metal)    S(lipo)     H(rot)  DE(clash)    DE(int)     intcor
     14.98     -15.47       0.92        0.00      99.94       1.86       0.02       0.47       ----

> <Gold.Chemscore.Fitness>
14.9788

> <Gold.Chemscore.DG>
-15.4707

> <Gold.Chemscore.ZeroCoef>
-5.4800

> <Gold.Chemscore.Hbond>
0.9185

> <Gold.Chemscore.Metal>
0.0000

> <Gold.Chemscore.Lipo>
99.9360

> <Gold.Chemscore.Internal_Hbond>
0.0000

> <Gold.Chemscore.DEClash>
0.0239

> <Gold.Chemscore.DEInternal>
0.4680

> <Gold.Chemscore.Rot>
1.8631

> <Gold.Chemscore.Internal.Correction>
   9.000000E+99

> <Gold.Chemscore.Hbonds>
donor molecule, donor type, donor heavy atom, donor atom, acceptor molecule, acceptor atom, score
      P1  H  7989  7998       L1     3  0.14
      P1  H 10752 10765       L1     9  0.35

> <Gold.Chemscore.Hbond.Weighted>
-3.0678

> <Gold.Chemscore.Metal.Weighted>
-0.0000

> <Gold.Chemscore.Lipo.Weighted>
-11.6925

> <Gold.Chemscore.Internal_Hbond.Weighted>
0.0000

> <Gold.Chemscore.DEClash.Weighted>
0.0239

> <Gold.Chemscore.DEInternal.Weighted>
0.4680

> <Gold.Chemscore.Rot.Weighted>
4.7697

> <Gold.Chemscore.Internal.Correction.Weighted>
   9.000000E+99

> <Gold.Protein.RotatedTorsions>
[ 6907 6896 6895 6894 ] final   38.39 input  -60.11 | X-H torsion
[ 7974 7965 7964 7962 ] final   70.23 input  175.53 | X-H torsion
[ 8008 7997 7996 7995 ] final -137.23 input   59.86 | X-H torsion
[ 10167 10162 10161 10158 ] final  -60.37 input  -65.29 | X-H torsion
[ 10718 10713 10712 10709 ] final  -39.12 input   66.30 | X-H torsion
[ 10763 10752 10751 10750 ] final -120.47 input  -60.55 | X-H torsion
[ 11005 11000 10999 10996 ] final  -91.83 input  -57.11 | X-H torsion

> <Gold.Protein.ActiveResidues>
 VAL166  LYS551  ARG553  GLY616  TRP617  ASP618  TYR619  PRO620  LYS621  CYS622 
 ASP623  PHE694  ASN695  SER759  ASP760  ASP761  ALA762  ILE779  LEU786  VAL792 
 PHE793  MET794  SER795  GLU796  ALA797  LYS798  CYS799  TRP800  GLU811  SER814 

> <Gold.Protein.RotatedAtoms>
  152.1558  134.8952  160.0544 H   0  0  0  0  0  0  0  0  0  0  0  0  # atno 6907 bound_to 6896
  151.9967  133.3805  159.4173 H   0  0  0  0  0  0  0  0  0  0  0  0  # atno 6908 bound_to 6896
  150.6881  134.3801  159.5074 H   0  0  0  0  0  0  0  0  0  0  0  0  # atno 6909 bound_to 6896
  145.7807  139.2886  143.1267 H   0  0  0  0  0  0  0  0  0  0  0  0  # atno 7974 bound_to 7965
  155.4084  140.0510  157.3033 H   0  0  0  0  0  0  0  0  0  0  0  0  # atno 8008 bound_to 7997
  154.4958  140.2138  155.9411 H   0  0  0  0  0  0  0  0  0  0  0  0  # atno 8009 bound_to 7997
  156.1403  140.3155  155.8490 H   0  0  0  0  0  0  0  0  0  0  0  0  # atno 8010 bound_to 7997
  140.6075  143.2378  151.5786 H   0  0  0  0  0  0  0  0  0  0  0  0  # atno 10167 bound_to 10162
  156.2960  130.4234  149.8190 H   0  0  0  0  0  0  0  0  0  0  0  0  # atno 10718 bound_to 10713
  154.8645  135.4202  154.2465 H   0  0  0  0  0  0  0  0  0  0  0  0  # atno 10763 bound_to 10752
  153.3420  135.6994  153.6865 H   0  0  0  0  0  0  0  0  0  0  0  0  # atno 10764 bound_to 10752
  153.5840  135.3567  155.2858 H   0  0  0  0  0  0  0  0  0  0  0  0  # atno 10765 bound_to 10752
  141.1536  133.7781  156.9934 H   0  0  0  0  0  0  0  0  0  0  0  0  # atno 11005 bound_to 11000
  146.0077  140.8463  142.9986 LP  0  0  0  0  0  0  0  0  0  0  0  0  # atno 17320 bound_to 7965
  144.6797  140.2445  143.7339 LP  0  0  0  0  0  0  0  0  0  0  0  0  # atno 17321 bound_to 7965
  139.5336  144.2844  152.1203 LP  0  0  0  0  0  0  0  0  0  0  0  0  # atno 17342 bound_to 10162
  140.2037  144.4632  150.6419 LP  0  0  0  0  0  0  0  0  0  0  0  0  # atno 17343 bound_to 10162
  156.5586  130.8373  151.3322 LP  0  0  0  0  0  0  0  0  0  0  0  0  # atno 17370 bound_to 10713
  157.7355  130.9764  150.2087 LP  0  0  0  0  0  0  0  0  0  0  0  0  # atno 17371 bound_to 10713
  140.0988  134.9548  157.1890 LP  0  0  0  0  0  0  0  0  0  0  0  0  # atno 17394 bound_to 11000
  140.3347  134.2771  155.7222 LP  0  0  0  0  0  0  0  0  0  0  0  0  # atno 17395 bound_to 11000

$$$$
