#       Name:                AV-unprocessed.smi:3354
#       Creating user name   scv26
#       Creation time:       Fri Mar 27 19:39:47 2020


#       File generated by GOLD software.
#

@<TRIPOS>MOLECULE
AV-unprocessed.smi:3354
    43    45     1
SMALL
NO_CHARGES


@<TRIPOS>ATOM
      1 ****        -5.4572   0.2500   0.2590 C.3            1 S1                 0.0000
      2 ****        -4.1304  -0.2175  -0.2992 C.3            1 S1                 0.0000
      3 ****        -4.0957  -1.0204  -1.5776 C.3            1 S1                 0.0000
      4 ****        -3.5627   0.3938  -1.5689 C.3            1 S1                 0.0000
      5 ****        -2.1513   0.5715  -1.7441 N.am           1 S1                 0.0000
      6 ****        -1.2170   0.5258  -0.6280 C.3            1 S1                 0.0000
      7 ****         0.0898   1.1469  -1.1578 C.3            1 S1                 0.0000
      8 ****         1.2653   0.3688  -0.7758 N.am           1 S1                 0.0000
      9 ****         1.8192   0.3647   0.4449 C.2            1 S1                 0.0000
     10 ****         1.3715   1.0101   1.3922 O.2            1 S1                 0.0000
     11 ****         2.8962  -0.4389   0.4855 N.am           1 S1                 0.0000
     12 ****         3.7773  -0.7009   1.5705 C.ar           1 S1                 0.0000
     13 ****         3.8772   0.0969   2.7368 C.ar           1 S1                 0.0000
     14 ****         4.8054  -0.2662   3.7317 C.ar           1 S1                 0.0000
     15 ****         5.6036  -1.4075   3.5236 C.ar           1 S1                 0.0000
     16 ****         5.5275  -2.1707   2.4133 N.ar           1 S1                 0.0000
     17 ****         4.6356  -1.8162   1.4638 C.ar           1 S1                 0.0000
     18 ****        -0.0801   1.2097  -2.6812 C.3            1 S1                 0.0000
     19 ****        -1.5662   0.9658  -2.8808 C.2            1 S1                 0.0000
     20 ****        -2.1270   1.1341  -3.9630 O.2            1 S1                 0.0000
     21 ****        -6.1365   0.5377  -0.5443 H              1 S1                 0.0000
     22 ****        -5.3055   1.1109   0.9104 H              1 S1                 0.0000
     23 ****        -5.9221  -0.5478   0.8386 H              1 S1                 0.0000
     24 ****        -3.4295  -0.5352   0.4698 H              1 S1                 0.0000
     25 ****        -3.3761  -1.8350  -1.6357 H              1 S1                 0.0000
     26 ****        -5.0361  -1.1952  -2.0966 H              1 S1                 0.0000
     27 ****        -4.1914   1.1435  -2.0477 H              1 S1                 0.0000
     28 ****        -1.5943   1.0804   0.2322 H              1 S1                 0.0000
     29 ****        -1.0790  -0.5144  -0.3281 H              1 S1                 0.0000
     30 ****         0.1868   2.1663  -0.7787 H              1 S1                 0.0000
     31 ****         1.6930  -0.1953  -1.4954 H              1 S1                 0.0000
     32 ****         3.0921  -0.9556  -0.3594 H              1 S1                 0.0000
     33 ****         3.2779   0.9809   2.8862 H              1 S1                 0.0000
     34 ****         4.9061   0.3205   4.6327 H              1 S1                 0.0000
     35 ****         6.3262  -1.7124   4.2659 H              1 S1                 0.0000
     36 ****         4.6056  -2.4482   0.5882 H              1 S1                 0.0000
     37 ****         0.2224   2.1752  -3.0881 H              1 S1                 0.0000
     38 ****         0.4783   0.4254  -3.1939 H              1 S1                 0.0000
     39 ****         0.5545   1.5738   1.2714 LP             1 S1                 0.0000
     40 ****         1.8248   0.9707   2.2827 LP             1 S1                 0.0000
     41 ****         6.1130  -2.9731   2.2975 LP             1 S1                 0.0000
     42 ****        -3.1103   0.9730  -4.0470 LP             1 S1                 0.0000
     43 ****        -1.5994   1.4319  -4.7586 LP             1 S1                 0.0000
@<TRIPOS>BOND
    1    1    2 1     
    2    1   21 1     
    3    1   22 1     
    4    1   23 1     
    5    2    4 1     
    6    2    3 1     
    7    2   24 1     
    8    3    4 1     
    9    3   25 1     
   10    3   26 1     
   11    4    5 1     
   12    4   27 1     
   13    5   19 am    
   14    5    6 1     
   15    6    7 1     
   16    6   28 1     
   17    6   29 1     
   18    7    8 1     
   19    7   18 1     
   20    7   30 1     
   21    8    9 am    
   22    8   31 1     
   23    9   10 2     
   24    9   11 am    
   25   11   12 1     
   26   11   32 1     
   27   12   17 ar    
   28   12   13 ar    
   29   13   14 ar    
   30   13   33 1     
   31   14   15 ar    
   32   14   34 1     
   33   15   16 ar    
   34   15   35 1     
   35   16   17 ar    
   36   17   36 1     
   37   18   19 1     
   38   18   37 1     
   39   18   38 1     
   40   19   20 2     
   41   10   39 1     
   42   10   40 1     
   43   16   41 1     
   44   20   42 1     
   45   20   43 1     
@<TRIPOS>SUBSTRUCTURE
      1 S1             1
@<TRIPOS>SET
LONE_PAIRS      STATIC     ATOMS    <user>   **** ""
5 39 40 41 42 43
DONOR_HYDROGENS      STATIC     ATOMS    <user>   **** ""
2 31 32
ATOM$BLUE        STATIC     ATOMS    COLORGROUP SYSTEM
5 39 40 41 42 43
ATOM$RED        STATIC     ATOMS    COLORGROUP SYSTEM
2 31 32
