AV-unprocessed.smi:512|AV-procd|sdf|2768|dock1
  -GOLD-   2262023233D 1   1.00000     0.00000
 Structure written by MMmdl.
 49 51  0  0  0  0  0  0  0  0  2 V2000
  151.5654  138.1028  154.1237 C   0  0  0  0  0  0  0  0  0  0  0  0
  150.5578  137.2268  154.8715 C   0  0  0  0  0  0  0  0  0  0  0  0
  150.9182  135.8699  154.6875 O   0  0  0  0  0  0  0  0  0  0  0  0
  150.4949  135.0313  155.7503 C   0  0  0  0  0  0  0  0  0  0  0  0
  149.0898  134.4982  155.4387 C   0  0  0  0  0  0  0  0  0  0  0  0
  149.1386  133.1477  154.8824 N   0  0  0  0  0  0  0  0  0  0  0  0
  148.5222  132.6622  153.7714 C   0  0  0  0  0  0  0  0  0  0  0  0
  147.7458  133.4743  152.9460 N   0  0  0  0  0  0  0  0  0  0  0  0
  147.5163  133.2481  151.5211 C   0  0  0  0  0  0  0  0  0  0  0  0
  146.1009  132.6995  151.2609 C   0  0  0  0  0  0  0  0  0  0  0  0
  145.0682  133.6006  151.8263 N   0  3  0  0  0  0  0  0  0  0  0  0
  143.6934  133.1135  151.5860 C   0  0  0  0  0  0  0  0  0  0  0  0
  145.3248  133.9047  153.2538 C   0  0  0  0  0  0  0  0  0  0  0  0
  146.7590  134.4259  153.4463 C   0  0  0  0  0  0  0  0  0  0  0  0
  148.6913  131.3537  153.5638 N   0  0  0  0  0  0  0  0  0  0  0  0
  149.5039  130.9736  154.6216 C   0  0  0  0  0  0  0  0  0  0  0  0
  149.7783  132.0328  155.4249 C   0  0  0  0  0  0  0  0  0  0  0  0
  150.5913  131.9094  156.6418 C   0  0  0  0  0  0  0  0  0  0  0  0
  150.8323  132.8507  157.3942 O   0  0  0  0  0  0  0  0  0  0  0  0
  151.0459  130.6500  156.8513 N   0  0  0  0  0  0  0  0  0  0  0  0
  150.8171  129.5440  156.0792 C   0  0  0  0  0  0  0  0  0  0  0  0
  151.3073  128.4604  156.3963 O   0  0  0  0  0  0  0  0  0  0  0  0
  150.0349  129.6969  154.9627 N   0  0  0  0  0  0  0  0  0  0  0  0
  149.7517  128.5463  154.1031 C   0  0  0  0  0  0  0  0  0  0  0  0
  151.6171  130.5114  157.6721 H   0  0  0  0  0  0  0  0  0  0  0  0
  151.3241  139.1598  154.2377 H   0  0  0  0  0  0  0  0  0  0  0  0
  151.5678  137.8725  153.0581 H   0  0  0  0  0  0  0  0  0  0  0  0
  152.5757  137.9467  154.5024 H   0  0  0  0  0  0  0  0  0  0  0  0
  150.5588  137.4767  155.9334 H   0  0  0  0  0  0  0  0  0  0  0  0
  149.5520  137.4052  154.4885 H   0  0  0  0  0  0  0  0  0  0  0  0
  151.1908  134.2003  155.8720 H   0  0  0  0  0  0  0  0  0  0  0  0
  150.4838  135.5897  156.6877 H   0  0  0  0  0  0  0  0  0  0  0  0
  148.4907  134.5098  156.3456 H   0  0  0  0  0  0  0  0  0  0  0  0
  148.5728  135.1572  154.7427 H   0  0  0  0  0  0  0  0  0  0  0  0
  147.6723  134.1808  150.9775 H   0  0  0  0  0  0  0  0  0  0  0  0
  148.2432  132.5327  151.1370 H   0  0  0  0  0  0  0  0  0  0  0  0
  145.9396  132.5828  150.1886 H   0  0  0  0  0  0  0  0  0  0  0  0
  146.0015  131.7088  151.7083 H   0  0  0  0  0  0  0  0  0  0  0  0
  143.5204  132.1631  152.0926 H   0  0  0  0  0  0  0  0  0  0  0  0
  143.5177  132.9704  150.5193 H   0  0  0  0  0  0  0  0  0  0  0  0
  142.9608  133.8343  151.9506 H   0  0  0  0  0  0  0  0  0  0  0  0
  144.6096  134.6493  153.6049 H   0  0  0  0  0  0  0  0  0  0  0  0
  145.1718  133.0056  153.8532 H   0  0  0  0  0  0  0  0  0  0  0  0
  146.9457  134.6219  154.5028 H   0  0  0  0  0  0  0  0  0  0  0  0
  146.8896  135.3779  152.9299 H   0  0  0  0  0  0  0  0  0  0  0  0
  150.6633  128.2121  153.6064 H   0  0  0  0  0  0  0  0  0  0  0  0
  149.0184  128.7721  153.3291 H   0  0  0  0  0  0  0  0  0  0  0  0
  149.3563  127.7135  154.6864 H   0  0  0  0  0  0  0  0  0  0  0  0
  145.1553  134.4767  151.3311 H   0  0  0  0  0  0  0  0  0  0  0  0
  1  2  1  0  0  0  0
  1 26  1  0  0  0  0
  1 27  1  0  0  0  0
  1 28  1  0  0  0  0
  2  3  1  0  0  0  0
  2 29  1  0  0  0  0
  2 30  1  0  0  0  0
  3  4  1  0  0  0  0
  4  5  1  0  0  0  0
  4 31  1  0  0  0  0
  4 32  1  0  0  0  0
  5  6  1  0  0  0  0
  5 33  1  0  0  0  0
  5 34  1  0  0  0  0
  6 17  1  0  0  0  0
  6  7  1  0  0  0  0
  7  8  1  0  0  0  0
  7 15  2  0  0  0  0
  8 14  1  0  0  0  0
  8  9  1  0  0  0  0
  9 10  1  0  0  0  0
  9 35  1  0  0  0  0
  9 36  1  0  0  0  0
 10 11  1  0  0  0  0
 10 37  1  0  0  0  0
 10 38  1  0  0  0  0
 11 12  1  0  0  0  0
 11 13  1  0  0  0  0
 11 49  1  0  0  0  0
 12 39  1  0  0  0  0
 12 40  1  0  0  0  0
 12 41  1  0  0  0  0
 13 14  1  0  0  0  0
 13 42  1  0  0  0  0
 13 43  1  0  0  0  0
 14 44  1  0  0  0  0
 14 45  1  0  0  0  0
 15 16  1  0  0  0  0
 16 23  1  0  0  0  0
 16 17  2  0  0  0  0
 17 18  1  0  0  0  0
 18 19  2  0  0  0  0
 18 20  1  0  0  0  0
 20 25  1  0  0  0  0
 20 21  1  0  0  0  0
 21 22  2  0  0  0  0
 21 23  1  0  0  0  0
 23 24  1  0  0  0  0
 24 46  1  0  0  0  0
 24 47  1  0  0  0  0
 24 48  1  0  0  0  0
M  CHG  1  11   1
M  END
> <s_m_source_file>
AV-unprocessed.smi

> <i_m_source_file_index>
512

> <i_lp_mmshare_version>
43012

> <i_f3d_flags>
0

> <s_epik_input>
W0NIM11uMWMoPU8pW25IXWMoPU8pYyhjMTIpbihbQ0gyXVtDSDJdT1tDSDJdW0NIM10pYyhuMilOM1tDSDJdW0NIMl1OKFtDSDNdKVtDSDJdW0NIMl0z

> <s_epik_cmdline>
J2VwaWtfcHl0aG9uJywgJy1waCcsICc3LjAnLCAnLXRuJywgJzgnLCAnLW1hJywgJzIwMCcsICctbWV0YWxfYmluZGluZycsICctaW1hZScsICc8aW5maWxlLm1hZT4nLCAnLW9tYWUnLCAnPG91dGZpbGUubWFlPic=

> <r_epik_Ionization_Penalty>
0.06478

> <r_epik_Ionization_Penalty_Charging>
0.0647782

> <r_epik_Ionization_Penalty_Neutral>
1.82007e-06

> <r_epik_State_Penalty>
0.0564218

> <r_epik_Charging_Adjusted_Penalty>
0.1212

> <i_epik_Tot_Q>
1

> <i_epik_Tot_abs_Q>
1

> <r_epik_Metal_State_Penalty>
0.0827594

> <b_epik_Metal_Only>
0

> <s_lp_Force_Field>
OPLS_2005

> <r_lp_Energy>
46.3907

> <b_lp_Chiralities_Consistent>
1

> <s_lp_Variant>
AV-unprocessed.smi:512-1

> <Gold.Version>
5.8.1

> <Gold.Id.Protein>
6NUR|6NUR_protein|mol2

> <Gold.PLP.Fitness>
39.2917

> <Gold.PLP.PLP>
-35.0557

> <Gold.PLP.part.hbond>
-2.0000

> <Gold.PLP.part.metal>
0.0000

> <Gold.PLP.part.buried>
-1.5199

> <Gold.PLP.part.nonpolar>
-30.7161

> <Gold.PLP.part.repulsive>
0.3100

> <Gold.PLP.ligand.clash>
0.0000

> <Gold.PLP.ligand.torsion>
1.2478

> <Gold.PLP.Chemscore.Hbond>
2.0000

> <Gold.PLP.Chemscore.CHOScore>
0.0000

> <Gold.PLP.Chemscore.Metal>
0.0000

> <Gold.Chemscore.Hbonds>
donor molecule, donor type, donor heavy atom, donor atom, acceptor molecule, acceptor atom, score
      P1  H  6896  6907       L1    19  1.00
      P1  H 10752 10765       L1     3  0.98

> <Gold.PLP.Chemscore.Internal.Correction>
0.7316

> <Gold.Rescore>
     Score         DG    S(hbond)    S(metal)    S(lipo)     H(rot)  DE(clash)    DE(int)     intcor
     10.66     -14.05       1.80        0.00      58.16       1.66       0.21       3.17       ----

> <Gold.Chemscore.Fitness>
10.6564

> <Gold.Chemscore.DG>
-14.0451

> <Gold.Chemscore.ZeroCoef>
-5.4800

> <Gold.Chemscore.Hbond>
1.7977

> <Gold.Chemscore.Metal>
0.0000

> <Gold.Chemscore.Lipo>
58.1627

> <Gold.Chemscore.Internal_Hbond>
0.0000

> <Gold.Chemscore.DEClash>
0.2137

> <Gold.Chemscore.DEInternal>
3.1750

> <Gold.Chemscore.Rot>
1.6579

> <Gold.Chemscore.Internal.Correction>
   9.000000E+99

> <Gold.Chemscore.Hbonds>
donor molecule, donor type, donor heavy atom, donor atom, acceptor molecule, acceptor atom, score
      P1  H  6896  6907       L1    19  0.95
      P1  H 10752 10765       L1     3  0.58

> <Gold.Chemscore.Hbond.Weighted>
-6.0043

> <Gold.Chemscore.Metal.Weighted>
-0.0000

> <Gold.Chemscore.Lipo.Weighted>
-6.8050

> <Gold.Chemscore.Internal_Hbond.Weighted>
0.0000

> <Gold.Chemscore.DEClash.Weighted>
0.2137

> <Gold.Chemscore.DEInternal.Weighted>
3.1750

> <Gold.Chemscore.Rot.Weighted>
4.2442

> <Gold.Chemscore.Internal.Correction.Weighted>
   9.000000E+99

> <Gold.Protein.RotatedTorsions>
[ 6907 6896 6895 6894 ] final -159.95 input  -60.11 | X-H torsion
[ 7974 7965 7964 7962 ] final  -10.44 input  175.53 | X-H torsion
[ 8008 7997 7996 7995 ] final -165.29 input   59.86 | X-H torsion
[ 10167 10162 10161 10158 ] final  125.66 input  -65.29 | X-H torsion
[ 10718 10713 10712 10709 ] final  -41.70 input   66.30 | X-H torsion
[ 10763 10752 10751 10750 ] final  166.74 input  -60.55 | X-H torsion
[ 11005 11000 10999 10996 ] final -162.81 input  -57.11 | X-H torsion

> <Gold.Protein.ActiveResidues>
 VAL166  LYS551  ARG553  GLY616  TRP617  ASP618  TYR619  PRO620  LYS621  CYS622 
 ASP623  PHE694  ASN695  SER759  ASP760  ASP761  ALA762  ILE779  LEU786  VAL792 
 PHE793  MET794  SER795  GLU796  ALA797  LYS798  CYS799  TRP800  GLU811  SER814 

> <Gold.Protein.RotatedAtoms>
  151.3415  133.3960  159.2671 H   0  0  0  0  0  0  0  0  0  0  0  0  # atno 6907 bound_to 6896
  150.9874  134.9217  159.7890 H   0  0  0  0  0  0  0  0  0  0  0  0  # atno 6908 bound_to 6896
  152.5236  134.3380  159.9259 H   0  0  0  0  0  0  0  0  0  0  0  0  # atno 6909 bound_to 6896
  146.2220  140.2764  142.8359 H   0  0  0  0  0  0  0  0  0  0  0  0  # atno 7974 bound_to 7965
  155.8477  140.0958  157.1694 H   0  0  0  0  0  0  0  0  0  0  0  0  # atno 8008 bound_to 7997
  154.3984  140.1389  156.3868 H   0  0  0  0  0  0  0  0  0  0  0  0  # atno 8009 bound_to 7997
  155.7995  140.3453  155.5397 H   0  0  0  0  0  0  0  0  0  0  0  0  # atno 8010 bound_to 7997
  139.5673  144.6919  151.3874 H   0  0  0  0  0  0  0  0  0  0  0  0  # atno 10167 bound_to 10162
  156.2675  130.4203  149.8474 H   0  0  0  0  0  0  0  0  0  0  0  0  # atno 10718 bound_to 10713
  154.3435  135.2754  155.2410 H   0  0  0  0  0  0  0  0  0  0  0  0  # atno 10763 bound_to 10752
  154.4670  135.5892  153.6299 H   0  0  0  0  0  0  0  0  0  0  0  0  # atno 10764 bound_to 10752
  152.9855  135.6079  154.3638 H   0  0  0  0  0  0  0  0  0  0  0  0  # atno 10765 bound_to 10752
  140.6051  134.4907  157.5209 H   0  0  0  0  0  0  0  0  0  0  0  0  # atno 11005 bound_to 11000
  144.9229  140.7889  143.5737 LP  0  0  0  0  0  0  0  0  0  0  0  0  # atno 17320 bound_to 7965
  145.2702  139.1957  143.4845 LP  0  0  0  0  0  0  0  0  0  0  0  0  # atno 17321 bound_to 7965
  140.6957  143.7754  150.7323 LP  0  0  0  0  0  0  0  0  0  0  0  0  # atno 17342 bound_to 10162
  140.1250  143.4577  152.2290 LP  0  0  0  0  0  0  0  0  0  0  0  0  # atno 17343 bound_to 10162
  156.5968  130.8529  151.3422 LP  0  0  0  0  0  0  0  0  0  0  0  0  # atno 17370 bound_to 10713
  157.7272  130.9640  150.1690 LP  0  0  0  0  0  0  0  0  0  0  0  0  # atno 17371 bound_to 10713
  139.9216  134.8138  156.1195 LP  0  0  0  0  0  0  0  0  0  0  0  0  # atno 17394 bound_to 11000
  141.0846  133.6740  156.2408 LP  0  0  0  0  0  0  0  0  0  0  0  0  # atno 17395 bound_to 11000

$$$$
