#       Name:                AV-unprocessed.smi:35
#       Creating user name   scv26
#       Creation time:       Thu Mar 26 16:01:21 2020


#       File generated by GOLD software.
#

@<TRIPOS>MOLECULE
AV-unprocessed.smi:35
    41    42     1
SMALL
NO_CHARGES


@<TRIPOS>ATOM
      1 ****        -4.0724   2.4876  -2.0251 O.2            1 S1                 0.0000
      2 ****        -3.0984   2.0658  -1.4057 C.2            1 S1                 0.0000
      3 ****        -3.2048   1.7583  -0.0469 N.am           1 S1                 0.0000
      4 ****        -2.1732   1.2692   0.7566 C.2            1 S1                 0.0000
      5 ****        -2.3746   1.0546   1.9515 O.2            1 S1                 0.0000
      6 ****        -0.9206   1.0407   0.1417 N.am           1 S1                 0.0000
      7 ****         0.2210   0.5325   1.0069 C.3            1 S1                 0.0000
      8 ****         1.3937   0.4603   0.2550 O.3            1 S1                 0.0000
      9 ****         1.5312  -0.8484  -0.2827 C.3            1 S1                 0.0000
     10 ****         2.9871  -1.0894  -0.7061 C.3            1 S1                 0.0000
     11 ****         3.2116  -0.5415  -1.9874 O.3            1 S1                 0.0000
     12 ****         1.0778  -1.7176   0.8908 C.3            1 S1                 0.0000
     13 ****         0.5974  -2.9627   0.4242 O.3            1 S1                 0.0000
     14 ****        -0.0519  -0.9025   1.5173 C.3            1 S1                 0.0000
     15 ****         0.0125  -0.9796   2.9270 O.3            1 S1                 0.0000
     16 ****        -0.7601   1.3686  -1.2013 C.2            1 S1                 0.0000
     17 ****        -1.7695   1.8484  -1.9653 C.2            1 S1                 0.0000
     18 ****        -1.3350   2.2492  -3.8563 Br             1 S1                 0.0000
     19 ****        -4.1016   1.9094   0.3919 H              1 S1                 0.0000
     20 ****         0.3323   1.2844   1.7911 H              1 S1                 0.0000
     21 ****         0.8499  -0.9820  -1.1256 H              1 S1                 0.0000
     22 ****         3.6865  -0.6679   0.0165 H              1 S1                 0.0000
     23 ****         3.1880  -2.1593  -0.7674 H              1 S1                 0.0000
     24 ****         4.1073  -0.7134  -2.2348 H              1 S1                 0.0000
     25 ****         1.8994  -1.8612   1.5949 H              1 S1                 0.0000
     26 ****         0.2793  -3.4562   1.1649 H              1 S1                 0.0000
     27 ****        -1.0271  -1.2484   1.1703 H              1 S1                 0.0000
     28 ****        -0.6838  -0.4504   3.2861 H              1 S1                 0.0000
     29 ****         0.1994   1.2521  -1.6814 H              1 S1                 0.0000
     30 ****        -3.9886   2.7123  -2.9959 LP             1 S1                 0.0000
     31 ****        -4.9489   2.6060  -1.5583 LP             1 S1                 0.0000
     32 ****        -3.2765   1.2305   2.3460 LP             1 S1                 0.0000
     33 ****        -1.6364   0.7042   2.5279 LP             1 S1                 0.0000
     34 ****         2.1782   0.6644   0.8404 LP             1 S1                 0.0000
     35 ****         1.3528   1.1248  -0.4912 LP             1 S1                 0.0000
     36 ****         3.0514   0.4453  -1.9650 LP             1 S1                 0.0000
     37 ****         2.5920  -0.9648  -2.6484 LP             1 S1                 0.0000
     38 ****         1.3379  -3.4644  -0.0230 LP             1 S1                 0.0000
     39 ****        -0.1464  -2.8150  -0.2278 LP             1 S1                 0.0000
     40 ****         0.8963  -0.6358   3.2442 LP             1 S1                 0.0000
     41 ****        -0.1000  -1.9294   3.2190 LP             1 S1                 0.0000
@<TRIPOS>BOND
    1    1    2 2     
    2    2   17 1     
    3    2    3 1     
    4    3   19 1     
    5    3    4 1     
    6    4    5 2     
    7    4    6 1     
    8    6    7 1     
    9    6   16 1     
   10    7   14 1     
   11    7    8 1     
   12    7   20 1     
   13    8    9 1     
   14    9   10 1     
   15    9   12 1     
   16    9   21 1     
   17   10   11 1     
   18   10   22 1     
   19   10   23 1     
   20   11   24 1     
   21   12   13 1     
   22   12   14 1     
   23   12   25 1     
   24   13   26 1     
   25   14   15 1     
   26   14   27 1     
   27   15   28 1     
   28   16   17 2     
   29   16   29 1     
   30   17   18 1     
   31    1   30 1     
   32    1   31 1     
   33    5   32 1     
   34    5   33 1     
   35    8   34 1     
   36    8   35 1     
   37   11   36 1     
   38   11   37 1     
   39   13   38 1     
   40   13   39 1     
   41   15   40 1     
   42   15   41 1     
@<TRIPOS>SUBSTRUCTURE
      1 S1             1
@<TRIPOS>SET
LONE_PAIRS      STATIC     ATOMS    <user>   **** ""
12 30 31 32 33 34 35 36 37 38 39 40 41
DONOR_HYDROGENS      STATIC     ATOMS    <user>   **** ""
4 19 24 26 28
ATOM$BLUE        STATIC     ATOMS    COLORGROUP SYSTEM
12 30 31 32 33 34 35 36 37 38 39 40 41
ATOM$RED        STATIC     ATOMS    COLORGROUP SYSTEM
4 19 24 26 28
