AV-unprocessed.smi:3292|AV-procd|sdf|12621|dock3
  -GOLD-   2272018553D 1   1.00000     0.00000
 Structure written by MMmdl.
 39 40  0  0  0  0  0  0  0  0  2 V2000
  147.8729  131.6442  153.7924 C   0  0  0  0  0  0  0  0  0  0  0  0
  147.1989  132.8996  153.2224 C   0  0  2  0  0  0  0  0  0  0  0  0
  146.8131  132.7013  151.7401 C   0  0  0  0  0  0  0  0  0  0  0  0
  145.7370  133.5970  151.3011 N   0  0  0  0  0  0  0  0  0  0  0  0
  145.7706  134.9665  151.2386 C   0  0  0  0  0  0  0  0  0  0  0  0
  144.5497  135.3663  150.7596 C   0  0  0  0  0  0  0  0  0  0  0  0
  143.8193  134.2259  150.5597 N   0  3  0  0  0  0  0  0  0  0  0  0
  144.5407  133.1514  150.8954 C   0  0  0  0  0  0  0  0  0  0  0  0
  148.1038  134.0371  153.3871 N   0  0  0  0  0  0  0  0  0  0  0  0
  148.8328  134.3017  154.4811 C   0  0  0  0  0  0  0  0  0  0  0  0
  148.8221  133.6107  155.5001 O   0  0  0  0  0  0  0  0  0  0  0  0
  149.5526  135.4237  154.3418 N   0  0  0  0  0  0  0  0  0  0  0  0
  150.3964  136.0153  155.3756 C   0  0  0  0  0  0  0  0  0  0  0  0
  151.1028  137.2893  154.8739 C   0  0  2  0  0  0  0  0  0  0  0  0
  152.0524  137.9034  155.8815 C   0  0  0  0  0  0  0  0  0  0  0  0
  152.2296  139.3136  155.3264 C   0  0  0  0  0  0  0  0  0  0  0  0
  150.9941  139.6409  154.6973 O   0  0  0  0  0  0  0  0  0  0  0  0
  150.1821  138.4766  154.5829 C   0  0  0  0  0  0  0  0  0  0  0  0
  147.2132  130.7790  153.7228 H   0  0  0  0  0  0  0  0  0  0  0  0
  148.1277  131.7773  154.8444 H   0  0  0  0  0  0  0  0  0  0  0  0
  148.7912  131.4058  153.2542 H   0  0  0  0  0  0  0  0  0  0  0  0
  146.2909  133.0681  153.8048 H   0  0  0  0  0  0  0  0  0  0  0  0
  147.6780  132.8447  151.0902 H   0  0  0  0  0  0  0  0  0  0  0  0
  146.4616  131.6818  151.5753 H   0  0  0  0  0  0  0  0  0  0  0  0
  146.6417  135.5390  151.5222 H   0  0  0  0  0  0  0  0  0  0  0  0
  144.1567  136.3507  150.5514 H   0  0  0  0  0  0  0  0  0  0  0  0
  144.2223  132.1259  150.8364 H   0  0  0  0  0  0  0  0  0  0  0  0
  148.1840  134.6679  152.6027 H   0  0  0  0  0  0  0  0  0  0  0  0
  149.4984  135.9181  153.4631 H   0  0  0  0  0  0  0  0  0  0  0  0
  149.8188  136.2247  156.2778 H   0  0  0  0  0  0  0  0  0  0  0  0
  151.1434  135.2736  155.6595 H   0  0  0  0  0  0  0  0  0  0  0  0
  151.6670  137.0560  153.9690 H   0  0  0  0  0  0  0  0  0  0  0  0
  151.5877  137.9462  156.8678 H   0  0  0  0  0  0  0  0  0  0  0  0
  152.9942  137.3614  155.9708 H   0  0  0  0  0  0  0  0  0  0  0  0
  152.4888  140.0369  156.0997 H   0  0  0  0  0  0  0  0  0  0  0  0
  153.0170  139.3287  154.5714 H   0  0  0  0  0  0  0  0  0  0  0  0
  149.7230  138.4126  153.5969 H   0  0  0  0  0  0  0  0  0  0  0  0
  149.3849  138.5418  155.3246 H   0  0  0  0  0  0  0  0  0  0  0  0
  142.8710  134.1972  150.2063 H   0  0  0  0  0  0  0  0  0  0  0  0
  1  2  1  0  0  0  0
  1 19  1  0  0  0  0
  1 20  1  0  0  0  0
  1 21  1  0  0  0  0
  2  3  1  0  0  0  0
  2  9  1  0  0  0  0
  2 22  1  0  0  0  0
  3  4  1  0  0  0  0
  3 23  1  0  0  0  0
  3 24  1  0  0  0  0
  4  8  1  0  0  0  0
  4  5  1  0  0  0  0
  5  6  2  0  0  0  0
  5 25  1  0  0  0  0
  6  7  1  0  0  0  0
  6 26  1  0  0  0  0
  7  8  2  0  0  0  0
  7 39  1  0  0  0  0
  8 27  1  0  0  0  0
  9 10  1  0  0  0  0
  9 28  1  0  0  0  0
 10 11  2  0  0  0  0
 10 12  1  0  0  0  0
 12 13  1  0  0  0  0
 12 29  1  0  0  0  0
 13 14  1  0  0  0  0
 13 30  1  0  0  0  0
 13 31  1  0  0  0  0
 14 18  1  0  0  0  0
 14 15  1  0  0  0  0
 14 32  1  0  0  0  0
 15 16  1  0  0  0  0
 15 33  1  0  0  0  0
 15 34  1  0  0  0  0
 16 17  1  0  0  0  0
 16 35  1  0  0  0  0
 16 36  1  0  0  0  0
 17 18  1  0  0  0  0
 18 37  1  0  0  0  0
 18 38  1  0  0  0  0
M  CHG  1   7   1
M  END
> <s_m_source_file>
AV-unprocessed.smi

> <i_m_source_file_index>
3292

> <i_lp_mmshare_version>
43012

> <i_f3d_flags>
0

> <s_epik_input>
W2NIXTFuW2NIXVtjSF1uMVtDSDJdW0NAQEhdKFtDSDNdKVtOSF1DKD1PKVtOSF1bQ0gyXVtDQEBIXTJbQ0gyXVtDSDJdT1tDSDJdMg==

> <s_epik_cmdline>
J2VwaWtfcHl0aG9uJywgJy1waCcsICc3LjAnLCAnLXRuJywgJzgnLCAnLW1hJywgJzIwMCcsICctbWV0YWxfYmluZGluZycsICctaW1hZScsICc8aW5maWxlLm1hZT4nLCAnLW9tYWUnLCAnPG91dGZpbGUubWFlPic=

> <r_lp_tautomer_probability>
1

> <r_epik_Ionization_Penalty>
0.255703

> <r_epik_Ionization_Penalty_Charging>
0

> <r_epik_Ionization_Penalty_Neutral>
0.255703

> <r_epik_State_Penalty>
0.247169

> <r_epik_Charging_Adjusted_Penalty>
0.247169

> <i_epik_Tot_Q>
1

> <i_epik_Tot_abs_Q>
1

> <r_epik_Metal_State_Penalty>
0.536791

> <b_epik_Metal_Only>
0

> <s_lp_Force_Field>
OPLS_2005

> <r_lp_Energy>
18.5781

> <b_lp_Chiralities_Consistent>
1

> <s_lp_Variant>
AV-unprocessed.smi:3292-1

> <Gold.Version>
5.8.1

> <Gold.Id.Protein>
6NUR|6NUR_protein|mol2

> <Gold.PLP.Fitness>
50.5720

> <Gold.PLP.PLP>
-33.4229

> <Gold.PLP.part.hbond>
-4.2841

> <Gold.PLP.part.metal>
0.0000

> <Gold.PLP.part.buried>
-4.1837

> <Gold.PLP.part.nonpolar>
-25.8840

> <Gold.PLP.part.repulsive>
0.1480

> <Gold.PLP.ligand.clash>
0.0000

> <Gold.PLP.ligand.torsion>
0.4620

> <Gold.PLP.Chemscore.Hbond>
4.9920

> <Gold.PLP.Chemscore.CHOScore>
1.0000

> <Gold.PLP.Chemscore.Metal>
0.0000

> <Gold.Chemscore.Hbonds>
donor molecule, donor type, donor heavy atom, donor atom, acceptor molecule, acceptor atom, score
      L1  H     7    39       P1 10186  2.00
      L1  H     9    28       P1  7948  0.98
      L1  H    12    29       P1  7948  1.00
      P1  H  7989  7998       L1    17  0.90
      L1  C     5    25       P1  7948  1.00

> <Gold.PLP.Chemscore.Internal.Correction>
0.0971

> <Gold.Rescore>
     Score         DG    S(hbond)    S(metal)    S(lipo)     H(rot)  DE(clash)    DE(int)     intcor
     16.25     -18.43       3.63        0.00      56.11       2.24       0.10       2.08       ----

> <Gold.Chemscore.Fitness>
16.2531

> <Gold.Chemscore.DG>
-18.4342

> <Gold.Chemscore.ZeroCoef>
-5.4800

> <Gold.Chemscore.Hbond>
3.6272

> <Gold.Chemscore.Metal>
0.0000

> <Gold.Chemscore.Lipo>
56.1146

> <Gold.Chemscore.Internal_Hbond>
0.0000

> <Gold.Chemscore.DEClash>
0.0998

> <Gold.Chemscore.DEInternal>
2.0813

> <Gold.Chemscore.Rot>
2.2367

> <Gold.Chemscore.Internal.Correction>
   9.000000E+99

> <Gold.Chemscore.Hbonds>
donor molecule, donor type, donor heavy atom, donor atom, acceptor molecule, acceptor atom, score
      L1  H     7    39       P1 10186  0.90
      L1  H     9    28       P1  7948  0.42
      L1  H    12    29       P1  7948  0.34
      P1  H  7989  7998       L1    17  0.18

> <Gold.Chemscore.Hbond.Weighted>
-12.1147

> <Gold.Chemscore.Metal.Weighted>
-0.0000

> <Gold.Chemscore.Lipo.Weighted>
-6.5654

> <Gold.Chemscore.Internal_Hbond.Weighted>
0.0000

> <Gold.Chemscore.DEClash.Weighted>
0.0998

> <Gold.Chemscore.DEInternal.Weighted>
2.0813

> <Gold.Chemscore.Rot.Weighted>
5.7259

> <Gold.Chemscore.Internal.Correction.Weighted>
   9.000000E+99

> <Gold.Protein.RotatedTorsions>
[ 6907 6896 6895 6894 ] final -115.86 input  -60.11 | X-H torsion
[ 7974 7965 7964 7962 ] final  139.86 input  175.53 | X-H torsion
[ 8008 7997 7996 7995 ] final   70.45 input   59.86 | X-H torsion
[ 10167 10162 10161 10158 ] final  158.29 input  -65.29 | X-H torsion
[ 10718 10713 10712 10709 ] final   78.28 input   66.30 | X-H torsion
[ 10763 10752 10751 10750 ] final -150.37 input  -60.55 | X-H torsion
[ 11005 11000 10999 10996 ] final  116.56 input  -57.11 | X-H torsion

> <Gold.Protein.ActiveResidues>
 VAL166  LYS551  ARG553  GLY616  TRP617  ASP618  TYR619  PRO620  LYS621  CYS622 
 ASP623  PHE694  ASN695  SER759  ASP760  ASP761  ALA762  ILE779  LEU786  VAL792 
 PHE793  MET794  SER795  GLU796  ALA797  LYS798  CYS799  TRP800  GLU811  SER814 

> <Gold.Protein.RotatedAtoms>
  150.8010  133.8599  159.3228 H   0  0  0  0  0  0  0  0  0  0  0  0  # atno 6907 bound_to 6896
  151.6411  135.1011  160.0151 H   0  0  0  0  0  0  0  0  0  0  0  0  # atno 6908 bound_to 6896
  152.4097  133.6905  159.6422 H   0  0  0  0  0  0  0  0  0  0  0  0  # atno 6909 bound_to 6896
  144.9239  139.5132  143.5650 H   0  0  0  0  0  0  0  0  0  0  0  0  # atno 7974 bound_to 7965
  155.7389  140.3490  155.5095 H   0  0  0  0  0  0  0  0  0  0  0  0  # atno 8008 bound_to 7997
  155.9113  140.1051  157.1299 H   0  0  0  0  0  0  0  0  0  0  0  0  # atno 8009 bound_to 7997
  154.4056  140.1267  156.4547 H   0  0  0  0  0  0  0  0  0  0  0  0  # atno 8010 bound_to 7997
  139.4826  144.4838  151.8406 H   0  0  0  0  0  0  0  0  0  0  0  0  # atno 10167 bound_to 10162
  157.6739  130.9861  150.1764 H   0  0  0  0  0  0  0  0  0  0  0  0  # atno 10718 bound_to 10713
  154.8123  135.3286  154.7271 H   0  0  0  0  0  0  0  0  0  0  0  0  # atno 10763 bound_to 10752
  153.7918  135.6910  153.4874 H   0  0  0  0  0  0  0  0  0  0  0  0  # atno 10764 bound_to 10752
  153.1911  135.4550  155.0097 H   0  0  0  0  0  0  0  0  0  0  0  0  # atno 10765 bound_to 10752
  139.9045  134.9599  156.7217 H   0  0  0  0  0  0  0  0  0  0  0  0  # atno 11005 bound_to 11000
  146.3217  139.8140  142.8940 LP  0  0  0  0  0  0  0  0  0  0  0  0  # atno 17320 bound_to 7965
  145.3251  141.0253  143.3478 LP  0  0  0  0  0  0  0  0  0  0  0  0  # atno 17321 bound_to 7965
  140.4316  144.2108  150.5888 LP  0  0  0  0  0  0  0  0  0  0  0  0  # atno 17342 bound_to 10162
  140.4773  143.2391  151.9004 LP  0  0  0  0  0  0  0  0  0  0  0  0  # atno 17343 bound_to 10162
  156.2506  130.3700  149.8236 LP  0  0  0  0  0  0  0  0  0  0  0  0  # atno 17370 bound_to 10713
  156.6010  130.8546  151.3431 LP  0  0  0  0  0  0  0  0  0  0  0  0  # atno 17371 bound_to 10713
  140.6995  133.9319  155.8015 LP  0  0  0  0  0  0  0  0  0  0  0  0  # atno 17394 bound_to 11000
  141.0382  134.0659  157.3934 LP  0  0  0  0  0  0  0  0  0  0  0  0  # atno 17395 bound_to 11000

$$$$
