AV-unprocessed.smi:1080|AV-procd|sdf|4709|dock3
  -GOLD-   22720 3233D 1   1.00000     0.00000
 Structure written by MMmdl.
 49 51  0  0  0  0  0  0  0  0  2 V2000
  150.1798  133.7421  155.3257 O   0  0  0  0  0  0  0  0  0  0  0  0
  149.7152  134.5757  154.5485 C   0  0  0  0  0  0  0  0  0  0  0  0
  148.7627  134.3311  153.6315 N   0  0  0  0  0  0  0  0  0  0  0  0
  148.1236  133.0973  153.3322 C   0  0  0  0  0  0  0  0  0  0  0  0
  148.6624  131.9230  153.9038 C   0  0  0  0  0  0  0  0  0  0  0  0
  148.0492  130.6799  153.6463 C   0  0  0  0  0  0  0  0  0  0  0  0
  146.9481  130.6214  152.8671 N   0  3  0  0  0  0  0  0  0  0  0  0
  146.3876  131.7173  152.3119 C   0  0  0  0  0  0  0  0  0  0  0  0
  146.9570  132.9880  152.5333 C   0  0  0  0  0  0  0  0  0  0  0  0
  150.0859  135.8643  154.5281 N   0  0  0  0  0  0  0  0  0  0  0  0
  151.0755  136.4870  155.4038 C   0  0  2  0  0  0  0  0  0  0  0  0
  150.3812  137.0343  156.6634 C   0  0  0  0  0  0  0  0  0  0  0  0
  151.3535  137.8235  157.5647 C   0  0  0  0  0  0  0  0  0  0  0  0
  152.1667  138.9187  156.8266 C   0  0  2  0  0  0  0  0  0  0  0  0
  151.3573  140.2052  156.5253 C   0  0  0  0  0  0  0  0  0  0  0  0
  151.0066  140.4255  155.3655 O   0  0  0  0  0  0  0  0  0  0  0  0
  151.0218  141.0469  157.5370 N   0  0  0  0  0  0  0  0  0  0  0  0
  151.5435  140.8798  158.8999 C   0  0  0  0  0  0  0  0  0  0  0  0
  152.6961  141.8744  159.1187 C   0  0  0  0  0  0  0  0  0  0  0  0
  152.1134  143.5938  158.9795 S   0  0  0  0  0  0  0  0  0  0  0  0
  151.2069  143.4847  157.4048 C   0  0  0  0  0  0  0  0  0  0  0  0
  150.2438  142.2860  157.4092 C   0  0  0  0  0  0  0  0  0  0  0  0
  152.8140  138.3314  155.5515 C   0  0  0  0  0  0  0  0  0  0  0  0
  151.8027  137.6101  154.6446 C   0  0  0  0  0  0  0  0  0  0  0  0
  148.4134  135.1349  153.1303 H   0  0  0  0  0  0  0  0  0  0  0  0
  149.5428  131.9695  154.5289 H   0  0  0  0  0  0  0  0  0  0  0  0
  148.4035  129.7378  154.0388 H   0  0  0  0  0  0  0  0  0  0  0  0
  145.5026  131.5473  151.7162 H   0  0  0  0  0  0  0  0  0  0  0  0
  146.4822  133.8539  152.0977 H   0  0  0  0  0  0  0  0  0  0  0  0
  149.6417  136.4720  153.8554 H   0  0  0  0  0  0  0  0  0  0  0  0
  151.8223  135.7551  155.7170 H   0  0  0  0  0  0  0  0  0  0  0  0
  149.5395  137.6634  156.3758 H   0  0  0  0  0  0  0  0  0  0  0  0
  149.9515  136.2099  157.2336 H   0  0  0  0  0  0  0  0  0  0  0  0
  150.8039  138.2598  158.4001 H   0  0  0  0  0  0  0  0  0  0  0  0
  152.0541  137.1183  158.0136 H   0  0  0  0  0  0  0  0  0  0  0  0
  152.9589  139.1880  157.5237 H   0  0  0  0  0  0  0  0  0  0  0  0
  150.7533  141.0527  159.6318 H   0  0  0  0  0  0  0  0  0  0  0  0
  151.8916  139.8639  159.0905 H   0  0  0  0  0  0  0  0  0  0  0  0
  153.1393  141.7336  160.1047 H   0  0  0  0  0  0  0  0  0  0  0  0
  153.4866  141.7061  158.3864 H   0  0  0  0  0  0  0  0  0  0  0  0
  150.6578  144.4140  157.2527 H   0  0  0  0  0  0  0  0  0  0  0  0
  151.9224  143.3974  156.5866 H   0  0  0  0  0  0  0  0  0  0  0  0
  149.6099  142.3031  156.5246 H   0  0  0  0  0  0  0  0  0  0  0  0
  149.5483  142.3751  158.2450 H   0  0  0  0  0  0  0  0  0  0  0  0
  153.3148  139.1137  154.9800 H   0  0  0  0  0  0  0  0  0  0  0  0
  153.5971  137.6298  155.8415 H   0  0  0  0  0  0  0  0  0  0  0  0
  152.3230  137.1956  153.7800 H   0  0  0  0  0  0  0  0  0  0  0  0
  151.0803  138.3275  154.2528 H   0  0  0  0  0  0  0  0  0  0  0  0
  146.5188  129.7118  152.6944 H   0  0  0  0  0  0  0  0  0  0  0  0
  1  2  2  0  0  0  0
  2  3  1  0  0  0  0
  2 10  1  0  0  0  0
  3  4  1  0  0  0  0
  3 25  1  0  0  0  0
  4  9  1  0  0  0  0
  4  5  2  0  0  0  0
  5  6  1  0  0  0  0
  5 26  1  0  0  0  0
  6  7  2  0  0  0  0
  6 27  1  0  0  0  0
  7  8  1  0  0  0  0
  7 49  1  0  0  0  0
  8  9  2  0  0  0  0
  8 28  1  0  0  0  0
  9 29  1  0  0  0  0
 10 11  1  0  0  0  0
 10 30  1  0  0  0  0
 11 24  1  0  0  0  0
 11 12  1  0  0  0  0
 11 31  1  0  0  0  0
 12 13  1  0  0  0  0
 12 32  1  0  0  0  0
 12 33  1  0  0  0  0
 13 14  1  0  0  0  0
 13 34  1  0  0  0  0
 13 35  1  0  0  0  0
 14 15  1  0  0  0  0
 14 23  1  0  0  0  0
 14 36  1  0  0  0  0
 15 16  2  0  0  0  0
 15 17  1  0  0  0  0
 17 22  1  0  0  0  0
 17 18  1  0  0  0  0
 18 19  1  0  0  0  0
 18 37  1  0  0  0  0
 18 38  1  0  0  0  0
 19 20  1  0  0  0  0
 19 39  1  0  0  0  0
 19 40  1  0  0  0  0
 20 21  1  0  0  0  0
 21 22  1  0  0  0  0
 21 41  1  0  0  0  0
 21 42  1  0  0  0  0
 22 43  1  0  0  0  0
 22 44  1  0  0  0  0
 23 24  1  0  0  0  0
 23 45  1  0  0  0  0
 23 46  1  0  0  0  0
 24 47  1  0  0  0  0
 24 48  1  0  0  0  0
M  CHG  1   7   1
M  END
> <s_m_source_file>
AV-unprocessed.smi

> <i_m_source_file_index>
1080

> <i_lp_mmshare_version>
43012

> <i_f3d_flags>
0

> <s_epik_input>
W2NIXTFbY0hdbltjSF1bY0hdYzFbTkhdQyg9TylbTkhdW0NAQEhdMltDSDJdW0NIMl1bQ0BIXShbQ0gyXVtDSDJdMilDKD1PKU4zW0NIMl1bQ0gyXVNbQ0gyXVtDSDJdMw==

> <s_epik_cmdline>
J2VwaWtfcHl0aG9uJywgJy1waCcsICc3LjAnLCAnLXRuJywgJzgnLCAnLW1hJywgJzIwMCcsICctbWV0YWxfYmluZGluZycsICctaW1hZScsICc8aW5maWxlLm1hZT4nLCAnLW9tYWUnLCAnPG91dGZpbGUubWFlPic=

> <r_epik_Ionization_Penalty>
1.01281

> <r_epik_Ionization_Penalty_Charging>
1.01278

> <r_epik_Ionization_Penalty_Neutral>
2.07681e-05

> <r_epik_State_Penalty>
1.06237

> <r_epik_Charging_Adjusted_Penalty>
2.07515

> <i_epik_Tot_Q>
1

> <i_epik_Tot_abs_Q>
1

> <r_epik_Metal_State_Penalty>
1.16243

> <b_epik_Metal_Only>
0

> <s_lp_Force_Field>
OPLS_2005

> <r_lp_Energy>
37.4575

> <b_lp_Chiralities_Consistent>
1

> <s_lp_Variant>
AV-unprocessed.smi:1080-4

> <Gold.Version>
5.8.1

> <Gold.Id.Protein>
6NUR|6NUR_protein|mol2

> <Gold.PLP.Fitness>
46.1976

> <Gold.PLP.PLP>
-40.7531

> <Gold.PLP.part.hbond>
-4.0987

> <Gold.PLP.part.metal>
0.0000

> <Gold.PLP.part.buried>
0.2736

> <Gold.PLP.part.nonpolar>
-37.2961

> <Gold.PLP.part.repulsive>
0.1693

> <Gold.PLP.ligand.clash>
0.0000

> <Gold.PLP.ligand.torsion>
0.8007

> <Gold.PLP.Chemscore.Hbond>
2.3249

> <Gold.PLP.Chemscore.CHOScore>
0.0000

> <Gold.PLP.Chemscore.Metal>
0.0000

> <Gold.Chemscore.Hbonds>
donor molecule, donor type, donor heavy atom, donor atom, acceptor molecule, acceptor atom, score
      L1  H     3    25       P1  7948  0.74
      L1  H    10    30       P1  7948  0.57
      P1  H  7989  7998       L1    16  0.99

> <Gold.PLP.Chemscore.Internal.Correction>
0.0711

> <Gold.Rescore>
     Score         DG    S(hbond)    S(metal)    S(lipo)     H(rot)  DE(clash)    DE(int)     intcor
     18.32     -21.55       1.96        0.00     108.65       1.25       0.19       3.04       ----

> <Gold.Chemscore.Fitness>
18.3248

> <Gold.Chemscore.DG>
-21.5529

> <Gold.Chemscore.ZeroCoef>
-5.4800

> <Gold.Chemscore.Hbond>
1.9632

> <Gold.Chemscore.Metal>
0.0000

> <Gold.Chemscore.Lipo>
108.6499

> <Gold.Chemscore.Internal_Hbond>
0.0000

> <Gold.Chemscore.DEClash>
0.1873

> <Gold.Chemscore.DEInternal>
3.0408

> <Gold.Chemscore.Rot>
1.2486

> <Gold.Chemscore.Internal.Correction>
   9.000000E+99

> <Gold.Chemscore.Hbonds>
donor molecule, donor type, donor heavy atom, donor atom, acceptor molecule, acceptor atom, score
      L1  H     3    25       P1  7948  0.65
      L1  H    10    30       P1  7948  0.36
      P1  H  7989  7998       L1    16  0.90

> <Gold.Chemscore.Hbond.Weighted>
-6.5572

> <Gold.Chemscore.Metal.Weighted>
-0.0000

> <Gold.Chemscore.Lipo.Weighted>
-12.7120

> <Gold.Chemscore.Internal_Hbond.Weighted>
0.0000

> <Gold.Chemscore.DEClash.Weighted>
0.1873

> <Gold.Chemscore.DEInternal.Weighted>
3.0408

> <Gold.Chemscore.Rot.Weighted>
3.1963

> <Gold.Chemscore.Internal.Correction.Weighted>
   9.000000E+99

> <Gold.Protein.RotatedTorsions>
[ 6907 6896 6895 6894 ] final  176.68 input  -60.11 | X-H torsion
[ 7974 7965 7964 7962 ] final -133.26 input  175.53 | X-H torsion
[ 8008 7997 7996 7995 ] final -129.18 input   59.86 | X-H torsion
[ 10167 10162 10161 10158 ] final -140.79 input  -65.29 | X-H torsion
[ 10718 10713 10712 10709 ] final  136.70 input   66.30 | X-H torsion
[ 10763 10752 10751 10750 ] final  -22.00 input  -60.55 | X-H torsion
[ 11005 11000 10999 10996 ] final  -67.06 input  -57.11 | X-H torsion

> <Gold.Protein.ActiveResidues>
 VAL166  LYS551  ARG553  GLY616  TRP617  ASP618  TYR619  PRO620  LYS621  CYS622 
 ASP623  PHE694  ASN695  SER759  ASP760  ASP761  ALA762  ILE779  LEU786  VAL792 
 PHE793  MET794  SER795  GLU796  ALA797  LYS798  CYS799  TRP800  GLU811  SER814 

> <Gold.Protein.RotatedAtoms>
  151.7162  133.3313  159.3303 H   0  0  0  0  0  0  0  0  0  0  0  0  # atno 6907 bound_to 6896
  150.7672  134.6488  159.6286 H   0  0  0  0  0  0  0  0  0  0  0  0  # atno 6908 bound_to 6896
  152.3680  134.6778  160.0237 H   0  0  0  0  0  0  0  0  0  0  0  0  # atno 6909 bound_to 6896
  144.9210  140.7014  143.4965 H   0  0  0  0  0  0  0  0  0  0  0  0  # atno 7974 bound_to 7965
  155.2749  140.0441  157.3010 H   0  0  0  0  0  0  0  0  0  0  0  0  # atno 8008 bound_to 7997
  154.5631  140.2352  155.8273 H   0  0  0  0  0  0  0  0  0  0  0  0  # atno 8009 bound_to 7997
  156.2063  140.3011  155.9642 H   0  0  0  0  0  0  0  0  0  0  0  0  # atno 8010 bound_to 7997
  139.8247  143.7527  152.2666 H   0  0  0  0  0  0  0  0  0  0  0  0  # atno 10167 bound_to 10162
  157.4439  131.1060  151.0111 H   0  0  0  0  0  0  0  0  0  0  0  0  # atno 10718 bound_to 10713
  153.6450  135.6983  153.5228 H   0  0  0  0  0  0  0  0  0  0  0  0  # atno 10763 bound_to 10752
  153.2752  135.4202  155.1025 H   0  0  0  0  0  0  0  0  0  0  0  0  # atno 10764 bound_to 10752
  154.8490  135.3588  154.5994 H   0  0  0  0  0  0  0  0  0  0  0  0  # atno 10765 bound_to 10752
  141.1498  133.6711  156.6234 H   0  0  0  0  0  0  0  0  0  0  0  0  # atno 11005 bound_to 11000
  145.3296  139.1763  143.4544 LP  0  0  0  0  0  0  0  0  0  0  0  0  # atno 17320 bound_to 7965
  146.3204  140.3324  142.8641 LP  0  0  0  0  0  0  0  0  0  0  0  0  # atno 17321 bound_to 7965
  139.7716  144.7475  151.0217 LP  0  0  0  0  0  0  0  0  0  0  0  0  # atno 17342 bound_to 10162
  140.7811  143.4639  151.0239 LP  0  0  0  0  0  0  0  0  0  0  0  0  # atno 17343 bound_to 10162
  157.0965  130.5964  149.5451 LP  0  0  0  0  0  0  0  0  0  0  0  0  # atno 17370 bound_to 10713
  155.9960  130.5028  150.7479 LP  0  0  0  0  0  0  0  0  0  0  0  0  # atno 17371 bound_to 10713
  140.3522  134.7758  157.4475 LP  0  0  0  0  0  0  0  0  0  0  0  0  # atno 17394 bound_to 11000
  140.0851  134.5677  155.8500 LP  0  0  0  0  0  0  0  0  0  0  0  0  # atno 17395 bound_to 11000

$$$$
