AV-unprocessed.smi:2768|AV-procd|sdf|10655|dock6
  -GOLD-   2272015103D 1   1.00000     0.00000
 Structure written by MMmdl.
 34 35  0  0  0  0  0  0  0  0  2 V2000
  152.5233  139.9108  155.1301 O   0  0  0  0  0  0  0  0  0  0  0  0
  151.5202  139.7885  155.8429 C   0  0  0  0  0  0  0  0  0  0  0  0
  151.2679  140.2932  157.0852 N   0  5  0  0  0  0  0  0  0  0  0  0
  152.0967  141.3029  157.7481 C   0  0  1  0  0  0  0  0  0  0  0  0
  151.2164  142.4975  158.1969 C   0  0  0  0  0  0  0  0  0  0  0  0
  151.9856  143.5452  159.0403 C   0  0  0  0  0  0  0  0  0  0  0  0
  152.6589  142.9260  160.2828 C   0  0  0  0  0  0  0  0  0  0  0  0
  153.5507  141.7436  159.8501 C   0  0  0  0  0  0  0  0  0  0  0  0
  152.7809  140.6956  159.0033 C   0  0  2  0  0  0  0  0  0  0  0  0
  153.6860  139.6854  158.6055 O   0  0  0  0  0  0  0  0  0  0  0  0
  150.3328  138.9704  155.2909 C   0  0  0  0  0  0  0  0  0  0  0  0
  150.6789  138.4741  154.1004 F   0  0  0  0  0  0  0  0  0  0  0  0
  150.0659  137.9309  156.0901 F   0  0  0  0  0  0  0  0  0  0  0  0
  149.1014  139.8594  155.1263 C   0  0  0  0  0  0  0  0  0  0  0  0
  149.1437  141.0059  154.2998 C   0  0  0  0  0  0  0  0  0  0  0  0
  147.9873  141.8010  154.1855 C   0  0  0  0  0  0  0  0  0  0  0  0
  146.8327  141.4260  154.8980 C   0  0  0  0  0  0  0  0  0  0  0  0
  146.8882  140.2687  155.6993 C   0  0  0  0  0  0  0  0  0  0  0  0
  147.9912  139.4994  155.8148 N   0  0  0  0  0  0  0  0  0  0  0  0
  152.8778  141.6866  157.0889 H   0  0  0  0  0  0  0  0  0  0  0  0
  152.0219  140.2310  159.6349 H   0  0  0  0  0  0  0  0  0  0  0  0
  150.7846  142.9867  157.3228 H   0  0  0  0  0  0  0  0  0  0  0  0
  150.3733  142.1290  158.7837 H   0  0  0  0  0  0  0  0  0  0  0  0
  152.7409  144.0396  158.4259 H   0  0  0  0  0  0  0  0  0  0  0  0
  151.2985  144.3309  159.3551 H   0  0  0  0  0  0  0  0  0  0  0  0
  153.2482  143.6753  160.8116 H   0  0  0  0  0  0  0  0  0  0  0  0
  151.8955  142.5747  160.9783 H   0  0  0  0  0  0  0  0  0  0  0  0
  154.4079  142.1268  159.2918 H   0  0  0  0  0  0  0  0  0  0  0  0
  153.9648  141.2637  160.7376 H   0  0  0  0  0  0  0  0  0  0  0  0
  153.4519  138.8964  159.0717 H   0  0  0  0  0  0  0  0  0  0  0  0
  150.0457  141.2743  153.7700 H   0  0  0  0  0  0  0  0  0  0  0  0
  147.9864  142.6838  153.5631 H   0  0  0  0  0  0  0  0  0  0  0  0
  145.9273  142.0111  154.8336 H   0  0  0  0  0  0  0  0  0  0  0  0
  146.0222  139.9509  156.2608 H   0  0  0  0  0  0  0  0  0  0  0  0
  1  2  2  0  0  0  0
  2  3  1  0  0  0  0
  2 11  1  0  0  0  0
  3  4  1  0  0  0  0
  4 20  1  0  0  0  0
  4  9  1  0  0  0  0
  4  5  1  0  0  0  0
  5  6  1  0  0  0  0
  5 22  1  0  0  0  0
  5 23  1  0  0  0  0
  6  7  1  0  0  0  0
  6 24  1  0  0  0  0
  6 25  1  0  0  0  0
  7  8  1  0  0  0  0
  7 26  1  0  0  0  0
  7 27  1  0  0  0  0
  8  9  1  0  0  0  0
  8 28  1  0  0  0  0
  8 29  1  0  0  0  0
  9 21  1  0  0  0  0
  9 10  1  0  0  0  0
 10 30  1  0  0  0  0
 11 12  1  0  0  0  0
 11 13  1  0  0  0  0
 11 14  1  0  0  0  0
 14 19  1  0  0  0  0
 14 15  2  0  0  0  0
 15 16  1  0  0  0  0
 15 31  1  0  0  0  0
 16 17  2  0  0  0  0
 16 32  1  0  0  0  0
 17 18  1  0  0  0  0
 17 33  1  0  0  0  0
 18 19  2  0  0  0  0
 18 34  1  0  0  0  0
M  CHG  1   3  -1
M  END
> <s_m_source_file>
AV-unprocessed.smi

> <i_m_source_file_index>
2768

> <i_lp_mmshare_version>
43012

> <i_f3d_flags>
0

> <s_epik_input>
bjFbY0hdW2NIXVtjSF1bY0hdYzFDKEYpKEYpQyg9TylbTkhdW0NAQEhdMltDSDJdW0NIMl1bQ0gyXVtDSDJdW0NASF0yW09IXQ==

> <s_epik_cmdline>
J2VwaWtfcHl0aG9uJywgJy1waCcsICc3LjAnLCAnLXRuJywgJzgnLCAnLW1hJywgJzIwMCcsICctbWV0YWxfYmluZGluZycsICctaW1hZScsICc8aW5maWxlLm1hZT4nLCAnLW9tYWUnLCAnPG91dGZpbGUubWFlPic=

> <r_lp_tautomer_probability>
1

> <r_epik_Ionization_Penalty>
5.70553

> <r_epik_Ionization_Penalty_Charging>
5.70553

> <r_epik_Ionization_Penalty_Neutral>
5.5493e-06

> <r_epik_State_Penalty>
5.70549

> <r_epik_Charging_Adjusted_Penalty>
11.411

> <i_epik_Tot_Q>
-1

> <i_epik_Tot_abs_Q>
1

> <r_epik_Metal_State_Penalty>
1.6859

> <b_epik_Metal_Only>
1

> <s_lp_Force_Field>
OPLS_2005

> <r_lp_Energy>
26.4517

> <b_lp_Chiralities_Consistent>
1

> <s_lp_Variant>
AV-unprocessed.smi:2768-8

> <Gold.Version>
5.8.1

> <Gold.Id.Protein>
6NUR|6NUR_protein|mol2

> <Gold.PLP.Fitness>
42.6070

> <Gold.PLP.PLP>
-36.5168

> <Gold.PLP.part.hbond>
-2.8965

> <Gold.PLP.part.metal>
0.0000

> <Gold.PLP.part.buried>
-3.2459

> <Gold.PLP.part.nonpolar>
-29.2987

> <Gold.PLP.part.repulsive>
0.0155

> <Gold.PLP.ligand.clash>
0.0000

> <Gold.PLP.ligand.torsion>
0.0882

> <Gold.PLP.Chemscore.Hbond>
2.0750

> <Gold.PLP.Chemscore.CHOScore>
0.0000

> <Gold.PLP.Chemscore.Metal>
0.0000

> <Gold.Chemscore.Hbonds>
donor molecule, donor type, donor heavy atom, donor atom, acceptor molecule, acceptor atom, score
      P1  H  7989  7998       L1     1  0.54
      P1  H  7997  8008       L1     1  0.67
      P1  H  7997  8010       L1    10  0.83

> <Gold.PLP.Chemscore.Internal.Correction>
0.0415

> <Gold.Rescore>
     Score         DG    S(hbond)    S(metal)    S(lipo)     H(rot)  DE(clash)    DE(int)     intcor
     16.72     -16.86       1.66        0.00      92.54       1.95       0.05       0.10       ----

> <Gold.Chemscore.Fitness>
16.7152

> <Gold.Chemscore.DG>
-16.8609

> <Gold.Chemscore.ZeroCoef>
-5.4800

> <Gold.Chemscore.Hbond>
1.6605

> <Gold.Chemscore.Metal>
0.0000

> <Gold.Chemscore.Lipo>
92.5433

> <Gold.Chemscore.Internal_Hbond>
0.0000

> <Gold.Chemscore.DEClash>
0.0478

> <Gold.Chemscore.DEInternal>
0.0980

> <Gold.Chemscore.Rot>
1.9503

> <Gold.Chemscore.Internal.Correction>
   9.000000E+99

> <Gold.Chemscore.Hbonds>
donor molecule, donor type, donor heavy atom, donor atom, acceptor molecule, acceptor atom, score
      P1  H  7989  7998       L1     1  0.13
      P1  H  7997  8008       L1     1  0.63
      P1  H  7997  8010       L1    10  0.80

> <Gold.Chemscore.Hbond.Weighted>
-5.5461

> <Gold.Chemscore.Metal.Weighted>
-0.0000

> <Gold.Chemscore.Lipo.Weighted>
-10.8276

> <Gold.Chemscore.Internal_Hbond.Weighted>
0.0000

> <Gold.Chemscore.DEClash.Weighted>
0.0478

> <Gold.Chemscore.DEInternal.Weighted>
0.0980

> <Gold.Chemscore.Rot.Weighted>
4.9928

> <Gold.Chemscore.Internal.Correction.Weighted>
   9.000000E+99

> <Gold.Protein.RotatedTorsions>
[ 6907 6896 6895 6894 ] final  134.60 input  -60.11 | X-H torsion
[ 7974 7965 7964 7962 ] final -112.21 input  175.53 | X-H torsion
[ 8008 7997 7996 7995 ] final   -1.44 input   59.86 | X-H torsion
[ 10167 10162 10161 10158 ] final   80.89 input  -65.29 | X-H torsion
[ 10718 10713 10712 10709 ] final  140.00 input   66.30 | X-H torsion
[ 10763 10752 10751 10750 ] final    5.84 input  -60.55 | X-H torsion
[ 11005 11000 10999 10996 ] final  128.83 input  -57.11 | X-H torsion

> <Gold.Protein.ActiveResidues>
 VAL166  LYS551  ARG553  GLY616  TRP617  ASP618  TYR619  PRO620  LYS621  CYS622 
 ASP623  PHE694  ASN695  SER759  ASP760  ASP761  ALA762  ILE779  LEU786  VAL792 
 PHE793  MET794  SER795  GLU796  ALA797  LYS798  CYS799  TRP800  GLU811  SER814 

> <Gold.Protein.RotatedAtoms>
  152.3095  133.5738  159.5671 H   0  0  0  0  0  0  0  0  0  0  0  0  # atno 6907 bound_to 6896
  150.7316  134.0173  159.3698 H   0  0  0  0  0  0  0  0  0  0  0  0  # atno 6908 bound_to 6896
  151.8067  135.0693  160.0458 H   0  0  0  0  0  0  0  0  0  0  0  0  # atno 6909 bound_to 6896
  145.1467  140.8807  143.3670 H   0  0  0  0  0  0  0  0  0  0  0  0  # atno 7974 bound_to 7965
  154.6468  140.2559  155.7259 H   0  0  0  0  0  0  0  0  0  0  0  0  # atno 8008 bound_to 7997
  156.2556  140.2876  156.0806 H   0  0  0  0  0  0  0  0  0  0  0  0  # atno 8009 bound_to 7997
  155.1511  140.0382  157.2811 H   0  0  0  0  0  0  0  0  0  0  0  0  # atno 8010 bound_to 7997
  139.9450  144.6065  150.8216 H   0  0  0  0  0  0  0  0  0  0  0  0  # atno 10167 bound_to 10162
  157.4081  131.1025  151.0483 H   0  0  0  0  0  0  0  0  0  0  0  0  # atno 10718 bound_to 10713
  153.2546  135.6917  153.7642 H   0  0  0  0  0  0  0  0  0  0  0  0  # atno 10763 bound_to 10752
  153.6724  135.3342  155.3157 H   0  0  0  0  0  0  0  0  0  0  0  0  # atno 10764 bound_to 10752
  154.8407  135.4503  154.1515 H   0  0  0  0  0  0  0  0  0  0  0  0  # atno 10765 bound_to 10752
  139.9582  134.9608  156.9059 H   0  0  0  0  0  0  0  0  0  0  0  0  # atno 11005 bound_to 11000
  145.0474  139.3210  143.5946 LP  0  0  0  0  0  0  0  0  0  0  0  0  # atno 17320 bound_to 7965
  146.3499  139.9869  142.8689 LP  0  0  0  0  0  0  0  0  0  0  0  0  # atno 17321 bound_to 7965
  140.7600  143.3141  151.2775 LP  0  0  0  0  0  0  0  0  0  0  0  0  # atno 17342 bound_to 10162
  139.6674  144.0080  152.2732 LP  0  0  0  0  0  0  0  0  0  0  0  0  # atno 17343 bound_to 10162
  157.1457  130.6162  149.5568 LP  0  0  0  0  0  0  0  0  0  0  0  0  # atno 17370 bound_to 10713
  155.9842  130.4866  150.6973 LP  0  0  0  0  0  0  0  0  0  0  0  0  # atno 17371 bound_to 10713
  140.5561  134.0580  155.7384 LP  0  0  0  0  0  0  0  0  0  0  0  0  # atno 17394 bound_to 11000
  141.1256  133.9388  157.2642 LP  0  0  0  0  0  0  0  0  0  0  0  0  # atno 17395 bound_to 11000

$$$$
