#       Name:                AV-unprocessed.smi:1830
#       Creating user name   scv26
#       Creation time:       Fri Mar 27 09:14:38 2020


#       File generated by GOLD software.
#

@<TRIPOS>MOLECULE
AV-unprocessed.smi:1830
    59    62     1
SMALL
NO_CHARGES


@<TRIPOS>ATOM
      1 ****         0.7751   0.9116  -2.1251 O.2            1 S1                 0.0000
      2 ****         0.2500   0.0921  -1.3719 C.2            1 S1                 0.0000
      3 ****         0.8682  -1.0079  -0.9207 N.am           1 S1                 0.0000
      4 ****         2.2432  -1.3951  -1.2262 C.3            1 S1                 0.0000
      5 ****         3.2032  -1.1045  -0.0585 C.3            1 S1                 0.0000
      6 ****         3.3051   0.3949   0.3157 C.3            1 S1                 0.0000
      7 ****         4.1610   0.5535   1.4750 N.3            1 S1                 0.0000
      8 ****         4.2980   1.8892   2.0078 C.3            1 S1                 0.0000
      9 ****         4.8863   1.6780   3.4140 C.3            1 S1                 0.0000
     10 ****         4.5523   0.2088   3.7551 C.3            1 S1                 0.0000
     11 ****         3.6658  -0.2176   2.5837 C.3            1 S1                 0.0000
     12 ****         3.6217  -1.7118   2.2313 C.3            1 S1                 0.0000
     13 ****         2.7902  -1.8732   1.0789 O.3            1 S1                 0.0000
     14 ****        -1.0063   0.1696  -0.9025 N.am           1 S1                 0.0000
     15 ****        -1.9915   1.1540  -1.1976 C.ar           1 S1                 0.0000
     16 ****        -1.6338   2.5109  -1.4076 C.ar           1 S1                 0.0000
     17 ****        -2.6342   3.4756  -1.6300 C.ar           1 S1                 0.0000
     18 ****        -3.9806   3.0733  -1.6221 C.ar           1 S1                 0.0000
     19 ****        -4.2898   1.7783  -1.4052 N.pl3          1 S1                 1.0000
     20 ****        -3.3722   0.8002  -1.2001 C.ar           1 S1                 0.0000
     21 ****        -3.8453  -0.5163  -0.9967 N.3            1 S1                 0.0000
     22 ****        -5.2700  -0.7695  -0.8149 C.3            1 S1                 0.0000
     23 ****        -5.4284  -2.2779  -0.9843 C.3            1 S1                 0.0000
     24 ****        -4.3859  -2.5992  -2.0510 C.3            1 S1                 0.0000
     25 ****        -3.2528  -1.6080  -1.7637 C.3            1 S1                 0.0000
     26 ****         0.3581  -1.6222  -0.3030 H              1 S1                 0.0000
     27 ****         2.2492  -2.4634  -1.4436 H              1 S1                 0.0000
     28 ****         2.5990  -0.9021  -2.1323 H              1 S1                 0.0000
     29 ****         4.1952  -1.4551  -0.3492 H              1 S1                 0.0000
     30 ****         3.7030   0.9669  -0.5231 H              1 S1                 0.0000
     31 ****         2.3165   0.7995   0.5350 H              1 S1                 0.0000
     32 ****         4.9317   2.5119   1.3758 H              1 S1                 0.0000
     33 ****         3.3198   2.3670   2.0831 H              1 S1                 0.0000
     34 ****         5.9660   1.8312   3.4129 H              1 S1                 0.0000
     35 ****         4.4496   2.3742   4.1306 H              1 S1                 0.0000
     36 ****         5.4656  -0.3872   3.7857 H              1 S1                 0.0000
     37 ****         4.0455   0.1040   4.7148 H              1 S1                 0.0000
     38 ****         2.6463   0.1037   2.8081 H              1 S1                 0.0000
     39 ****         4.6211  -2.0985   2.0260 H              1 S1                 0.0000
     40 ****         3.2104  -2.2916   3.0577 H              1 S1                 0.0000
     41 ****        -1.3273  -0.6205  -0.3622 H              1 S1                 0.0000
     42 ****        -0.6040   2.8336  -1.3788 H              1 S1                 0.0000
     43 ****        -2.3714   4.5109  -1.7911 H              1 S1                 0.0000
     44 ****        -4.8145   3.7428  -1.7761 H              1 S1                 0.0000
     45 ****        -5.6126  -0.4341   0.1645 H              1 S1                 0.0000
     46 ****        -5.8510  -0.2525  -1.5799 H              1 S1                 0.0000
     47 ****        -5.1773  -2.7875  -0.0529 H              1 S1                 0.0000
     48 ****        -6.4389  -2.5704  -1.2709 H              1 S1                 0.0000
     49 ****        -4.0564  -3.6382  -2.0260 H              1 S1                 0.0000
     50 ****        -4.8033  -2.4033  -3.0397 H              1 S1                 0.0000
     51 ****        -2.7881  -1.2584  -2.6867 H              1 S1                 0.0000
     52 ****        -2.4846  -2.0874  -1.1564 H              1 S1                 0.0000
     53 ****        -5.2762   1.5180  -1.4034 H              1 S1                 0.0000
     54 ****         1.7161   0.7750  -2.4348 LP             1 S1                 0.0000
     55 ****         0.2608   1.7141  -2.4275 LP             1 S1                 0.0000
     56 ****         5.0468   0.2590   1.1164 LP             1 S1                 0.0000
     57 ****         2.7948  -2.8397   0.8222 LP             1 S1                 0.0000
     58 ****         1.8603  -1.5974   1.3224 LP             1 S1                 0.0000
     59 ****        -3.4473  -0.5329  -0.0795 LP             1 S1                 0.0000
@<TRIPOS>BOND
    1    1    2 2     
    2    2    3 am    
    3    2   14 am    
    4    3    4 1     
    5    3   26 1     
    6    4    5 1     
    7    4   27 1     
    8    4   28 1     
    9    5   13 1     
   10    5    6 1     
   11    5   29 1     
   12    6    7 1     
   13    6   30 1     
   14    6   31 1     
   15    7   11 1     
   16    7    8 1     
   17    8    9 1     
   18    8   32 1     
   19    8   33 1     
   20    9   10 1     
   21    9   34 1     
   22    9   35 1     
   23   10   11 1     
   24   10   36 1     
   25   10   37 1     
   26   11   12 1     
   27   11   38 1     
   28   12   13 1     
   29   12   39 1     
   30   12   40 1     
   31   14   15 1     
   32   14   41 1     
   33   15   20 ar    
   34   15   16 ar    
   35   16   17 ar    
   36   16   42 1     
   37   17   18 ar    
   38   17   43 1     
   39   18   19 ar    
   40   18   44 1     
   41   19   20 ar    
   42   19   53 1     
   43   20   21 1     
   44   21   25 1     
   45   21   22 1     
   46   22   23 1     
   47   22   45 1     
   48   22   46 1     
   49   23   24 1     
   50   23   47 1     
   51   23   48 1     
   52   24   25 1     
   53   24   49 1     
   54   24   50 1     
   55   25   51 1     
   56   25   52 1     
   57    1   54 1     
   58    1   55 1     
   59    7   56 1     
   60   13   57 1     
   61   13   58 1     
   62   21   59 1     
@<TRIPOS>SUBSTRUCTURE
      1 S1             1
@<TRIPOS>SET
LONE_PAIRS      STATIC     ATOMS    <user>   **** ""
6 54 55 56 57 58 59
DONOR_HYDROGENS      STATIC     ATOMS    <user>   **** ""
3 26 41 53
ATOM$BLUE        STATIC     ATOMS    COLORGROUP SYSTEM
6 54 55 56 57 58 59
ATOM$RED        STATIC     ATOMS    COLORGROUP SYSTEM
3 26 41 53
