AV-unprocessed.smi:2448|AV-procd|sdf|9660|dock4
  -GOLD-   2272013293D 1   1.00000     0.00000
 Structure written by MMmdl.
 38 39  0  0  0  0  0  0  0  0  2 V2000
  144.4008  135.8013  149.8096 O   0  0  0  0  0  0  0  0  0  0  0  0
  145.0405  135.1971  150.9202 C   0  0  2  0  0  0  0  0  0  0  0  0
  145.8887  136.2725  151.6303 C   0  0  0  0  0  0  0  0  0  0  0  0
  145.0692  137.3953  152.0933 N   0  0  0  0  0  0  0  0  0  0  0  0
  145.6432  138.2479  153.1452 C   0  0  2  0  0  0  0  0  0  0  0  0
  146.9341  138.8780  152.5690 C   0  0  0  0  0  0  0  0  0  0  0  0
  147.4419  140.0968  153.3208 C   0  0  0  0  0  0  0  0  0  0  0  0
  148.7398  140.1075  153.8797 C   0  0  0  0  0  0  0  0  0  0  0  0
  149.1826  141.2534  154.5713 C   0  0  0  0  0  0  0  0  0  0  0  0
  148.3679  142.3247  154.6893 N   0  3  0  0  0  0  0  0  0  0  0  0
  147.1227  142.3582  154.1664 C   0  0  0  0  0  0  0  0  0  0  0  0
  146.6258  141.2410  153.4641 C   0  0  0  0  0  0  0  0  0  0  0  0
  145.8903  137.4701  154.4691 C   0  0  0  0  0  0  0  0  0  0  0  0
  146.0779  138.2989  155.4942 F   0  0  0  0  0  0  0  0  0  0  0  0
  144.8525  136.6779  154.7393 F   0  0  0  0  0  0  0  0  0  0  0  0
  146.9872  136.7186  154.3861 F   0  0  0  0  0  0  0  0  0  0  0  0
  145.9128  134.0524  150.3791 C   0  0  0  0  0  0  0  0  0  0  0  0
  144.9833  132.9029  149.9766 C   0  0  0  0  0  0  0  0  0  0  0  0
  143.5864  132.9018  151.1277 S   0  0  0  0  0  0  0  0  0  0  0  0
  143.9968  134.5226  151.8293 C   0  0  0  0  0  0  0  0  0  0  0  0
  144.2369  136.7086  150.0158 H   0  0  0  0  0  0  0  0  0  0  0  0
  146.4006  135.8223  152.4816 H   0  0  0  0  0  0  0  0  0  0  0  0
  146.6614  136.6108  150.9419 H   0  0  0  0  0  0  0  0  0  0  0  0
  144.8106  137.9691  151.2968 H   0  0  0  0  0  0  0  0  0  0  0  0
  144.9433  139.0582  153.3529 H   0  0  0  0  0  0  0  0  0  0  0  0
  147.7241  138.1270  152.5233 H   0  0  0  0  0  0  0  0  0  0  0  0
  146.7596  139.1893  151.5378 H   0  0  0  0  0  0  0  0  0  0  0  0
  149.3887  139.2488  153.7853 H   0  0  0  0  0  0  0  0  0  0  0  0
  150.1562  141.3445  155.0303 H   0  0  0  0  0  0  0  0  0  0  0  0
  146.5662  143.2706  154.3241 H   0  0  0  0  0  0  0  0  0  0  0  0
  145.6311  141.2639  153.0430 H   0  0  0  0  0  0  0  0  0  0  0  0
  146.5459  134.3687  149.5492 H   0  0  0  0  0  0  0  0  0  0  0  0
  146.5794  133.7017  151.1682 H   0  0  0  0  0  0  0  0  0  0  0  0
  144.5948  133.0688  148.9714 H   0  0  0  0  0  0  0  0  0  0  0  0
  145.4948  131.9403  149.9795 H   0  0  0  0  0  0  0  0  0  0  0  0
  144.4227  134.3478  152.8180 H   0  0  0  0  0  0  0  0  0  0  0  0
  143.1001  135.1282  151.9647 H   0  0  0  0  0  0  0  0  0  0  0  0
  148.7083  143.1437  155.1940 H   0  0  0  0  0  0  0  0  0  0  0  0
  1  2  1  0  0  0  0
  1 21  1  0  0  0  0
  2 20  1  0  0  0  0
  2  3  1  0  0  0  0
  2 17  1  0  0  0  0
  3  4  1  0  0  0  0
  3 22  1  0  0  0  0
  3 23  1  0  0  0  0
  4  5  1  0  0  0  0
  4 24  1  0  0  0  0
  5  6  1  0  0  0  0
  5 13  1  0  0  0  0
  5 25  1  0  0  0  0
  6  7  1  0  0  0  0
  6 26  1  0  0  0  0
  6 27  1  0  0  0  0
  7 12  1  0  0  0  0
  7  8  2  0  0  0  0
  8  9  1  0  0  0  0
  8 28  1  0  0  0  0
  9 10  2  0  0  0  0
  9 29  1  0  0  0  0
 10 11  1  0  0  0  0
 10 38  1  0  0  0  0
 11 12  2  0  0  0  0
 11 30  1  0  0  0  0
 12 31  1  0  0  0  0
 13 14  1  0  0  0  0
 13 15  1  0  0  0  0
 13 16  1  0  0  0  0
 17 18  1  0  0  0  0
 17 32  1  0  0  0  0
 17 33  1  0  0  0  0
 18 19  1  0  0  0  0
 18 34  1  0  0  0  0
 18 35  1  0  0  0  0
 19 20  1  0  0  0  0
 20 36  1  0  0  0  0
 20 37  1  0  0  0  0
M  CHG  1  10   1
M  END
> <s_m_source_file>
AV-unprocessed.smi

> <i_m_source_file_index>
2448

> <i_lp_mmshare_version>
43012

> <i_f3d_flags>
0

> <s_epik_input>
W0NIMl0xU1tDSDJdW0NIMl1bQ0BAXTEoW09IXSlbQ0gyXVtOSF1bQ0BASF0oQyhGKShGKUYpW0NIMl1jMltjSF1bY0hdbltjSF1bY0hdMg==

> <s_epik_cmdline>
J2VwaWtfcHl0aG9uJywgJy1waCcsICc3LjAnLCAnLXRuJywgJzgnLCAnLW1hJywgJzIwMCcsICctbWV0YWxfYmluZGluZycsICctaW1hZScsICc8aW5maWxlLm1hZT4nLCAnLW9tYWUnLCAnPG91dGZpbGUubWFlPic=

> <r_epik_Ionization_Penalty>
1.11129

> <r_epik_Ionization_Penalty_Charging>
1.08366

> <r_epik_Ionization_Penalty_Neutral>
0.0276276

> <r_epik_State_Penalty>
1.93785

> <r_epik_Charging_Adjusted_Penalty>
3.02151

> <i_epik_Tot_Q>
1

> <i_epik_Tot_abs_Q>
1

> <r_epik_Metal_State_Penalty>
5.97911

> <b_epik_Metal_Only>
0

> <s_lp_Force_Field>
OPLS_2005

> <r_lp_Energy>
38.3653

> <b_lp_Chiralities_Consistent>
1

> <s_lp_Variant>
AV-unprocessed.smi:2448-10

> <Gold.Version>
5.8.1

> <Gold.Id.Protein>
6NUR|6NUR_protein|mol2

> <Gold.PLP.Fitness>
44.9633

> <Gold.PLP.PLP>
-33.7342

> <Gold.PLP.part.hbond>
-4.0000

> <Gold.PLP.part.metal>
0.0000

> <Gold.PLP.part.buried>
0.2866

> <Gold.PLP.part.nonpolar>
-29.9203

> <Gold.PLP.part.repulsive>
0.2048

> <Gold.PLP.ligand.clash>
0.0013

> <Gold.PLP.ligand.torsion>
0.5996

> <Gold.PLP.Chemscore.Hbond>
4.0000

> <Gold.PLP.Chemscore.CHOScore>
0.0000

> <Gold.PLP.Chemscore.Metal>
0.0000

> <Gold.Chemscore.Hbonds>
donor molecule, donor type, donor heavy atom, donor atom, acceptor molecule, acceptor atom, score
      L1  H     1    21       P1 10171  1.00
      L1  H     4    24       P1 10171  1.00
      L1  H    10    38       P1  8028  2.00

> <Gold.PLP.Chemscore.Internal.Correction>
0.4297

> <Gold.Rescore>
     Score         DG    S(hbond)    S(metal)    S(lipo)     H(rot)  DE(clash)    DE(int)     intcor
     17.26     -18.85       2.87        0.00      85.40       2.42       0.46       1.13       ----

> <Gold.Chemscore.Fitness>
17.2631

> <Gold.Chemscore.DG>
-18.8506

> <Gold.Chemscore.ZeroCoef>
-5.4800

> <Gold.Chemscore.Hbond>
2.8702

> <Gold.Chemscore.Metal>
0.0000

> <Gold.Chemscore.Lipo>
85.3964

> <Gold.Chemscore.Internal_Hbond>
0.0000

> <Gold.Chemscore.DEClash>
0.4589

> <Gold.Chemscore.DEInternal>
1.1286

> <Gold.Chemscore.Rot>
2.4247

> <Gold.Chemscore.Internal.Correction>
   9.000000E+99

> <Gold.Chemscore.Hbonds>
donor molecule, donor type, donor heavy atom, donor atom, acceptor molecule, acceptor atom, score
      L1  H     1    21       P1 10171  0.99
      L1  H     4    24       P1 10171  1.00
      L1  H    10    38       P1  8028  0.99

> <Gold.Chemscore.Hbond.Weighted>
-9.5865

> <Gold.Chemscore.Metal.Weighted>
-0.0000

> <Gold.Chemscore.Lipo.Weighted>
-9.9914

> <Gold.Chemscore.Internal_Hbond.Weighted>
0.0000

> <Gold.Chemscore.DEClash.Weighted>
0.4589

> <Gold.Chemscore.DEInternal.Weighted>
1.1286

> <Gold.Chemscore.Rot.Weighted>
6.2072

> <Gold.Chemscore.Internal.Correction.Weighted>
   9.000000E+99

> <Gold.Protein.RotatedTorsions>
[ 6907 6896 6895 6894 ] final  -69.52 input  -60.11 | X-H torsion
[ 7974 7965 7964 7962 ] final  109.48 input  175.53 | X-H torsion
[ 8008 7997 7996 7995 ] final   95.03 input   59.86 | X-H torsion
[ 10167 10162 10161 10158 ] final -134.12 input  -65.29 | X-H torsion
[ 10718 10713 10712 10709 ] final -123.16 input   66.30 | X-H torsion
[ 10763 10752 10751 10750 ] final  -63.37 input  -60.55 | X-H torsion
[ 11005 11000 10999 10996 ] final  157.94 input  -57.11 | X-H torsion

> <Gold.Protein.ActiveResidues>
 VAL166  LYS551  ARG553  GLY616  TRP617  ASP618  TYR619  PRO620  LYS621  CYS622 
 ASP623  PHE694  ASN695  SER759  ASP760  ASP761  ALA762  ILE779  LEU786  VAL792 
 PHE793  MET794  SER795  GLU796  ALA797  LYS798  CYS799  TRP800  GLU811  SER814 

> <Gold.Protein.RotatedAtoms>
  150.7301  134.5584  159.5829 H   0  0  0  0  0  0  0  0  0  0  0  0  # atno 6907 bound_to 6896
  152.3054  134.7558  160.0357 H   0  0  0  0  0  0  0  0  0  0  0  0  # atno 6908 bound_to 6896
  151.8125  133.3348  159.3596 H   0  0  0  0  0  0  0  0  0  0  0  0  # atno 6909 bound_to 6896
  145.2672  139.2680  143.3985 H   0  0  0  0  0  0  0  0  0  0  0  0  # atno 7974 bound_to 7965
  156.0644  140.3292  155.7500 H   0  0  0  0  0  0  0  0  0  0  0  0  # atno 8008 bound_to 7997
  155.5404  140.0601  157.2888 H   0  0  0  0  0  0  0  0  0  0  0  0  # atno 8009 bound_to 7997
  154.4497  140.1911  156.0574 H   0  0  0  0  0  0  0  0  0  0  0  0  # atno 8010 bound_to 7997
  139.8913  143.6719  152.2611 H   0  0  0  0  0  0  0  0  0  0  0  0  # atno 10167 bound_to 10162
  156.1479  130.6513  150.9869 H   0  0  0  0  0  0  0  0  0  0  0  0  # atno 10718 bound_to 10713
  154.3140  135.6210  153.5478 H   0  0  0  0  0  0  0  0  0  0  0  0  # atno 10763 bound_to 10752
  152.9826  135.5708  154.5145 H   0  0  0  0  0  0  0  0  0  0  0  0  # atno 10764 bound_to 10752
  154.4800  135.2863  155.1554 H   0  0  0  0  0  0  0  0  0  0  0  0  # atno 10765 bound_to 10752
  140.1818  134.8470  157.2811 H   0  0  0  0  0  0  0  0  0  0  0  0  # atno 11005 bound_to 11000
  146.3257  140.3105  142.8626 LP  0  0  0  0  0  0  0  0  0  0  0  0  # atno 17320 bound_to 7965
  144.9367  140.8034  143.5656 LP  0  0  0  0  0  0  0  0  0  0  0  0  # atno 17321 bound_to 7965
  139.7107  144.7620  151.1116 LP  0  0  0  0  0  0  0  0  0  0  0  0  # atno 17342 bound_to 10162
  140.7726  143.5334  150.9396 LP  0  0  0  0  0  0  0  0  0  0  0  0  # atno 17343 bound_to 10162
  157.6632  131.0877  150.7790 LP  0  0  0  0  0  0  0  0  0  0  0  0  # atno 17370 bound_to 10713
  156.7860  130.4875  149.5393 LP  0  0  0  0  0  0  0  0  0  0  0  0  # atno 17371 bound_to 10713
  140.2259  134.3967  155.7544 LP  0  0  0  0  0  0  0  0  0  0  0  0  # atno 17394 bound_to 11000
  141.2223  133.7190  156.8564 LP  0  0  0  0  0  0  0  0  0  0  0  0  # atno 17395 bound_to 11000

$$$$
