AV-unprocessed.smi:463|AV-procd|sdf|2634|dock8
  -GOLD-   2262023 43D 1   1.00000     0.00000
 Structure written by MMmdl.
 42 44  0  0  0  0  0  0  0  0  1 V2000
  154.0980  140.8466  161.2046 C   0  0  0  0  0  0  0  0  0  0  0  0
  153.1772  142.0111  160.9048 C   0  0  0  0  0  0  0  0  0  0  0  0
  153.0612  143.0770  161.8188 C   0  0  0  0  0  0  0  0  0  0  0  0
  152.1992  144.1532  161.5376 C   0  0  0  0  0  0  0  0  0  0  0  0
  151.4507  144.1684  160.3445 C   0  0  0  0  0  0  0  0  0  0  0  0
  151.5602  143.1021  159.4169 C   0  0  0  0  0  0  0  0  0  0  0  0
  150.8693  143.0352  158.2272 O   0  0  0  0  0  0  0  0  0  0  0  0
  150.6111  141.7556  157.6651 C   0  0  0  0  0  0  0  0  0  0  0  0
  151.0445  141.7505  156.1929 C   0  0  0  0  0  0  0  0  0  0  0  0
  150.4188  140.6669  155.4481 N   0  0  0  0  0  0  0  0  0  0  0  0
  150.9274  139.4504  155.1212 C   0  0  0  0  0  0  0  0  0  0  0  0
  152.3064  139.0074  155.5176 C   0  0  0  0  0  0  0  0  0  0  0  0
  152.3126  137.7464  156.3962 C   0  0  0  0  0  0  0  0  0  0  0  0
  151.7525  136.6466  155.7100 O   0  0  0  0  0  0  0  0  0  0  0  0
  150.1166  138.6540  154.4224 N   0  0  0  0  0  0  0  0  0  0  0  0
  148.9816  139.4265  154.2742 C   0  0  0  0  0  0  0  0  0  0  0  0
  147.7595  139.1485  153.6207 C   0  0  0  0  0  0  0  0  0  0  0  0
  146.7275  140.1096  153.5982 C   0  0  0  0  0  0  0  0  0  0  0  0
  146.9024  141.3594  154.2271 C   0  0  0  0  0  0  0  0  0  0  0  0
  148.1118  141.6558  154.8846 C   0  0  0  0  0  0  0  0  0  0  0  0
  149.1384  140.6928  154.9046 C   0  0  0  0  0  0  0  0  0  0  0  0
  152.4270  142.0297  159.7114 C   0  0  0  0  0  0  0  0  0  0  0  0
  154.9231  141.1560  161.8469 H   0  0  0  0  0  0  0  0  0  0  0  0
  154.5200  140.4397  160.2853 H   0  0  0  0  0  0  0  0  0  0  0  0
  153.5476  140.0532  161.7104 H   0  0  0  0  0  0  0  0  0  0  0  0
  153.6305  143.0726  162.7366 H   0  0  0  0  0  0  0  0  0  0  0  0
  152.1107  144.9695  162.2391 H   0  0  0  0  0  0  0  0  0  0  0  0
  150.7999  145.0101  160.1642 H   0  0  0  0  0  0  0  0  0  0  0  0
  151.1604  140.9873  158.2110 H   0  0  0  0  0  0  0  0  0  0  0  0
  149.5473  141.5209  157.7299 H   0  0  0  0  0  0  0  0  0  0  0  0
  150.8155  142.7057  155.7229 H   0  0  0  0  0  0  0  0  0  0  0  0
  152.1265  141.6345  156.1255 H   0  0  0  0  0  0  0  0  0  0  0  0
  152.8556  138.7928  154.6003 H   0  0  0  0  0  0  0  0  0  0  0  0
  152.8549  139.8174  155.9969 H   0  0  0  0  0  0  0  0  0  0  0  0
  153.3224  137.5038  156.7285 H   0  0  0  0  0  0  0  0  0  0  0  0
  151.7132  137.9192  157.2904 H   0  0  0  0  0  0  0  0  0  0  0  0
  150.9818  136.9408  155.2488 H   0  0  0  0  0  0  0  0  0  0  0  0
  147.6166  138.1949  153.1344 H   0  0  0  0  0  0  0  0  0  0  0  0
  145.7979  139.8872  153.0950 H   0  0  0  0  0  0  0  0  0  0  0  0
  146.1076  142.0906  154.2044 H   0  0  0  0  0  0  0  0  0  0  0  0
  148.2495  142.6123  155.3664 H   0  0  0  0  0  0  0  0  0  0  0  0
  152.5142  141.2122  159.0106 H   0  0  0  0  0  0  0  0  0  0  0  0
  1  2  1  0  0  0  0
  1 23  1  0  0  0  0
  1 24  1  0  0  0  0
  1 25  1  0  0  0  0
  2 22  1  0  0  0  0
  2  3  2  0  0  0  0
  3  4  1  0  0  0  0
  3 26  1  0  0  0  0
  4  5  2  0  0  0  0
  4 27  1  0  0  0  0
  5  6  1  0  0  0  0
  5 28  1  0  0  0  0
  6  7  1  0  0  0  0
  6 22  2  0  0  0  0
  7  8  1  0  0  0  0
  8  9  1  0  0  0  0
  8 29  1  0  0  0  0
  8 30  1  0  0  0  0
  9 10  1  0  0  0  0
  9 31  1  0  0  0  0
  9 32  1  0  0  0  0
 10 21  1  0  0  0  0
 10 11  1  0  0  0  0
 11 12  1  0  0  0  0
 11 15  2  0  0  0  0
 12 13  1  0  0  0  0
 12 33  1  0  0  0  0
 12 34  1  0  0  0  0
 13 14  1  0  0  0  0
 13 35  1  0  0  0  0
 13 36  1  0  0  0  0
 14 37  1  0  0  0  0
 15 16  1  0  0  0  0
 16 21  2  0  0  0  0
 16 17  1  0  0  0  0
 17 18  2  0  0  0  0
 17 38  1  0  0  0  0
 18 19  1  0  0  0  0
 18 39  1  0  0  0  0
 19 20  2  0  0  0  0
 19 40  1  0  0  0  0
 20 21  1  0  0  0  0
 20 41  1  0  0  0  0
 22 42  1  0  0  0  0
M  END
> <s_m_source_file>
AV-unprocessed.smi

> <i_m_source_file_index>
463

> <i_lp_mmshare_version>
43012

> <i_f3d_flags>
0

> <s_epik_input>
W0NIM11jMVtjSF1bY0hdW2NIXWMoW2NIXTEpT1tDSDJdW0NIMl1uKGMobjIpW0NIMl1bQ0gyXVtPSF0pYyhjMjMpW2NIXVtjSF1bY0hdW2NIXTM=

> <s_epik_cmdline>
J2VwaWtfcHl0aG9uJywgJy1waCcsICc3LjAnLCAnLXRuJywgJzgnLCAnLW1hJywgJzIwMCcsICctbWV0YWxfYmluZGluZycsICctaW1hZScsICc8aW5maWxlLm1hZT4nLCAnLW9tYWUnLCAnPG91dGZpbGUubWFlPic=

> <r_lp_tautomer_probability>
1

> <r_epik_Ionization_Penalty>
0.206757

> <r_epik_Ionization_Penalty_Charging>
0

> <r_epik_Ionization_Penalty_Neutral>
0.206757

> <r_epik_State_Penalty>
0.196743

> <r_epik_Charging_Adjusted_Penalty>
0.196743

> <i_epik_Tot_Q>
0

> <i_epik_Tot_abs_Q>
0

> <r_epik_Metal_State_Penalty>
0.000233299

> <b_epik_Metal_Only>
0

> <s_lp_Force_Field>
OPLS_2005

> <r_lp_Energy>
15.5684

> <b_lp_Chiralities_Consistent>
1

> <s_lp_Variant>
AV-unprocessed.smi:463-1

> <Gold.Version>
5.8.1

> <Gold.Id.Protein>
6NUR|6NUR_protein|mol2

> <Gold.PLP.Fitness>
50.8185

> <Gold.PLP.PLP>
-49.9678

> <Gold.PLP.part.hbond>
-1.0000

> <Gold.PLP.part.metal>
0.0000

> <Gold.PLP.part.buried>
-2.5178

> <Gold.PLP.part.nonpolar>
-45.2061

> <Gold.PLP.part.repulsive>
0.3072

> <Gold.PLP.ligand.clash>
0.0178

> <Gold.PLP.ligand.torsion>
1.1109

> <Gold.PLP.Chemscore.Hbond>
1.0000

> <Gold.PLP.Chemscore.CHOScore>
0.0000

> <Gold.PLP.Chemscore.Metal>
0.0000

> <Gold.Chemscore.Hbonds>
donor molecule, donor type, donor heavy atom, donor atom, acceptor molecule, acceptor atom, score
      P1  H 10752 10764       L1    14  1.00

> <Gold.PLP.Chemscore.Internal.Correction>
0.0903

> <Gold.Rescore>
     Score         DG    S(hbond)    S(metal)    S(lipo)     H(rot)  DE(clash)    DE(int)     intcor
     17.82     -19.02       0.96        0.00     138.13       2.28       0.11       1.10       ----

> <Gold.Chemscore.Fitness>
17.8169

> <Gold.Chemscore.DG>
-19.0219

> <Gold.Chemscore.ZeroCoef>
-5.4800

> <Gold.Chemscore.Hbond>
0.9649

> <Gold.Chemscore.Metal>
0.0000

> <Gold.Chemscore.Lipo>
138.1300

> <Gold.Chemscore.Internal_Hbond>
0.0000

> <Gold.Chemscore.DEClash>
0.1079

> <Gold.Chemscore.DEInternal>
1.0971

> <Gold.Chemscore.Rot>
2.2821

> <Gold.Chemscore.Internal.Correction>
   9.000000E+99

> <Gold.Chemscore.Hbonds>
donor molecule, donor type, donor heavy atom, donor atom, acceptor molecule, acceptor atom, score
      P1  H 10752 10764       L1    14  0.85

> <Gold.Chemscore.Hbond.Weighted>
-3.2228

> <Gold.Chemscore.Metal.Weighted>
-0.0000

> <Gold.Chemscore.Lipo.Weighted>
-16.1612

> <Gold.Chemscore.Internal_Hbond.Weighted>
0.0000

> <Gold.Chemscore.DEClash.Weighted>
0.1079

> <Gold.Chemscore.DEInternal.Weighted>
1.0971

> <Gold.Chemscore.Rot.Weighted>
5.8421

> <Gold.Chemscore.Internal.Correction.Weighted>
   9.000000E+99

> <Gold.Protein.RotatedTorsions>
[ 6907 6896 6895 6894 ] final -123.30 input  -60.11 | X-H torsion
[ 7974 7965 7964 7962 ] final  -33.71 input  175.53 | X-H torsion
[ 8008 7997 7996 7995 ] final  166.58 input   59.86 | X-H torsion
[ 10167 10162 10161 10158 ] final   23.53 input  -65.29 | X-H torsion
[ 10718 10713 10712 10709 ] final -137.51 input   66.30 | X-H torsion
[ 10763 10752 10751 10750 ] final  -36.98 input  -60.55 | X-H torsion
[ 11005 11000 10999 10996 ] final   94.36 input  -57.11 | X-H torsion

> <Gold.Protein.ActiveResidues>
 VAL166  LYS551  ARG553  GLY616  TRP617  ASP618  TYR619  PRO620  LYS621  CYS622 
 ASP623  PHE694  ASN695  SER759  ASP760  ASP761  ALA762  ILE779  LEU786  VAL792 
 PHE793  MET794  SER795  GLU796  ALA797  LYS798  CYS799  TRP800  GLU811  SER814 

> <Gold.Protein.RotatedAtoms>
  150.8658  133.7577  159.2977 H   0  0  0  0  0  0  0  0  0  0  0  0  # atno 6907 bound_to 6896
  151.5204  135.1065  159.9886 H   0  0  0  0  0  0  0  0  0  0  0  0  # atno 6908 bound_to 6896
  152.4660  133.7879  159.6942 H   0  0  0  0  0  0  0  0  0  0  0  0  # atno 6909 bound_to 6896
  146.0888  140.5950  142.8874 H   0  0  0  0  0  0  0  0  0  0  0  0  # atno 7974 bound_to 7965
  156.1706  140.1639  156.8454 H   0  0  0  0  0  0  0  0  0  0  0  0  # atno 8008 bound_to 7997
  154.5253  140.0769  156.8281 H   0  0  0  0  0  0  0  0  0  0  0  0  # atno 8009 bound_to 7997
  155.3520  140.3390  155.4242 H   0  0  0  0  0  0  0  0  0  0  0  0  # atno 8010 bound_to 7997
  140.5261  143.9920  150.6441 H   0  0  0  0  0  0  0  0  0  0  0  0  # atno 10167 bound_to 10162
  156.2890  130.7364  151.1384 H   0  0  0  0  0  0  0  0  0  0  0  0  # atno 10718 bound_to 10713
  153.8887  135.6814  153.4762 H   0  0  0  0  0  0  0  0  0  0  0  0  # atno 10763 bound_to 10752
  153.1193  135.4747  154.9166 H   0  0  0  0  0  0  0  0  0  0  0  0  # atno 10764 bound_to 10752
  154.7633  135.3217  154.8288 H   0  0  0  0  0  0  0  0  0  0  0  0  # atno 10765 bound_to 10752
  139.8799  134.8841  156.3852 H   0  0  0  0  0  0  0  0  0  0  0  0  # atno 11005 bound_to 11000
  144.7345  140.4769  143.6913 LP  0  0  0  0  0  0  0  0  0  0  0  0  # atno 17320 bound_to 7965
  145.6078  139.1510  143.3093 LP  0  0  0  0  0  0  0  0  0  0  0  0  # atno 17321 bound_to 7965
  140.3283  143.3094  152.0714 LP  0  0  0  0  0  0  0  0  0  0  0  0  # atno 17342 bound_to 10162
  139.4939  144.6527  151.6641 LP  0  0  0  0  0  0  0  0  0  0  0  0  # atno 17343 bound_to 10162
  157.7337  131.0589  150.5564 LP  0  0  0  0  0  0  0  0  0  0  0  0  # atno 17370 bound_to 10713
  156.5678  130.4272  149.6033 LP  0  0  0  0  0  0  0  0  0  0  0  0  # atno 17371 bound_to 10713
  140.9371  133.7540  156.0098 LP  0  0  0  0  0  0  0  0  0  0  0  0  # atno 17394 bound_to 11000
  140.8263  134.3230  157.5364 LP  0  0  0  0  0  0  0  0  0  0  0  0  # atno 17395 bound_to 11000

$$$$
