AV-unprocessed.smi:2601|AV-procd|sdf|10183|dock4
  -GOLD-   2272014193D 1   1.00000     0.00000
 Structure written by MMmdl.
 47 48  0  0  0  0  0  0  0  0  1 V2000
  152.1022  144.1262  162.1653 C   0  0  0  0  0  0  0  0  0  0  0  0
  152.7524  143.2667  161.1944 N   0  0  0  0  0  0  0  0  0  0  0  0
  153.6151  142.3225  161.6282 N   0  0  0  0  0  0  0  0  0  0  0  0
  154.0275  141.7159  160.5293 C   0  0  0  0  0  0  0  0  0  0  0  0
  153.4395  142.2580  159.3538 C   0  0  0  0  0  0  0  0  0  0  0  0
  152.6251  143.2547  159.8156 C   0  0  0  0  0  0  0  0  0  0  0  0
  151.7310  144.1951  159.0620 C   0  0  0  0  0  0  0  0  0  0  0  0
  150.3231  143.6384  158.7721 C   0  0  0  0  0  0  0  0  0  0  0  0
  150.2534  142.8902  157.5203 N   0  0  0  0  0  0  0  0  0  0  0  0
  150.7173  141.6443  157.3277 C   0  0  0  0  0  0  0  0  0  0  0  0
  151.2700  141.0040  158.2227 O   0  0  0  0  0  0  0  0  0  0  0  0
  150.5021  141.1482  156.0845 N   0  0  0  0  0  0  0  0  0  0  0  0
  149.4759  141.5645  155.1225 C   0  0  0  0  0  0  0  0  0  0  0  0
  148.4583  140.4174  154.9272 C   0  0  0  0  0  0  0  0  0  0  0  0
  147.5128  140.2627  156.1352 C   0  0  0  0  0  0  0  0  0  0  0  0
  147.6056  140.6948  153.6783 C   0  0  0  0  0  0  0  0  0  0  0  0
  149.1367  139.1833  154.6350 O   0  0  0  0  0  0  0  0  0  0  0  0
  150.3261  138.8110  155.3536 C   0  0  0  0  0  0  0  0  0  0  0  0
  149.9789  138.1420  156.6998 C   0  0  0  0  0  0  0  0  0  0  0  0
  151.0075  137.7647  154.4567 C   0  0  0  0  0  0  0  0  0  0  0  0
  151.2612  140.0303  155.5266 C   0  0  0  0  0  0  0  0  0  0  0  0
  151.0251  143.9609  162.1360 H   0  0  0  0  0  0  0  0  0  0  0  0
  152.3085  145.1706  161.9309 H   0  0  0  0  0  0  0  0  0  0  0  0
  152.4651  143.9152  163.1723 H   0  0  0  0  0  0  0  0  0  0  0  0
  154.7379  140.9070  160.6153 H   0  0  0  0  0  0  0  0  0  0  0  0
  153.5930  141.9613  158.3269 H   0  0  0  0  0  0  0  0  0  0  0  0
  151.6353  145.1215  159.6284 H   0  0  0  0  0  0  0  0  0  0  0  0
  152.1945  144.4830  158.1190 H   0  0  0  0  0  0  0  0  0  0  0  0
  150.0324  142.9563  159.5713 H   0  0  0  0  0  0  0  0  0  0  0  0
  149.5871  144.4435  158.7706 H   0  0  0  0  0  0  0  0  0  0  0  0
  149.8029  143.3488  156.7418 H   0  0  0  0  0  0  0  0  0  0  0  0
  148.9583  142.4834  155.3988 H   0  0  0  0  0  0  0  0  0  0  0  0
  149.9664  141.7944  154.1752 H   0  0  0  0  0  0  0  0  0  0  0  0
  146.8454  141.1208  156.2176 H   0  0  0  0  0  0  0  0  0  0  0  0
  148.0412  140.2021  157.0816 H   0  0  0  0  0  0  0  0  0  0  0  0
  146.8918  139.3716  156.0403 H   0  0  0  0  0  0  0  0  0  0  0  0
  147.0539  141.6308  153.7726 H   0  0  0  0  0  0  0  0  0  0  0  0
  146.8804  139.8977  153.5104 H   0  0  0  0  0  0  0  0  0  0  0  0
  148.2253  140.7654  152.7838 H   0  0  0  0  0  0  0  0  0  0  0  0
  150.8600  137.6707  157.1362 H   0  0  0  0  0  0  0  0  0  0  0  0
  149.2219  137.3680  156.5719 H   0  0  0  0  0  0  0  0  0  0  0  0
  149.6151  138.8444  157.4432 H   0  0  0  0  0  0  0  0  0  0  0  0
  151.9419  137.4123  154.8950 H   0  0  0  0  0  0  0  0  0  0  0  0
  151.2381  138.1761  153.4735 H   0  0  0  0  0  0  0  0  0  0  0  0
  150.3652  136.8966  154.3050 H   0  0  0  0  0  0  0  0  0  0  0  0
  151.6737  140.3328  154.5627 H   0  0  0  0  0  0  0  0  0  0  0  0
  152.1238  139.7590  156.1372 H   0  0  0  0  0  0  0  0  0  0  0  0
  1  2  1  0  0  0  0
  1 22  1  0  0  0  0
  1 23  1  0  0  0  0
  1 24  1  0  0  0  0
  2  6  1  0  0  0  0
  2  3  1  0  0  0  0
  3  4  2  0  0  0  0
  4  5  1  0  0  0  0
  4 25  1  0  0  0  0
  5  6  2  0  0  0  0
  5 26  1  0  0  0  0
  6  7  1  0  0  0  0
  7  8  1  0  0  0  0
  7 27  1  0  0  0  0
  7 28  1  0  0  0  0
  8  9  1  0  0  0  0
  8 29  1  0  0  0  0
  8 30  1  0  0  0  0
  9 10  1  0  0  0  0
  9 31  1  0  0  0  0
 10 11  2  0  0  0  0
 10 12  1  0  0  0  0
 12 21  1  0  0  0  0
 12 13  1  0  0  0  0
 13 14  1  0  0  0  0
 13 32  1  0  0  0  0
 13 33  1  0  0  0  0
 14 15  1  0  0  0  0
 14 16  1  0  0  0  0
 14 17  1  0  0  0  0
 15 34  1  0  0  0  0
 15 35  1  0  0  0  0
 15 36  1  0  0  0  0
 16 37  1  0  0  0  0
 16 38  1  0  0  0  0
 16 39  1  0  0  0  0
 17 18  1  0  0  0  0
 18 19  1  0  0  0  0
 18 20  1  0  0  0  0
 18 21  1  0  0  0  0
 19 40  1  0  0  0  0
 19 41  1  0  0  0  0
 19 42  1  0  0  0  0
 20 43  1  0  0  0  0
 20 44  1  0  0  0  0
 20 45  1  0  0  0  0
 21 46  1  0  0  0  0
 21 47  1  0  0  0  0
M  END
> <s_m_source_file>
AV-unprocessed.smi

> <i_m_source_file_index>
2601

> <i_lp_mmshare_version>
43012

> <i_f3d_flags>
0

> <s_epik_input>
W0NIM11uMW5bY0hdW2NIXWMxW0NIMl1bQ0gyXVtOSF1DKD1PKU4oW0NIMl1DMihbQ0gzXSlbQ0gzXSlbQ0gyXUMoTzIpKFtDSDNdKVtDSDNd

> <s_epik_cmdline>
J2VwaWtfcHl0aG9uJywgJy1waCcsICc3LjAnLCAnLXRuJywgJzgnLCAnLW1hJywgJzIwMCcsICctbWV0YWxfYmluZGluZycsICctaW1hZScsICc8aW5maWxlLm1hZT4nLCAnLW9tYWUnLCAnPG91dGZpbGUubWFlPic=

> <r_lp_tautomer_probability>
1

> <r_epik_Ionization_Penalty>
0.00250606

> <r_epik_Ionization_Penalty_Charging>
0

> <r_epik_Ionization_Penalty_Neutral>
0.00250606

> <r_epik_State_Penalty>
0.0017149

> <r_epik_Charging_Adjusted_Penalty>
0.0017149

> <i_epik_Tot_Q>
0

> <i_epik_Tot_abs_Q>
0

> <r_epik_Metal_State_Penalty>
-0

> <b_epik_Metal_Only>
0

> <s_lp_Force_Field>
OPLS_2005

> <r_lp_Energy>
30.5553

> <b_lp_Chiralities_Consistent>
1

> <s_lp_Variant>
AV-unprocessed.smi:2601-1

> <Gold.Version>
5.8.1

> <Gold.Id.Protein>
6NUR|6NUR_protein|mol2

> <Gold.PLP.Fitness>
45.9577

> <Gold.PLP.PLP>
-44.6788

> <Gold.PLP.part.hbond>
-1.0000

> <Gold.PLP.part.metal>
0.0000

> <Gold.PLP.part.buried>
-2.7987

> <Gold.PLP.part.nonpolar>
-41.4583

> <Gold.PLP.part.repulsive>
0.1575

> <Gold.PLP.ligand.clash>
0.0245

> <Gold.PLP.ligand.torsion>
0.8508

> <Gold.PLP.Chemscore.Hbond>
1.0000

> <Gold.PLP.Chemscore.CHOScore>
0.0000

> <Gold.PLP.Chemscore.Metal>
0.0000

> <Gold.Chemscore.Hbonds>
donor molecule, donor type, donor heavy atom, donor atom, acceptor molecule, acceptor atom, score
      L1  H     9    31       P1  8028  1.00

> <Gold.PLP.Chemscore.Internal.Correction>
0.0049

> <Gold.Rescore>
     Score         DG    S(hbond)    S(metal)    S(lipo)     H(rot)  DE(clash)    DE(int)     intcor
     14.31     -18.15       0.96        0.00     110.07       1.33       1.67       2.18       ----

> <Gold.Chemscore.Fitness>
14.3066

> <Gold.Chemscore.DG>
-18.1511

> <Gold.Chemscore.ZeroCoef>
-5.4800

> <Gold.Chemscore.Hbond>
0.9576

> <Gold.Chemscore.Metal>
0.0000

> <Gold.Chemscore.Lipo>
110.0693

> <Gold.Chemscore.Internal_Hbond>
0.0000

> <Gold.Chemscore.DEClash>
1.6651

> <Gold.Chemscore.DEInternal>
2.1794

> <Gold.Chemscore.Rot>
1.3303

> <Gold.Chemscore.Internal.Correction>
   9.000000E+99

> <Gold.Chemscore.Hbonds>
donor molecule, donor type, donor heavy atom, donor atom, acceptor molecule, acceptor atom, score
      L1  H     9    31       P1  8028  0.98

> <Gold.Chemscore.Hbond.Weighted>
-3.1984

> <Gold.Chemscore.Metal.Weighted>
-0.0000

> <Gold.Chemscore.Lipo.Weighted>
-12.8781

> <Gold.Chemscore.Internal_Hbond.Weighted>
0.0000

> <Gold.Chemscore.DEClash.Weighted>
1.6651

> <Gold.Chemscore.DEInternal.Weighted>
2.1794

> <Gold.Chemscore.Rot.Weighted>
3.4055

> <Gold.Chemscore.Internal.Correction.Weighted>
   9.000000E+99

> <Gold.Protein.RotatedTorsions>
[ 6907 6896 6895 6894 ] final    3.11 input  -60.11 | X-H torsion
[ 7974 7965 7964 7962 ] final   31.86 input  175.53 | X-H torsion
[ 8008 7997 7996 7995 ] final  -40.32 input   59.86 | X-H torsion
[ 10167 10162 10161 10158 ] final  -98.04 input  -65.29 | X-H torsion
[ 10718 10713 10712 10709 ] final  -72.24 input   66.30 | X-H torsion
[ 10763 10752 10751 10750 ] final   40.22 input  -60.55 | X-H torsion
[ 11005 11000 10999 10996 ] final  -63.17 input  -57.11 | X-H torsion

> <Gold.Protein.ActiveResidues>
 VAL166  LYS551  ARG553  GLY616  TRP617  ASP618  TYR619  PRO620  LYS621  CYS622 
 ASP623  PHE694  ASN695  SER759  ASP760  ASP761  ALA762  ILE779  LEU786  VAL792 
 PHE793  MET794  SER795  GLU796  ALA797  LYS798  CYS799  TRP800  GLU811  SER814 

> <Gold.Protein.RotatedAtoms>
  151.6197  135.1033  160.0098 H   0  0  0  0  0  0  0  0  0  0  0  0  # atno 6907 bound_to 6896
  152.4164  133.7041  159.6452 H   0  0  0  0  0  0  0  0  0  0  0  0  # atno 6908 bound_to 6896
  150.8052  133.8449  159.3230 H   0  0  0  0  0  0  0  0  0  0  0  0  # atno 6909 bound_to 6896
  146.1523  139.6601  142.9090 H   0  0  0  0  0  0  0  0  0  0  0  0  # atno 7974 bound_to 7965
  154.4013  140.1528  156.3008 H   0  0  0  0  0  0  0  0  0  0  0  0  # atno 8008 bound_to 7997
  155.8702  140.3449  155.5794 H   0  0  0  0  0  0  0  0  0  0  0  0  # atno 8009 bound_to 7997
  155.7783  140.0840  157.2063 H   0  0  0  0  0  0  0  0  0  0  0  0  # atno 8010 bound_to 7997
  140.2771  143.3306  152.0478 H   0  0  0  0  0  0  0  0  0  0  0  0  # atno 10167 bound_to 10162
  156.0328  130.4368  150.2564 H   0  0  0  0  0  0  0  0  0  0  0  0  # atno 10718 bound_to 10713
  152.9943  135.6198  154.2590 H   0  0  0  0  0  0  0  0  0  0  0  0  # atno 10763 bound_to 10752
  154.2327  135.2791  155.2885 H   0  0  0  0  0  0  0  0  0  0  0  0  # atno 10764 bound_to 10752
  154.5436  135.5754  153.6918 H   0  0  0  0  0  0  0  0  0  0  0  0  # atno 10765 bound_to 10752
  141.1384  133.6648  156.5640 H   0  0  0  0  0  0  0  0  0  0  0  0  # atno 11005 bound_to 11000
  145.4793  141.0437  143.2655 LP  0  0  0  0  0  0  0  0  0  0  0  0  # atno 17320 bound_to 7965
  144.7919  139.6310  143.7109 LP  0  0  0  0  0  0  0  0  0  0  0  0  # atno 17321 bound_to 7965
  139.4973  144.6617  151.6449 LP  0  0  0  0  0  0  0  0  0  0  0  0  # atno 17342 bound_to 10162
  140.5842  143.9893  150.6286 LP  0  0  0  0  0  0  0  0  0  0  0  0  # atno 17343 bound_to 10162
  157.0665  131.0105  151.3205 LP  0  0  0  0  0  0  0  0  0  0  0  0  # atno 17370 bound_to 10713
  157.5031  130.7892  149.7626 LP  0  0  0  0  0  0  0  0  0  0  0  0  # atno 17371 bound_to 10713
  140.3966  134.7394  157.4754 LP  0  0  0  0  0  0  0  0  0  0  0  0  # atno 17394 bound_to 11000
  140.0527  134.6108  155.8842 LP  0  0  0  0  0  0  0  0  0  0  0  0  # atno 17395 bound_to 11000

$$$$
