AV-unprocessed.smi:1645|AV-procd|sdf|6621|dock8
  -GOLD-   22720 7323D 1   1.00000     0.00000
 Structure written by MMmdl.
 55 58  0  0  0  0  0  0  0  0  4 V2000
  145.6244  137.8012  154.4372 O   0  0  0  0  0  0  0  0  0  0  0  0
  146.3567  137.3841  153.5327 C   0  0  0  0  0  0  0  0  0  0  0  0
  147.6406  137.7779  153.4620 N   0  0  0  0  0  0  0  0  0  0  0  0
  148.3750  138.6008  154.3576 C   0  0  0  0  0  0  0  0  0  0  0  0
  149.7467  138.7965  154.1000 C   0  0  0  0  0  0  0  0  0  0  0  0
  150.5191  139.5868  154.9756 C   0  0  0  0  0  0  0  0  0  0  0  0
  149.9161  140.1698  156.1190 C   0  0  0  0  0  0  0  0  0  0  0  0
  150.6071  140.9793  157.0490 N   0  0  0  0  0  0  0  0  0  0  0  0
  150.9802  142.3327  156.6328 C   0  0  0  0  0  0  0  0  0  0  0  0
  151.3416  143.2151  157.8402 C   0  0  0  0  0  0  0  0  0  0  0  0
  152.4075  142.5463  158.7183 C   0  0  0  0  0  0  0  0  0  0  0  0
  151.9294  141.1514  159.1445 C   0  0  0  0  0  0  0  0  0  0  0  0
  151.5646  140.2923  157.9219 C   0  0  0  0  0  0  0  0  0  0  0  0
  148.5976  139.9389  156.3302 N   0  3  0  0  0  0  0  0  0  0  0  0
  147.8209  139.1913  155.5170 C   0  0  0  0  0  0  0  0  0  0  0  0
  146.0216  136.5458  152.5155 N   0  5  0  0  0  0  0  0  0  0  0  0
  145.1524  135.3746  152.6509 C   0  0  1  0  0  0  0  0  0  0  0  0
  143.6923  135.7766  152.8715 C   0  0  0  0  0  0  0  0  0  0  0  0
  142.9171  134.5645  152.3562 C   0  0  0  0  0  0  0  0  0  0  0  0
  143.6995  134.0734  151.2021 N   0  3  2  0  0  0  0  0  0  0  0  0
  143.5266  132.6301  150.9004 C   0  0  0  0  0  0  0  0  0  0  0  0
  144.4514  132.2091  149.7452 C   0  0  0  0  0  0  0  0  0  0  0  0
  145.9369  132.5149  150.0297 C   0  0  0  0  0  0  0  0  0  0  0  0
  146.1360  133.3814  151.2867 C   0  0  0  0  0  0  0  0  0  0  0  0
  145.1084  134.5414  151.3490 C   0  0  2  0  0  0  0  0  0  0  0  0
  148.1383  137.4805  152.6355 H   0  0  0  0  0  0  0  0  0  0  0  0
  150.2080  138.3468  153.2325 H   0  0  0  0  0  0  0  0  0  0  0  0
  151.5675  139.7191  154.7556 H   0  0  0  0  0  0  0  0  0  0  0  0
  151.8243  142.2738  155.9443 H   0  0  0  0  0  0  0  0  0  0  0  0
  150.1550  142.8049  156.0991 H   0  0  0  0  0  0  0  0  0  0  0  0
  151.6953  144.1881  157.4984 H   0  0  0  0  0  0  0  0  0  0  0  0
  150.4466  143.4031  158.4349 H   0  0  0  0  0  0  0  0  0  0  0  0
  153.3443  142.4647  158.1658 H   0  0  0  0  0  0  0  0  0  0  0  0
  152.6127  143.1601  159.5960 H   0  0  0  0  0  0  0  0  0  0  0  0
  152.7024  140.6541  159.7309 H   0  0  0  0  0  0  0  0  0  0  0  0
  151.0598  141.2468  159.7964 H   0  0  0  0  0  0  0  0  0  0  0  0
  151.1756  139.3379  158.2763 H   0  0  0  0  0  0  0  0  0  0  0  0
  152.4625  140.0698  157.3438 H   0  0  0  0  0  0  0  0  0  0  0  0
  146.7946  139.0871  155.8358 H   0  0  0  0  0  0  0  0  0  0  0  0
  145.4488  134.7186  153.4714 H   0  0  0  0  0  0  0  0  0  0  0  0
  143.4702  136.0063  153.9141 H   0  0  0  0  0  0  0  0  0  0  0  0
  143.4375  136.6530  152.2729 H   0  0  0  0  0  0  0  0  0  0  0  0
  142.8494  133.7941  153.1290 H   0  0  0  0  0  0  0  0  0  0  0  0
  141.8992  134.8203  152.0603 H   0  0  0  0  0  0  0  0  0  0  0  0
  143.7417  132.0336  151.7883 H   0  0  0  0  0  0  0  0  0  0  0  0
  142.4853  132.4410  150.6383 H   0  0  0  0  0  0  0  0  0  0  0  0
  144.3238  131.1473  149.5321 H   0  0  0  0  0  0  0  0  0  0  0  0
  144.1458  132.7360  148.8403 H   0  0  0  0  0  0  0  0  0  0  0  0
  146.4957  131.5855  150.1430 H   0  0  0  0  0  0  0  0  0  0  0  0
  146.3680  133.0208  149.1652 H   0  0  0  0  0  0  0  0  0  0  0  0
  146.0442  132.7373  152.1642 H   0  0  0  0  0  0  0  0  0  0  0  0
  147.1576  133.7656  151.3019 H   0  0  0  0  0  0  0  0  0  0  0  0
  145.2810  135.1953  150.4920 H   0  0  0  0  0  0  0  0  0  0  0  0
  143.3489  134.5755  150.3992 H   0  0  0  0  0  0  0  0  0  0  0  0
  148.1627  140.3543  157.1540 H   0  0  0  0  0  0  0  0  0  0  0  0
  1  2  2  0  0  0  0
  2  3  1  0  0  0  0
  2 16  1  0  0  0  0
  3  4  1  0  0  0  0
  3 26  1  0  0  0  0
  4 15  1  0  0  0  0
  4  5  2  0  0  0  0
  5  6  1  0  0  0  0
  5 27  1  0  0  0  0
  6  7  2  0  0  0  0
  6 28  1  0  0  0  0
  7  8  1  0  0  0  0
  7 14  1  0  0  0  0
  8 13  1  0  0  0  0
  8  9  1  0  0  0  0
  9 10  1  0  0  0  0
  9 29  1  0  0  0  0
  9 30  1  0  0  0  0
 10 11  1  0  0  0  0
 10 31  1  0  0  0  0
 10 32  1  0  0  0  0
 11 12  1  0  0  0  0
 11 33  1  0  0  0  0
 11 34  1  0  0  0  0
 12 13  1  0  0  0  0
 12 35  1  0  0  0  0
 12 36  1  0  0  0  0
 13 37  1  0  0  0  0
 13 38  1  0  0  0  0
 14 15  2  0  0  0  0
 14 55  1  0  0  0  0
 15 39  1  0  0  0  0
 16 17  1  0  0  0  0
 17 25  1  0  0  0  0
 17 18  1  0  0  0  0
 17 40  1  0  0  0  0
 18 19  1  0  0  0  0
 18 41  1  0  0  0  0
 18 42  1  0  0  0  0
 19 20  1  0  0  0  0
 19 43  1  0  0  0  0
 19 44  1  0  0  0  0
 20 25  1  0  0  0  0
 20 21  1  0  0  0  0
 20 54  1  0  0  0  0
 21 22  1  0  0  0  0
 21 45  1  0  0  0  0
 21 46  1  0  0  0  0
 22 23  1  0  0  0  0
 22 47  1  0  0  0  0
 22 48  1  0  0  0  0
 23 24  1  0  0  0  0
 23 49  1  0  0  0  0
 23 50  1  0  0  0  0
 24 25  1  0  0  0  0
 24 51  1  0  0  0  0
 24 52  1  0  0  0  0
 25 53  1  0  0  0  0
M  CHG  1  14   1
M  CHG  1  16  -1
M  CHG  1  20   1
M  END
> <s_m_source_file>
AV-unprocessed.smi

> <i_m_source_file_index>
1645

> <i_lp_mmshare_version>
43012

> <i_f3d_flags>
0

> <s_epik_input>
W0NIMl0xW0NIMl1bQ0gyXVtDSDJdW0NASF0oTjEyKVtDQEBIXShbQ0gyXVtDSDJdMilbTkhdQyg9TylbTkhdYzNbY0hdW2NIXWMobltjSF0zKU40W0NIMl1bQ0gyXVtDSDJdW0NIMl1bQ0gyXTQ=

> <s_epik_cmdline>
J2VwaWtfcHl0aG9uJywgJy1waCcsICc3LjAnLCAnLXRuJywgJzgnLCAnLW1hJywgJzIwMCcsICctbWV0YWxfYmluZGluZycsICctaW1hZScsICc8aW5maWxlLm1hZT4nLCAnLW9tYWUnLCAnPG91dGZpbGUubWFlPic=

> <r_lp_tautomer_probability>
0.999994

> <r_epik_Ionization_Penalty>
8.55589

> <r_epik_Ionization_Penalty_Charging>
8.55589

> <r_epik_Ionization_Penalty_Neutral>
3.8092e-06

> <r_epik_State_Penalty>
8.15703

> <r_epik_Charging_Adjusted_Penalty>
16.7129

> <i_epik_Tot_Q>
1

> <i_epik_Tot_abs_Q>
3

> <r_epik_Metal_State_Penalty>
4.13781

> <b_epik_Metal_Only>
1

> <s_lp_Force_Field>
OPLS_2005

> <r_lp_Energy>
56.4964

> <b_lp_Chiralities_Consistent>
1

> <s_lp_Variant>
AV-unprocessed.smi:1645-22

> <Gold.Version>
5.8.1

> <Gold.Id.Protein>
6NUR|6NUR_protein|mol2

> <Gold.PLP.Fitness>
42.5361

> <Gold.PLP.PLP>
-40.3267

> <Gold.PLP.part.hbond>
-1.5981

> <Gold.PLP.part.metal>
0.0000

> <Gold.PLP.part.buried>
-7.0415

> <Gold.PLP.part.nonpolar>
-33.4513

> <Gold.PLP.part.repulsive>
1.1174

> <Gold.PLP.ligand.clash>
0.0000

> <Gold.PLP.ligand.torsion>
0.6516

> <Gold.PLP.Chemscore.Hbond>
0.9920

> <Gold.PLP.Chemscore.CHOScore>
0.0000

> <Gold.PLP.Chemscore.Metal>
0.0000

> <Gold.Chemscore.Hbonds>
donor molecule, donor type, donor heavy atom, donor atom, acceptor molecule, acceptor atom, score
      L1  H     3    26       P1  7948  0.96

> <Gold.PLP.Chemscore.Internal.Correction>
0.5366

> <Gold.Rescore>
     Score         DG    S(hbond)    S(metal)    S(lipo)     H(rot)  DE(clash)    DE(int)     intcor
     17.24     -19.28       1.10        0.00     112.15       1.17       0.05       1.99       ----

> <Gold.Chemscore.Fitness>
17.2381

> <Gold.Chemscore.DG>
-19.2797

> <Gold.Chemscore.ZeroCoef>
-5.4800

> <Gold.Chemscore.Hbond>
1.1021

> <Gold.Chemscore.Metal>
0.0000

> <Gold.Chemscore.Lipo>
112.1525

> <Gold.Chemscore.Internal_Hbond>
0.0000

> <Gold.Chemscore.DEClash>
0.0534

> <Gold.Chemscore.DEInternal>
1.9882

> <Gold.Chemscore.Rot>
1.1731

> <Gold.Chemscore.Internal.Correction>
   9.000000E+99

> <Gold.Chemscore.Hbonds>
donor molecule, donor type, donor heavy atom, donor atom, acceptor molecule, acceptor atom, score
      L1  H     3    26       P1  7948  0.92
      L1  H    20    54       P1 10186  0.01

> <Gold.Chemscore.Hbond.Weighted>
-3.6811

> <Gold.Chemscore.Metal.Weighted>
-0.0000

> <Gold.Chemscore.Lipo.Weighted>
-13.1218

> <Gold.Chemscore.Internal_Hbond.Weighted>
0.0000

> <Gold.Chemscore.DEClash.Weighted>
0.0534

> <Gold.Chemscore.DEInternal.Weighted>
1.9882

> <Gold.Chemscore.Rot.Weighted>
3.0032

> <Gold.Chemscore.Internal.Correction.Weighted>
   9.000000E+99

> <Gold.Protein.RotatedTorsions>
[ 6907 6896 6895 6894 ] final  -57.86 input  -60.11 | X-H torsion
[ 7974 7965 7964 7962 ] final  176.47 input  175.53 | X-H torsion
[ 8008 7997 7996 7995 ] final   38.49 input   59.86 | X-H torsion
[ 10167 10162 10161 10158 ] final   79.92 input  -65.29 | X-H torsion
[ 10718 10713 10712 10709 ] final  -30.26 input   66.30 | X-H torsion
[ 10763 10752 10751 10750 ] final   65.72 input  -60.55 | X-H torsion
[ 11005 11000 10999 10996 ] final   31.64 input  -57.11 | X-H torsion

> <Gold.Protein.ActiveResidues>
 VAL166  LYS551  ARG553  GLY616  TRP617  ASP618  TYR619  PRO620  LYS621  CYS622 
 ASP623  PHE694  ASN695  SER759  ASP760  ASP761  ALA762  ILE779  LEU786  VAL792 
 PHE793  MET794  SER795  GLU796  ALA797  LYS798  CYS799  TRP800  GLU811  SER814 

> <Gold.Protein.RotatedAtoms>
  150.8052  134.7173  159.6637 H   0  0  0  0  0  0  0  0  0  0  0  0  # atno 6907 bound_to 6896
  152.4171  134.6018  160.0012 H   0  0  0  0  0  0  0  0  0  0  0  0  # atno 6908 bound_to 6896
  151.6244  133.3299  159.3131 H   0  0  0  0  0  0  0  0  0  0  0  0  # atno 6909 bound_to 6896
  144.7184  140.0101  143.6440 H   0  0  0  0  0  0  0  0  0  0  0  0  # atno 7974 bound_to 7965
  155.2211  140.3331  155.4315 H   0  0  0  0  0  0  0  0  0  0  0  0  # atno 8008 bound_to 7997
  156.2333  140.1860  156.7233 H   0  0  0  0  0  0  0  0  0  0  0  0  # atno 8009 bound_to 7997
  154.6015  140.0622  156.9360 H   0  0  0  0  0  0  0  0  0  0  0  0  # atno 8010 bound_to 7997
  139.9552  144.5999  150.8123 H   0  0  0  0  0  0  0  0  0  0  0  0  # atno 10167 bound_to 10162
  156.4020  130.4392  149.7315 H   0  0  0  0  0  0  0  0  0  0  0  0  # atno 10718 bound_to 10713
  153.0108  135.5347  154.6711 H   0  0  0  0  0  0  0  0  0  0  0  0  # atno 10763 bound_to 10752
  154.5895  135.2857  155.0652 H   0  0  0  0  0  0  0  0  0  0  0  0  # atno 10764 bound_to 10752
  154.1750  135.6525  153.5072 H   0  0  0  0  0  0  0  0  0  0  0  0  # atno 10765 bound_to 10752
  140.2818  134.2964  155.7798 H   0  0  0  0  0  0  0  0  0  0  0  0  # atno 11005 bound_to 11000
  146.0265  139.3297  143.0781 LP  0  0  0  0  0  0  0  0  0  0  0  0  # atno 17320 bound_to 7965
  145.8504  140.9532  143.0752 LP  0  0  0  0  0  0  0  0  0  0  0  0  # atno 17321 bound_to 7965
  140.7570  143.3078  151.2919 LP  0  0  0  0  0  0  0  0  0  0  0  0  # atno 17342 bound_to 10162
  139.6597  144.0212  152.2684 LP  0  0  0  0  0  0  0  0  0  0  0  0  # atno 17343 bound_to 10162
  156.4327  130.7823  151.2843 LP  0  0  0  0  0  0  0  0  0  0  0  0  # atno 17370 bound_to 10713
  157.7504  131.0149  150.3482 LP  0  0  0  0  0  0  0  0  0  0  0  0  # atno 17371 bound_to 10713
  141.2161  133.7530  156.9492 LP  0  0  0  0  0  0  0  0  0  0  0  0  # atno 17394 bound_to 11000
  140.1276  134.9376  157.2292 LP  0  0  0  0  0  0  0  0  0  0  0  0  # atno 17395 bound_to 11000

$$$$
