AV-unprocessed.smi:1916|AV-procd|sdf|7767|dock4
  -GOLD-   22720 9513D 1   1.00000     0.00000
 Structure written by MMmdl.
 46 48  0  0  0  0  0  0  0  0  2 V2000
  146.7356  139.0631  154.7274 O   0  0  0  0  0  0  0  0  0  0  0  0
  147.5681  138.3518  154.1646 C   0  0  0  0  0  0  0  0  0  0  0  0
  147.4124  137.8870  152.9159 N   0  0  0  0  0  0  0  0  0  0  0  0
  146.2607  138.1501  152.0575 C   0  0  0  0  0  0  0  0  0  0  0  0
  146.2144  137.2634  150.7949 C   0  0  0  0  0  0  0  0  0  0  0  0
  145.7980  135.8273  151.0643 C   0  0  0  0  0  0  0  0  0  0  0  0
  144.5893  135.2925  150.5687 C   0  0  0  0  0  0  0  0  0  0  0  0
  144.2686  133.9461  150.8415 C   0  0  0  0  0  0  0  0  0  0  0  0
  145.1626  133.1633  151.6012 C   0  0  0  0  0  0  0  0  0  0  0  0
  146.3565  133.7478  152.0710 C   0  0  0  0  0  0  0  0  0  0  0  0
  146.6269  135.0410  151.7900 N   0  3  0  0  0  0  0  0  0  0  0  0
  148.8503  137.9291  154.8982 C   0  0  1  0  0  0  0  0  0  0  0  0
  150.1096  138.4815  154.2055 C   0  0  0  0  0  0  0  0  0  0  0  0
  150.6511  139.5068  155.1873 C   0  0  0  0  0  0  0  0  0  0  0  0
  151.6187  140.2197  154.9270 O   0  0  0  0  0  0  0  0  0  0  0  0
  149.9390  139.5143  156.3246 N   0  0  0  0  0  0  0  0  0  0  0  0
  150.1408  140.3444  157.5209 C   0  0  0  0  0  0  0  0  0  0  0  0
  149.9138  141.8513  157.2657 C   0  0  0  0  0  0  0  0  0  0  0  0
  151.2689  142.5302  157.4785 C   0  0  0  0  0  0  0  0  0  0  0  0
  151.9881  141.6354  158.4836 C   0  0  0  0  0  0  0  0  0  0  0  0
  151.5650  140.2162  158.1017 C   0  0  0  0  0  0  0  0  0  0  0  0
  148.9106  138.4853  156.3365 C   0  0  0  0  0  0  0  0  0  0  0  0
  148.1474  137.3118  152.5297 H   0  0  0  0  0  0  0  0  0  0  0  0
  145.3377  138.0431  152.6294 H   0  0  0  0  0  0  0  0  0  0  0  0
  146.3156  139.1971  151.7584 H   0  0  0  0  0  0  0  0  0  0  0  0
  145.5266  137.6945  150.0661 H   0  0  0  0  0  0  0  0  0  0  0  0
  147.1930  137.2639  150.3138 H   0  0  0  0  0  0  0  0  0  0  0  0
  143.9166  135.9040  149.9847 H   0  0  0  0  0  0  0  0  0  0  0  0
  143.3484  133.5187  150.4707 H   0  0  0  0  0  0  0  0  0  0  0  0
  144.9354  132.1301  151.8201 H   0  0  0  0  0  0  0  0  0  0  0  0
  147.0975  133.2246  152.6577 H   0  0  0  0  0  0  0  0  0  0  0  0
  148.8982  136.8392  154.9301 H   0  0  0  0  0  0  0  0  0  0  0  0
  150.8510  137.6962  154.0556 H   0  0  0  0  0  0  0  0  0  0  0  0
  149.9117  138.9466  153.2382 H   0  0  0  0  0  0  0  0  0  0  0  0
  149.4285  140.0274  158.2845 H   0  0  0  0  0  0  0  0  0  0  0  0
  149.4962  142.0727  156.2826 H   0  0  0  0  0  0  0  0  0  0  0  0
  149.2035  142.2338  157.9998 H   0  0  0  0  0  0  0  0  0  0  0  0
  151.8261  142.5487  156.5412 H   0  0  0  0  0  0  0  0  0  0  0  0
  151.1721  143.5590  157.8260 H   0  0  0  0  0  0  0  0  0  0  0  0
  153.0700  141.7692  158.4671 H   0  0  0  0  0  0  0  0  0  0  0  0
  151.6398  141.8639  159.4918 H   0  0  0  0  0  0  0  0  0  0  0  0
  151.6015  139.5363  158.9533 H   0  0  0  0  0  0  0  0  0  0  0  0
  152.2617  139.8305  157.3567 H   0  0  0  0  0  0  0  0  0  0  0  0
  147.9575  138.8977  156.6730 H   0  0  0  0  0  0  0  0  0  0  0  0
  149.1952  137.7024  157.0407 H   0  0  0  0  0  0  0  0  0  0  0  0
  147.4971  135.4445  152.1386 H   0  0  0  0  0  0  0  0  0  0  0  0
  1  2  2  0  0  0  0
  2  3  1  0  0  0  0
  2 12  1  0  0  0  0
  3  4  1  0  0  0  0
  3 23  1  0  0  0  0
  4  5  1  0  0  0  0
  4 24  1  0  0  0  0
  4 25  1  0  0  0  0
  5  6  1  0  0  0  0
  5 26  1  0  0  0  0
  5 27  1  0  0  0  0
  6 11  1  0  0  0  0
  6  7  2  0  0  0  0
  7  8  1  0  0  0  0
  7 28  1  0  0  0  0
  8  9  2  0  0  0  0
  8 29  1  0  0  0  0
  9 10  1  0  0  0  0
  9 30  1  0  0  0  0
 10 11  2  0  0  0  0
 10 31  1  0  0  0  0
 11 46  1  0  0  0  0
 12 22  1  0  0  0  0
 12 13  1  0  0  0  0
 12 32  1  0  0  0  0
 13 14  1  0  0  0  0
 13 33  1  0  0  0  0
 13 34  1  0  0  0  0
 14 15  2  0  0  0  0
 14 16  1  0  0  0  0
 16 17  1  0  0  0  0
 16 22  1  0  0  0  0
 17 21  1  0  0  0  0
 17 18  1  0  0  0  0
 17 35  1  0  0  0  0
 18 19  1  0  0  0  0
 18 36  1  0  0  0  0
 18 37  1  0  0  0  0
 19 20  1  0  0  0  0
 19 38  1  0  0  0  0
 19 39  1  0  0  0  0
 20 21  1  0  0  0  0
 20 40  1  0  0  0  0
 20 41  1  0  0  0  0
 21 42  1  0  0  0  0
 21 43  1  0  0  0  0
 22 44  1  0  0  0  0
 22 45  1  0  0  0  0
M  CHG  1  11   1
M  END
> <s_m_source_file>
AV-unprocessed.smi

> <i_m_source_file_index>
1916

> <i_lp_mmshare_version>
43012

> <i_f3d_flags>
0

> <s_epik_input>
W0NIMl0xW0NIMl1bQ0gyXVtDSDJdW0NIXTFOKFtDSDJdMilDKD1PKVtDSDJdW0NASF0yQyg9TylbTkhdW0NIMl1bQ0gyXWMzW2NIXVtjSF1bY0hdW2NIXW4z

> <s_epik_cmdline>
J2VwaWtfcHl0aG9uJywgJy1waCcsICc3LjAnLCAnLXRuJywgJzgnLCAnLW1hJywgJzIwMCcsICctbWV0YWxfYmluZGluZycsICctaW1hZScsICc8aW5maWxlLm1hZT4nLCAnLW9tYWUnLCAnPG91dGZpbGUubWFlPic=

> <r_epik_Ionization_Penalty>
1.88249

> <r_epik_Ionization_Penalty_Charging>
1.88249

> <r_epik_Ionization_Penalty_Neutral>
3.64574e-08

> <r_epik_State_Penalty>
2.00238

> <r_epik_Charging_Adjusted_Penalty>
3.88487

> <i_epik_Tot_Q>
1

> <i_epik_Tot_abs_Q>
1

> <r_epik_Metal_State_Penalty>
2.02676

> <b_epik_Metal_Only>
0

> <s_lp_Force_Field>
OPLS_2005

> <r_lp_Energy>
36.1777

> <b_lp_Chiralities_Consistent>
1

> <s_lp_Variant>
AV-unprocessed.smi:1916-4

> <Gold.Version>
5.8.1

> <Gold.Id.Protein>
6NUR|6NUR_protein|mol2

> <Gold.PLP.Fitness>
47.0352

> <Gold.PLP.PLP>
-35.3217

> <Gold.PLP.part.hbond>
-2.8601

> <Gold.PLP.part.metal>
0.0000

> <Gold.PLP.part.buried>
-1.1158

> <Gold.PLP.part.nonpolar>
-32.3354

> <Gold.PLP.part.repulsive>
0.2493

> <Gold.PLP.ligand.clash>
0.0000

> <Gold.PLP.ligand.torsion>
0.1944

> <Gold.PLP.Chemscore.Hbond>
4.0000

> <Gold.PLP.Chemscore.CHOScore>
0.0000

> <Gold.PLP.Chemscore.Metal>
0.0000

> <Gold.Chemscore.Hbonds>
donor molecule, donor type, donor heavy atom, donor atom, acceptor molecule, acceptor atom, score
      L1  H     3    23       P1  7948  0.91
      L1  H    11    46       P1  7948  1.95
      P1  H  7989  7998       L1    15  0.99

> <Gold.PLP.Chemscore.Internal.Correction>
0.1022

> <Gold.Rescore>
     Score         DG    S(hbond)    S(metal)    S(lipo)     H(rot)  DE(clash)    DE(int)     intcor
     19.79     -21.44       2.90        0.00      91.27       1.72       1.47       0.18       ----

> <Gold.Chemscore.Fitness>
19.7937

> <Gold.Chemscore.DG>
-21.4436

> <Gold.Chemscore.ZeroCoef>
-5.4800

> <Gold.Chemscore.Hbond>
2.8974

> <Gold.Chemscore.Metal>
0.0000

> <Gold.Chemscore.Lipo>
91.2708

> <Gold.Chemscore.Internal_Hbond>
0.0000

> <Gold.Chemscore.DEClash>
1.4659

> <Gold.Chemscore.DEInternal>
0.1841

> <Gold.Chemscore.Rot>
1.7158

> <Gold.Chemscore.Internal.Correction>
   9.000000E+99

> <Gold.Chemscore.Hbonds>
donor molecule, donor type, donor heavy atom, donor atom, acceptor molecule, acceptor atom, score
      L1  H     3    23       P1  7948  0.87
      L1  H    11    46       P1  7948  0.93
      P1  H  7989  7998       L1    15  0.85

> <Gold.Chemscore.Hbond.Weighted>
-9.6773

> <Gold.Chemscore.Metal.Weighted>
-0.0000

> <Gold.Chemscore.Lipo.Weighted>
-10.6787

> <Gold.Chemscore.Internal_Hbond.Weighted>
0.0000

> <Gold.Chemscore.DEClash.Weighted>
1.4659

> <Gold.Chemscore.DEInternal.Weighted>
0.1841

> <Gold.Chemscore.Rot.Weighted>
4.3924

> <Gold.Chemscore.Internal.Correction.Weighted>
   9.000000E+99

> <Gold.Protein.RotatedTorsions>
[ 6907 6896 6895 6894 ] final  -48.21 input  -60.11 | X-H torsion
[ 7974 7965 7964 7962 ] final  137.26 input  175.53 | X-H torsion
[ 8008 7997 7996 7995 ] final -141.39 input   59.86 | X-H torsion
[ 10167 10162 10161 10158 ] final  167.05 input  -65.29 | X-H torsion
[ 10718 10713 10712 10709 ] final  105.79 input   66.30 | X-H torsion
[ 10763 10752 10751 10750 ] final   39.41 input  -60.55 | X-H torsion
[ 11005 11000 10999 10996 ] final  -73.20 input  -57.11 | X-H torsion

> <Gold.Protein.ActiveResidues>
 VAL166  LYS551  ARG553  GLY616  TRP617  ASP618  TYR619  PRO620  LYS621  CYS622 
 ASP623  PHE694  ASN695  SER759  ASP760  ASP761  ALA762  ILE779  LEU786  VAL792 
 PHE793  MET794  SER795  GLU796  ALA797  LYS798  CYS799  TRP800  GLU811  SER814 

> <Gold.Protein.RotatedAtoms>
  150.8929  134.8334  159.7305 H   0  0  0  0  0  0  0  0  0  0  0  0  # atno 6907 bound_to 6896
  152.4848  134.4620  159.9618 H   0  0  0  0  0  0  0  0  0  0  0  0  # atno 6908 bound_to 6896
  151.4681  133.3537  159.2854 H   0  0  0  0  0  0  0  0  0  0  0  0  # atno 6909 bound_to 6896
  144.9485  139.4846  143.5537 H   0  0  0  0  0  0  0  0  0  0  0  0  # atno 7974 bound_to 7965
  155.4771  140.0557  157.2972 H   0  0  0  0  0  0  0  0  0  0  0  0  # atno 8008 bound_to 7997
  154.4675  140.2025  156.0033 H   0  0  0  0  0  0  0  0  0  0  0  0  # atno 8009 bound_to 7997
  156.0999  140.3220  155.7933 H   0  0  0  0  0  0  0  0  0  0  0  0  # atno 8010 bound_to 7997
  139.4937  144.3963  151.9461 H   0  0  0  0  0  0  0  0  0  0  0  0  # atno 10167 bound_to 10162
  157.6692  131.0836  150.5910 H   0  0  0  0  0  0  0  0  0  0  0  0  # atno 10718 bound_to 10713
  152.9968  135.6221  154.2460 H   0  0  0  0  0  0  0  0  0  0  0  0  # atno 10763 bound_to 10752
  154.2200  135.2796  155.2930 H   0  0  0  0  0  0  0  0  0  0  0  0  # atno 10764 bound_to 10752
  154.5537  135.5726  153.7003 H   0  0  0  0  0  0  0  0  0  0  0  0  # atno 10765 bound_to 10752
  141.1619  133.6871  156.7176 H   0  0  0  0  0  0  0  0  0  0  0  0  # atno 11005 bound_to 11000
  146.3312  139.8554  142.8865 LP  0  0  0  0  0  0  0  0  0  0  0  0  # atno 17320 bound_to 7965
  145.2880  141.0159  143.3679 LP  0  0  0  0  0  0  0  0  0  0  0  0  # atno 17321 bound_to 7965
  140.3401  144.3213  150.5969 LP  0  0  0  0  0  0  0  0  0  0  0  0  # atno 17342 bound_to 10162
  140.5573  143.2197  151.7826 LP  0  0  0  0  0  0  0  0  0  0  0  0  # atno 17343 bound_to 10162
  156.6210  130.4406  149.5822 LP  0  0  0  0  0  0  0  0  0  0  0  0  # atno 17370 bound_to 10713
  156.2355  130.6820  151.1506 LP  0  0  0  0  0  0  0  0  0  0  0  0  # atno 17371 bound_to 10713
  140.2840  134.8294  157.3958 LP  0  0  0  0  0  0  0  0  0  0  0  0  # atno 17394 bound_to 11000
  140.1407  134.4975  155.8034 LP  0  0  0  0  0  0  0  0  0  0  0  0  # atno 17395 bound_to 11000

$$$$
