AV-unprocessed.smi:2180|AV-procd|sdf|8859|dock5
  -GOLD-   2272012 53D 1   1.00000     0.00000
 Structure written by MMmdl.
 39 40  0  0  0  0  0  0  0  0  1 V2000
  153.9805  141.2360  160.8148 C   0  0  0  0  0  0  0  0  0  0  0  0
  153.1055  142.2776  160.1817 C   0  0  0  0  0  0  0  0  0  0  0  0
  152.5017  143.4116  160.7931 C   0  0  0  0  0  0  0  0  0  0  0  0
  151.8172  144.0192  159.7784 C   0  0  0  0  0  0  0  0  0  0  0  0
  150.9782  145.2554  159.7959 C   0  0  0  0  0  0  0  0  0  0  0  0
  152.0260  143.2568  158.6407 N   0  0  0  0  0  0  0  0  0  0  0  0
  151.5216  143.4555  157.2903 C   0  0  0  0  0  0  0  0  0  0  0  0
  150.7750  142.2174  156.7911 C   0  0  0  0  0  0  0  0  0  0  0  0
  151.1309  141.0952  157.1499 O   0  0  0  0  0  0  0  0  0  0  0  0
  149.7374  142.4391  155.9692 N   0  0  0  0  0  0  0  0  0  0  0  0
  148.8505  141.4185  155.4134 C   0  0  2  0  0  0  0  0  0  0  0  0
  147.9545  140.8083  156.5217 C   0  0  0  0  0  0  0  0  0  0  0  0
  147.4206  139.3853  156.2546 C   0  0  0  0  0  0  0  0  0  0  0  0
  146.6790  139.1944  154.9159 C   0  0  0  0  0  0  0  0  0  0  0  0
  147.4459  139.5931  153.6321 C   0  0  0  0  0  0  0  0  0  0  0  0
  148.9022  139.5756  153.7671 N   0  0  0  0  0  0  0  0  0  0  0  0
  149.6198  140.4014  154.5482 C   0  0  0  0  0  0  0  0  0  0  0  0
  150.8481  140.3393  154.5905 O   0  0  0  0  0  0  0  0  0  0  0  0
  152.8195  142.1927  158.8933 N   0  0  0  0  0  0  0  0  0  0  0  0
  153.9519  141.3065  161.9022 H   0  0  0  0  0  0  0  0  0  0  0  0
  155.0179  141.3533  160.5008 H   0  0  0  0  0  0  0  0  0  0  0  0
  153.6600  140.2304  160.5404 H   0  0  0  0  0  0  0  0  0  0  0  0
  152.5612  143.7302  161.8232 H   0  0  0  0  0  0  0  0  0  0  0  0
  151.1464  145.8247  160.7101 H   0  0  0  0  0  0  0  0  0  0  0  0
  149.9185  145.0045  159.7507 H   0  0  0  0  0  0  0  0  0  0  0  0
  151.2116  145.9053  158.9526 H   0  0  0  0  0  0  0  0  0  0  0  0
  150.8724  144.3317  157.2772 H   0  0  0  0  0  0  0  0  0  0  0  0
  152.3540  143.6714  156.6184 H   0  0  0  0  0  0  0  0  0  0  0  0
  149.5196  143.3963  155.7320 H   0  0  0  0  0  0  0  0  0  0  0  0
  148.1940  141.9409  154.7162 H   0  0  0  0  0  0  0  0  0  0  0  0
  148.5112  140.7769  157.4596 H   0  0  0  0  0  0  0  0  0  0  0  0
  147.1138  141.4790  156.7031 H   0  0  0  0  0  0  0  0  0  0  0  0
  148.2440  138.6725  156.3143 H   0  0  0  0  0  0  0  0  0  0  0  0
  146.7494  139.1074  157.0677 H   0  0  0  0  0  0  0  0  0  0  0  0
  146.4081  138.1408  154.8392 H   0  0  0  0  0  0  0  0  0  0  0  0
  145.7326  139.7355  154.9432 H   0  0  0  0  0  0  0  0  0  0  0  0
  147.1681  138.9209  152.8201 H   0  0  0  0  0  0  0  0  0  0  0  0
  147.1316  140.5838  153.3020 H   0  0  0  0  0  0  0  0  0  0  0  0
  149.4045  138.8980  153.2114 H   0  0  0  0  0  0  0  0  0  0  0  0
  1  2  1  0  0  0  0
  1 20  1  0  0  0  0
  1 21  1  0  0  0  0
  1 22  1  0  0  0  0
  2 19  2  0  0  0  0
  2  3  1  0  0  0  0
  3  4  2  0  0  0  0
  3 23  1  0  0  0  0
  4  5  1  0  0  0  0
  4  6  1  0  0  0  0
  5 24  1  0  0  0  0
  5 25  1  0  0  0  0
  5 26  1  0  0  0  0
  6  7  1  0  0  0  0
  6 19  1  0  0  0  0
  7  8  1  0  0  0  0
  7 27  1  0  0  0  0
  7 28  1  0  0  0  0
  8  9  2  0  0  0  0
  8 10  1  0  0  0  0
 10 11  1  0  0  0  0
 10 29  1  0  0  0  0
 11 17  1  0  0  0  0
 11 12  1  0  0  0  0
 11 30  1  0  0  0  0
 12 13  1  0  0  0  0
 12 31  1  0  0  0  0
 12 32  1  0  0  0  0
 13 14  1  0  0  0  0
 13 33  1  0  0  0  0
 13 34  1  0  0  0  0
 14 15  1  0  0  0  0
 14 35  1  0  0  0  0
 14 36  1  0  0  0  0
 15 16  1  0  0  0  0
 15 37  1  0  0  0  0
 15 38  1  0  0  0  0
 16 17  1  0  0  0  0
 16 39  1  0  0  0  0
 17 18  2  0  0  0  0
M  END
> <s_m_source_file>
AV-unprocessed.smi

> <i_m_source_file_index>
2180

> <i_lp_mmshare_version>
43012

> <i_f3d_flags>
0

> <s_epik_input>
W0NIM11jMVtjSF1jKFtDSDNdKW4objEpW0NIMl1DKD1PKVtOSF1bQ0BASF0yW0NIMl1bQ0gyXVtDSDJdW0NIMl1bTkhdQzI9Tw==

> <s_epik_cmdline>
J2VwaWtfcHl0aG9uJywgJy1waCcsICc3LjAnLCAnLXRuJywgJzgnLCAnLW1hJywgJzIwMCcsICctbWV0YWxfYmluZGluZycsICctaW1hZScsICc8aW5maWxlLm1hZT4nLCAnLW9tYWUnLCAnPG91dGZpbGUubWFlPic=

> <r_lp_tautomer_probability>
1

> <r_epik_Ionization_Penalty>
0.000287215

> <r_epik_Ionization_Penalty_Charging>
0

> <r_epik_Ionization_Penalty_Neutral>
0.000287215

> <r_epik_State_Penalty>
-0

> <r_epik_Charging_Adjusted_Penalty>
0

> <i_epik_Tot_Q>
0

> <i_epik_Tot_abs_Q>
0

> <r_epik_Metal_State_Penalty>
-0

> <b_epik_Metal_Only>
0

> <s_lp_Force_Field>
OPLS_2005

> <r_lp_Energy>
13.5369

> <b_lp_Chiralities_Consistent>
1

> <s_lp_Variant>
AV-unprocessed.smi:2180-1

> <Gold.Version>
5.8.1

> <Gold.Id.Protein>
6NUR|6NUR_protein|mol2

> <Gold.PLP.Fitness>
44.7031

> <Gold.PLP.PLP>
-39.5119

> <Gold.PLP.part.hbond>
-2.9230

> <Gold.PLP.part.metal>
0.0000

> <Gold.PLP.part.buried>
-6.7514

> <Gold.PLP.part.nonpolar>
-31.0349

> <Gold.PLP.part.repulsive>
0.3303

> <Gold.PLP.ligand.clash>
0.0000

> <Gold.PLP.ligand.torsion>
0.4311

> <Gold.PLP.Chemscore.Hbond>
2.0000

> <Gold.PLP.Chemscore.CHOScore>
0.0000

> <Gold.PLP.Chemscore.Metal>
0.0000

> <Gold.Chemscore.Hbonds>
donor molecule, donor type, donor heavy atom, donor atom, acceptor molecule, acceptor atom, score
      L1  H    10    29       P1  8028  0.84
      L1  H    16    39       P1  7957  0.01
      P1  H  7989  7998       L1    18  0.78

> <Gold.PLP.Chemscore.Internal.Correction>
0.0534

> <Gold.Rescore>
     Score         DG    S(hbond)    S(metal)    S(lipo)     H(rot)  DE(clash)    DE(int)     intcor
     13.26     -17.58       1.97        0.00      79.61       1.48       0.03       4.28       ----

> <Gold.Chemscore.Fitness>
13.2626

> <Gold.Chemscore.DG>
-17.5777

> <Gold.Chemscore.ZeroCoef>
-5.4800

> <Gold.Chemscore.Hbond>
1.9706

> <Gold.Chemscore.Metal>
0.0000

> <Gold.Chemscore.Lipo>
79.6145

> <Gold.Chemscore.Internal_Hbond>
0.0000

> <Gold.Chemscore.DEClash>
0.0304

> <Gold.Chemscore.DEInternal>
4.2847

> <Gold.Chemscore.Rot>
1.4840

> <Gold.Chemscore.Internal.Correction>
   9.000000E+99

> <Gold.Chemscore.Hbonds>
donor molecule, donor type, donor heavy atom, donor atom, acceptor molecule, acceptor atom, score
      L1  H    10    29       P1  8028  0.82
      L1  H    16    39       P1  7957  0.02
      P1  H  7989  7998       L1    18  0.75

> <Gold.Chemscore.Hbond.Weighted>
-6.5819

> <Gold.Chemscore.Metal.Weighted>
-0.0000

> <Gold.Chemscore.Lipo.Weighted>
-9.3149

> <Gold.Chemscore.Internal_Hbond.Weighted>
0.0000

> <Gold.Chemscore.DEClash.Weighted>
0.0304

> <Gold.Chemscore.DEInternal.Weighted>
4.2847

> <Gold.Chemscore.Rot.Weighted>
3.7991

> <Gold.Chemscore.Internal.Correction.Weighted>
   9.000000E+99

> <Gold.Protein.RotatedTorsions>
[ 6907 6896 6895 6894 ] final  125.49 input  -60.11 | X-H torsion
[ 7974 7965 7964 7962 ] final  -52.23 input  175.53 | X-H torsion
[ 8008 7997 7996 7995 ] final  -14.97 input   59.86 | X-H torsion
[ 10167 10162 10161 10158 ] final   47.66 input  -65.29 | X-H torsion
[ 10718 10713 10712 10709 ] final   43.79 input   66.30 | X-H torsion
[ 10763 10752 10751 10750 ] final -177.65 input  -60.55 | X-H torsion
[ 11005 11000 10999 10996 ] final  -45.56 input  -57.11 | X-H torsion

> <Gold.Protein.ActiveResidues>
 VAL166  LYS551  ARG553  GLY616  TRP617  ASP618  TYR619  PRO620  LYS621  CYS622 
 ASP623  PHE694  ASN695  SER759  ASP760  ASP761  ALA762  ILE779  LEU786  VAL792 
 PHE793  MET794  SER795  GLU796  ALA797  LYS798  CYS799  TRP800  GLU811  SER814 

> <Gold.Protein.RotatedAtoms>
  152.3987  133.6786  159.6298 H   0  0  0  0  0  0  0  0  0  0  0  0  # atno 6907 bound_to 6896
  150.7882  133.8828  159.3299 H   0  0  0  0  0  0  0  0  0  0  0  0  # atno 6908 bound_to 6896
  151.6598  135.0992  160.0229 H   0  0  0  0  0  0  0  0  0  0  0  0  # atno 6909 bound_to 6896
  145.9102  140.7921  142.9699 H   0  0  0  0  0  0  0  0  0  0  0  0  # atno 7974 bound_to 7965
  154.5167  140.2209  155.9052 H   0  0  0  0  0  0  0  0  0  0  0  0  # atno 8008 bound_to 7997
  156.1616  140.3141  155.8782 H   0  0  0  0  0  0  0  0  0  0  0  0  # atno 8009 bound_to 7997
  155.3740  140.0468  157.3035 H   0  0  0  0  0  0  0  0  0  0  0  0  # atno 8010 bound_to 7997
  140.3013  144.2931  150.6218 H   0  0  0  0  0  0  0  0  0  0  0  0  # atno 10167 bound_to 10162
  157.4198  130.7962  149.7505 H   0  0  0  0  0  0  0  0  0  0  0  0  # atno 10718 bound_to 10713
  154.5574  135.2817  155.0951 H   0  0  0  0  0  0  0  0  0  0  0  0  # atno 10763 bound_to 10752
  154.2373  135.6363  153.5199 H   0  0  0  0  0  0  0  0  0  0  0  0  # atno 10764 bound_to 10752
  153.0019  135.5551  154.6159 H   0  0  0  0  0  0  0  0  0  0  0  0  # atno 10765 bound_to 10752
  141.0523  133.6738  156.3030 H   0  0  0  0  0  0  0  0  0  0  0  0  # atno 11005 bound_to 11000
  144.6742  140.1814  143.7405 LP  0  0  0  0  0  0  0  0  0  0  0  0  # atno 17320 bound_to 7965
  145.8681  139.2257  143.1677 LP  0  0  0  0  0  0  0  0  0  0  0  0  # atno 17321 bound_to 7965
  140.5649  143.2187  151.7702 LP  0  0  0  0  0  0  0  0  0  0  0  0  # atno 17342 bound_to 10162
  139.4914  144.4298  151.9885 LP  0  0  0  0  0  0  0  0  0  0  0  0  # atno 17343 bound_to 10162
  155.9877  130.3965  150.3153 LP  0  0  0  0  0  0  0  0  0  0  0  0  # atno 17370 bound_to 10713
  157.1300  131.0269  151.2973 LP  0  0  0  0  0  0  0  0  0  0  0  0  # atno 17371 bound_to 10713
  140.6031  134.5534  157.5521 LP  0  0  0  0  0  0  0  0  0  0  0  0  # atno 17394 bound_to 11000
  139.9361  134.7873  156.0800 LP  0  0  0  0  0  0  0  0  0  0  0  0  # atno 17395 bound_to 11000

$$$$
