AV-unprocessed.smi:3098|AV-procd|sdf|11801|dock2
  -GOLD-   2272017173D 1   1.00000     0.00000
 Structure written by MMmdl.
 29 30  0  0  0  0  0  0  0  0  1 V2000
  149.4909  138.6458  153.1821 N   0  0  0  0  0  0  0  0  0  0  0  0
  148.6185  139.2546  154.1664 C   0  0  0  0  0  0  0  0  0  0  0  0
  149.3716  140.1335  155.1438 C   0  0  0  0  0  0  0  0  0  0  0  0
  150.7785  140.2078  155.1173 C   0  0  0  0  0  0  0  0  0  0  0  0
  151.4958  140.9739  155.9661 N   0  0  0  0  0  0  0  0  0  0  0  0
  150.8399  141.7104  156.8975 C   0  0  0  0  0  0  0  0  0  0  0  0
  151.6046  142.4926  157.7865 N   0  0  0  0  0  0  0  0  0  0  0  0
  151.4669  143.9328  157.5953 C   0  0  0  0  0  0  0  0  0  0  0  0
  152.5355  144.6807  158.4112 C   0  0  0  0  0  0  0  0  0  0  0  0
  152.4516  144.2977  159.7807 O   0  0  0  0  0  0  0  0  0  0  0  0
  152.6807  142.9034  159.9587 C   0  0  0  0  0  0  0  0  0  0  0  0
  151.6124  142.1034  159.1944 C   0  0  0  0  0  0  0  0  0  0  0  0
  149.4265  141.7042  156.9930 C   0  0  0  0  0  0  0  0  0  0  0  0
  148.7805  142.4672  157.9079 F   0  0  0  0  0  0  0  0  0  0  0  0
  148.6851  140.9028  156.1037 C   0  0  0  0  0  0  0  0  0  0  0  0
  148.9939  137.9067  152.7054 H   0  0  0  0  0  0  0  0  0  0  0  0
  149.7213  139.3271  152.4729 H   0  0  0  0  0  0  0  0  0  0  0  0
  147.8547  139.8384  153.6520 H   0  0  0  0  0  0  0  0  0  0  0  0
  148.1011  138.4682  154.7168 H   0  0  0  0  0  0  0  0  0  0  0  0
  151.3469  139.6370  154.3977 H   0  0  0  0  0  0  0  0  0  0  0  0
  151.5554  144.2057  156.5443 H   0  0  0  0  0  0  0  0  0  0  0  0
  150.4707  144.2381  157.9180 H   0  0  0  0  0  0  0  0  0  0  0  0
  153.5348  144.4731  158.0251 H   0  0  0  0  0  0  0  0  0  0  0  0
  152.3818  145.7571  158.3337 H   0  0  0  0  0  0  0  0  0  0  0  0
  153.6832  142.6415  159.6158 H   0  0  0  0  0  0  0  0  0  0  0  0
  152.6362  142.6686  161.0222 H   0  0  0  0  0  0  0  0  0  0  0  0
  150.6296  142.2891  159.6302 H   0  0  0  0  0  0  0  0  0  0  0  0
  151.8144  141.0354  159.2862 H   0  0  0  0  0  0  0  0  0  0  0  0
  147.6066  140.8822  156.1570 H   0  0  0  0  0  0  0  0  0  0  0  0
  1  2  1  0  0  0  0
  1 16  1  0  0  0  0
  1 17  1  0  0  0  0
  2  3  1  0  0  0  0
  2 18  1  0  0  0  0
  2 19  1  0  0  0  0
  3 15  1  0  0  0  0
  3  4  2  0  0  0  0
  4  5  1  0  0  0  0
  4 20  1  0  0  0  0
  5  6  2  0  0  0  0
  6  7  1  0  0  0  0
  6 13  1  0  0  0  0
  7 12  1  0  0  0  0
  7  8  1  0  0  0  0
  8  9  1  0  0  0  0
  8 21  1  0  0  0  0
  8 22  1  0  0  0  0
  9 10  1  0  0  0  0
  9 23  1  0  0  0  0
  9 24  1  0  0  0  0
 10 11  1  0  0  0  0
 11 12  1  0  0  0  0
 11 25  1  0  0  0  0
 11 26  1  0  0  0  0
 12 27  1  0  0  0  0
 12 28  1  0  0  0  0
 13 14  1  0  0  0  0
 13 15  2  0  0  0  0
 15 29  1  0  0  0  0
M  END
> <s_m_source_file>
AV-unprocessed.smi

> <i_m_source_file_index>
3098

> <i_lp_mmshare_version>
43012

> <i_f3d_flags>
0

> <s_epik_input>
W05IMl1bQ0gyXWMxW2NIXW5jKGMoRilbY0hdMSlOMltDSDJdW0NIMl1PW0NIMl1bQ0gyXTI=

> <s_epik_cmdline>
J2VwaWtfcHl0aG9uJywgJy1waCcsICc3LjAnLCAnLXRuJywgJzgnLCAnLW1hJywgJzIwMCcsICctbWV0YWxfYmluZGluZycsICctaW1hZScsICc8aW5maWxlLm1hZT4nLCAnLW9tYWUnLCAnPG91dGZpbGUubWFlPic=

> <r_lp_tautomer_probability>
1

> <r_epik_Ionization_Penalty>
1.30159

> <r_epik_Ionization_Penalty_Charging>
0

> <r_epik_Ionization_Penalty_Neutral>
1.30159

> <r_epik_State_Penalty>
1.37556

> <r_epik_Charging_Adjusted_Penalty>
1.37556

> <i_epik_Tot_Q>
0

> <i_epik_Tot_abs_Q>
0

> <r_epik_Metal_State_Penalty>
1.37554

> <b_epik_Metal_Only>
0

> <s_lp_Force_Field>
OPLS_2005

> <r_lp_Energy>
18.215

> <b_lp_Chiralities_Consistent>
1

> <s_lp_Variant>
AV-unprocessed.smi:3098-2

> <Gold.Version>
5.8.1

> <Gold.Id.Protein>
6NUR|6NUR_protein|mol2

> <Gold.PLP.Fitness>
35.1878

> <Gold.PLP.PLP>
-29.2455

> <Gold.PLP.part.hbond>
-2.3379

> <Gold.PLP.part.metal>
0.0000

> <Gold.PLP.part.buried>
-0.0207

> <Gold.PLP.part.nonpolar>
-25.7841

> <Gold.PLP.part.repulsive>
0.0858

> <Gold.PLP.ligand.clash>
0.0000

> <Gold.PLP.ligand.torsion>
0.1544

> <Gold.PLP.Chemscore.Hbond>
2.0000

> <Gold.PLP.Chemscore.CHOScore>
0.0000

> <Gold.PLP.Chemscore.Metal>
0.0000

> <Gold.Chemscore.Hbonds>
donor molecule, donor type, donor heavy atom, donor atom, acceptor molecule, acceptor atom, score
      L1  H     1    16       P1  7948  1.00
      L1  H     1    17       P1  7957  0.89

> <Gold.PLP.Chemscore.Internal.Correction>
0.2513

> <Gold.Rescore>
     Score         DG    S(hbond)    S(metal)    S(lipo)     H(rot)  DE(clash)    DE(int)     intcor
     16.83     -17.11       1.92        0.00      73.28       1.32       0.10       0.18       ----

> <Gold.Chemscore.Fitness>
16.8309

> <Gold.Chemscore.DG>
-17.1137

> <Gold.Chemscore.ZeroCoef>
-5.4800

> <Gold.Chemscore.Hbond>
1.9242

> <Gold.Chemscore.Metal>
0.0000

> <Gold.Chemscore.Lipo>
73.2754

> <Gold.Chemscore.Internal_Hbond>
0.0000

> <Gold.Chemscore.DEClash>
0.1036

> <Gold.Chemscore.DEInternal>
0.1792

> <Gold.Chemscore.Rot>
1.3151

> <Gold.Chemscore.Internal.Correction>
   9.000000E+99

> <Gold.Chemscore.Hbonds>
donor molecule, donor type, donor heavy atom, donor atom, acceptor molecule, acceptor atom, score
      L1  H     1    16       P1  7948  0.94
      L1  H     1    17       P1  7957  0.82

> <Gold.Chemscore.Hbond.Weighted>
-6.4270

> <Gold.Chemscore.Metal.Weighted>
-0.0000

> <Gold.Chemscore.Lipo.Weighted>
-8.5732

> <Gold.Chemscore.Internal_Hbond.Weighted>
0.0000

> <Gold.Chemscore.DEClash.Weighted>
0.1036

> <Gold.Chemscore.DEInternal.Weighted>
0.1792

> <Gold.Chemscore.Rot.Weighted>
3.3666

> <Gold.Chemscore.Internal.Correction.Weighted>
   9.000000E+99

> <Gold.Protein.RotatedTorsions>
[ 6907 6896 6895 6894 ] final   32.88 input  -60.11 | X-H torsion
[ 7974 7965 7964 7962 ] final -144.04 input  175.53 | X-H torsion
[ 8008 7997 7996 7995 ] final   13.73 input   59.86 | X-H torsion
[ 10167 10162 10161 10158 ] final  -17.93 input  -65.29 | X-H torsion
[ 10718 10713 10712 10709 ] final  141.90 input   66.30 | X-H torsion
[ 10763 10752 10751 10750 ] final -105.29 input  -60.55 | X-H torsion
[ 11005 11000 10999 10996 ] final   58.03 input  -57.11 | X-H torsion

> <Gold.Protein.ActiveResidues>
 VAL166  LYS551  ARG553  GLY616  TRP617  ASP618  TYR619  PRO620  LYS621  CYS622 
 ASP623  PHE694  ASN695  SER759  ASP760  ASP761  ALA762  ILE779  LEU786  VAL792 
 PHE793  MET794  SER795  GLU796  ALA797  LYS798  CYS799  TRP800  GLU811  SER814 

> <Gold.Protein.RotatedAtoms>
  152.0806  134.9473  160.0573 H   0  0  0  0  0  0  0  0  0  0  0  0  # atno 6907 bound_to 6896
  152.0763  133.4126  159.4490 H   0  0  0  0  0  0  0  0  0  0  0  0  # atno 6908 bound_to 6896
  150.6836  134.2953  159.4727 H   0  0  0  0  0  0  0  0  0  0  0  0  # atno 6909 bound_to 6896
  144.8326  140.5759  143.5505 H   0  0  0  0  0  0  0  0  0  0  0  0  # atno 7974 bound_to 7965
  154.8385  140.2911  155.5675 H   0  0  0  0  0  0  0  0  0  0  0  0  # atno 8008 bound_to 7997
  156.3010  140.2518  156.3255 H   0  0  0  0  0  0  0  0  0  0  0  0  # atno 8009 bound_to 7997
  154.9151  140.0387  157.1957 H   0  0  0  0  0  0  0  0  0  0  0  0  # atno 8010 bound_to 7997
  140.7253  143.4967  150.9922 H   0  0  0  0  0  0  0  0  0  0  0  0  # atno 10167 bound_to 10162
  157.3867  131.0999  151.0686 H   0  0  0  0  0  0  0  0  0  0  0  0  # atno 10718 bound_to 10713
  154.7937  135.4754  154.0110 H   0  0  0  0  0  0  0  0  0  0  0  0  # atno 10763 bound_to 10752
  153.1670  135.6818  153.8669 H   0  0  0  0  0  0  0  0  0  0  0  0  # atno 10764 bound_to 10752
  153.8264  135.3197  155.3393 H   0  0  0  0  0  0  0  0  0  0  0  0  # atno 10765 bound_to 10752
  140.0408  134.5877  155.9385 H   0  0  0  0  0  0  0  0  0  0  0  0  # atno 11005 bound_to 11000
  145.4863  139.1491  143.3734 LP  0  0  0  0  0  0  0  0  0  0  0  0  # atno 17320 bound_to 7965
  146.2627  140.5001  142.8846 LP  0  0  0  0  0  0  0  0  0  0  0  0  # atno 17321 bound_to 7965
  139.8674  143.7236  152.3169 LP  0  0  0  0  0  0  0  0  0  0  0  0  # atno 17342 bound_to 10162
  139.7473  144.7544  151.0560 LP  0  0  0  0  0  0  0  0  0  0  0  0  # atno 17343 bound_to 10162
  157.1735  130.6278  149.5648 LP  0  0  0  0  0  0  0  0  0  0  0  0  # atno 17370 bound_to 10713
  155.9788  130.4777  150.6679 LP  0  0  0  0  0  0  0  0  0  0  0  0  # atno 17371 bound_to 10713
  141.1882  133.6562  156.5313 LP  0  0  0  0  0  0  0  0  0  0  0  0  # atno 17394 bound_to 11000
  140.4073  134.7304  157.4815 LP  0  0  0  0  0  0  0  0  0  0  0  0  # atno 17395 bound_to 11000

$$$$
