AV-unprocessed.smi:1019|AV-procd|sdf|4452|dock7
  -GOLD-   22720 2423D 1   1.00000     0.00000
 Structure written by MMmdl.
 43 45  0  0  0  0  0  0  0  0  1 V2000
  148.5133  135.5847  157.9555 C   0  0  0  0  0  0  0  0  0  0  0  0
  148.2475  136.8569  158.6213 N   0  0  0  0  0  0  0  0  0  0  0  0
  148.5048  136.7613  160.0613 C   0  0  0  0  0  0  0  0  0  0  0  0
  147.5192  135.8755  160.8043 C   0  0  0  0  0  0  0  0  0  0  0  0
  147.6681  135.6595  162.1906 C   0  0  0  0  0  0  0  0  0  0  0  0
  146.7545  134.8398  162.8814 C   0  0  0  0  0  0  0  0  0  0  0  0
  145.6895  134.2324  162.1883 C   0  0  0  0  0  0  0  0  0  0  0  0
  145.5390  134.4444  160.8041 C   0  0  0  0  0  0  0  0  0  0  0  0
  146.4526  135.2637  160.1126 C   0  0  0  0  0  0  0  0  0  0  0  0
  149.0307  137.9229  157.9936 C   0  0  0  0  0  0  0  0  0  0  0  0
  150.4344  138.1541  158.5943 C   0  0  1  0  0  0  0  0  0  0  0  0
  151.1376  136.9260  158.6156 O   0  0  0  0  0  0  0  0  0  0  0  0
  151.2522  139.1704  157.7729 C   0  0  0  0  0  0  0  0  0  0  0  0
  152.0312  140.0654  158.6104 N   0  0  0  0  0  0  0  0  0  0  0  0
  152.9561  139.7244  159.5284 C   0  0  0  0  0  0  0  0  0  0  0  0
  153.5537  140.7133  160.1873 N   0  0  0  0  0  0  0  0  0  0  0  0
  152.9498  141.8267  159.6286 C   0  0  0  0  0  0  0  0  0  0  0  0
  153.1397  143.2026  159.8902 C   0  0  0  0  0  0  0  0  0  0  0  0
  152.3979  144.1729  159.1847 C   0  0  0  0  0  0  0  0  0  0  0  0
  151.4571  143.7841  158.2089 C   0  0  0  0  0  0  0  0  0  0  0  0
  151.2508  142.4194  157.9304 C   0  0  0  0  0  0  0  0  0  0  0  0
  151.9925  141.4547  158.6370 C   0  0  0  0  0  0  0  0  0  0  0  0
  148.3032  135.6541  156.8877 H   0  0  0  0  0  0  0  0  0  0  0  0
  147.8837  134.7892  158.3545 H   0  0  0  0  0  0  0  0  0  0  0  0
  149.5555  135.2867  158.0770 H   0  0  0  0  0  0  0  0  0  0  0  0
  149.5231  136.4121  160.2388 H   0  0  0  0  0  0  0  0  0  0  0  0
  148.4339  137.7456  160.5226 H   0  0  0  0  0  0  0  0  0  0  0  0
  148.4828  136.1246  162.7261 H   0  0  0  0  0  0  0  0  0  0  0  0
  146.8705  134.6777  163.9429 H   0  0  0  0  0  0  0  0  0  0  0  0
  144.9886  133.6045  162.7182 H   0  0  0  0  0  0  0  0  0  0  0  0
  144.7226  133.9785  160.2723 H   0  0  0  0  0  0  0  0  0  0  0  0
  146.3302  135.4233  159.0514 H   0  0  0  0  0  0  0  0  0  0  0  0
  149.0957  137.7658  156.9156 H   0  0  0  0  0  0  0  0  0  0  0  0
  148.4725  138.8525  158.1127 H   0  0  0  0  0  0  0  0  0  0  0  0
  150.3429  138.5229  159.6172 H   0  0  0  0  0  0  0  0  0  0  0  0
  151.5400  136.7974  157.7700 H   0  0  0  0  0  0  0  0  0  0  0  0
  151.9262  138.6542  157.0874 H   0  0  0  0  0  0  0  0  0  0  0  0
  150.5883  139.7796  157.1581 H   0  0  0  0  0  0  0  0  0  0  0  0
  153.2016  138.6915  159.7271 H   0  0  0  0  0  0  0  0  0  0  0  0
  153.8577  143.5123  160.6350 H   0  0  0  0  0  0  0  0  0  0  0  0
  152.5519  145.2215  159.3933 H   0  0  0  0  0  0  0  0  0  0  0  0
  150.8935  144.5346  157.6742 H   0  0  0  0  0  0  0  0  0  0  0  0
  150.5313  142.1173  157.1839 H   0  0  0  0  0  0  0  0  0  0  0  0
  1  2  1  0  0  0  0
  1 23  1  0  0  0  0
  1 24  1  0  0  0  0
  1 25  1  0  0  0  0
  2  3  1  0  0  0  0
  2 10  1  0  0  0  0
  3  4  1  0  0  0  0
  3 26  1  0  0  0  0
  3 27  1  0  0  0  0
  4  9  1  0  0  0  0
  4  5  2  0  0  0  0
  5  6  1  0  0  0  0
  5 28  1  0  0  0  0
  6  7  2  0  0  0  0
  6 29  1  0  0  0  0
  7  8  1  0  0  0  0
  7 30  1  0  0  0  0
  8  9  2  0  0  0  0
  8 31  1  0  0  0  0
  9 32  1  0  0  0  0
 10 11  1  0  0  0  0
 10 33  1  0  0  0  0
 10 34  1  0  0  0  0
 11 12  1  0  0  0  0
 11 13  1  0  0  0  0
 11 35  1  0  0  0  0
 12 36  1  0  0  0  0
 13 14  1  0  0  0  0
 13 37  1  0  0  0  0
 13 38  1  0  0  0  0
 14 22  1  0  0  0  0
 14 15  1  0  0  0  0
 15 16  2  0  0  0  0
 15 39  1  0  0  0  0
 16 17  1  0  0  0  0
 17 22  2  0  0  0  0
 17 18  1  0  0  0  0
 18 19  2  0  0  0  0
 18 40  1  0  0  0  0
 19 20  1  0  0  0  0
 19 41  1  0  0  0  0
 20 21  2  0  0  0  0
 20 42  1  0  0  0  0
 21 22  1  0  0  0  0
 21 43  1  0  0  0  0
M  END
> <s_m_source_file>
AV-unprocessed.smi

> <i_m_source_file_index>
1019

> <i_lp_mmshare_version>
43012

> <i_f3d_flags>
0

> <s_epik_input>
W2NIXTFbY0hdW2NIXVtjSF1bY0hdYzFbQ0gyXU4oW0NIM10pW0NIMl1bQ0BIXShbT0hdKVtDSDJdbihbY0hdbjIpYyhjMjMpW2NIXVtjSF1bY0hdW2NIXTM=

> <s_epik_cmdline>
J2VwaWtfcHl0aG9uJywgJy1waCcsICc3LjAnLCAnLXRuJywgJzgnLCAnLW1hJywgJzIwMCcsICctbWV0YWxfYmluZGluZycsICctaW1hZScsICc8aW5maWxlLm1hZT4nLCAnLW9tYWUnLCAnPG91dGZpbGUubWFlPic=

> <r_epik_Ionization_Penalty>
1.56741

> <r_epik_Ionization_Penalty_Charging>
0

> <r_epik_Ionization_Penalty_Neutral>
1.56741

> <r_epik_State_Penalty>
1.62466

> <r_epik_Charging_Adjusted_Penalty>
1.62466

> <i_epik_Tot_Q>
0

> <i_epik_Tot_abs_Q>
0

> <r_epik_Metal_State_Penalty>
1.58486

> <b_epik_Metal_Only>
0

> <s_lp_Force_Field>
OPLS_2005

> <r_lp_Energy>
22.9091

> <b_lp_Chiralities_Consistent>
1

> <s_lp_Variant>
AV-unprocessed.smi:1019-10

> <Gold.Version>
5.8.1

> <Gold.Id.Protein>
6NUR|6NUR_protein|mol2

> <Gold.PLP.Fitness>
45.6488

> <Gold.PLP.PLP>
-44.4746

> <Gold.PLP.part.hbond>
-1.0000

> <Gold.PLP.part.metal>
0.0000

> <Gold.PLP.part.buried>
-5.6402

> <Gold.PLP.part.nonpolar>
-38.6353

> <Gold.PLP.part.repulsive>
0.0000

> <Gold.PLP.ligand.clash>
0.0000

> <Gold.PLP.ligand.torsion>
0.9740

> <Gold.PLP.Chemscore.Hbond>
0.9760

> <Gold.PLP.Chemscore.CHOScore>
0.0000

> <Gold.PLP.Chemscore.Metal>
0.0000

> <Gold.Chemscore.Hbonds>
donor molecule, donor type, donor heavy atom, donor atom, acceptor molecule, acceptor atom, score
      P1  H  6896  6907       L1    12  0.47

> <Gold.PLP.Chemscore.Internal.Correction>
0.1942

> <Gold.Rescore>
     Score         DG    S(hbond)    S(metal)    S(lipo)     H(rot)  DE(clash)    DE(int)     intcor
     15.55     -17.61       0.82        0.00     129.90       2.27       0.05       2.00       ----

> <Gold.Chemscore.Fitness>
15.5529

> <Gold.Chemscore.DG>
-17.6067

> <Gold.Chemscore.ZeroCoef>
-5.4800

> <Gold.Chemscore.Hbond>
0.8176

> <Gold.Chemscore.Metal>
0.0000

> <Gold.Chemscore.Lipo>
129.9030

> <Gold.Chemscore.Internal_Hbond>
0.0000

> <Gold.Chemscore.DEClash>
0.0540

> <Gold.Chemscore.DEInternal>
1.9998

> <Gold.Chemscore.Rot>
2.2667

> <Gold.Chemscore.Internal.Correction>
   9.000000E+99

> <Gold.Chemscore.Hbonds>
donor molecule, donor type, donor heavy atom, donor atom, acceptor molecule, acceptor atom, score
      P1  H  6896  6907       L1    12  0.37

> <Gold.Chemscore.Hbond.Weighted>
-2.7309

> <Gold.Chemscore.Metal.Weighted>
-0.0000

> <Gold.Chemscore.Lipo.Weighted>
-15.1987

> <Gold.Chemscore.Internal_Hbond.Weighted>
0.0000

> <Gold.Chemscore.DEClash.Weighted>
0.0540

> <Gold.Chemscore.DEInternal.Weighted>
1.9998

> <Gold.Chemscore.Rot.Weighted>
5.8028

> <Gold.Chemscore.Internal.Correction.Weighted>
   9.000000E+99

> <Gold.Protein.RotatedTorsions>
[ 6907 6896 6895 6894 ] final   -9.01 input  -60.11 | X-H torsion
[ 7974 7965 7964 7962 ] final  161.58 input  175.53 | X-H torsion
[ 8008 7997 7996 7995 ] final  104.05 input   59.86 | X-H torsion
[ 10167 10162 10161 10158 ] final -177.52 input  -65.29 | X-H torsion
[ 10718 10713 10712 10709 ] final  137.10 input   66.30 | X-H torsion
[ 10763 10752 10751 10750 ] final  -81.71 input  -60.55 | X-H torsion
[ 11005 11000 10999 10996 ] final  -86.63 input  -57.11 | X-H torsion

> <Gold.Protein.ActiveResidues>
 VAL166  LYS551  ARG553  GLY616  TRP617  ASP618  TYR619  PRO620  LYS621  CYS622 
 ASP623  PHE694  ASN695  SER759  ASP760  ASP761  ALA762  ILE779  LEU786  VAL792 
 PHE793  MET794  SER795  GLU796  ALA797  LYS798  CYS799  TRP800  GLU811  SER814 

> <Gold.Protein.RotatedAtoms>
  151.4245  135.1002  159.9623 H   0  0  0  0  0  0  0  0  0  0  0  0  # atno 6907 bound_to 6896
  152.4977  133.8676  159.7292 H   0  0  0  0  0  0  0  0  0  0  0  0  # atno 6908 bound_to 6896
  150.9199  133.6835  159.2862 H   0  0  0  0  0  0  0  0  0  0  0  0  # atno 6909 bound_to 6896
  144.7679  139.7918  143.6308 H   0  0  0  0  0  0  0  0  0  0  0  0  # atno 7974 bound_to 7965
  156.1538  140.3154  155.8692 H   0  0  0  0  0  0  0  0  0  0  0  0  # atno 8008 bound_to 7997
  155.3918  140.0494  157.3057 H   0  0  0  0  0  0  0  0  0  0  0  0  # atno 8009 bound_to 7997
  154.5083  140.2155  155.9219 H   0  0  0  0  0  0  0  0  0  0  0  0  # atno 8010 bound_to 7997
  139.5476  144.2193  152.1018 H   0  0  0  0  0  0  0  0  0  0  0  0  # atno 10167 bound_to 10162
  157.4396  131.1056  151.0158 H   0  0  0  0  0  0  0  0  0  0  0  0  # atno 10718 bound_to 10713
  154.5669  135.5617  153.7058 H   0  0  0  0  0  0  0  0  0  0  0  0  # atno 10763 bound_to 10752
  153.0035  135.6287  154.2168 H   0  0  0  0  0  0  0  0  0  0  0  0  # atno 10764 bound_to 10752
  154.2107  135.2874  155.2939 H   0  0  0  0  0  0  0  0  0  0  0  0  # atno 10765 bound_to 10752
  141.1627  133.7465  156.9189 H   0  0  0  0  0  0  0  0  0  0  0  0  # atno 11005 bound_to 11000
  146.1801  139.4990  142.9872 LP  0  0  0  0  0  0  0  0  0  0  0  0  # atno 17320 bound_to 7965
  145.6414  141.0283  143.1809 LP  0  0  0  0  0  0  0  0  0  0  0  0  # atno 17321 bound_to 7965
  140.1683  144.4960  150.6594 LP  0  0  0  0  0  0  0  0  0  0  0  0  # atno 17342 bound_to 10162
  140.6729  143.2293  151.5579 LP  0  0  0  0  0  0  0  0  0  0  0  0  # atno 17343 bound_to 10162
  157.1026  130.5988  149.5463 LP  0  0  0  0  0  0  0  0  0  0  0  0  # atno 17370 bound_to 10713
  155.9944  130.5007  150.7417 LP  0  0  0  0  0  0  0  0  0  0  0  0  # atno 17371 bound_to 10713
  140.1465  134.9259  157.2536 LP  0  0  0  0  0  0  0  0  0  0  0  0  # atno 17394 bound_to 11000
  140.2774  134.3390  155.7354 LP  0  0  0  0  0  0  0  0  0  0  0  0  # atno 17395 bound_to 11000

$$$$
