AV-unprocessed.smi:879|AV-procd|sdf|4033|dock9
  -GOLD-   22720 1523D 1   1.00000     0.00000
 Structure written by MMmdl.
 39 40  0  0  0  0  0  0  0  0  1 V2000
  147.5201  135.1177  155.4098 C   0  0  0  0  0  0  0  0  0  0  0  0
  148.7718  135.6558  154.8991 N   0  0  0  0  0  0  0  0  0  0  0  0
  149.8395  135.9356  155.6605 C   0  0  0  0  0  0  0  0  0  0  0  0
  149.8569  135.7577  156.8797 O   0  0  0  0  0  0  0  0  0  0  0  0
  151.0640  136.4884  154.9189 C   0  0  0  0  0  0  0  0  0  0  0  0
  151.4722  137.8410  155.4154 C   0  0  0  0  0  0  0  0  0  0  0  0
  152.6805  138.0532  155.9248 N   0  0  0  0  0  0  0  0  0  0  0  0
  152.6529  139.4120  156.2688 O   0  0  0  0  0  0  0  0  0  0  0  0
  151.4229  139.8583  155.9165 C   0  0  0  0  0  0  0  0  0  0  0  0
  151.0612  141.2822  156.1916 C   0  0  0  0  0  0  0  0  0  0  0  0
  151.0093  141.6391  157.6943 C   0  0  0  0  0  0  0  0  0  0  0  0
  150.6467  143.1277  157.8990 C   0  0  0  0  0  0  0  0  0  0  0  0
  151.8303  144.1104  157.8785 C   0  0  0  0  0  0  0  0  0  0  0  0
  152.4635  144.3088  159.2662 C   0  0  0  0  0  0  0  0  0  0  0  0
  153.2765  143.1114  159.7809 C   0  0  0  0  0  0  0  0  0  0  0  0
  152.5055  141.7808  159.8360 C   0  0  0  0  0  0  0  0  0  0  0  0
  152.2770  141.1649  158.4451 C   0  0  0  0  0  0  0  0  0  0  0  0
  150.6378  138.9178  155.3977 N   0  0  0  0  0  0  0  0  0  0  0  0
  146.8276  134.9423  154.5866 H   0  0  0  0  0  0  0  0  0  0  0  0
  147.0539  135.8164  156.1052 H   0  0  0  0  0  0  0  0  0  0  0  0
  147.6841  134.1702  155.9251 H   0  0  0  0  0  0  0  0  0  0  0  0
  148.8303  135.8260  153.9054 H   0  0  0  0  0  0  0  0  0  0  0  0
  151.8956  135.7931  155.0386 H   0  0  0  0  0  0  0  0  0  0  0  0
  150.8506  136.5460  153.8503 H   0  0  0  0  0  0  0  0  0  0  0  0
  151.7781  141.9253  155.6797 H   0  0  0  0  0  0  0  0  0  0  0  0
  150.0936  141.4754  155.7271 H   0  0  0  0  0  0  0  0  0  0  0  0
  150.1724  141.0767  158.1118 H   0  0  0  0  0  0  0  0  0  0  0  0
  149.9287  143.4251  157.1336 H   0  0  0  0  0  0  0  0  0  0  0  0
  150.1056  143.2420  158.8392 H   0  0  0  0  0  0  0  0  0  0  0  0
  152.5783  143.8128  157.1429 H   0  0  0  0  0  0  0  0  0  0  0  0
  151.4568  145.0797  157.5468 H   0  0  0  0  0  0  0  0  0  0  0  0
  153.1235  145.1759  159.2270 H   0  0  0  0  0  0  0  0  0  0  0  0
  151.6887  144.5636  159.9902 H   0  0  0  0  0  0  0  0  0  0  0  0
  154.1748  142.9907  159.1745 H   0  0  0  0  0  0  0  0  0  0  0  0
  153.6307  143.3499  160.7841 H   0  0  0  0  0  0  0  0  0  0  0  0
  153.1059  141.0798  160.4167 H   0  0  0  0  0  0  0  0  0  0  0  0
  151.5667  141.8881  160.3806 H   0  0  0  0  0  0  0  0  0  0  0  0
  152.2165  140.0816  158.5585 H   0  0  0  0  0  0  0  0  0  0  0  0
  153.1608  141.3386  157.8300 H   0  0  0  0  0  0  0  0  0  0  0  0
  1  2  1  0  0  0  0
  1 19  1  0  0  0  0
  1 20  1  0  0  0  0
  1 21  1  0  0  0  0
  2  3  1  0  0  0  0
  2 22  1  0  0  0  0
  3  4  2  0  0  0  0
  3  5  1  0  0  0  0
  5  6  1  0  0  0  0
  5 23  1  0  0  0  0
  5 24  1  0  0  0  0
  6 18  1  0  0  0  0
  6  7  2  0  0  0  0
  7  8  1  0  0  0  0
  8  9  1  0  0  0  0
  9 10  1  0  0  0  0
  9 18  2  0  0  0  0
 10 11  1  0  0  0  0
 10 25  1  0  0  0  0
 10 26  1  0  0  0  0
 11 17  1  0  0  0  0
 11 12  1  0  0  0  0
 11 27  1  0  0  0  0
 12 13  1  0  0  0  0
 12 28  1  0  0  0  0
 12 29  1  0  0  0  0
 13 14  1  0  0  0  0
 13 30  1  0  0  0  0
 13 31  1  0  0  0  0
 14 15  1  0  0  0  0
 14 32  1  0  0  0  0
 14 33  1  0  0  0  0
 15 16  1  0  0  0  0
 15 34  1  0  0  0  0
 15 35  1  0  0  0  0
 16 17  1  0  0  0  0
 16 36  1  0  0  0  0
 16 37  1  0  0  0  0
 17 38  1  0  0  0  0
 17 39  1  0  0  0  0
M  END
> <s_m_source_file>
AV-unprocessed.smi

> <i_m_source_file_index>
879

> <i_lp_mmshare_version>
43012

> <i_f3d_flags>
0

> <s_epik_input>
W0NIM11bTkhdQyg9TylbQ0gyXWMxbm9jKG4xKVtDSDJdW0NIXTJbQ0gyXVtDSDJdW0NIMl1bQ0gyXVtDSDJdW0NIMl0y

> <s_epik_cmdline>
J2VwaWtfcHl0aG9uJywgJy1waCcsICc3LjAnLCAnLXRuJywgJzgnLCAnLW1hJywgJzIwMCcsICctbWV0YWxfYmluZGluZycsICctaW1hZScsICc8aW5maWxlLm1hZT4nLCAnLW9tYWUnLCAnPG91dGZpbGUubWFlPic=

> <r_lp_tautomer_probability>
1

> <r_epik_Ionization_Penalty>
1.02915e-07

> <r_epik_Ionization_Penalty_Charging>
0

> <r_epik_Ionization_Penalty_Neutral>
1.02915e-07

> <r_epik_State_Penalty>
-0

> <r_epik_Charging_Adjusted_Penalty>
0

> <i_epik_Tot_Q>
0

> <i_epik_Tot_abs_Q>
0

> <r_epik_Metal_State_Penalty>
-0

> <b_epik_Metal_Only>
0

> <s_lp_Force_Field>
OPLS_2005

> <r_lp_Energy>
15.7019

> <b_lp_Chiralities_Consistent>
1

> <s_lp_Variant>
AV-unprocessed.smi:879-1

> <Gold.Version>
5.8.1

> <Gold.Id.Protein>
6NUR|6NUR_protein|mol2

> <Gold.PLP.Fitness>
41.8056

> <Gold.PLP.PLP>
-35.9062

> <Gold.PLP.part.hbond>
-2.0000

> <Gold.PLP.part.metal>
0.0000

> <Gold.PLP.part.buried>
-4.6510

> <Gold.PLP.part.nonpolar>
-30.1305

> <Gold.PLP.part.repulsive>
0.0477

> <Gold.PLP.ligand.clash>
0.0000

> <Gold.PLP.ligand.torsion>
0.0691

> <Gold.PLP.Chemscore.Hbond>
2.0000

> <Gold.PLP.Chemscore.CHOScore>
0.0000

> <Gold.PLP.Chemscore.Metal>
0.0000

> <Gold.Chemscore.Hbonds>
donor molecule, donor type, donor heavy atom, donor atom, acceptor molecule, acceptor atom, score
      L1  H     2    22       P1  7948  0.91
      P1  H  7997  8009       L1     8  1.00

> <Gold.PLP.Chemscore.Internal.Correction>
0.0375

> <Gold.Rescore>
     Score         DG    S(hbond)    S(metal)    S(lipo)     H(rot)  DE(clash)    DE(int)     intcor
     16.38     -17.79       1.94        0.00      89.96       1.84       0.01       1.39       ----

> <Gold.Chemscore.Fitness>
16.3835

> <Gold.Chemscore.DG>
-17.7860

> <Gold.Chemscore.ZeroCoef>
-5.4800

> <Gold.Chemscore.Hbond>
1.9434

> <Gold.Chemscore.Metal>
0.0000

> <Gold.Chemscore.Lipo>
89.9585

> <Gold.Chemscore.Internal_Hbond>
0.0000

> <Gold.Chemscore.DEClash>
0.0086

> <Gold.Chemscore.DEInternal>
1.3939

> <Gold.Chemscore.Rot>
1.8399

> <Gold.Chemscore.Internal.Correction>
   9.000000E+99

> <Gold.Chemscore.Hbonds>
donor molecule, donor type, donor heavy atom, donor atom, acceptor molecule, acceptor atom, score
      L1  H     2    22       P1  7948  0.85
      P1  H  7997  8009       L1     8  0.82

> <Gold.Chemscore.Hbond.Weighted>
-6.4909

> <Gold.Chemscore.Metal.Weighted>
-0.0000

> <Gold.Chemscore.Lipo.Weighted>
-10.5251

> <Gold.Chemscore.Internal_Hbond.Weighted>
0.0000

> <Gold.Chemscore.DEClash.Weighted>
0.0086

> <Gold.Chemscore.DEInternal.Weighted>
1.3939

> <Gold.Chemscore.Rot.Weighted>
4.7101

> <Gold.Chemscore.Internal.Correction.Weighted>
   9.000000E+99

> <Gold.Protein.RotatedTorsions>
[ 6907 6896 6895 6894 ] final -118.63 input  -60.11 | X-H torsion
[ 7974 7965 7964 7962 ] final  -38.15 input  175.53 | X-H torsion
[ 8008 7997 7996 7995 ] final -164.08 input   59.86 | X-H torsion
[ 10167 10162 10161 10158 ] final -178.00 input  -65.29 | X-H torsion
[ 10718 10713 10712 10709 ] final  -14.21 input   66.30 | X-H torsion
[ 10763 10752 10751 10750 ] final   91.79 input  -60.55 | X-H torsion
[ 11005 11000 10999 10996 ] final  119.17 input  -57.11 | X-H torsion

> <Gold.Protein.ActiveResidues>
 VAL166  LYS551  ARG553  GLY616  TRP617  ASP618  TYR619  PRO620  LYS621  CYS622 
 ASP623  PHE694  ASN695  SER759  ASP760  ASP761  ALA762  ILE779  LEU786  VAL792 
 PHE793  MET794  SER795  GLU796  ALA797  LYS798  CYS799  TRP800  GLU811  SER814 

> <Gold.Protein.RotatedAtoms>
  150.8236  133.8210  159.3128 H   0  0  0  0  0  0  0  0  0  0  0  0  # atno 6907 bound_to 6896
  151.5961  135.1048  160.0059 H   0  0  0  0  0  0  0  0  0  0  0  0  # atno 6908 bound_to 6896
  152.4323  133.7258  159.6616 H   0  0  0  0  0  0  0  0  0  0  0  0  # atno 6909 bound_to 6896
  146.0512  140.6479  142.9041 H   0  0  0  0  0  0  0  0  0  0  0  0  # atno 7974 bound_to 7965
  155.8305  140.0933  157.1795 H   0  0  0  0  0  0  0  0  0  0  0  0  # atno 8008 bound_to 7997
  154.3980  140.1420  156.3669 H   0  0  0  0  0  0  0  0  0  0  0  0  # atno 8009 bound_to 7997
  155.8171  140.3447  155.5494 H   0  0  0  0  0  0  0  0  0  0  0  0  # atno 8010 bound_to 7997
  139.5453  144.2252  152.0976 H   0  0  0  0  0  0  0  0  0  0  0  0  # atno 10167 bound_to 10162
  156.6192  130.4870  149.6171 H   0  0  0  0  0  0  0  0  0  0  0  0  # atno 10718 bound_to 10713
  153.2120  135.4385  155.0391 H   0  0  0  0  0  0  0  0  0  0  0  0  # atno 10763 bound_to 10752
  154.8205  135.3335  154.7054 H   0  0  0  0  0  0  0  0  0  0  0  0  # atno 10764 bound_to 10752
  153.7491  135.6999  153.5005 H   0  0  0  0  0  0  0  0  0  0  0  0  # atno 10765 bound_to 10752
  139.9136  134.9626  156.7615 H   0  0  0  0  0  0  0  0  0  0  0  0  # atno 11005 bound_to 11000
  144.7123  140.4085  143.7071 LP  0  0  0  0  0  0  0  0  0  0  0  0  # atno 17320 bound_to 7965
  145.6722  139.1601  143.2748 LP  0  0  0  0  0  0  0  0  0  0  0  0  # atno 17321 bound_to 7965
  140.1738  144.4910  150.6565 LP  0  0  0  0  0  0  0  0  0  0  0  0  # atno 17342 bound_to 10162
  140.6699  143.2282  151.5651 LP  0  0  0  0  0  0  0  0  0  0  0  0  # atno 17343 bound_to 10162
  156.2326  130.6803  151.1478 LP  0  0  0  0  0  0  0  0  0  0  0  0  # atno 17370 bound_to 10713
  157.7232  131.0667  150.6044 LP  0  0  0  0  0  0  0  0  0  0  0  0  # atno 17371 bound_to 10713
  140.6693  133.9574  155.7848 LP  0  0  0  0  0  0  0  0  0  0  0  0  # atno 17394 bound_to 11000
  141.0588  134.0376  157.3686 LP  0  0  0  0  0  0  0  0  0  0  0  0  # atno 17395 bound_to 11000

$$$$
