AV-unprocessed.smi:2831|AV-procd|sdf|10908|dock6
  -GOLD-   2272015353D 1   1.00000     0.00000
 Structure written by MMmdl.
 30 31  0  0  0  0  0  0  0  0  1 V2000
  147.2331  138.9619  152.9383 C   0  0  0  0  0  0  0  0  0  0  0  0
  148.1471  139.7847  153.7804 C   0  0  0  0  0  0  0  0  0  0  0  0
  149.4220  139.4462  154.0082 N   0  0  0  0  0  0  0  0  0  0  0  0
  150.0714  140.3613  154.8251 N   0  0  0  0  0  0  0  0  0  0  0  0
  149.2632  141.3654  155.1921 C   0  0  0  0  0  0  0  0  0  0  0  0
  149.6667  142.4371  156.0318 N   0  0  0  0  0  0  0  0  0  0  0  0
  150.7294  142.4985  156.8531 C   0  0  0  0  0  0  0  0  0  0  0  0
  151.5616  141.6042  157.0058 O   0  0  0  0  0  0  0  0  0  0  0  0
  150.7726  143.6763  157.4979 N   0  0  0  0  0  0  0  0  0  0  0  0
  151.7835  144.1251  158.4626 C   0  0  1  0  0  0  0  0  0  0  0  0
  152.9879  144.7516  157.7272 C   0  0  0  0  0  0  0  0  0  0  0  0
  151.1510  145.1408  159.4260 C   0  0  0  0  0  0  0  0  0  0  0  0
  151.1754  144.4532  160.7885 C   0  0  0  0  0  0  0  0  0  0  0  0
  152.2922  143.5900  160.6932 O   0  0  0  0  0  0  0  0  0  0  0  0
  152.2185  142.9877  159.4123 C   0  0  0  0  0  0  0  0  0  0  0  0
  147.6279  141.2739  154.5606 S   0  0  0  0  0  0  0  0  0  0  0  0
  147.7997  138.4046  152.1915 H   0  0  0  0  0  0  0  0  0  0  0  0
  146.5162  139.6023  152.4240 H   0  0  0  0  0  0  0  0  0  0  0  0
  146.6870  138.2558  153.5637 H   0  0  0  0  0  0  0  0  0  0  0  0
  149.0729  143.2527  156.0068 H   0  0  0  0  0  0  0  0  0  0  0  0
  150.0350  144.3359  157.2990 H   0  0  0  0  0  0  0  0  0  0  0  0
  153.7292  145.1265  158.4339 H   0  0  0  0  0  0  0  0  0  0  0  0
  152.6768  145.5878  157.1002 H   0  0  0  0  0  0  0  0  0  0  0  0
  153.4942  144.0295  157.0864 H   0  0  0  0  0  0  0  0  0  0  0  0
  151.7481  146.0524  159.4745 H   0  0  0  0  0  0  0  0  0  0  0  0
  150.1395  145.4400  159.1476 H   0  0  0  0  0  0  0  0  0  0  0  0
  151.2777  145.1569  161.6148 H   0  0  0  0  0  0  0  0  0  0  0  0
  150.2698  143.8652  160.9463 H   0  0  0  0  0  0  0  0  0  0  0  0
  151.4748  142.1899  159.4548 H   0  0  0  0  0  0  0  0  0  0  0  0
  153.1712  142.5364  159.1332 H   0  0  0  0  0  0  0  0  0  0  0  0
  1  2  1  0  0  0  0
  1 17  1  0  0  0  0
  1 18  1  0  0  0  0
  1 19  1  0  0  0  0
  2 16  1  0  0  0  0
  2  3  2  0  0  0  0
  3  4  1  0  0  0  0
  4  5  2  0  0  0  0
  5  6  1  0  0  0  0
  5 16  1  0  0  0  0
  6  7  1  0  0  0  0
  6 20  1  0  0  0  0
  7  8  2  0  0  0  0
  7  9  1  0  0  0  0
  9 10  1  0  0  0  0
  9 21  1  0  0  0  0
 10 15  1  0  0  0  0
 10 11  1  0  0  0  0
 10 12  1  0  0  0  0
 11 22  1  0  0  0  0
 11 23  1  0  0  0  0
 11 24  1  0  0  0  0
 12 13  1  0  0  0  0
 12 25  1  0  0  0  0
 12 26  1  0  0  0  0
 13 14  1  0  0  0  0
 13 27  1  0  0  0  0
 13 28  1  0  0  0  0
 14 15  1  0  0  0  0
 15 29  1  0  0  0  0
 15 30  1  0  0  0  0
M  END
> <s_m_source_file>
AV-unprocessed.smi

> <i_m_source_file_index>
2831

> <i_lp_mmshare_version>
43012

> <i_f3d_flags>
0

> <s_epik_input>
W0NIM11jMW5uYyhzMSlbTkhdQyg9TylbTkhdW0NAQF0yKFtDSDNdKVtDSDJdW0NIMl1PW0NIMl0y

> <s_epik_cmdline>
J2VwaWtfcHl0aG9uJywgJy1waCcsICc3LjAnLCAnLXRuJywgJzgnLCAnLW1hJywgJzIwMCcsICctbWV0YWxfYmluZGluZycsICctaW1hZScsICc8aW5maWxlLm1hZT4nLCAnLW9tYWUnLCAnPG91dGZpbGUubWFlPic=

> <r_lp_tautomer_probability>
1

> <r_epik_Ionization_Penalty>
0.00277018

> <r_epik_Ionization_Penalty_Charging>
0

> <r_epik_Ionization_Penalty_Neutral>
0.00277018

> <r_epik_State_Penalty>
-0

> <r_epik_Charging_Adjusted_Penalty>
0

> <i_epik_Tot_Q>
0

> <i_epik_Tot_abs_Q>
0

> <r_epik_Metal_State_Penalty>
0.356997

> <b_epik_Metal_Only>
0

> <s_lp_Force_Field>
OPLS_2005

> <r_lp_Energy>
15.109

> <b_lp_Chiralities_Consistent>
1

> <s_lp_Variant>
AV-unprocessed.smi:2831-1

> <Gold.Version>
5.8.1

> <Gold.Id.Protein>
6NUR|6NUR_protein|mol2

> <Gold.PLP.Fitness>
38.5781

> <Gold.PLP.PLP>
-31.6347

> <Gold.PLP.part.hbond>
-2.8235

> <Gold.PLP.part.metal>
0.0000

> <Gold.PLP.part.buried>
-2.3321

> <Gold.PLP.part.nonpolar>
-27.9291

> <Gold.PLP.part.repulsive>
2.2137

> <Gold.PLP.ligand.clash>
0.0000

> <Gold.PLP.ligand.torsion>
0.5745

> <Gold.PLP.Chemscore.Hbond>
2.6883

> <Gold.PLP.Chemscore.CHOScore>
0.0000

> <Gold.PLP.Chemscore.Metal>
0.0000

> <Gold.Chemscore.Hbonds>
donor molecule, donor type, donor heavy atom, donor atom, acceptor molecule, acceptor atom, score
      L1  H     6    20       P1  8028  0.97
      L1  H     9    21       P1  8028  0.70
      P1  H  7989  7998       L1     4  0.73

> <Gold.PLP.Chemscore.Internal.Correction>
0.0275

> <Gold.Rescore>
     Score         DG    S(hbond)    S(metal)    S(lipo)     H(rot)  DE(clash)    DE(int)     intcor
     14.77     -19.04       1.95        0.00      82.15       1.00       1.99       2.28       ----

> <Gold.Chemscore.Fitness>
14.7726

> <Gold.Chemscore.DG>
-19.0416

> <Gold.Chemscore.ZeroCoef>
-5.4800

> <Gold.Chemscore.Hbond>
1.9492

> <Gold.Chemscore.Metal>
0.0000

> <Gold.Chemscore.Lipo>
82.1490

> <Gold.Chemscore.Internal_Hbond>
0.0000

> <Gold.Chemscore.DEClash>
1.9854

> <Gold.Chemscore.DEInternal>
2.2835

> <Gold.Chemscore.Rot>
1.0000

> <Gold.Chemscore.Internal.Correction>
   9.000000E+99

> <Gold.Chemscore.Hbonds>
donor molecule, donor type, donor heavy atom, donor atom, acceptor molecule, acceptor atom, score
      L1  H     6    20       P1  8028  0.86
      L1  H     9    21       P1  8028  0.33
      P1  H  7989  7998       L1     4  0.12

> <Gold.Chemscore.Hbond.Weighted>
-6.5102

> <Gold.Chemscore.Metal.Weighted>
-0.0000

> <Gold.Chemscore.Lipo.Weighted>
-9.6114

> <Gold.Chemscore.Internal_Hbond.Weighted>
0.0000

> <Gold.Chemscore.DEClash.Weighted>
1.9854

> <Gold.Chemscore.DEInternal.Weighted>
2.2835

> <Gold.Chemscore.Rot.Weighted>
2.5600

> <Gold.Chemscore.Internal.Correction.Weighted>
   9.000000E+99

> <Gold.Protein.RotatedTorsions>
[ 6907 6896 6895 6894 ] final -157.23 input  -60.11 | X-H torsion
[ 7974 7965 7964 7962 ] final  179.17 input  175.53 | X-H torsion
[ 8008 7997 7996 7995 ] final   59.62 input   59.86 | X-H torsion
[ 10167 10162 10161 10158 ] final  146.35 input  -65.29 | X-H torsion
[ 10718 10713 10712 10709 ] final  108.96 input   66.30 | X-H torsion
[ 10763 10752 10751 10750 ] final -127.92 input  -60.55 | X-H torsion
[ 11005 11000 10999 10996 ] final -146.00 input  -57.11 | X-H torsion

> <Gold.Protein.ActiveResidues>
 VAL166  LYS551  ARG553  GLY616  TRP617  ASP618  TYR619  PRO620  LYS621  CYS622 
 ASP623  PHE694  ASN695  SER759  ASP760  ASP761  ALA762  ILE779  LEU786  VAL792 
 PHE793  MET794  SER795  GLU796  ALA797  LYS798  CYS799  TRP800  GLU811  SER814 

> <Gold.Protein.RotatedAtoms>
  151.2997  133.4128  159.2638 H   0  0  0  0  0  0  0  0  0  0  0  0  # atno 6907 bound_to 6896
  151.0206  134.9466  159.8067 H   0  0  0  0  0  0  0  0  0  0  0  0  # atno 6908 bound_to 6896
  152.5323  134.2960  159.9113 H   0  0  0  0  0  0  0  0  0  0  0  0  # atno 6909 bound_to 6896
  144.7148  140.0508  143.6435 H   0  0  0  0  0  0  0  0  0  0  0  0  # atno 7974 bound_to 7965
  155.5691  140.3489  155.4511 H   0  0  0  0  0  0  0  0  0  0  0  0  # atno 8008 bound_to 7997
  156.0457  140.1306  157.0132 H   0  0  0  0  0  0  0  0  0  0  0  0  # atno 8009 bound_to 7997
  154.4411  140.1015  156.6288 H   0  0  0  0  0  0  0  0  0  0  0  0  # atno 8010 bound_to 7997
  139.4909  144.5836  151.6823 H   0  0  0  0  0  0  0  0  0  0  0  0  # atno 10167 bound_to 10162
  157.6563  131.0904  150.6383 H   0  0  0  0  0  0  0  0  0  0  0  0  # atno 10718 bound_to 10713
  154.8754  135.3946  154.3672 H   0  0  0  0  0  0  0  0  0  0  0  0  # atno 10763 bound_to 10752
  153.4437  135.7027  153.6158 H   0  0  0  0  0  0  0  0  0  0  0  0  # atno 10764 bound_to 10752
  153.4728  135.3786  155.2369 H   0  0  0  0  0  0  0  0  0  0  0  0  # atno 10765 bound_to 10752
  140.7865  134.3018  157.5028 H   0  0  0  0  0  0  0  0  0  0  0  0  # atno 11005 bound_to 11000
  145.9945  139.3041  143.0965 LP  0  0  0  0  0  0  0  0  0  0  0  0  # atno 17320 bound_to 7965
  145.8864  140.9331  143.0574 LP  0  0  0  0  0  0  0  0  0  0  0  0  # atno 17321 bound_to 7965
  140.5447  144.0522  150.6102 LP  0  0  0  0  0  0  0  0  0  0  0  0  # atno 17342 bound_to 10162
  140.3556  143.2937  152.0439 LP  0  0  0  0  0  0  0  0  0  0  0  0  # atno 17343 bound_to 10162
  156.6689  130.4534  149.5663 LP  0  0  0  0  0  0  0  0  0  0  0  0  # atno 17370 bound_to 10713
  156.2012  130.6621  151.1169 LP  0  0  0  0  0  0  0  0  0  0  0  0  # atno 17371 bound_to 10713
  139.8736  134.9349  156.3620 LP  0  0  0  0  0  0  0  0  0  0  0  0  # atno 17394 bound_to 11000
  140.9431  133.7501  156.0173 LP  0  0  0  0  0  0  0  0  0  0  0  0  # atno 17395 bound_to 11000

$$$$
