AV-unprocessed.smi:957|AV-procd|sdf|4266|dock1
  -GOLD-   22720 2173D 1   1.00000     0.00000
 Structure written by MMmdl.
 30 31  0  0  0  0  0  0  0  0  2 V2000
  148.7073  138.0813  154.6719 C   0  0  0  0  0  0  0  0  0  0  0  0
  149.6391  139.2635  154.3785 C   0  0  0  0  0  0  0  0  0  0  0  0
  150.9982  139.0023  154.8200 N   0  0  0  0  0  0  0  0  0  0  0  0
  151.8818  138.1388  154.2961 C   0  0  0  0  0  0  0  0  0  0  0  0
  153.0653  138.1012  154.9055 N   0  0  0  0  0  0  0  0  0  0  0  0
  152.9581  139.0217  155.9267 N   0  0  0  0  0  0  0  0  0  0  0  0
  151.7220  139.5296  155.8325 C   0  0  0  0  0  0  0  0  0  0  0  0
  151.1914  140.5748  156.7744 C   0  0  1  0  0  0  0  0  0  0  0  0
  152.2211  140.9500  157.8576 C   0  0  0  0  0  0  0  0  0  0  0  0
  151.6519  142.0298  158.7904 C   0  0  0  0  0  0  0  0  0  0  0  0
  151.1694  143.2493  157.9878 C   0  0  0  0  0  0  0  0  0  0  0  0
  150.1801  142.8443  156.9655 N   0  3  0  0  0  0  0  0  0  0  0  0
  150.7042  141.8311  156.0230 C   0  0  0  0  0  0  0  0  0  0  0  0
  147.6960  138.2902  154.3224 H   0  0  0  0  0  0  0  0  0  0  0  0
  148.6516  137.8698  155.7397 H   0  0  0  0  0  0  0  0  0  0  0  0
  149.0513  137.1766  154.1696 H   0  0  0  0  0  0  0  0  0  0  0  0
  149.6550  139.4638  153.3066 H   0  0  0  0  0  0  0  0  0  0  0  0
  149.2761  140.1735  154.8565 H   0  0  0  0  0  0  0  0  0  0  0  0
  151.6532  137.5170  153.4429 H   0  0  0  0  0  0  0  0  0  0  0  0
  150.3256  140.1624  157.2911 H   0  0  0  0  0  0  0  0  0  0  0  0
  152.4999  140.0687  158.4362 H   0  0  0  0  0  0  0  0  0  0  0  0
  153.1359  141.3195  157.3923 H   0  0  0  0  0  0  0  0  0  0  0  0
  150.8223  141.6174  159.3664 H   0  0  0  0  0  0  0  0  0  0  0  0
  152.4089  142.3346  159.5138 H   0  0  0  0  0  0  0  0  0  0  0  0
  150.7148  143.9845  158.6521 H   0  0  0  0  0  0  0  0  0  0  0  0
  152.0120  143.7391  157.4978 H   0  0  0  0  0  0  0  0  0  0  0  0
  149.3724  142.4602  157.4346 H   0  0  0  0  0  0  0  0  0  0  0  0
  151.5166  142.2743  155.4453 H   0  0  0  0  0  0  0  0  0  0  0  0
  149.9169  141.5685  155.3157 H   0  0  0  0  0  0  0  0  0  0  0  0
  149.8957  143.6607  156.4429 H   0  0  0  0  0  0  0  0  0  0  0  0
  1  2  1  0  0  0  0
  1 14  1  0  0  0  0
  1 15  1  0  0  0  0
  1 16  1  0  0  0  0
  2  3  1  0  0  0  0
  2 17  1  0  0  0  0
  2 18  1  0  0  0  0
  3  7  1  0  0  0  0
  3  4  1  0  0  0  0
  4  5  2  0  0  0  0
  4 19  1  0  0  0  0
  5  6  1  0  0  0  0
  6  7  2  0  0  0  0
  7  8  1  0  0  0  0
  8 13  1  0  0  0  0
  8  9  1  0  0  0  0
  8 20  1  0  0  0  0
  9 10  1  0  0  0  0
  9 21  1  0  0  0  0
  9 22  1  0  0  0  0
 10 11  1  0  0  0  0
 10 23  1  0  0  0  0
 10 24  1  0  0  0  0
 11 12  1  0  0  0  0
 11 25  1  0  0  0  0
 11 26  1  0  0  0  0
 12 13  1  0  0  0  0
 12 27  1  0  0  0  0
 12 30  1  0  0  0  0
 13 28  1  0  0  0  0
 13 29  1  0  0  0  0
M  CHG  1  12   1
M  END
> <s_m_source_file>
AV-unprocessed.smi

> <i_m_source_file_index>
957

> <i_lp_mmshare_version>
43012

> <i_f3d_flags>
0

> <s_epik_input>
W0NIM11bQ0gyXW4xW2NIXW5uYzFbQ0BASF0yW0NIMl1bQ0gyXVtDSDJdW05IXVtDSDJdMg==

> <s_epik_cmdline>
J2VwaWtfcHl0aG9uJywgJy1waCcsICc3LjAnLCAnLXRuJywgJzgnLCAnLW1hJywgJzIwMCcsICctbWV0YWxfYmluZGluZycsICctaW1hZScsICc8aW5maWxlLm1hZT4nLCAnLW9tYWUnLCAnPG91dGZpbGUubWFlPic=

> <r_lp_tautomer_probability>
1

> <r_epik_Ionization_Penalty>
0.000442722

> <r_epik_Ionization_Penalty_Charging>
0.000426856

> <r_epik_Ionization_Penalty_Neutral>
1.58656e-05

> <r_epik_State_Penalty>
-0

> <r_epik_Charging_Adjusted_Penalty>
0.000426856

> <i_epik_Tot_Q>
1

> <i_epik_Tot_abs_Q>
1

> <r_epik_Metal_State_Penalty>
-0

> <b_epik_Metal_Only>
0

> <s_lp_Force_Field>
OPLS_2005

> <r_lp_Energy>
16.0383

> <b_lp_Chiralities_Consistent>
1

> <s_lp_Variant>
AV-unprocessed.smi:957-2

> <Gold.Version>
5.8.1

> <Gold.Id.Protein>
6NUR|6NUR_protein|mol2

> <Gold.PLP.Fitness>
39.2193

> <Gold.PLP.PLP>
-27.4156

> <Gold.PLP.part.hbond>
-3.0000

> <Gold.PLP.part.metal>
0.0000

> <Gold.PLP.part.buried>
-5.3626

> <Gold.PLP.part.nonpolar>
-19.4288

> <Gold.PLP.part.repulsive>
0.0439

> <Gold.PLP.ligand.clash>
0.0000

> <Gold.PLP.ligand.torsion>
0.1120

> <Gold.PLP.Chemscore.Hbond>
3.0000

> <Gold.PLP.Chemscore.CHOScore>
1.0000

> <Gold.PLP.Chemscore.Metal>
0.0000

> <Gold.Chemscore.Hbonds>
donor molecule, donor type, donor heavy atom, donor atom, acceptor molecule, acceptor atom, score
      L1  H    12    30       P1  8028  2.00
      P1  H  7997  8009       L1     6  1.00
      L1  C     4    19       P1  7949  1.00

> <Gold.PLP.Chemscore.Internal.Correction>
0.0276

> <Gold.Rescore>
     Score         DG    S(hbond)    S(metal)    S(lipo)     H(rot)  DE(clash)    DE(int)     intcor
     14.67     -14.74       1.96        0.00      50.66       1.26       0.05       0.02       ----

> <Gold.Chemscore.Fitness>
14.6710

> <Gold.Chemscore.DG>
-14.7385

> <Gold.Chemscore.ZeroCoef>
-5.4800

> <Gold.Chemscore.Hbond>
1.9612

> <Gold.Chemscore.Metal>
0.0000

> <Gold.Chemscore.Lipo>
50.6572

> <Gold.Chemscore.Internal_Hbond>
0.0000

> <Gold.Chemscore.DEClash>
0.0509

> <Gold.Chemscore.DEInternal>
0.0166

> <Gold.Chemscore.Rot>
1.2573

> <Gold.Chemscore.Internal.Correction>
   9.000000E+99

> <Gold.Chemscore.Hbonds>
donor molecule, donor type, donor heavy atom, donor atom, acceptor molecule, acceptor atom, score
      L1  H    12    30       P1  8028  0.99
      P1  H  7997  8009       L1     6  0.85

> <Gold.Chemscore.Hbond.Weighted>
-6.5503

> <Gold.Chemscore.Metal.Weighted>
-0.0000

> <Gold.Chemscore.Lipo.Weighted>
-5.9269

> <Gold.Chemscore.Internal_Hbond.Weighted>
0.0000

> <Gold.Chemscore.DEClash.Weighted>
0.0509

> <Gold.Chemscore.DEInternal.Weighted>
0.0166

> <Gold.Chemscore.Rot.Weighted>
3.2188

> <Gold.Chemscore.Internal.Correction.Weighted>
   9.000000E+99

> <Gold.Protein.RotatedTorsions>
[ 6907 6896 6895 6894 ] final   41.34 input  -60.11 | X-H torsion
[ 7974 7965 7964 7962 ] final  -79.80 input  175.53 | X-H torsion
[ 8008 7997 7996 7995 ] final -144.78 input   59.86 | X-H torsion
[ 10167 10162 10161 10158 ] final  136.11 input  -65.29 | X-H torsion
[ 10718 10713 10712 10709 ] final   25.75 input   66.30 | X-H torsion
[ 10763 10752 10751 10750 ] final  -92.73 input  -60.55 | X-H torsion
[ 11005 11000 10999 10996 ] final   14.42 input  -57.11 | X-H torsion

> <Gold.Protein.ActiveResidues>
 VAL166  LYS551  ARG553  GLY616  TRP617  ASP618  TYR619  PRO620  LYS621  CYS622 
 ASP623  PHE694  ASN695  SER759  ASP760  ASP761  ALA762  ILE779  LEU786  VAL792 
 PHE793  MET794  SER795  GLU796  ALA797  LYS798  CYS799  TRP800  GLU811  SER814 

> <Gold.Protein.RotatedAtoms>
  152.1940  134.8647  160.0514 H   0  0  0  0  0  0  0  0  0  0  0  0  # atno 6907 bound_to 6896
  151.9525  133.3665  159.4013 H   0  0  0  0  0  0  0  0  0  0  0  0  # atno 6908 bound_to 6896
  150.6941  134.4249  159.5266 H   0  0  0  0  0  0  0  0  0  0  0  0  # atno 6909 bound_to 6896
  145.5684  140.9470  143.1409 H   0  0  0  0  0  0  0  0  0  0  0  0  # atno 7974 bound_to 7965
  155.5326  140.0601  157.2886 H   0  0  0  0  0  0  0  0  0  0  0  0  # atno 8008 bound_to 7997
  154.4479  140.1933  156.0554 H   0  0  0  0  0  0  0  0  0  0  0  0  # atno 8009 bound_to 7997
  156.0642  140.3268  155.7501 H   0  0  0  0  0  0  0  0  0  0  0  0  # atno 8010 bound_to 7997
  139.5192  144.6482  151.5379 H   0  0  0  0  0  0  0  0  0  0  0  0  # atno 10167 bound_to 10162
  157.1976  130.6875  149.6175 H   0  0  0  0  0  0  0  0  0  0  0  0  # atno 10718 bound_to 10713
  154.6889  135.5220  153.8365 H   0  0  0  0  0  0  0  0  0  0  0  0  # atno 10763 bound_to 10752
  153.0618  135.6571  154.0455 H   0  0  0  0  0  0  0  0  0  0  0  0  # atno 10764 bound_to 10752
  154.0332  135.2983  155.3345 H   0  0  0  0  0  0  0  0  0  0  0  0  # atno 10765 bound_to 10752
  140.4698  134.1043  155.7730 H   0  0  0  0  0  0  0  0  0  0  0  0  # atno 11005 bound_to 11000
  144.7449  139.7346  143.7296 LP  0  0  0  0  0  0  0  0  0  0  0  0  # atno 17320 bound_to 7965
  146.1802  139.4990  142.9871 LP  0  0  0  0  0  0  0  0  0  0  0  0  # atno 17321 bound_to 7965
  140.6276  143.9139  150.6577 LP  0  0  0  0  0  0  0  0  0  0  0  0  # atno 17342 bound_to 10162
  140.2433  143.3647  152.1468 LP  0  0  0  0  0  0  0  0  0  0  0  0  # atno 17343 bound_to 10162
  155.9704  130.4593  150.6032 LP  0  0  0  0  0  0  0  0  0  0  0  0  # atno 17370 bound_to 10713
  157.3799  131.0779  151.1486 LP  0  0  0  0  0  0  0  0  0  0  0  0  # atno 17371 bound_to 10713
  141.1582  133.8842  157.1919 LP  0  0  0  0  0  0  0  0  0  0  0  0  # atno 17394 bound_to 11000
  139.9893  135.0070  156.9936 LP  0  0  0  0  0  0  0  0  0  0  0  0  # atno 17395 bound_to 11000

$$$$
