#       Name:                AV-unprocessed.smi:35
#       Creating user name   scv26
#       Creation time:       Thu Mar 26 16:02:06 2020


#       File generated by GOLD software.
#

@<TRIPOS>MOLECULE
AV-unprocessed.smi:35
    41    42     1
SMALL
NO_CHARGES


@<TRIPOS>ATOM
      1 ****        -2.3518   4.6871  -0.6838 O.2            1 S1                 0.0000
      2 ****        -1.9677   3.5443  -0.4453 C.2            1 S1                 0.0000
      3 ****        -2.8766   2.5661  -0.0300 N.am           1 S1                 0.0000
      4 ****        -2.5608   1.2392   0.2707 C.2            1 S1                 0.0000
      5 ****        -3.4493   0.4604   0.6137 O.2            1 S1                 0.0000
      6 ****        -1.2057   0.8574   0.1484 N.am           1 S1                 0.0000
      7 ****        -0.7793  -0.5577   0.4750 C.3            1 S1                 0.0000
      8 ****         0.3904  -0.4831   1.2281 O.3            1 S1                 0.0000
      9 ****         1.2676  -1.5286   0.8405 C.3            1 S1                 0.0000
     10 ****         2.7083  -1.1373   1.2055 C.3            1 S1                 0.0000
     11 ****         3.5780  -2.2370   1.0437 O.3            1 S1                 0.0000
     12 ****         1.0016  -1.6918  -0.6610 C.3            1 S1                 0.0000
     13 ****         1.2980  -3.0097  -1.0797 O.3            1 S1                 0.0000
     14 ****        -0.4933  -1.4156  -0.7800 C.3            1 S1                 0.0000
     15 ****        -0.7913  -0.7790  -2.0103 O.3            1 S1                 0.0000
     16 ****        -0.2682   1.7932  -0.2668 C.2            1 S1                 0.0000
     17 ****        -0.5912   3.0747  -0.5576 C.2            1 S1                 0.0000
     18 ****         0.8926   4.2519  -1.1378 Br             1 S1                 0.0000
     19 ****        -3.8439   2.8425   0.0574 H              1 S1                 0.0000
     20 ****        -1.5493  -0.9984   1.1098 H              1 S1                 0.0000
     21 ****         0.9616  -2.4245   1.3850 H              1 S1                 0.0000
     22 ****         3.0538  -0.2997   0.5987 H              1 S1                 0.0000
     23 ****         2.7557  -0.8204   2.2476 H              1 S1                 0.0000
     24 ****         4.4523  -1.9666   1.2794 H              1 S1                 0.0000
     25 ****         1.5805  -0.9643  -1.2326 H              1 S1                 0.0000
     26 ****         0.8070  -3.6143  -0.5450 H              1 S1                 0.0000
     27 ****        -1.0754  -2.3344  -0.6922 H              1 S1                 0.0000
     28 ****        -1.7065  -0.5428  -2.0106 H              1 S1                 0.0000
     29 ****         0.7635   1.4887  -0.3709 H              1 S1                 0.0000
     30 ****        -1.6979   5.3823  -0.9821 LP             1 S1                 0.0000
     31 ****        -3.3183   4.9217  -0.5796 LP             1 S1                 0.0000
     32 ****        -4.3955   0.7778   0.6768 LP             1 S1                 0.0000
     33 ****        -3.2253  -0.4900   0.8294 LP             1 S1                 0.0000
     34 ****         0.1688  -0.5761   2.1988 LP             1 S1                 0.0000
     35 ****         0.8331   0.3996   1.0704 LP             1 S1                 0.0000
     36 ****         3.5643  -2.5401   0.0908 LP             1 S1                 0.0000
     37 ****         3.2860  -2.9876   1.6365 LP             1 S1                 0.0000
     38 ****         2.2768  -3.1846  -0.9735 LP             1 S1                 0.0000
     39 ****         1.0412  -3.1238  -2.0394 LP             1 S1                 0.0000
     40 ****        -0.6037  -1.4041  -2.7680 LP             1 S1                 0.0000
     41 ****        -0.2305   0.0429  -2.1096 LP             1 S1                 0.0000
@<TRIPOS>BOND
    1    1    2 2     
    2    2   17 1     
    3    2    3 1     
    4    3   19 1     
    5    3    4 1     
    6    4    5 2     
    7    4    6 1     
    8    6    7 1     
    9    6   16 1     
   10    7   14 1     
   11    7    8 1     
   12    7   20 1     
   13    8    9 1     
   14    9   10 1     
   15    9   12 1     
   16    9   21 1     
   17   10   11 1     
   18   10   22 1     
   19   10   23 1     
   20   11   24 1     
   21   12   13 1     
   22   12   14 1     
   23   12   25 1     
   24   13   26 1     
   25   14   15 1     
   26   14   27 1     
   27   15   28 1     
   28   16   17 2     
   29   16   29 1     
   30   17   18 1     
   31    1   30 1     
   32    1   31 1     
   33    5   32 1     
   34    5   33 1     
   35    8   34 1     
   36    8   35 1     
   37   11   36 1     
   38   11   37 1     
   39   13   38 1     
   40   13   39 1     
   41   15   40 1     
   42   15   41 1     
@<TRIPOS>SUBSTRUCTURE
      1 S1             1
@<TRIPOS>SET
LONE_PAIRS      STATIC     ATOMS    <user>   **** ""
12 30 31 32 33 34 35 36 37 38 39 40 41
DONOR_HYDROGENS      STATIC     ATOMS    <user>   **** ""
4 19 24 26 28
ATOM$BLUE        STATIC     ATOMS    COLORGROUP SYSTEM
12 30 31 32 33 34 35 36 37 38 39 40 41
ATOM$RED        STATIC     ATOMS    COLORGROUP SYSTEM
4 19 24 26 28
