AV-unprocessed.smi:2822|AV-procd|sdf|10867|dock5
  -GOLD-   2272015313D 1   1.00000     0.00000
 Structure written by MMmdl.
 41 43  0  0  0  0  0  0  0  0  3 V2000
  150.1298  138.3233  154.2781 Cl  0  0  0  0  0  0  0  0  0  0  0  0
  148.9818  139.6158  154.2534 C   0  0  0  0  0  0  0  0  0  0  0  0
  149.3631  140.8851  154.7352 C   0  0  0  0  0  0  0  0  0  0  0  0
  148.4796  141.9055  154.7232 N   0  3  0  0  0  0  0  0  0  0  0  0
  147.2181  141.7722  154.2620 C   0  0  0  0  0  0  0  0  0  0  0  0
  146.7779  140.5278  153.7670 C   0  0  0  0  0  0  0  0  0  0  0  0
  147.6677  139.4242  153.7591 C   0  0  0  0  0  0  0  0  0  0  0  0
  147.2912  138.1578  153.2850 N   0  0  0  0  0  0  0  0  0  0  0  0
  145.8937  137.7551  153.2312 C   0  0  0  0  0  0  0  0  0  0  0  0
  145.6872  136.5610  152.2878 C   0  0  1  0  0  0  0  0  0  0  0  0
  146.1879  135.2462  152.9138 C   0  0  0  0  0  0  0  0  0  0  0  0
  145.9126  134.1016  152.0143 N   0  3  1  0  0  0  0  0  0  0  0  0
  146.4152  132.8160  152.5621 C   0  0  0  0  0  0  0  0  0  0  0  0
  146.1985  131.6666  151.5645 C   0  0  0  0  0  0  0  0  0  0  0  0
  144.7205  131.5580  151.1686 C   0  0  0  0  0  0  0  0  0  0  0  0
  144.2191  132.9059  150.6329 C   0  0  0  0  0  0  0  0  0  0  0  0
  144.4717  134.0398  151.6465 C   0  0  2  0  0  0  0  0  0  0  0  0
  144.0114  135.4018  151.0909 C   0  0  0  0  0  0  0  0  0  0  0  0
  144.2928  136.4298  152.0323 O   0  0  0  0  0  0  0  0  0  0  0  0
  150.3433  141.1131  155.1277 H   0  0  0  0  0  0  0  0  0  0  0  0
  146.6022  142.6588  154.3028 H   0  0  0  0  0  0  0  0  0  0  0  0
  145.7645  140.4414  153.4043 H   0  0  0  0  0  0  0  0  0  0  0  0
  147.9728  137.5975  152.7920 H   0  0  0  0  0  0  0  0  0  0  0  0
  145.5749  137.4788  154.2369 H   0  0  0  0  0  0  0  0  0  0  0  0
  145.2778  138.5972  152.9131 H   0  0  0  0  0  0  0  0  0  0  0  0
  146.2206  136.7453  151.3528 H   0  0  0  0  0  0  0  0  0  0  0  0
  147.2604  135.3093  153.1024 H   0  0  0  0  0  0  0  0  0  0  0  0
  145.7026  135.0783  153.8768 H   0  0  0  0  0  0  0  0  0  0  0  0
  147.4782  132.9060  152.7892 H   0  0  0  0  0  0  0  0  0  0  0  0
  145.9072  132.5957  153.5022 H   0  0  0  0  0  0  0  0  0  0  0  0
  146.8062  131.8332  150.6740 H   0  0  0  0  0  0  0  0  0  0  0  0
  146.5377  130.7260  151.9996 H   0  0  0  0  0  0  0  0  0  0  0  0
  144.5873  130.7800  150.4162 H   0  0  0  0  0  0  0  0  0  0  0  0
  144.1272  131.2604  152.0343 H   0  0  0  0  0  0  0  0  0  0  0  0
  144.7220  133.1317  149.6915 H   0  0  0  0  0  0  0  0  0  0  0  0
  143.1547  132.8371  150.4051 H   0  0  0  0  0  0  0  0  0  0  0  0
  143.9010  133.8304  152.5532 H   0  0  0  0  0  0  0  0  0  0  0  0
  144.4969  135.6243  150.1390 H   0  0  0  0  0  0  0  0  0  0  0  0
  142.9375  135.3872  150.9026 H   0  0  0  0  0  0  0  0  0  0  0  0
  146.4232  134.2730  151.1598 H   0  0  0  0  0  0  0  0  0  0  0  0
  148.7778  142.8148  155.0774 H   0  0  0  0  0  0  0  0  0  0  0  0
  1  2  1  0  0  0  0
  2  7  1  0  0  0  0
  2  3  2  0  0  0  0
  3  4  1  0  0  0  0
  3 20  1  0  0  0  0
  4  5  2  0  0  0  0
  4 41  1  0  0  0  0
  5  6  1  0  0  0  0
  5 21  1  0  0  0  0
  6  7  2  0  0  0  0
  6 22  1  0  0  0  0
  7  8  1  0  0  0  0
  8  9  1  0  0  0  0
  8 23  1  0  0  0  0
  9 10  1  0  0  0  0
  9 24  1  0  0  0  0
  9 25  1  0  0  0  0
 10 19  1  0  0  0  0
 10 11  1  0  0  0  0
 10 26  1  0  0  0  0
 11 12  1  0  0  0  0
 11 27  1  0  0  0  0
 11 28  1  0  0  0  0
 12 17  1  0  0  0  0
 12 13  1  0  0  0  0
 12 40  1  0  0  0  0
 13 14  1  0  0  0  0
 13 29  1  0  0  0  0
 13 30  1  0  0  0  0
 14 15  1  0  0  0  0
 14 31  1  0  0  0  0
 14 32  1  0  0  0  0
 15 16  1  0  0  0  0
 15 33  1  0  0  0  0
 15 34  1  0  0  0  0
 16 17  1  0  0  0  0
 16 35  1  0  0  0  0
 16 36  1  0  0  0  0
 17 18  1  0  0  0  0
 17 37  1  0  0  0  0
 18 19  1  0  0  0  0
 18 38  1  0  0  0  0
 18 39  1  0  0  0  0
M  CHG  1   4   1
M  CHG  1  12   1
M  END
> <s_m_source_file>
AV-unprocessed.smi

> <i_m_source_file_index>
2822

> <i_lp_mmshare_version>
43012

> <i_f3d_flags>
0

> <s_epik_input>
Q2xjMVtjSF1uW2NIXVtjSF1jMVtOSF1bQ0gyXVtDQEhdKFtDSDJdMilPW0NIMl1bQ0BASF0oTjIzKVtDSDJdW0NIMl1bQ0gyXVtDSDJdMw==

> <s_epik_cmdline>
J2VwaWtfcHl0aG9uJywgJy1waCcsICc3LjAnLCAnLXRuJywgJzgnLCAnLW1hJywgJzIwMCcsICctbWV0YWxfYmluZGluZycsICctaW1hZScsICc8aW5maWxlLm1hZT4nLCAnLW9tYWUnLCAnPG91dGZpbGUubWFlPic=

> <r_lp_tautomer_probability>
1

> <r_epik_Ionization_Penalty>
0.254999

> <r_epik_Ionization_Penalty_Charging>
0.254956

> <r_epik_Ionization_Penalty_Neutral>
4.33524e-05

> <r_epik_State_Penalty>
0.230978

> <r_epik_Charging_Adjusted_Penalty>
0.485934

> <i_epik_Tot_Q>
2

> <i_epik_Tot_abs_Q>
2

> <r_epik_Metal_State_Penalty>
3.47007

> <b_epik_Metal_Only>
0

> <s_lp_Force_Field>
OPLS_2005

> <r_lp_Energy>
36.8988

> <b_lp_Chiralities_Consistent>
1

> <s_lp_Variant>
AV-unprocessed.smi:2822-8

> <Gold.Version>
5.8.1

> <Gold.Id.Protein>
6NUR|6NUR_protein|mol2

> <Gold.PLP.Fitness>
41.4900

> <Gold.PLP.PLP>
-33.1665

> <Gold.PLP.part.hbond>
-2.0000

> <Gold.PLP.part.metal>
0.0000

> <Gold.PLP.part.buried>
-3.3862

> <Gold.PLP.part.nonpolar>
-29.5187

> <Gold.PLP.part.repulsive>
2.0797

> <Gold.PLP.ligand.clash>
0.0000

> <Gold.PLP.ligand.torsion>
0.3385

> <Gold.PLP.Chemscore.Hbond>
3.0000

> <Gold.PLP.Chemscore.CHOScore>
0.0000

> <Gold.PLP.Chemscore.Metal>
0.0000

> <Gold.Chemscore.Hbonds>
donor molecule, donor type, donor heavy atom, donor atom, acceptor molecule, acceptor atom, score
      L1  H     4    41       P1  8028  2.00
      L1  H     8    23       P1  7948  1.00

> <Gold.PLP.Chemscore.Internal.Correction>
0.0005

> <Gold.Rescore>
     Score         DG    S(hbond)    S(metal)    S(lipo)     H(rot)  DE(clash)    DE(int)     intcor
     18.87     -19.89       1.98        0.00      92.67       1.20       0.78       0.23       ----

> <Gold.Chemscore.Fitness>
18.8747

> <Gold.Chemscore.DG>
-19.8878

> <Gold.Chemscore.ZeroCoef>
-5.4800

> <Gold.Chemscore.Hbond>
1.9844

> <Gold.Chemscore.Metal>
0.0000

> <Gold.Chemscore.Lipo>
92.6698

> <Gold.Chemscore.Internal_Hbond>
0.0000

> <Gold.Chemscore.DEClash>
0.7801

> <Gold.Chemscore.DEInternal>
0.2330

> <Gold.Chemscore.Rot>
1.1962

> <Gold.Chemscore.Internal.Correction>
   9.000000E+99

> <Gold.Chemscore.Hbonds>
donor molecule, donor type, donor heavy atom, donor atom, acceptor molecule, acceptor atom, score
      L1  H     4    41       P1  8028  0.97
      L1  H     8    23       P1  7948  1.00

> <Gold.Chemscore.Hbond.Weighted>
-6.6277

> <Gold.Chemscore.Metal.Weighted>
-0.0000

> <Gold.Chemscore.Lipo.Weighted>
-10.8424

> <Gold.Chemscore.Internal_Hbond.Weighted>
0.0000

> <Gold.Chemscore.DEClash.Weighted>
0.7801

> <Gold.Chemscore.DEInternal.Weighted>
0.2330

> <Gold.Chemscore.Rot.Weighted>
3.0623

> <Gold.Chemscore.Internal.Correction.Weighted>
   9.000000E+99

> <Gold.Protein.RotatedTorsions>
[ 6907 6896 6895 6894 ] final  121.62 input  -60.11 | X-H torsion
[ 7974 7965 7964 7962 ] final  -50.32 input  175.53 | X-H torsion
[ 8008 7997 7996 7995 ] final   12.57 input   59.86 | X-H torsion
[ 10167 10162 10161 10158 ] final  -10.19 input  -65.29 | X-H torsion
[ 10718 10713 10712 10709 ] final -155.86 input   66.30 | X-H torsion
[ 10763 10752 10751 10750 ] final   57.44 input  -60.55 | X-H torsion
[ 11005 11000 10999 10996 ] final  -75.40 input  -57.11 | X-H torsion

> <Gold.Protein.ActiveResidues>
 VAL166  LYS551  ARG553  GLY616  TRP617  ASP618  TYR619  PRO620  LYS621  CYS622 
 ASP623  PHE694  ASN695  SER759  ASP760  ASP761  ALA762  ILE779  LEU786  VAL792 
 PHE793  MET794  SER795  GLU796  ALA797  LYS798  CYS799  TRP800  GLU811  SER814 

> <Gold.Protein.RotatedAtoms>
  152.4308  133.7273  159.6567 H   0  0  0  0  0  0  0  0  0  0  0  0  # atno 6907 bound_to 6896
  150.8187  133.8281  159.3155 H   0  0  0  0  0  0  0  0  0  0  0  0  # atno 6908 bound_to 6896
  151.5970  135.1052  160.0103 H   0  0  0  0  0  0  0  0  0  0  0  0  # atno 6909 bound_to 6896
  145.9311  140.7748  142.9599 H   0  0  0  0  0  0  0  0  0  0  0  0  # atno 7974 bound_to 7965
  154.8225  140.2886  155.5777 H   0  0  0  0  0  0  0  0  0  0  0  0  # atno 8008 bound_to 7997
  156.2999  140.2547  156.3065 H   0  0  0  0  0  0  0  0  0  0  0  0  # atno 8009 bound_to 7997
  154.9322  140.0383  157.2043 H   0  0  0  0  0  0  0  0  0  0  0  0  # atno 8010 bound_to 7997
  140.7107  143.5775  150.9027 H   0  0  0  0  0  0  0  0  0  0  0  0  # atno 10167 bound_to 10162
  156.5187  130.8468  151.2674 H   0  0  0  0  0  0  0  0  0  0  0  0  # atno 10718 bound_to 10713
  152.9850  135.5641  154.5391 H   0  0  0  0  0  0  0  0  0  0  0  0  # atno 10763 bound_to 10752
  154.4849  135.2790  155.1544 H   0  0  0  0  0  0  0  0  0  0  0  0  # atno 10764 bound_to 10752
  154.3037  135.6302  153.5489 H   0  0  0  0  0  0  0  0  0  0  0  0  # atno 10765 bound_to 10752
  141.1645  133.6945  156.7511 H   0  0  0  0  0  0  0  0  0  0  0  0  # atno 11005 bound_to 11000
  144.6765  140.2129  143.7375 LP  0  0  0  0  0  0  0  0  0  0  0  0  # atno 17320 bound_to 7965
  145.8424  139.2136  143.1819 LP  0  0  0  0  0  0  0  0  0  0  0  0  # atno 17321 bound_to 7965
  139.9501  143.6282  152.3031 LP  0  0  0  0  0  0  0  0  0  0  0  0  # atno 17342 bound_to 10162
  139.6797  144.7656  151.1630 LP  0  0  0  0  0  0  0  0  0  0  0  0  # atno 17343 bound_to 10162
  157.7440  130.9925  150.2638 LP  0  0  0  0  0  0  0  0  0  0  0  0  # atno 17370 bound_to 10713
  156.3171  130.3780  149.7609 LP  0  0  0  0  0  0  0  0  0  0  0  0  # atno 17371 bound_to 10713
  140.2603  134.8472  157.3752 LP  0  0  0  0  0  0  0  0  0  0  0  0  # atno 17394 bound_to 11000
  140.1617  134.4720  155.7890 LP  0  0  0  0  0  0  0  0  0  0  0  0  # atno 17395 bound_to 11000

$$$$
