AV-unprocessed.smi:3032|AV-procd|sdf|11568|dock8
  -GOLD-   2272016533D 1   1.00000     0.00000
 Structure written by MMmdl.
 37 38  0  0  0  0  0  0  0  0  1 V2000
  153.4601  142.4674  162.4233 C   0  0  0  0  0  0  0  0  0  0  0  0
  152.5651  142.8866  161.2483 C   0  0  1  0  0  0  0  0  0  0  0  0
  152.2086  144.3828  161.3209 C   0  0  0  0  0  0  0  0  0  0  0  0
  151.3098  144.8070  160.1497 C   0  0  0  0  0  0  0  0  0  0  0  0
  151.9603  144.4755  158.7943 C   0  0  0  0  0  0  0  0  0  0  0  0
  152.3998  142.9985  158.6632 C   0  0  2  0  0  0  0  0  0  0  0  0
  151.2242  142.0469  158.3703 C   0  0  0  0  0  0  0  0  0  0  0  0
  151.4214  140.8754  158.0482 O   0  0  0  0  0  0  0  0  0  0  0  0
  149.9933  142.5708  158.4832 N   0  0  0  0  0  0  0  0  0  0  0  0
  148.7498  141.8526  158.2295 C   0  0  0  0  0  0  0  0  0  0  0  0
  147.5376  142.7978  158.2525 C   0  0  0  0  0  0  0  0  0  0  0  0
  147.3067  143.3994  159.5998 C   0  0  0  0  0  0  0  0  0  0  0  0
  146.9238  142.7167  160.6857 N   0  0  0  0  0  0  0  0  0  0  0  0
  146.8476  143.6520  161.7060 N   0  0  0  0  0  0  0  0  0  0  0  0
  147.1966  144.8070  161.1371 C   0  0  0  0  0  0  0  0  0  0  0  0
  147.4932  144.7070  159.8362 N   0  0  0  0  0  0  0  0  0  0  0  0
  153.2285  142.5566  159.8931 C   0  0  0  0  0  0  0  0  0  0  0  0
  147.7827  145.4321  159.1961 H   0  0  0  0  0  0  0  0  0  0  0  0
  154.4090  143.0046  162.4116 H   0  0  0  0  0  0  0  0  0  0  0  0
  153.6808  141.4002  162.3869 H   0  0  0  0  0  0  0  0  0  0  0  0
  152.9745  142.6699  163.3782 H   0  0  0  0  0  0  0  0  0  0  0  0
  151.6412  142.3148  161.3342 H   0  0  0  0  0  0  0  0  0  0  0  0
  151.7055  144.6017  162.2633 H   0  0  0  0  0  0  0  0  0  0  0  0
  153.1214  144.9802  161.3125 H   0  0  0  0  0  0  0  0  0  0  0  0
  150.3395  144.3185  160.2348 H   0  0  0  0  0  0  0  0  0  0  0  0
  151.1123  145.8776  160.2081 H   0  0  0  0  0  0  0  0  0  0  0  0
  151.2773  144.7399  157.9859 H   0  0  0  0  0  0  0  0  0  0  0  0
  152.8355  145.1130  158.6617 H   0  0  0  0  0  0  0  0  0  0  0  0
  153.0634  142.9443  157.7983 H   0  0  0  0  0  0  0  0  0  0  0  0
  149.9141  143.5396  158.7564 H   0  0  0  0  0  0  0  0  0  0  0  0
  148.8077  141.3254  157.2756 H   0  0  0  0  0  0  0  0  0  0  0  0
  148.6383  141.0889  158.9994 H   0  0  0  0  0  0  0  0  0  0  0  0
  147.6741  143.6001  157.5260 H   0  0  0  0  0  0  0  0  0  0  0  0
  146.6346  142.2625  157.9566 H   0  0  0  0  0  0  0  0  0  0  0  0
  147.2374  145.7401  161.6797 H   0  0  0  0  0  0  0  0  0  0  0  0
  154.2028  143.0451  159.8476 H   0  0  0  0  0  0  0  0  0  0  0  0
  153.4337  141.4864  159.8358 H   0  0  0  0  0  0  0  0  0  0  0  0
  1  2  1  0  0  0  0
  1 19  1  0  0  0  0
  1 20  1  0  0  0  0
  1 21  1  0  0  0  0
  2 17  1  0  0  0  0
  2  3  1  0  0  0  0
  2 22  1  0  0  0  0
  3  4  1  0  0  0  0
  3 23  1  0  0  0  0
  3 24  1  0  0  0  0
  4  5  1  0  0  0  0
  4 25  1  0  0  0  0
  4 26  1  0  0  0  0
  5  6  1  0  0  0  0
  5 27  1  0  0  0  0
  5 28  1  0  0  0  0
  6  7  1  0  0  0  0
  6 17  1  0  0  0  0
  6 29  1  0  0  0  0
  7  8  2  0  0  0  0
  7  9  1  0  0  0  0
  9 10  1  0  0  0  0
  9 30  1  0  0  0  0
 10 11  1  0  0  0  0
 10 31  1  0  0  0  0
 10 32  1  0  0  0  0
 11 12  1  0  0  0  0
 11 33  1  0  0  0  0
 11 34  1  0  0  0  0
 12 16  1  0  0  0  0
 12 13  2  0  0  0  0
 13 14  1  0  0  0  0
 14 15  2  0  0  0  0
 15 16  1  0  0  0  0
 15 35  1  0  0  0  0
 16 18  1  0  0  0  0
 17 36  1  0  0  0  0
 17 37  1  0  0  0  0
M  END
> <s_m_source_file>
AV-unprocessed.smi

> <i_m_source_file_index>
3032

> <i_lp_mmshare_version>
43012

> <i_f3d_flags>
0

> <s_epik_input>
W0NIM11bQ0BASF0xW0NIMl1bQ0gyXVtDSDJdW0NASF0oW0NIMl0xKUMoPU8pW05IXVtDSDJdW0NIMl1jMm5uW2NIXVtuSF0y

> <s_epik_cmdline>
J2VwaWtfcHl0aG9uJywgJy1waCcsICc3LjAnLCAnLXRuJywgJzgnLCAnLW1hJywgJzIwMCcsICctbWV0YWxfYmluZGluZycsICctaW1hZScsICc8aW5maWxlLm1hZT4nLCAnLW9tYWUnLCAnPG91dGZpbGUubWFlPic=

> <r_lp_tautomer_probability>
0.0517155

> <r_epik_Ionization_Penalty>
0.00149837

> <r_epik_Ionization_Penalty_Charging>
0

> <r_epik_Ionization_Penalty_Neutral>
0.00149837

> <r_epik_State_Penalty>
2.1109

> <r_epik_Charging_Adjusted_Penalty>
2.1109

> <i_epik_Tot_Q>
0

> <i_epik_Tot_abs_Q>
0

> <r_epik_Metal_State_Penalty>
2.23635

> <b_epik_Metal_Only>
0

> <s_lp_Force_Field>
OPLS_2005

> <r_lp_Energy>
9.23597

> <b_lp_Chiralities_Consistent>
1

> <s_lp_Variant>
AV-unprocessed.smi:3032-12

> <Gold.Version>
5.8.1

> <Gold.Id.Protein>
6NUR|6NUR_protein|mol2

> <Gold.PLP.Fitness>
46.7221

> <Gold.PLP.PLP>
-40.8510

> <Gold.PLP.part.hbond>
-3.3520

> <Gold.PLP.part.metal>
0.0000

> <Gold.PLP.part.buried>
-6.0004

> <Gold.PLP.part.nonpolar>
-31.0223

> <Gold.PLP.part.repulsive>
0.3219

> <Gold.PLP.ligand.clash>
0.0000

> <Gold.PLP.ligand.torsion>
0.2133

> <Gold.PLP.Chemscore.Hbond>
2.0828

> <Gold.PLP.Chemscore.CHOScore>
0.0000

> <Gold.PLP.Chemscore.Metal>
0.0000

> <Gold.Chemscore.Hbonds>
donor molecule, donor type, donor heavy atom, donor atom, acceptor molecule, acceptor atom, score
      L1  H    16    18       P1  8029  0.90
      P1  H  6933  6944       L1    13  0.13
      P1  H  6934  6946       L1    13  0.82

> <Gold.PLP.Chemscore.Internal.Correction>
0.0491

> <Gold.Rescore>
     Score         DG    S(hbond)    S(metal)    S(lipo)     H(rot)  DE(clash)    DE(int)     intcor
     15.88     -16.04       1.94        0.00      84.22       2.25       0.04       0.12       ----

> <Gold.Chemscore.Fitness>
15.8828

> <Gold.Chemscore.DG>
-16.0444

> <Gold.Chemscore.ZeroCoef>
-5.4800

> <Gold.Chemscore.Hbond>
1.9375

> <Gold.Chemscore.Metal>
0.0000

> <Gold.Chemscore.Lipo>
84.2169

> <Gold.Chemscore.Internal_Hbond>
0.0000

> <Gold.Chemscore.DEClash>
0.0402

> <Gold.Chemscore.DEInternal>
0.1214

> <Gold.Chemscore.Rot>
2.2501

> <Gold.Chemscore.Internal.Correction>
   9.000000E+99

> <Gold.Chemscore.Hbonds>
donor molecule, donor type, donor heavy atom, donor atom, acceptor molecule, acceptor atom, score
      L1  H    16    18       P1  8029  0.86
      P1  H  6934  6946       L1    13  0.80

> <Gold.Chemscore.Hbond.Weighted>
-6.4714

> <Gold.Chemscore.Metal.Weighted>
-0.0000

> <Gold.Chemscore.Lipo.Weighted>
-9.8534

> <Gold.Chemscore.Internal_Hbond.Weighted>
0.0000

> <Gold.Chemscore.DEClash.Weighted>
0.0402

> <Gold.Chemscore.DEInternal.Weighted>
0.1214

> <Gold.Chemscore.Rot.Weighted>
5.7603

> <Gold.Chemscore.Internal.Correction.Weighted>
   9.000000E+99

> <Gold.Protein.RotatedTorsions>
[ 6907 6896 6895 6894 ] final  107.94 input  -60.11 | X-H torsion
[ 7974 7965 7964 7962 ] final  -74.38 input  175.53 | X-H torsion
[ 8008 7997 7996 7995 ] final   27.16 input   59.86 | X-H torsion
[ 10167 10162 10161 10158 ] final  -91.35 input  -65.29 | X-H torsion
[ 10718 10713 10712 10709 ] final  -57.14 input   66.30 | X-H torsion
[ 10763 10752 10751 10750 ] final  157.19 input  -60.55 | X-H torsion
[ 11005 11000 10999 10996 ] final   -5.91 input  -57.11 | X-H torsion

> <Gold.Protein.ActiveResidues>
 VAL166  LYS551  ARG553  GLY616  TRP617  ASP618  TYR619  PRO620  LYS621  CYS622 
 ASP623  PHE694  ASN695  SER759  ASP760  ASP761  ALA762  ILE779  LEU786  VAL792 
 PHE793  MET794  SER795  GLU796  ALA797  LYS798  CYS799  TRP800  GLU811  SER814 

> <Gold.Protein.RotatedAtoms>
  152.5133  133.9162  159.7511 H   0  0  0  0  0  0  0  0  0  0  0  0  # atno 6907 bound_to 6896
  150.9544  133.6505  159.2773 H   0  0  0  0  0  0  0  0  0  0  0  0  # atno 6908 bound_to 6896
  151.3773  135.0938  159.9537 H   0  0  0  0  0  0  0  0  0  0  0  0  # atno 6909 bound_to 6896
  145.6399  140.9314  143.1041 H   0  0  0  0  0  0  0  0  0  0  0  0  # atno 7974 bound_to 7965
  155.0386  140.3167  155.4732 H   0  0  0  0  0  0  0  0  0  0  0  0  # atno 8008 bound_to 7997
  156.2859  140.2167  156.5453 H   0  0  0  0  0  0  0  0  0  0  0  0  # atno 8009 bound_to 7997
  154.7309  140.0481  157.0713 H   0  0  0  0  0  0  0  0  0  0  0  0  # atno 8010 bound_to 7997
  140.3458  143.2917  151.9783 H   0  0  0  0  0  0  0  0  0  0  0  0  # atno 10167 bound_to 10162
  156.1234  130.4164  150.0400 H   0  0  0  0  0  0  0  0  0  0  0  0  # atno 10718 bound_to 10713
  154.1962  135.2792  155.3006 H   0  0  0  0  0  0  0  0  0  0  0  0  # atno 10763 bound_to 10752
  154.5890  135.5566  153.7263 H   0  0  0  0  0  0  0  0  0  0  0  0  # atno 10764 bound_to 10752
  153.0099  135.6363  154.2101 H   0  0  0  0  0  0  0  0  0  0  0  0  # atno 10765 bound_to 10752
  140.6962  133.9028  155.8652 H   0  0  0  0  0  0  0  0  0  0  0  0  # atno 11005 bound_to 11000
  144.7161  139.8191  143.7398 LP  0  0  0  0  0  0  0  0  0  0  0  0  # atno 17320 bound_to 7965
  146.1289  139.4321  143.0181 LP  0  0  0  0  0  0  0  0  0  0  0  0  # atno 17321 bound_to 7965
  139.4833  144.6118  151.7419 LP  0  0  0  0  0  0  0  0  0  0  0  0  # atno 17342 bound_to 10162
  140.5266  144.0796  150.6039 LP  0  0  0  0  0  0  0  0  0  0  0  0  # atno 17343 bound_to 10162
  156.8332  130.9400  151.3636 LP  0  0  0  0  0  0  0  0  0  0  0  0  # atno 17370 bound_to 10713
  157.6416  130.8810  149.9459 LP  0  0  0  0  0  0  0  0  0  0  0  0  # atno 17371 bound_to 10713
  141.0201  134.0901  157.4130 LP  0  0  0  0  0  0  0  0  0  0  0  0  # atno 17394 bound_to 11000
  139.8909  135.0115  156.6763 LP  0  0  0  0  0  0  0  0  0  0  0  0  # atno 17395 bound_to 11000

$$$$
