AV-unprocessed.smi:1670|AV-procd|sdf|6694|dock3
  -GOLD-   22720 7423D 1   1.00000     0.00000
 Structure written by MMmdl.
 41 42  0  0  0  0  0  0  0  0  1 V2000
  149.9206  144.4889  160.2663 C   0  0  0  0  0  0  0  0  0  0  0  0
  150.7610  145.0657  159.1191 C   0  0  1  0  0  0  0  0  0  0  0  0
  152.2627  145.0868  159.4777 C   0  0  0  0  0  0  0  0  0  0  0  0
  152.7367  143.8086  159.9794 N   0  0  0  0  0  0  0  0  0  0  0  0
  152.5715  143.2694  161.2378 C   0  0  0  0  0  0  0  0  0  0  0  0
  153.2060  142.0605  161.2484 C   0  0  0  0  0  0  0  0  0  0  0  0
  153.7355  141.9452  159.9325 C   0  0  0  0  0  0  0  0  0  0  0  0
  153.4483  142.9902  159.1735 N   0  0  0  0  0  0  0  0  0  0  0  0
  150.5241  144.2754  157.9115 N   0  0  0  0  0  0  0  0  0  0  0  0
  150.6137  142.9401  157.8241 C   0  0  0  0  0  0  0  0  0  0  0  0
  150.9534  142.2108  158.7559 O   0  0  0  0  0  0  0  0  0  0  0  0
  150.2640  142.5015  156.6049 N   0  0  0  0  0  0  0  0  0  0  0  0
  150.1749  141.1118  156.1538 C   0  0  2  0  0  0  0  0  0  0  0  0
  151.5472  140.4033  156.1458 C   0  0  0  0  0  0  0  0  0  0  0  0
  151.3998  138.9266  155.7442 C   0  0  0  0  0  0  0  0  0  0  0  0
  150.6896  138.7902  154.3852 C   0  0  1  0  0  0  0  0  0  0  0  0
  150.5136  137.4225  154.0821 O   0  0  0  0  0  0  0  0  0  0  0  0
  149.3199  139.4935  154.3964 C   0  0  0  0  0  0  0  0  0  0  0  0
  149.4604  140.9722  154.7923 C   0  0  0  0  0  0  0  0  0  0  0  0
  150.0490  145.0736  161.1776 H   0  0  0  0  0  0  0  0  0  0  0  0
  150.2032  143.4593  160.4889 H   0  0  0  0  0  0  0  0  0  0  0  0
  148.8586  144.4975  160.0186 H   0  0  0  0  0  0  0  0  0  0  0  0
  150.4254  146.0922  158.9604 H   0  0  0  0  0  0  0  0  0  0  0  0
  152.8530  145.3337  158.5947 H   0  0  0  0  0  0  0  0  0  0  0  0
  152.4714  145.8634  160.2158 H   0  0  0  0  0  0  0  0  0  0  0  0
  152.0282  143.7889  162.0133 H   0  0  0  0  0  0  0  0  0  0  0  0
  153.2830  141.3662  162.0717 H   0  0  0  0  0  0  0  0  0  0  0  0
  154.3148  141.1382  159.5087 H   0  0  0  0  0  0  0  0  0  0  0  0
  150.2326  144.7835  157.0895 H   0  0  0  0  0  0  0  0  0  0  0  0
  150.0056  143.2004  155.9240 H   0  0  0  0  0  0  0  0  0  0  0  0
  149.5552  140.6122  156.8996 H   0  0  0  0  0  0  0  0  0  0  0  0
  152.2282  140.8932  155.4492 H   0  0  0  0  0  0  0  0  0  0  0  0
  152.0111  140.4722  157.1305 H   0  0  0  0  0  0  0  0  0  0  0  0
  152.3827  138.4559  155.7030 H   0  0  0  0  0  0  0  0  0  0  0  0
  150.8347  138.3977  156.5133 H   0  0  0  0  0  0  0  0  0  0  0  0
  151.3141  139.2288  153.6056 H   0  0  0  0  0  0  0  0  0  0  0  0
  150.0201  137.3543  153.2792 H   0  0  0  0  0  0  0  0  0  0  0  0
  148.8508  139.4180  153.4147 H   0  0  0  0  0  0  0  0  0  0  0  0
  148.6515  138.9933  155.0990 H   0  0  0  0  0  0  0  0  0  0  0  0
  148.4744  141.4361  154.8365 H   0  0  0  0  0  0  0  0  0  0  0  0
  150.0142  141.4956  154.0126 H   0  0  0  0  0  0  0  0  0  0  0  0
  1  2  1  0  0  0  0
  1 20  1  0  0  0  0
  1 21  1  0  0  0  0
  1 22  1  0  0  0  0
  2  3  1  0  0  0  0
  2  9  1  0  0  0  0
  2 23  1  0  0  0  0
  3  4  1  0  0  0  0
  3 24  1  0  0  0  0
  3 25  1  0  0  0  0
  4  8  1  0  0  0  0
  4  5  1  0  0  0  0
  5  6  2  0  0  0  0
  5 26  1  0  0  0  0
  6  7  1  0  0  0  0
  6 27  1  0  0  0  0
  7  8  2  0  0  0  0
  7 28  1  0  0  0  0
  9 10  1  0  0  0  0
  9 29  1  0  0  0  0
 10 11  2  0  0  0  0
 10 12  1  0  0  0  0
 12 13  1  0  0  0  0
 12 30  1  0  0  0  0
 13 19  1  0  0  0  0
 13 14  1  0  0  0  0
 13 31  1  0  0  0  0
 14 15  1  0  0  0  0
 14 32  1  0  0  0  0
 14 33  1  0  0  0  0
 15 16  1  0  0  0  0
 15 34  1  0  0  0  0
 15 35  1  0  0  0  0
 16 17  1  0  0  0  0
 16 18  1  0  0  0  0
 16 36  1  0  0  0  0
 17 37  1  0  0  0  0
 18 19  1  0  0  0  0
 18 38  1  0  0  0  0
 18 39  1  0  0  0  0
 19 40  1  0  0  0  0
 19 41  1  0  0  0  0
M  END
> <s_m_source_file>
AV-unprocessed.smi

> <i_m_source_file_index>
1670

> <i_lp_mmshare_version>
43012

> <i_f3d_flags>
0

> <s_epik_input>
bjFbY0hdW2NIXVtjSF1uMVtDSDJdW0NAQEhdKFtDSDNdKVtOSF1DKD1PKVtOSF1bQ0BASF0yW0NIMl1bQ0gyXVtDQEBIXShbT0hdKVtDSDJdW0NIMl0y

> <s_epik_cmdline>
J2VwaWtfcHl0aG9uJywgJy1waCcsICc3LjAnLCAnLXRuJywgJzgnLCAnLW1hJywgJzIwMCcsICctbWV0YWxfYmluZGluZycsICctaW1hZScsICc8aW5maWxlLm1hZT4nLCAnLW9tYWUnLCAnPG91dGZpbGUubWFlPic=

> <r_lp_tautomer_probability>
1

> <r_epik_Ionization_Penalty>
7.33369e-05

> <r_epik_Ionization_Penalty_Charging>
0

> <r_epik_Ionization_Penalty_Neutral>
7.33369e-05

> <r_epik_State_Penalty>
-0

> <r_epik_Charging_Adjusted_Penalty>
0

> <i_epik_Tot_Q>
0

> <i_epik_Tot_abs_Q>
0

> <r_epik_Metal_State_Penalty>
-0

> <b_epik_Metal_Only>
0

> <s_lp_Force_Field>
OPLS_2005

> <r_lp_Energy>
5.2693

> <b_lp_Chiralities_Consistent>
1

> <s_lp_Variant>
AV-unprocessed.smi:1670-2

> <Gold.Version>
5.8.1

> <Gold.Id.Protein>
6NUR|6NUR_protein|mol2

> <Gold.PLP.Fitness>
54.4893

> <Gold.PLP.PLP>
-47.3567

> <Gold.PLP.part.hbond>
-4.6183

> <Gold.PLP.part.metal>
0.0000

> <Gold.PLP.part.buried>
-6.9099

> <Gold.PLP.part.nonpolar>
-38.1855

> <Gold.PLP.part.repulsive>
0.1436

> <Gold.PLP.ligand.clash>
0.0000

> <Gold.PLP.ligand.torsion>
0.4729

> <Gold.PLP.Chemscore.Hbond>
2.6713

> <Gold.PLP.Chemscore.CHOScore>
0.0000

> <Gold.PLP.Chemscore.Metal>
0.0000

> <Gold.Chemscore.Hbonds>
donor molecule, donor type, donor heavy atom, donor atom, acceptor molecule, acceptor atom, score
      L1  H     9    29       P1  8028  0.85
      L1  H    12    30       P1  8028  0.86
      L1  H    17    37       P1  7948  0.94

> <Gold.PLP.Chemscore.Internal.Correction>
0.0646

> <Gold.Rescore>
     Score         DG    S(hbond)    S(metal)    S(lipo)     H(rot)  DE(clash)    DE(int)     intcor
     13.85     -19.71       2.42        0.00     101.13       2.22       0.05       5.81       ----

> <Gold.Chemscore.Fitness>
13.8462

> <Gold.Chemscore.DG>
-19.7080

> <Gold.Chemscore.ZeroCoef>
-5.4800

> <Gold.Chemscore.Hbond>
2.4207

> <Gold.Chemscore.Metal>
0.0000

> <Gold.Chemscore.Lipo>
101.1294

> <Gold.Chemscore.Internal_Hbond>
0.0000

> <Gold.Chemscore.DEClash>
0.0472

> <Gold.Chemscore.DEInternal>
5.8146

> <Gold.Chemscore.Rot>
2.2224

> <Gold.Chemscore.Internal.Correction>
   9.000000E+99

> <Gold.Chemscore.Hbonds>
donor molecule, donor type, donor heavy atom, donor atom, acceptor molecule, acceptor atom, score
      L1  H     9    29       P1  8028  0.33
      L1  H    12    30       P1  8028  0.85
      L1  H    17    37       P1  7948  0.22

> <Gold.Chemscore.Hbond.Weighted>
-8.0852

> <Gold.Chemscore.Metal.Weighted>
-0.0000

> <Gold.Chemscore.Lipo.Weighted>
-11.8321

> <Gold.Chemscore.Internal_Hbond.Weighted>
0.0000

> <Gold.Chemscore.DEClash.Weighted>
0.0472

> <Gold.Chemscore.DEInternal.Weighted>
5.8146

> <Gold.Chemscore.Rot.Weighted>
5.6893

> <Gold.Chemscore.Internal.Correction.Weighted>
   9.000000E+99

> <Gold.Protein.RotatedTorsions>
[ 6907 6896 6895 6894 ] final -145.46 input  -60.11 | X-H torsion
[ 7974 7965 7964 7962 ] final  143.53 input  175.53 | X-H torsion
[ 8008 7997 7996 7995 ] final -160.50 input   59.86 | X-H torsion
[ 10167 10162 10161 10158 ] final  -98.62 input  -65.29 | X-H torsion
[ 10718 10713 10712 10709 ] final  178.01 input   66.30 | X-H torsion
[ 10763 10752 10751 10750 ] final  -26.80 input  -60.55 | X-H torsion
[ 11005 11000 10999 10996 ] final  -86.66 input  -57.11 | X-H torsion

> <Gold.Protein.ActiveResidues>
 VAL166  LYS551  ARG553  GLY616  TRP617  ASP618  TYR619  PRO620  LYS621  CYS622 
 ASP623  PHE694  ASN695  SER759  ASP760  ASP761  ALA762  ILE779  LEU786  VAL792 
 PHE793  MET794  SER795  GLU796  ALA797  LYS798  CYS799  TRP800  GLU811  SER814 

> <Gold.Protein.RotatedAtoms>
  151.1280  133.5056  159.2599 H   0  0  0  0  0  0  0  0  0  0  0  0  # atno 6907 bound_to 6896
  151.1788  135.0351  159.8793 H   0  0  0  0  0  0  0  0  0  0  0  0  # atno 6908 bound_to 6896
  152.5458  134.1135  159.8422 H   0  0  0  0  0  0  0  0  0  0  0  0  # atno 6909 bound_to 6896
  144.8913  139.5555  143.5797 H   0  0  0  0  0  0  0  0  0  0  0  0  # atno 7974 bound_to 7965
  155.7784  140.0861  157.2072 H   0  0  0  0  0  0  0  0  0  0  0  0  # atno 8008 bound_to 7997
  154.3991  140.1512  156.3080 H   0  0  0  0  0  0  0  0  0  0  0  0  # atno 8009 bound_to 7997
  155.8678  140.3427  155.5803 H   0  0  0  0  0  0  0  0  0  0  0  0  # atno 8010 bound_to 7997
  140.2711  143.3343  152.0534 H   0  0  0  0  0  0  0  0  0  0  0  0  # atno 10167 bound_to 10162
  156.8969  130.9866  151.3041 H   0  0  0  0  0  0  0  0  0  0  0  0  # atno 10718 bound_to 10713
  153.7218  135.6944  153.5011 H   0  0  0  0  0  0  0  0  0  0  0  0  # atno 10763 bound_to 10752
  153.2198  135.4373  155.0475 H   0  0  0  0  0  0  0  0  0  0  0  0  # atno 10764 bound_to 10752
  154.8282  135.3458  154.6751 H   0  0  0  0  0  0  0  0  0  0  0  0  # atno 10765 bound_to 10752
  141.1627  133.7467  156.9194 H   0  0  0  0  0  0  0  0  0  0  0  0  # atno 11005 bound_to 11000
  146.3055  139.7566  142.9059 LP  0  0  0  0  0  0  0  0  0  0  0  0  # atno 17320 bound_to 7965
  145.3779  141.0353  143.3194 LP  0  0  0  0  0  0  0  0  0  0  0  0  # atno 17321 bound_to 7965
  139.4989  144.6656  151.6364 LP  0  0  0  0  0  0  0  0  0  0  0  0  # atno 17342 bound_to 10162
  140.5889  143.9815  150.6312 LP  0  0  0  0  0  0  0  0  0  0  0  0  # atno 17343 bound_to 10162
  157.6050  130.8540  149.8861 LP  0  0  0  0  0  0  0  0  0  0  0  0  # atno 17370 bound_to 10713
  156.0601  130.3701  150.1001 LP  0  0  0  0  0  0  0  0  0  0  0  0  # atno 17371 bound_to 10713
  140.1462  134.9260  157.2533 LP  0  0  0  0  0  0  0  0  0  0  0  0  # atno 17394 bound_to 11000
  140.2777  134.3386  155.7353 LP  0  0  0  0  0  0  0  0  0  0  0  0  # atno 17395 bound_to 11000

$$$$
