AV-unprocessed.smi:11|AV-procd|sdf|58|dock3
  -GOLD-   2262015173D 1   1.00000     0.00000
 Structure written by MMmdl.
 34 36  0  0  0  0  0  0  0  0  2 V2000
  152.2299  145.0379  158.4475 C   0  0  0  0  0  0  0  0  0  0  0  0
  151.8426  143.9057  157.4807 C   0  0  0  0  0  0  0  0  0  0  0  0
  150.7633  142.9265  158.0058 C   0  0  2  0  0  0  0  0  0  0  0  0
  149.6055  143.6665  158.3401 O   0  0  0  0  0  0  0  0  0  0  0  0
  151.2563  142.1538  159.2375 C   0  0  0  0  0  0  0  0  0  0  0  0
  151.9684  140.9453  158.6332 C   0  0  0  0  0  0  0  0  0  0  0  0
  151.2241  140.6477  157.4180 N   0  0  0  0  0  0  0  0  0  0  0  0
  151.7156  139.7353  156.4626 C   0  0  0  0  0  0  0  0  0  0  0  0
  153.0135  139.3376  156.5709 N   0  0  0  0  0  0  0  0  0  0  0  0
  153.5790  138.4780  155.7116 C   0  0  0  0  0  0  0  0  0  0  0  0
  152.9136  137.9393  154.6854 N   0  3  0  0  0  0  0  0  0  0  0  0
  151.6118  138.2963  154.5468 C   0  0  0  0  0  0  0  0  0  0  0  0
  150.7044  137.8851  153.5931 N   0  0  0  0  0  0  0  0  0  0  0  0
  149.4761  138.4806  153.8213 C   0  0  0  0  0  0  0  0  0  0  0  0
  149.5698  139.2887  154.9266 C   0  0  0  0  0  0  0  0  0  0  0  0
  150.9273  139.1962  155.4043 C   0  0  0  0  0  0  0  0  0  0  0  0
  150.4263  141.7972  157.0126 C   0  0  0  0  0  0  0  0  0  0  0  0
  150.8760  137.2426  152.8326 H   0  0  0  0  0  0  0  0  0  0  0  0
  153.0137  145.6579  158.0123 H   0  0  0  0  0  0  0  0  0  0  0  0
  152.6117  144.6470  159.3908 H   0  0  0  0  0  0  0  0  0  0  0  0
  151.3880  145.6919  158.6711 H   0  0  0  0  0  0  0  0  0  0  0  0
  151.5085  144.3502  156.5427 H   0  0  0  0  0  0  0  0  0  0  0  0
  152.7449  143.3432  157.2367 H   0  0  0  0  0  0  0  0  0  0  0  0
  149.1485  143.8867  157.5429 H   0  0  0  0  0  0  0  0  0  0  0  0
  151.8978  142.7409  159.8955 H   0  0  0  0  0  0  0  0  0  0  0  0
  150.4084  141.8047  159.8296 H   0  0  0  0  0  0  0  0  0  0  0  0
  153.0006  141.1974  158.3860 H   0  0  0  0  0  0  0  0  0  0  0  0
  151.9751  140.0966  159.3179 H   0  0  0  0  0  0  0  0  0  0  0  0
  154.6137  138.1903  155.8277 H   0  0  0  0  0  0  0  0  0  0  0  0
  148.6312  138.2783  153.1786 H   0  0  0  0  0  0  0  0  0  0  0  0
  148.7769  139.8816  155.3576 H   0  0  0  0  0  0  0  0  0  0  0  0
  149.3745  141.5175  157.0858 H   0  0  0  0  0  0  0  0  0  0  0  0
  150.6235  142.0870  155.9816 H   0  0  0  0  0  0  0  0  0  0  0  0
  153.3537  137.2859  154.0377 H   0  0  0  0  0  0  0  0  0  0  0  0
  1  2  1  0  0  0  0
  1 19  1  0  0  0  0
  1 20  1  0  0  0  0
  1 21  1  0  0  0  0
  2  3  1  0  0  0  0
  2 22  1  0  0  0  0
  2 23  1  0  0  0  0
  3 17  1  0  0  0  0
  3  4  1  0  0  0  0
  3  5  1  0  0  0  0
  4 24  1  0  0  0  0
  5  6  1  0  0  0  0
  5 25  1  0  0  0  0
  5 26  1  0  0  0  0
  6  7  1  0  0  0  0
  6 27  1  0  0  0  0
  6 28  1  0  0  0  0
  7  8  1  0  0  0  0
  7 17  1  0  0  0  0
  8 16  1  0  0  0  0
  8  9  2  0  0  0  0
  9 10  1  0  0  0  0
 10 11  2  0  0  0  0
 10 29  1  0  0  0  0
 11 12  1  0  0  0  0
 11 34  1  0  0  0  0
 12 16  2  0  0  0  0
 12 13  1  0  0  0  0
 13 18  1  0  0  0  0
 13 14  1  0  0  0  0
 14 15  2  0  0  0  0
 14 30  1  0  0  0  0
 15 16  1  0  0  0  0
 15 31  1  0  0  0  0
 17 32  1  0  0  0  0
 17 33  1  0  0  0  0
M  CHG  1  11   1
M  END
> <s_m_source_file>
AV-unprocessed.smi

> <i_m_source_file_index>
11

> <i_lp_mmshare_version>
43012

> <i_f3d_flags>
0

> <s_epik_input>
W0NIM11bQ0gyXVtDQEBdMShbT0hdKVtDSDJdW0NIMl1OKFtDSDJdMSljKG5bY0hdbjIpYyhjMjMpW2NIXVtjSF1bbkhdMw==

> <s_epik_cmdline>
J2VwaWtfcHl0aG9uJywgJy1waCcsICc3LjAnLCAnLXRuJywgJzgnLCAnLW1hJywgJzIwMCcsICctbWV0YWxfYmluZGluZycsICctaW1hZScsICc8aW5maWxlLm1hZT4nLCAnLW9tYWUnLCAnPG91dGZpbGUubWFlPic=

> <r_lp_tautomer_probability>
1.75997e-05

> <r_epik_Ionization_Penalty>
1.53257

> <r_epik_Ionization_Penalty_Charging>
1.53255

> <r_epik_Ionization_Penalty_Neutral>
1.78556e-05

> <r_epik_State_Penalty>
1.6253

> <r_epik_Charging_Adjusted_Penalty>
3.15785

> <i_epik_Tot_Q>
1

> <i_epik_Tot_abs_Q>
1

> <r_epik_Metal_State_Penalty>
1.66891

> <b_epik_Metal_Only>
0

> <s_lp_Force_Field>
OPLS_2005

> <r_lp_Energy>
33.3454

> <b_lp_Chiralities_Consistent>
1

> <s_lp_Variant>
AV-unprocessed.smi:11-4

> <Gold.Version>
5.8.1

> <Gold.Id.Protein>
6NUR|6NUR_protein|mol2

> <Gold.PLP.Fitness>
38.9046

> <Gold.PLP.PLP>
-29.1786

> <Gold.PLP.part.hbond>
-5.5033

> <Gold.PLP.part.metal>
0.0000

> <Gold.PLP.part.buried>
4.5211

> <Gold.PLP.part.nonpolar>
-30.1899

> <Gold.PLP.part.repulsive>
1.5579

> <Gold.PLP.ligand.clash>
0.0000

> <Gold.PLP.ligand.torsion>
0.4270

> <Gold.PLP.Chemscore.Hbond>
3.4456

> <Gold.PLP.Chemscore.CHOScore>
0.0000

> <Gold.PLP.Chemscore.Metal>
0.0000

> <Gold.Chemscore.Hbonds>
donor molecule, donor type, donor heavy atom, donor atom, acceptor molecule, acceptor atom, score
      L1  H     4    24       P1  8028  0.75
      L1  H    13    18       P1  7949  1.70
      P1  H  7997  8009       L1     9  0.50

> <Gold.PLP.Chemscore.Internal.Correction>
0.2432

> <Gold.Rescore>
     Score         DG    S(hbond)    S(metal)    S(lipo)     H(rot)  DE(clash)    DE(int)     intcor
     12.87     -15.50       1.44        0.00      75.93       1.44       2.03       0.61       ----

> <Gold.Chemscore.Fitness>
12.8663

> <Gold.Chemscore.DG>
-15.4980

> <Gold.Chemscore.ZeroCoef>
-5.4800

> <Gold.Chemscore.Hbond>
1.4427

> <Gold.Chemscore.Metal>
0.0000

> <Gold.Chemscore.Lipo>
75.9299

> <Gold.Chemscore.Internal_Hbond>
0.0000

> <Gold.Chemscore.DEClash>
2.0266

> <Gold.Chemscore.DEInternal>
0.6050

> <Gold.Chemscore.Rot>
1.4392

> <Gold.Chemscore.Internal.Correction>
   9.000000E+99

> <Gold.Chemscore.Hbonds>
donor molecule, donor type, donor heavy atom, donor atom, acceptor molecule, acceptor atom, score
      L1  H     4    24       P1  8028  0.10
      L1  H    13    18       P1  7949  0.15
      P1  H  7997  8009       L1     9  0.02

> <Gold.Chemscore.Hbond.Weighted>
-4.8186

> <Gold.Chemscore.Metal.Weighted>
-0.0000

> <Gold.Chemscore.Lipo.Weighted>
-8.8838

> <Gold.Chemscore.Internal_Hbond.Weighted>
0.0000

> <Gold.Chemscore.DEClash.Weighted>
2.0266

> <Gold.Chemscore.DEInternal.Weighted>
0.6050

> <Gold.Chemscore.Rot.Weighted>
3.6844

> <Gold.Chemscore.Internal.Correction.Weighted>
   9.000000E+99

> <Gold.Protein.RotatedTorsions>
[ 6907 6896 6895 6894 ] final  -33.63 input  -60.11 | X-H torsion
[ 7974 7965 7964 7962 ] final  133.20 input  175.53 | X-H torsion
[ 8008 7997 7996 7995 ] final  168.20 input   59.86 | X-H torsion
[ 10167 10162 10161 10158 ] final   29.94 input  -65.29 | X-H torsion
[ 10718 10713 10712 10709 ] final   91.35 input   66.30 | X-H torsion
[ 10763 10752 10751 10750 ] final   54.26 input  -60.55 | X-H torsion
[ 11005 11000 10999 10996 ] final  170.23 input  -57.11 | X-H torsion

> <Gold.Protein.ActiveResidues>
 VAL166  LYS551  ARG553  GLY616  TRP617  ASP618  TYR619  PRO620  LYS621  CYS622 
 ASP623  PHE694  ASN695  SER759  ASP760  ASP761  ALA762  ILE779  LEU786  VAL792 
 PHE793  MET794  SER795  GLU796  ALA797  LYS798  CYS799  TRP800  GLU811  SER814 

> <Gold.Protein.RotatedAtoms>
  151.0631  134.9750  159.8270 H   0  0  0  0  0  0  0  0  0  0  0  0  # atno 6907 bound_to 6896
  152.5398  134.2392  159.8865 H   0  0  0  0  0  0  0  0  0  0  0  0  # atno 6908 bound_to 6896
  151.2413  133.4355  159.2641 H   0  0  0  0  0  0  0  0  0  0  0  0  # atno 6909 bound_to 6896
  144.9890  139.4426  143.5349 H   0  0  0  0  0  0  0  0  0  0  0  0  # atno 7974 bound_to 7965
  156.1568  140.1597  156.8679 H   0  0  0  0  0  0  0  0  0  0  0  0  # atno 8008 bound_to 7997
  154.5122  140.0798  156.8048 H   0  0  0  0  0  0  0  0  0  0  0  0  # atno 8009 bound_to 7997
  155.3788  140.3404  155.4248 H   0  0  0  0  0  0  0  0  0  0  0  0  # atno 8010 bound_to 7997
  140.4721  144.0746  150.6240 H   0  0  0  0  0  0  0  0  0  0  0  0  # atno 10167 bound_to 10162
  157.6960  131.0404  150.3717 H   0  0  0  0  0  0  0  0  0  0  0  0  # atno 10718 bound_to 10713
  152.9803  135.5751  154.4875 H   0  0  0  0  0  0  0  0  0  0  0  0  # atno 10763 bound_to 10752
  154.4415  135.2776  155.1846 H   0  0  0  0  0  0  0  0  0  0  0  0  # atno 10764 bound_to 10752
  154.3512  135.6208  153.5697 H   0  0  0  0  0  0  0  0  0  0  0  0  # atno 10765 bound_to 10752
  140.3061  134.7555  157.3954 H   0  0  0  0  0  0  0  0  0  0  0  0  # atno 11005 bound_to 11000
  146.3427  139.9210  142.8766 LP  0  0  0  0  0  0  0  0  0  0  0  0  # atno 17320 bound_to 7965
  145.2312  140.9974  143.3989 LP  0  0  0  0  0  0  0  0  0  0  0  0  # atno 17321 bound_to 7965
  140.3964  143.2726  152.0000 LP  0  0  0  0  0  0  0  0  0  0  0  0  # atno 17342 bound_to 10162
  139.4820  144.6035  151.7564 LP  0  0  0  0  0  0  0  0  0  0  0  0  # atno 17343 bound_to 10162
  156.4141  130.3940  149.6871 LP  0  0  0  0  0  0  0  0  0  0  0  0  # atno 17370 bound_to 10713
  156.4145  130.7738  151.2753 LP  0  0  0  0  0  0  0  0  0  0  0  0  # atno 17371 bound_to 10713
  140.1066  134.5401  155.8304 LP  0  0  0  0  0  0  0  0  0  0  0  0  # atno 17394 bound_to 11000
  141.2118  133.6711  156.6610 LP  0  0  0  0  0  0  0  0  0  0  0  0  # atno 17395 bound_to 11000

$$$$
