AV-unprocessed.smi:461|AV-procd|sdf|2631|dock7
  -GOLD-   2262023 33D 1   1.00000     0.00000
 Structure written by MMmdl.
 33 34  0  0  0  0  0  0  0  0  1 V2000
  152.7606  138.4949  155.3741 C   0  0  0  0  0  0  0  0  0  0  0  0
  151.5743  139.3436  155.2523 N   0  0  0  0  0  0  0  0  0  0  0  0
  151.7210  140.5908  155.8374 N   0  0  0  0  0  0  0  0  0  0  0  0
  150.7028  141.3981  155.7720 C   0  0  0  0  0  0  0  0  0  0  0  0
  150.6480  142.6810  156.3010 N   0  0  0  0  0  0  0  0  0  0  0  0
  151.7315  143.3345  157.0206 C   0  0  0  0  0  0  0  0  0  0  0  0
  151.4001  143.5456  158.5071 C   0  0  1  0  0  0  0  0  0  0  0  0
  152.5912  143.9998  159.3436 C   0  0  0  0  0  0  0  0  0  0  0  0
  151.9109  144.6025  160.5558 C   0  0  0  0  0  0  0  0  0  0  0  0
  150.5909  145.1352  159.9913 C   0  0  0  0  0  0  0  0  0  0  0  0
  150.4851  144.6203  158.6668 O   0  0  0  0  0  0  0  0  0  0  0  0
  149.4170  140.9806  155.0760 C   0  0  0  0  0  0  0  0  0  0  0  0
  148.4555  141.7534  155.0228 O   0  0  0  0  0  0  0  0  0  0  0  0
  149.4089  139.7297  154.5375 N   0  0  0  0  0  0  0  0  0  0  0  0
  148.1701  139.3045  153.8607 C   0  0  0  0  0  0  0  0  0  0  0  0
  150.4672  138.8699  154.6082 C   0  0  0  0  0  0  0  0  0  0  0  0
  150.4394  137.7342  154.1273 O   0  0  0  0  0  0  0  0  0  0  0  0
  153.1470  138.2302  154.3888 H   0  0  0  0  0  0  0  0  0  0  0  0
  152.5221  137.5735  155.9071 H   0  0  0  0  0  0  0  0  0  0  0  0
  153.5665  138.9882  155.9203 H   0  0  0  0  0  0  0  0  0  0  0  0
  151.9415  144.2912  156.5413 H   0  0  0  0  0  0  0  0  0  0  0  0
  152.6376  142.7348  156.9216 H   0  0  0  0  0  0  0  0  0  0  0  0
  150.9727  142.6433  158.9484 H   0  0  0  0  0  0  0  0  0  0  0  0
  153.2701  143.1850  159.5962 H   0  0  0  0  0  0  0  0  0  0  0  0
  153.1585  144.7669  158.8147 H   0  0  0  0  0  0  0  0  0  0  0  0
  151.7117  143.8260  161.2956 H   0  0  0  0  0  0  0  0  0  0  0  0
  152.5114  145.3774  161.0329 H   0  0  0  0  0  0  0  0  0  0  0  0
  149.7448  144.8044  160.5945 H   0  0  0  0  0  0  0  0  0  0  0  0
  150.5773  146.2248  159.9574 H   0  0  0  0  0  0  0  0  0  0  0  0
  148.2422  138.3515  153.3355 H   0  0  0  0  0  0  0  0  0  0  0  0
  147.8652  140.0391  153.1133 H   0  0  0  0  0  0  0  0  0  0  0  0
  147.3601  139.2087  154.5853 H   0  0  0  0  0  0  0  0  0  0  0  0
  149.7901  143.2134  156.2710 H   0  0  0  0  0  0  0  0  0  0  0  0
  1 18  1  0  0  0  0
  1 19  1  0  0  0  0
  1 20  1  0  0  0  0
  1  2  1  0  0  0  0
  2 16  1  0  0  0  0
  2  3  1  0  0  0  0
  3  4  2  0  0  0  0
  4 12  1  0  0  0  0
  4  5  1  0  0  0  0
  5  6  1  0  0  0  0
  5 33  1  0  0  0  0
  6  7  1  0  0  0  0
  6 21  1  0  0  0  0
  6 22  1  0  0  0  0
  7 11  1  0  0  0  0
  7  8  1  0  0  0  0
  7 23  1  0  0  0  0
  8  9  1  0  0  0  0
  8 24  1  0  0  0  0
  8 25  1  0  0  0  0
  9 10  1  0  0  0  0
  9 26  1  0  0  0  0
  9 27  1  0  0  0  0
 10 11  1  0  0  0  0
 10 28  1  0  0  0  0
 10 29  1  0  0  0  0
 12 13  2  0  0  0  0
 12 14  1  0  0  0  0
 14 15  1  0  0  0  0
 14 16  1  0  0  0  0
 15 30  1  0  0  0  0
 15 31  1  0  0  0  0
 15 32  1  0  0  0  0
 16 17  2  0  0  0  0
M  END
> <s_m_source_file>
AV-unprocessed.smi

> <i_m_source_file_index>
461

> <i_lp_mmshare_version>
43012

> <i_f3d_flags>
0

> <s_epik_input>
Tz1jMW4oW0NIM10pYyg9TyljKG5uMVtDSDNdKVtOSF1bQ0gyXVtDQEBIXTJbQ0gyXVtDSDJdW0NIMl1PMg==

> <s_epik_cmdline>
J2VwaWtfcHl0aG9uJywgJy1waCcsICc3LjAnLCAnLXRuJywgJzgnLCAnLW1hJywgJzIwMCcsICctbWV0YWxfYmluZGluZycsICctaW1hZScsICc8aW5maWxlLm1hZT4nLCAnLW9tYWUnLCAnPG91dGZpbGUubWFlPic=

> <r_lp_tautomer_probability>
1

> <r_epik_Ionization_Penalty>
0.000103292

> <r_epik_Ionization_Penalty_Charging>
5.59445e-09

> <r_epik_Ionization_Penalty_Neutral>
0.000103287

> <r_epik_State_Penalty>
-0

> <r_epik_Charging_Adjusted_Penalty>
5.59445e-09

> <i_epik_Tot_Q>
0

> <i_epik_Tot_abs_Q>
0

> <r_epik_Metal_State_Penalty>
-0

> <b_epik_Metal_Only>
0

> <s_lp_Force_Field>
OPLS_2005

> <r_lp_Energy>
40.9993

> <b_lp_Chiralities_Consistent>
1

> <s_lp_Variant>
AV-unprocessed.smi:461-2

> <Gold.Version>
5.8.1

> <Gold.Id.Protein>
6NUR|6NUR_protein|mol2

> <Gold.PLP.Fitness>
36.7932

> <Gold.PLP.PLP>
-34.1327

> <Gold.PLP.part.hbond>
-1.8301

> <Gold.PLP.part.metal>
0.0000

> <Gold.PLP.part.buried>
-3.9861

> <Gold.PLP.part.nonpolar>
-30.1029

> <Gold.PLP.part.repulsive>
1.6497

> <Gold.PLP.ligand.clash>
0.0000

> <Gold.PLP.ligand.torsion>
0.1134

> <Gold.PLP.Chemscore.Hbond>
0.9600

> <Gold.PLP.Chemscore.CHOScore>
0.0000

> <Gold.PLP.Chemscore.Metal>
0.0000

> <Gold.Chemscore.Hbonds>
donor molecule, donor type, donor heavy atom, donor atom, acceptor molecule, acceptor atom, score
      L1  H     5    33       P1  8028  0.96

> <Gold.PLP.Chemscore.Internal.Correction>
0.0073

> <Gold.Rescore>
     Score         DG    S(hbond)    S(metal)    S(lipo)     H(rot)  DE(clash)    DE(int)     intcor
     12.46     -13.01       0.94        0.00      65.82       1.30       0.37       0.18       ----

> <Gold.Chemscore.Fitness>
12.4584

> <Gold.Chemscore.DG>
-13.0090

> <Gold.Chemscore.ZeroCoef>
-5.4800

> <Gold.Chemscore.Hbond>
0.9413

> <Gold.Chemscore.Metal>
0.0000

> <Gold.Chemscore.Lipo>
65.8233

> <Gold.Chemscore.Internal_Hbond>
0.0000

> <Gold.Chemscore.DEClash>
0.3721

> <Gold.Chemscore.DEInternal>
0.1784

> <Gold.Chemscore.Rot>
1.2954

> <Gold.Chemscore.Internal.Correction>
   9.000000E+99

> <Gold.Chemscore.Hbonds>
donor molecule, donor type, donor heavy atom, donor atom, acceptor molecule, acceptor atom, score
      L1  H     5    33       P1  8028  0.92

> <Gold.Chemscore.Hbond.Weighted>
-3.1440

> <Gold.Chemscore.Metal.Weighted>
-0.0000

> <Gold.Chemscore.Lipo.Weighted>
-7.7013

> <Gold.Chemscore.Internal_Hbond.Weighted>
0.0000

> <Gold.Chemscore.DEClash.Weighted>
0.3721

> <Gold.Chemscore.DEInternal.Weighted>
0.1784

> <Gold.Chemscore.Rot.Weighted>
3.3163

> <Gold.Chemscore.Internal.Correction.Weighted>
   9.000000E+99

> <Gold.Protein.RotatedTorsions>
[ 6907 6896 6895 6894 ] final  -35.63 input  -60.11 | X-H torsion
[ 7974 7965 7964 7962 ] final  -73.58 input  175.53 | X-H torsion
[ 8008 7997 7996 7995 ] final  -86.53 input   59.86 | X-H torsion
[ 10167 10162 10161 10158 ] final  -95.81 input  -65.29 | X-H torsion
[ 10718 10713 10712 10709 ] final  -86.33 input   66.30 | X-H torsion
[ 10763 10752 10751 10750 ] final  -79.12 input  -60.55 | X-H torsion
[ 11005 11000 10999 10996 ] final   10.00 input  -57.11 | X-H torsion

> <Gold.Protein.ActiveResidues>
 VAL166  LYS551  ARG553  GLY616  TRP617  ASP618  TYR619  PRO620  LYS621  CYS622 
 ASP623  PHE694  ASN695  SER759  ASP760  ASP761  ALA762  ILE779  LEU786  VAL792 
 PHE793  MET794  SER795  GLU796  ALA797  LYS798  CYS799  TRP800  GLU811  SER814 

> <Gold.Protein.RotatedAtoms>
  151.0374  134.9583  159.8143 H   0  0  0  0  0  0  0  0  0  0  0  0  # atno 6907 bound_to 6896
  152.5357  134.2702  159.8978 H   0  0  0  0  0  0  0  0  0  0  0  0  # atno 6908 bound_to 6896
  151.2713  133.4211  159.2655 H   0  0  0  0  0  0  0  0  0  0  0  0  # atno 6909 bound_to 6896
  145.6503  140.9284  143.0988 H   0  0  0  0  0  0  0  0  0  0  0  0  # atno 7974 bound_to 7965
  154.6529  140.0577  156.9976 H   0  0  0  0  0  0  0  0  0  0  0  0  # atno 8008 bound_to 7997
  155.1343  140.3259  155.4448 H   0  0  0  0  0  0  0  0  0  0  0  0  # atno 8009 bound_to 7997
  156.2584  140.1975  156.6461 H   0  0  0  0  0  0  0  0  0  0  0  0  # atno 8010 bound_to 7997
  140.3003  143.3166  152.0255 H   0  0  0  0  0  0  0  0  0  0  0  0  # atno 10167 bound_to 10162
  155.9990  130.4761  150.4699 H   0  0  0  0  0  0  0  0  0  0  0  0  # atno 10718 bound_to 10713
  154.5346  135.5706  153.6787 H   0  0  0  0  0  0  0  0  0  0  0  0  # atno 10763 bound_to 10752
  152.9948  135.6213  154.2583 H   0  0  0  0  0  0  0  0  0  0  0  0  # atno 10764 bound_to 10752
  154.2511  135.2859  155.2796 H   0  0  0  0  0  0  0  0  0  0  0  0  # atno 10765 bound_to 10752
  140.5194  134.0574  155.7840 H   0  0  0  0  0  0  0  0  0  0  0  0  # atno 11005 bound_to 11000
  144.7125  139.8318  143.7410 LP  0  0  0  0  0  0  0  0  0  0  0  0  # atno 17320 bound_to 7965
  146.1209  139.4227  143.0229 LP  0  0  0  0  0  0  0  0  0  0  0  0  # atno 17321 bound_to 7965
  139.4916  144.6460  151.6776 LP  0  0  0  0  0  0  0  0  0  0  0  0  # atno 17342 bound_to 10162
  140.5656  144.0195  150.6191 LP  0  0  0  0  0  0  0  0  0  0  0  0  # atno 17343 bound_to 10162
  157.2715  131.0588  151.2257 LP  0  0  0  0  0  0  0  0  0  0  0  0  # atno 17370 bound_to 10713
  157.3335  130.6997  149.6339 LP  0  0  0  0  0  0  0  0  0  0  0  0  # atno 17371 bound_to 10713
  141.1342  133.9250  157.2469 LP  0  0  0  0  0  0  0  0  0  0  0  0  # atno 17394 bound_to 11000
  139.9614  135.0153  156.9271 LP  0  0  0  0  0  0  0  0  0  0  0  0  # atno 17395 bound_to 11000

$$$$
