AV-unprocessed.smi:2973|AV-procd|sdf|11350|dock1
  -GOLD-   2272016263D 1   1.00000     0.00000
 Structure written by MMmdl.
 49 51  0  0  0  0  0  0  0  0  3 V2000
  150.6196  138.9104  157.7052 C   0  0  0  0  0  0  0  0  0  0  0  0
  150.6645  140.3532  158.2544 C   0  0  1  0  0  0  0  0  0  0  0  0
  152.1122  140.7625  158.6026 C   0  0  0  0  0  0  0  0  0  0  0  0
  152.1722  142.1524  159.2531 C   0  0  0  0  0  0  0  0  0  0  0  0
  151.5254  143.2130  158.3530 C   0  0  0  0  0  0  0  0  0  0  0  0
  150.0774  142.8335  157.9984 C   0  0  0  0  0  0  0  0  0  0  0  0
  149.9668  141.4258  157.3558 C   0  0  1  0  0  0  0  0  0  0  0  0
  150.5146  141.4467  156.0085 N   0  5  0  0  0  0  0  0  0  0  0  0
  149.5230  141.1904  155.1245 C   0  0  0  0  0  0  0  0  0  0  0  0
  149.6222  141.1512  153.8989 O   0  0  0  0  0  0  0  0  0  0  0  0
  148.3527  140.9851  155.7584 N   0  0  0  0  0  0  0  0  0  0  0  0
  147.0629  140.7315  155.0971 C   0  0  0  0  0  0  0  0  0  0  0  0
  146.8340  139.2675  154.6807 C   0  0  0  0  0  0  0  0  0  0  0  0
  147.6686  138.4180  154.9917 O   0  0  0  0  0  0  0  0  0  0  0  0
  145.7144  138.9681  154.0000 N   0  0  0  0  0  0  0  0  0  0  0  0
  145.3196  137.6351  153.5667 C   0  0  0  0  0  0  0  0  0  0  0  0
  145.8800  137.3141  152.1716 C   0  0  0  0  0  0  0  0  0  0  0  0
  145.5954  135.8857  151.7525 C   0  0  0  0  0  0  0  0  0  0  0  0
  144.2944  135.4414  151.4319 C   0  0  0  0  0  0  0  0  0  0  0  0
  144.1010  134.0986  151.0454 C   0  0  0  0  0  0  0  0  0  0  0  0
  145.2109  133.2306  150.9859 C   0  0  0  0  0  0  0  0  0  0  0  0
  146.4883  133.7278  151.3162 C   0  0  0  0  0  0  0  0  0  0  0  0
  146.6326  135.0202  151.6827 N   0  3  0  0  0  0  0  0  0  0  0  0
  148.5058  141.0997  157.0825 C   0  0  0  0  0  0  0  0  0  0  0  0
  147.6380  140.9878  157.9497 O   0  0  0  0  0  0  0  0  0  0  0  0
  151.1548  138.8241  156.7593 H   0  0  0  0  0  0  0  0  0  0  0  0
  149.5979  138.5679  157.5426 H   0  0  0  0  0  0  0  0  0  0  0  0
  151.0819  138.2146  158.4057 H   0  0  0  0  0  0  0  0  0  0  0  0
  150.1192  140.3306  159.1997 H   0  0  0  0  0  0  0  0  0  0  0  0
  152.5523  140.0307  159.2806 H   0  0  0  0  0  0  0  0  0  0  0  0
  152.7282  140.7533  157.7025 H   0  0  0  0  0  0  0  0  0  0  0  0
  151.6612  142.1284  160.2163 H   0  0  0  0  0  0  0  0  0  0  0  0
  153.2083  142.4221  159.4583 H   0  0  0  0  0  0  0  0  0  0  0  0
  151.5420  144.1825  158.8513 H   0  0  0  0  0  0  0  0  0  0  0  0
  152.1120  143.3272  157.4408 H   0  0  0  0  0  0  0  0  0  0  0  0
  149.4816  142.8650  158.9120 H   0  0  0  0  0  0  0  0  0  0  0  0
  149.6529  143.5934  157.3398 H   0  0  0  0  0  0  0  0  0  0  0  0
  146.2414  141.0365  155.7470 H   0  0  0  0  0  0  0  0  0  0  0  0
  146.9780  141.3590  154.2085 H   0  0  0  0  0  0  0  0  0  0  0  0
  145.0856  139.7271  153.7771 H   0  0  0  0  0  0  0  0  0  0  0  0
  145.7008  136.9182  154.2945 H   0  0  0  0  0  0  0  0  0  0  0  0
  144.2321  137.5450  153.5795 H   0  0  0  0  0  0  0  0  0  0  0  0
  145.4538  137.9880  151.4268 H   0  0  0  0  0  0  0  0  0  0  0  0
  146.9576  137.4833  152.1564 H   0  0  0  0  0  0  0  0  0  0  0  0
  143.4546  136.1199  151.4799 H   0  0  0  0  0  0  0  0  0  0  0  0
  143.1132  133.7389  150.7968 H   0  0  0  0  0  0  0  0  0  0  0  0
  145.0840  132.1988  150.6920 H   0  0  0  0  0  0  0  0  0  0  0  0
  147.3917  133.1356  151.2989 H   0  0  0  0  0  0  0  0  0  0  0  0
  147.5659  135.3597  151.9170 H   0  0  0  0  0  0  0  0  0  0  0  0
  1  2  1  0  0  0  0
  1 26  1  0  0  0  0
  1 27  1  0  0  0  0
  1 28  1  0  0  0  0
  2  7  1  0  0  0  0
  2  3  1  0  0  0  0
  2 29  1  0  0  0  0
  3  4  1  0  0  0  0
  3 30  1  0  0  0  0
  3 31  1  0  0  0  0
  4  5  1  0  0  0  0
  4 32  1  0  0  0  0
  4 33  1  0  0  0  0
  5  6  1  0  0  0  0
  5 34  1  0  0  0  0
  5 35  1  0  0  0  0
  6  7  1  0  0  0  0
  6 36  1  0  0  0  0
  6 37  1  0  0  0  0
  7 24  1  0  0  0  0
  7  8  1  0  0  0  0
  8  9  1  0  0  0  0
  9 10  2  0  0  0  0
  9 11  1  0  0  0  0
 11 12  1  0  0  0  0
 11 24  1  0  0  0  0
 12 13  1  0  0  0  0
 12 38  1  0  0  0  0
 12 39  1  0  0  0  0
 13 14  2  0  0  0  0
 13 15  1  0  0  0  0
 15 16  1  0  0  0  0
 15 40  1  0  0  0  0
 16 17  1  0  0  0  0
 16 41  1  0  0  0  0
 16 42  1  0  0  0  0
 17 18  1  0  0  0  0
 17 43  1  0  0  0  0
 17 44  1  0  0  0  0
 18 23  1  0  0  0  0
 18 19  2  0  0  0  0
 19 20  1  0  0  0  0
 19 45  1  0  0  0  0
 20 21  2  0  0  0  0
 20 46  1  0  0  0  0
 21 22  1  0  0  0  0
 21 47  1  0  0  0  0
 22 23  2  0  0  0  0
 22 48  1  0  0  0  0
 23 49  1  0  0  0  0
 24 25  2  0  0  0  0
M  CHG  1   8  -1
M  CHG  1  23   1
M  END
> <s_m_source_file>
AV-unprocessed.smi

> <i_m_source_file_index>
2973

> <i_lp_mmshare_version>
43012

> <i_f3d_flags>
0

> <s_epik_input>
W0NIMl0xW0NIMl1bQ0gyXVtDSDJdW0NAQEhdKFtDSDNdKVtDQF0xMltOSF1DKD1PKU4oQzI9TylbQ0gyXUMoPU8pW05IXVtDSDJdW0NIMl1jM1tjSF1bY0hdW2NIXVtjSF1uMw==

> <s_epik_cmdline>
J2VwaWtfcHl0aG9uJywgJy1waCcsICc3LjAnLCAnLXRuJywgJzgnLCAnLW1hJywgJzIwMCcsICctbWV0YWxfYmluZGluZycsICctaW1hZScsICc8aW5maWxlLm1hZT4nLCAnLW9tYWUnLCAnPG91dGZpbGUubWFlPic=

> <r_lp_tautomer_probability>
1

> <r_epik_Ionization_Penalty>
7.89073

> <r_epik_Ionization_Penalty_Charging>
7.89073

> <r_epik_Ionization_Penalty_Neutral>
1.56557e-07

> <r_epik_State_Penalty>
8.01193

> <r_epik_Charging_Adjusted_Penalty>
15.9027

> <i_epik_Tot_Q>
0

> <i_epik_Tot_abs_Q>
2

> <r_epik_Metal_State_Penalty>
3.98737

> <b_epik_Metal_Only>
1

> <s_lp_Force_Field>
OPLS_2005

> <r_lp_Energy>
20.3817

> <b_lp_Chiralities_Consistent>
1

> <s_lp_Variant>
AV-unprocessed.smi:2973-14

> <Gold.Version>
5.8.1

> <Gold.Id.Protein>
6NUR|6NUR_protein|mol2

> <Gold.PLP.Fitness>
47.2404

> <Gold.PLP.PLP>
-35.9711

> <Gold.PLP.part.hbond>
-4.3765

> <Gold.PLP.part.metal>
0.0000

> <Gold.PLP.part.buried>
-5.9105

> <Gold.PLP.part.nonpolar>
-27.9555

> <Gold.PLP.part.repulsive>
1.6186

> <Gold.PLP.ligand.clash>
0.0000

> <Gold.PLP.ligand.torsion>
0.6057

> <Gold.PLP.Chemscore.Hbond>
4.1280

> <Gold.PLP.Chemscore.CHOScore>
0.0000

> <Gold.PLP.Chemscore.Metal>
0.0000

> <Gold.Chemscore.Hbonds>
donor molecule, donor type, donor heavy atom, donor atom, acceptor molecule, acceptor atom, score
      L1  H    15    40       P1 10175  0.89
      L1  H    23    49       P1  7948  2.00
      P1  H  7989  7998       L1    10  0.33
      P1  H  8011  8017       L1    10  0.85

> <Gold.PLP.Chemscore.Internal.Correction>
0.0966

> <Gold.Rescore>
     Score         DG    S(hbond)    S(metal)    S(lipo)     H(rot)  DE(clash)    DE(int)     intcor
     19.34     -20.46       2.90        0.00      87.19       1.92       0.48       0.63       ----

> <Gold.Chemscore.Fitness>
19.3442

> <Gold.Chemscore.DG>
-20.4570

> <Gold.Chemscore.ZeroCoef>
-5.4800

> <Gold.Chemscore.Hbond>
2.8995

> <Gold.Chemscore.Metal>
0.0000

> <Gold.Chemscore.Lipo>
87.1930

> <Gold.Chemscore.Internal_Hbond>
0.0000

> <Gold.Chemscore.DEClash>
0.4810

> <Gold.Chemscore.DEInternal>
0.6319

> <Gold.Chemscore.Rot>
1.9175

> <Gold.Chemscore.Internal.Correction>
   9.000000E+99

> <Gold.Chemscore.Hbonds>
donor molecule, donor type, donor heavy atom, donor atom, acceptor molecule, acceptor atom, score
      L1  H    15    40       P1 10175  0.82
      L1  H    23    49       P1  7948  0.97
      P1  H  7989  7998       L1    10  0.19
      P1  H  8011  8017       L1    10  0.79

> <Gold.Chemscore.Hbond.Weighted>
-9.6842

> <Gold.Chemscore.Metal.Weighted>
-0.0000

> <Gold.Chemscore.Lipo.Weighted>
-10.2016

> <Gold.Chemscore.Internal_Hbond.Weighted>
0.0000

> <Gold.Chemscore.DEClash.Weighted>
0.4810

> <Gold.Chemscore.DEInternal.Weighted>
0.6319

> <Gold.Chemscore.Rot.Weighted>
4.9087

> <Gold.Chemscore.Internal.Correction.Weighted>
   9.000000E+99

> <Gold.Protein.RotatedTorsions>
[ 6907 6896 6895 6894 ] final   62.96 input  -60.11 | X-H torsion
[ 7974 7965 7964 7962 ] final -174.14 input  175.53 | X-H torsion
[ 8008 7997 7996 7995 ] final  -57.66 input   59.86 | X-H torsion
[ 10167 10162 10161 10158 ] final  -16.87 input  -65.29 | X-H torsion
[ 10718 10713 10712 10709 ] final -170.94 input   66.30 | X-H torsion
[ 10763 10752 10751 10750 ] final    0.29 input  -60.55 | X-H torsion
[ 11005 11000 10999 10996 ] final -116.64 input  -57.11 | X-H torsion

> <Gold.Protein.ActiveResidues>
 VAL166  LYS551  ARG553  GLY616  TRP617  ASP618  TYR619  PRO620  LYS621  CYS622 
 ASP623  PHE694  ASN695  SER759  ASP760  ASP761  ALA762  ILE779  LEU786  VAL792 
 PHE793  MET794  SER795  GLU796  ALA797  LYS798  CYS799  TRP800  GLU811  SER814 

> <Gold.Protein.RotatedAtoms>
  152.4215  134.5947  159.9983 H   0  0  0  0  0  0  0  0  0  0  0  0  # atno 6907 bound_to 6896
  151.6096  133.3343  159.3072 H   0  0  0  0  0  0  0  0  0  0  0  0  # atno 6908 bound_to 6896
  150.8103  134.7291  159.6747 H   0  0  0  0  0  0  0  0  0  0  0  0  # atno 6909 bound_to 6896
  144.7133  140.1517  143.6383 H   0  0  0  0  0  0  0  0  0  0  0  0  # atno 7974 bound_to 7965
  154.4277  140.1102  156.5833 H   0  0  0  0  0  0  0  0  0  0  0  0  # atno 8008 bound_to 7997
  155.6090  140.3494  155.4597 H   0  0  0  0  0  0  0  0  0  0  0  0  # atno 8009 bound_to 7997
  156.0114  140.1220  157.0439 H   0  0  0  0  0  0  0  0  0  0  0  0  # atno 8010 bound_to 7997
  140.7239  143.5073  150.9794 H   0  0  0  0  0  0  0  0  0  0  0  0  # atno 10167 bound_to 10162
  156.7336  130.9315  151.3106 H   0  0  0  0  0  0  0  0  0  0  0  0  # atno 10718 bound_to 10713
  153.3225  135.6970  153.7018 H   0  0  0  0  0  0  0  0  0  0  0  0  # atno 10763 bound_to 10752
  153.5852  135.3490  155.2890 H   0  0  0  0  0  0  0  0  0  0  0  0  # atno 10764 bound_to 10752
  154.8601  135.4304  154.2393 H   0  0  0  0  0  0  0  0  0  0  0  0  # atno 10765 bound_to 10752
  141.0408  133.9838  157.2997 H   0  0  0  0  0  0  0  0  0  0  0  0  # atno 11005 bound_to 11000
  145.9111  139.2487  143.1437 LP  0  0  0  0  0  0  0  0  0  0  0  0  # atno 17320 bound_to 7965
  145.9715  140.8756  143.0160 LP  0  0  0  0  0  0  0  0  0  0  0  0  # atno 17321 bound_to 7965
  139.8785  143.7102  152.3159 LP  0  0  0  0  0  0  0  0  0  0  0  0  # atno 17342 bound_to 10162
  139.7376  144.7567  151.0703 LP  0  0  0  0  0  0  0  0  0  0  0  0  # atno 17343 bound_to 10162
  157.6848  130.9175  150.0359 LP  0  0  0  0  0  0  0  0  0  0  0  0  # atno 17370 bound_to 10713
  156.1512  130.3642  149.9435 LP  0  0  0  0  0  0  0  0  0  0  0  0  # atno 17371 bound_to 10713
  139.9275  135.0201  156.8284 LP  0  0  0  0  0  0  0  0  0  0  0  0  # atno 17394 bound_to 11000
  140.6237  133.9970  155.7630 LP  0  0  0  0  0  0  0  0  0  0  0  0  # atno 17395 bound_to 11000

$$$$
