AV-unprocessed.smi:2702|AV-procd|sdf|10436|dock7
  -GOLD-   2272014473D 1   1.00000     0.00000
 Structure written by MMmdl.
 47 48  0  0  0  0  0  0  0  0  1 V2000
  149.2721  132.4363  153.5640 C   0  0  0  0  0  0  0  0  0  0  0  0
  149.2473  133.8419  153.7383 O   0  0  0  0  0  0  0  0  0  0  0  0
  150.1308  134.2790  154.7567 C   0  0  0  0  0  0  0  0  0  0  0  0
  150.1272  135.7916  154.8457 C   0  0  0  0  0  0  0  0  0  0  0  0
  149.0158  136.4847  155.1860 C   0  0  0  0  0  0  0  0  0  0  0  0
  149.0387  137.9457  155.2526 C   0  0  0  0  0  0  0  0  0  0  0  0
  148.0512  138.6110  155.5665 O   0  0  0  0  0  0  0  0  0  0  0  0
  150.2402  138.5168  154.9419 N   0  0  0  0  0  0  0  0  0  0  0  0
  150.4189  139.9798  154.9702 C   0  0  0  0  0  0  0  0  0  0  0  0
  151.4349  140.4355  156.0263 C   0  0  0  0  0  0  0  0  0  0  0  0
  152.5408  139.8994  156.1026 O   0  0  0  0  0  0  0  0  0  0  0  0
  151.0355  141.4221  156.8430 N   0  0  0  0  0  0  0  0  0  0  0  0
  151.8481  142.0328  157.8921 C   0  0  2  0  0  0  0  0  0  0  0  0
  151.9450  141.0786  159.0983 C   0  0  0  0  0  0  0  0  0  0  0  0
  152.8228  141.6735  160.2095 C   0  0  0  0  0  0  0  0  0  0  0  0
  152.3308  143.0664  160.6327 C   0  0  0  0  0  0  0  0  0  0  0  0
  152.2253  144.0191  159.4247 C   0  0  2  0  0  0  0  0  0  0  0  0
  151.8315  145.4426  159.8524 C   0  0  0  0  0  0  0  0  0  0  0  0
  151.3175  143.4326  158.3112 C   0  0  2  0  0  0  0  0  0  0  0  0
  149.8136  143.4314  158.6734 C   0  0  0  0  0  0  0  0  0  0  0  0
  151.3623  137.7477  154.5744 C   0  0  0  0  0  0  0  0  0  0  0  0
  151.3167  136.4542  154.5267 N   0  0  0  0  0  0  0  0  0  0  0  0
  148.5838  132.1538  152.7674 H   0  0  0  0  0  0  0  0  0  0  0  0
  148.9633  131.9207  154.4743 H   0  0  0  0  0  0  0  0  0  0  0  0
  150.2686  132.0903  153.2862 H   0  0  0  0  0  0  0  0  0  0  0  0
  149.8302  133.8618  155.7193 H   0  0  0  0  0  0  0  0  0  0  0  0
  151.1432  133.9258  154.5540 H   0  0  0  0  0  0  0  0  0  0  0  0
  148.1005  135.9599  155.4181 H   0  0  0  0  0  0  0  0  0  0  0  0
  150.7352  140.3251  153.9838 H   0  0  0  0  0  0  0  0  0  0  0  0
  149.4784  140.4993  155.1620 H   0  0  0  0  0  0  0  0  0  0  0  0
  150.1076  141.7980  156.7114 H   0  0  0  0  0  0  0  0  0  0  0  0
  152.8587  142.1555  157.4971 H   0  0  0  0  0  0  0  0  0  0  0  0
  150.9510  140.8645  159.4924 H   0  0  0  0  0  0  0  0  0  0  0  0
  152.3605  140.1207  158.7834 H   0  0  0  0  0  0  0  0  0  0  0  0
  152.8358  141.0057  161.0713 H   0  0  0  0  0  0  0  0  0  0  0  0
  153.8531  141.7434  159.8587 H   0  0  0  0  0  0  0  0  0  0  0  0
  151.3641  142.9803  161.1296 H   0  0  0  0  0  0  0  0  0  0  0  0
  153.0164  143.4803  161.3729 H   0  0  0  0  0  0  0  0  0  0  0  0
  153.2267  144.1013  158.9984 H   0  0  0  0  0  0  0  0  0  0  0  0
  150.8883  145.4555  160.3983 H   0  0  0  0  0  0  0  0  0  0  0  0
  151.7302  146.0996  158.9883 H   0  0  0  0  0  0  0  0  0  0  0  0
  152.5898  145.8749  160.5059 H   0  0  0  0  0  0  0  0  0  0  0  0
  151.4190  144.0887  157.4456 H   0  0  0  0  0  0  0  0  0  0  0  0
  149.6018  142.8155  159.5465 H   0  0  0  0  0  0  0  0  0  0  0  0
  149.2037  143.0557  157.8519 H   0  0  0  0  0  0  0  0  0  0  0  0
  149.4524  144.4372  158.8843 H   0  0  0  0  0  0  0  0  0  0  0  0
  152.2620  138.3155  154.3315 H   0  0  0  0  0  0  0  0  0  0  0  0
  1  2  1  0  0  0  0
  1 23  1  0  0  0  0
  1 24  1  0  0  0  0
  1 25  1  0  0  0  0
  2  3  1  0  0  0  0
  3  4  1  0  0  0  0
  3 26  1  0  0  0  0
  3 27  1  0  0  0  0
  4 22  1  0  0  0  0
  4  5  2  0  0  0  0
  5  6  1  0  0  0  0
  5 28  1  0  0  0  0
  6  7  2  0  0  0  0
  6  8  1  0  0  0  0
  8  9  1  0  0  0  0
  8 21  1  0  0  0  0
  9 10  1  0  0  0  0
  9 29  1  0  0  0  0
  9 30  1  0  0  0  0
 10 11  2  0  0  0  0
 10 12  1  0  0  0  0
 12 13  1  0  0  0  0
 12 31  1  0  0  0  0
 13 19  1  0  0  0  0
 13 14  1  0  0  0  0
 13 32  1  0  0  0  0
 14 15  1  0  0  0  0
 14 33  1  0  0  0  0
 14 34  1  0  0  0  0
 15 16  1  0  0  0  0
 15 35  1  0  0  0  0
 15 36  1  0  0  0  0
 16 17  1  0  0  0  0
 16 37  1  0  0  0  0
 16 38  1  0  0  0  0
 17 18  1  0  0  0  0
 17 19  1  0  0  0  0
 17 39  1  0  0  0  0
 18 40  1  0  0  0  0
 18 41  1  0  0  0  0
 18 42  1  0  0  0  0
 19 20  1  0  0  0  0
 19 43  1  0  0  0  0
 20 44  1  0  0  0  0
 20 45  1  0  0  0  0
 20 46  1  0  0  0  0
 21 22  2  0  0  0  0
 21 47  1  0  0  0  0
M  END
> <s_m_source_file>
AV-unprocessed.smi

> <i_m_source_file_index>
2702

> <i_lp_mmshare_version>
43012

> <i_f3d_flags>
0

> <s_epik_input>
W0NIM11PW0NIMl1jMVtjSF1jKD1PKW4oW2NIXW4xKVtDSDJdQyg9TylbTkhdW0NAQEhdMltDSDJdW0NIMl1bQ0gyXVtDQEBIXShbQ0gzXSlbQ0BIXTJbQ0gzXQ==

> <s_epik_cmdline>
J2VwaWtfcHl0aG9uJywgJy1waCcsICc3LjAnLCAnLXRuJywgJzgnLCAnLW1hJywgJzIwMCcsICctbWV0YWxfYmluZGluZycsICctaW1hZScsICc8aW5maWxlLm1hZT4nLCAnLW9tYWUnLCAnPG91dGZpbGUubWFlPic=

> <r_lp_tautomer_probability>
1

> <r_epik_Ionization_Penalty>
1.22164e-06

> <r_epik_Ionization_Penalty_Charging>
3.17988e-07

> <r_epik_Ionization_Penalty_Neutral>
9.03656e-07

> <r_epik_State_Penalty>
-0

> <r_epik_Charging_Adjusted_Penalty>
3.17988e-07

> <i_epik_Tot_Q>
0

> <i_epik_Tot_abs_Q>
0

> <r_epik_Metal_State_Penalty>
-0

> <b_epik_Metal_Only>
0

> <s_lp_Force_Field>
OPLS_2005

> <r_lp_Energy>
18.8167

> <b_lp_Chiralities_Consistent>
1

> <s_lp_Variant>
AV-unprocessed.smi:2702-7

> <Gold.Version>
5.8.1

> <Gold.Id.Protein>
6NUR|6NUR_protein|mol2

> <Gold.PLP.Fitness>
50.9181

> <Gold.PLP.PLP>
-45.6260

> <Gold.PLP.part.hbond>
-2.0000

> <Gold.PLP.part.metal>
0.0000

> <Gold.PLP.part.buried>
-5.6052

> <Gold.PLP.part.nonpolar>
-37.7921

> <Gold.PLP.part.repulsive>
0.4453

> <Gold.PLP.ligand.clash>
0.0000

> <Gold.PLP.ligand.torsion>
0.3787

> <Gold.PLP.Chemscore.Hbond>
2.0000

> <Gold.PLP.Chemscore.CHOScore>
0.0000

> <Gold.PLP.Chemscore.Metal>
0.0000

> <Gold.Chemscore.Hbonds>
donor molecule, donor type, donor heavy atom, donor atom, acceptor molecule, acceptor atom, score
      P1  H  7997  8010       L1    11  1.00
      P1  H 10752 10764       L1    22  1.00

> <Gold.PLP.Chemscore.Internal.Correction>
0.0494

> <Gold.Rescore>
     Score         DG    S(hbond)    S(metal)    S(lipo)     H(rot)  DE(clash)    DE(int)     intcor
     17.38     -19.01       1.92        0.00     102.97       1.93       0.09       1.53       ----

> <Gold.Chemscore.Fitness>
17.3835

> <Gold.Chemscore.DG>
-19.0102

> <Gold.Chemscore.ZeroCoef>
-5.4800

> <Gold.Chemscore.Hbond>
1.9220

> <Gold.Chemscore.Metal>
0.0000

> <Gold.Chemscore.Lipo>
102.9691

> <Gold.Chemscore.Internal_Hbond>
0.0000

> <Gold.Chemscore.DEClash>
0.0929

> <Gold.Chemscore.DEInternal>
1.5338

> <Gold.Chemscore.Rot>
1.9284

> <Gold.Chemscore.Internal.Correction>
   9.000000E+99

> <Gold.Chemscore.Hbonds>
donor molecule, donor type, donor heavy atom, donor atom, acceptor molecule, acceptor atom, score
      P1  H  7997  8010       L1    11  0.99
      P1  H 10752 10764       L1    22  0.92

> <Gold.Chemscore.Hbond.Weighted>
-6.4196

> <Gold.Chemscore.Metal.Weighted>
-0.0000

> <Gold.Chemscore.Lipo.Weighted>
-12.0474

> <Gold.Chemscore.Internal_Hbond.Weighted>
0.0000

> <Gold.Chemscore.DEClash.Weighted>
0.0929

> <Gold.Chemscore.DEInternal.Weighted>
1.5338

> <Gold.Chemscore.Rot.Weighted>
4.9368

> <Gold.Chemscore.Internal.Correction.Weighted>
   9.000000E+99

> <Gold.Protein.RotatedTorsions>
[ 6907 6896 6895 6894 ] final -146.83 input  -60.11 | X-H torsion
[ 7974 7965 7964 7962 ] final  163.07 input  175.53 | X-H torsion
[ 8008 7997 7996 7995 ] final   93.02 input   59.86 | X-H torsion
[ 10167 10162 10161 10158 ] final  164.02 input  -65.29 | X-H torsion
[ 10718 10713 10712 10709 ] final -153.58 input   66.30 | X-H torsion
[ 10763 10752 10751 10750 ] final  -67.23 input  -60.55 | X-H torsion
[ 11005 11000 10999 10996 ] final   84.02 input  -57.11 | X-H torsion

> <Gold.Protein.ActiveResidues>
 VAL166  LYS551  ARG553  GLY616  TRP617  ASP618  TYR619  PRO620  LYS621  CYS622 
 ASP623  PHE694  ASN695  SER759  ASP760  ASP761  ALA762  ILE779  LEU786  VAL792 
 PHE793  MET794  SER795  GLU796  ALA797  LYS798  CYS799  TRP800  GLU811  SER814 

> <Gold.Protein.RotatedAtoms>
  151.1472  133.4931  159.2595 H   0  0  0  0  0  0  0  0  0  0  0  0  # atno 6907 bound_to 6896
  151.1592  135.0265  159.8713 H   0  0  0  0  0  0  0  0  0  0  0  0  # atno 6908 bound_to 6896
  152.5463  134.1348  159.8507 H   0  0  0  0  0  0  0  0  0  0  0  0  # atno 6909 bound_to 6896
  144.7607  139.8129  143.6333 H   0  0  0  0  0  0  0  0  0  0  0  0  # atno 7974 bound_to 7965
  156.0420  140.3318  155.7254 H   0  0  0  0  0  0  0  0  0  0  0  0  # atno 8008 bound_to 7997
  155.5730  140.0629  157.2819 H   0  0  0  0  0  0  0  0  0  0  0  0  # atno 8009 bound_to 7997
  154.4397  140.1857  156.0887 H   0  0  0  0  0  0  0  0  0  0  0  0  # atno 8010 bound_to 7997
  139.4882  144.4278  151.9108 H   0  0  0  0  0  0  0  0  0  0  0  0  # atno 10167 bound_to 10162
  156.4877  130.8333  151.2557 H   0  0  0  0  0  0  0  0  0  0  0  0  # atno 10718 bound_to 10713
  154.3715  135.6094  153.5742 H   0  0  0  0  0  0  0  0  0  0  0  0  # atno 10763 bound_to 10752
  152.9790  135.5839  154.4517 H   0  0  0  0  0  0  0  0  0  0  0  0  # atno 10764 bound_to 10752
  154.4271  135.2847  155.1915 H   0  0  0  0  0  0  0  0  0  0  0  0  # atno 10765 bound_to 10752
  139.9013  134.8187  156.2388 H   0  0  0  0  0  0  0  0  0  0  0  0  # atno 11005 bound_to 11000
  146.1666  139.4800  142.9954 LP  0  0  0  0  0  0  0  0  0  0  0  0  # atno 17320 bound_to 7965
  145.6630  141.0236  143.1699 LP  0  0  0  0  0  0  0  0  0  0  0  0  # atno 17321 bound_to 7965
  140.3724  144.2839  150.5918 LP  0  0  0  0  0  0  0  0  0  0  0  0  # atno 17342 bound_to 10162
  140.5307  143.2244  151.8243 LP  0  0  0  0  0  0  0  0  0  0  0  0  # atno 17343 bound_to 10162
  157.7477  131.0024  150.2998 LP  0  0  0  0  0  0  0  0  0  0  0  0  # atno 17370 bound_to 10713
  156.3458  130.3823  149.7371 LP  0  0  0  0  0  0  0  0  0  0  0  0  # atno 17371 bound_to 10713
  141.0298  133.6995  156.1410 LP  0  0  0  0  0  0  0  0  0  0  0  0  # atno 17394 bound_to 11000
  140.7113  134.4458  157.5581 LP  0  0  0  0  0  0  0  0  0  0  0  0  # atno 17395 bound_to 11000

$$$$
