AV-unprocessed.smi:561|AV-procd|sdf|2940|dock10
  -GOLD-   2262023433D 1   1.00000     0.00000
 Structure written by MMmdl.
 36 37  0  0  0  0  0  0  0  0  3 V2000
  150.4510  138.9183  155.7306 C   0  0  0  0  0  0  0  0  0  0  0  0
  149.9373  140.3584  155.8643 C   0  0  2  0  0  0  0  0  0  0  0  0
  149.6189  140.9707  154.4758 C   0  0  0  0  0  0  0  0  0  0  0  0
  148.1879  141.2366  154.2396 N   0  0  0  0  0  0  0  0  0  0  0  0
  147.3852  142.1178  154.9217 C   0  0  0  0  0  0  0  0  0  0  0  0
  146.1377  142.0287  154.3611 C   0  0  0  0  0  0  0  0  0  0  0  0
  146.2306  141.1075  153.3527 N   0  3  0  0  0  0  0  0  0  0  0  0
  147.4778  140.6326  153.2747 C   0  0  0  0  0  0  0  0  0  0  0  0
  150.9572  141.1584  156.5516 N   0  5  0  0  0  0  0  0  0  0  0  0
  152.0445  140.6612  157.2173 C   0  0  0  0  0  0  0  0  0  0  0  0
  152.8281  139.8037  156.7916 O   0  0  0  0  0  0  0  0  0  0  0  0
  152.3321  141.1571  158.5960 C   0  0  0  0  0  0  0  0  0  0  0  0
  151.9683  142.3547  158.9350 N   0  0  0  0  0  0  0  0  0  0  0  0
  152.1884  142.8619  160.1989 N   0  0  0  0  0  0  0  0  0  0  0  0
  151.4909  144.1136  160.4861 C   0  0  0  0  0  0  0  0  0  0  0  0
  153.0086  142.3023  161.1221 C   0  0  0  0  0  0  0  0  0  0  0  0
  153.1828  142.7612  162.2513 O   0  0  0  0  0  0  0  0  0  0  0  0
  153.7696  141.0474  160.6869 C   0  0  0  0  0  0  0  0  0  0  0  0
  153.0135  140.2502  159.6059 C   0  0  0  0  0  0  0  0  0  0  0  0
  149.7140  138.2847  155.2370 H   0  0  0  0  0  0  0  0  0  0  0  0
  150.6559  138.4801  156.7081 H   0  0  0  0  0  0  0  0  0  0  0  0
  151.3706  138.8746  155.1457 H   0  0  0  0  0  0  0  0  0  0  0  0
  149.0063  140.3137  156.4316 H   0  0  0  0  0  0  0  0  0  0  0  0
  150.1596  141.9083  154.3364 H   0  0  0  0  0  0  0  0  0  0  0  0
  149.9570  140.2993  153.6853 H   0  0  0  0  0  0  0  0  0  0  0  0
  147.7535  142.7146  155.7437 H   0  0  0  0  0  0  0  0  0  0  0  0
  145.2152  142.5377  154.5991 H   0  0  0  0  0  0  0  0  0  0  0  0
  147.8388  139.8949  152.5804 H   0  0  0  0  0  0  0  0  0  0  0  0
  152.2066  144.9179  160.6608 H   0  0  0  0  0  0  0  0  0  0  0  0
  150.8650  144.0127  161.3740 H   0  0  0  0  0  0  0  0  0  0  0  0
  150.8445  144.4200  159.6621 H   0  0  0  0  0  0  0  0  0  0  0  0
  154.7345  141.3709  160.2949 H   0  0  0  0  0  0  0  0  0  0  0  0
  153.9772  140.4145  161.5503 H   0  0  0  0  0  0  0  0  0  0  0  0
  152.2668  139.6056  160.0710 H   0  0  0  0  0  0  0  0  0  0  0  0
  153.7278  139.5896  159.1136 H   0  0  0  0  0  0  0  0  0  0  0  0
  145.4668  140.8211  152.7536 H   0  0  0  0  0  0  0  0  0  0  0  0
  1  2  1  0  0  0  0
  1 20  1  0  0  0  0
  1 21  1  0  0  0  0
  1 22  1  0  0  0  0
  2  3  1  0  0  0  0
  2  9  1  0  0  0  0
  2 23  1  0  0  0  0
  3  4  1  0  0  0  0
  3 24  1  0  0  0  0
  3 25  1  0  0  0  0
  4  8  1  0  0  0  0
  4  5  1  0  0  0  0
  5  6  2  0  0  0  0
  5 26  1  0  0  0  0
  6  7  1  0  0  0  0
  6 27  1  0  0  0  0
  7  8  2  0  0  0  0
  7 36  1  0  0  0  0
  8 28  1  0  0  0  0
  9 10  1  0  0  0  0
 10 11  2  0  0  0  0
 10 12  1  0  0  0  0
 12 19  1  0  0  0  0
 12 13  2  0  0  0  0
 13 14  1  0  0  0  0
 14 15  1  0  0  0  0
 14 16  1  0  0  0  0
 15 29  1  0  0  0  0
 15 30  1  0  0  0  0
 15 31  1  0  0  0  0
 16 17  2  0  0  0  0
 16 18  1  0  0  0  0
 18 19  1  0  0  0  0
 18 32  1  0  0  0  0
 18 33  1  0  0  0  0
 19 34  1  0  0  0  0
 19 35  1  0  0  0  0
M  CHG  1   7   1
M  CHG  1   9  -1
M  END
> <s_m_source_file>
AV-unprocessed.smi

> <i_m_source_file_index>
561

> <i_lp_mmshare_version>
43012

> <i_f3d_flags>
0

> <s_epik_input>
W2NIXTFuW2NIXVtjSF1uMVtDSDJdW0NAQEhdKFtDSDNdKVtOSF1DKD1PKUMyPU5OKFtDSDNdKUMoPU8pW0NIMl1bQ0gyXTI=

> <s_epik_cmdline>
J2VwaWtfcHl0aG9uJywgJy1waCcsICc3LjAnLCAnLXRuJywgJzgnLCAnLW1hJywgJzIwMCcsICctbWV0YWxfYmluZGluZycsICctaW1hZScsICc8aW5maWxlLm1hZT4nLCAnLW9tYWUnLCAnPG91dGZpbGUubWFlPic=

> <r_lp_tautomer_probability>
1

> <r_epik_Ionization_Penalty>
5.37239

> <r_epik_Ionization_Penalty_Charging>
5.18263

> <r_epik_Ionization_Penalty_Neutral>
0.189756

> <r_epik_State_Penalty>
5.53772

> <r_epik_Charging_Adjusted_Penalty>
10.7204

> <i_epik_Tot_Q>
0

> <i_epik_Tot_abs_Q>
2

> <r_epik_Metal_State_Penalty>
1.80836

> <b_epik_Metal_Only>
1

> <s_epik_Chemistry_Notes>
This compound has an imine and may undergo hydrolysis.

> <s_lp_Force_Field>
OPLS_2005

> <r_lp_Energy>
20.2917

> <b_lp_Chiralities_Consistent>
1

> <s_lp_Variant>
AV-unprocessed.smi:561-5

> <Gold.Version>
5.8.1

> <Gold.Id.Protein>
6NUR|6NUR_protein|mol2

> <Gold.PLP.Fitness>
48.1999

> <Gold.PLP.PLP>
-36.8305

> <Gold.PLP.part.hbond>
-2.0000

> <Gold.PLP.part.metal>
0.0000

> <Gold.PLP.part.buried>
-1.4919

> <Gold.PLP.part.nonpolar>
-33.5880

> <Gold.PLP.part.repulsive>
0.1353

> <Gold.PLP.ligand.clash>
0.0151

> <Gold.PLP.ligand.torsion>
1.6775

> <Gold.PLP.Chemscore.Hbond>
3.0000

> <Gold.PLP.Chemscore.CHOScore>
1.9000

> <Gold.PLP.Chemscore.Metal>
0.0000

> <Gold.Chemscore.Hbonds>
donor molecule, donor type, donor heavy atom, donor atom, acceptor molecule, acceptor atom, score
      L1  H     7    36       P1 10175  2.00
      P1  H  7997  8010       L1    11  1.00
      L1  C     5    26       P1  8028  0.96
      L1  C     8    28       P1  7957  0.98

> <Gold.PLP.Chemscore.Internal.Correction>
0.0395

> <Gold.Rescore>
     Score         DG    S(hbond)    S(metal)    S(lipo)     H(rot)  DE(clash)    DE(int)     intcor
     11.80     -14.72       1.94        0.00      61.37       1.73       0.01       2.90       ----

> <Gold.Chemscore.Fitness>
11.8035

> <Gold.Chemscore.DG>
-14.7168

> <Gold.Chemscore.ZeroCoef>
-5.4800

> <Gold.Chemscore.Hbond>
1.9417

> <Gold.Chemscore.Metal>
0.0000

> <Gold.Chemscore.Lipo>
61.3692

> <Gold.Chemscore.Internal_Hbond>
0.0000

> <Gold.Chemscore.DEClash>
0.0126

> <Gold.Chemscore.DEInternal>
2.9007

> <Gold.Chemscore.Rot>
1.7299

> <Gold.Chemscore.Internal.Correction>
   9.000000E+99

> <Gold.Chemscore.Hbonds>
donor molecule, donor type, donor heavy atom, donor atom, acceptor molecule, acceptor atom, score
      L1  H     7    36       P1 10175  0.29
      P1  H  7997  8010       L1    11  0.97

> <Gold.Chemscore.Hbond.Weighted>
-6.4853

> <Gold.Chemscore.Metal.Weighted>
-0.0000

> <Gold.Chemscore.Lipo.Weighted>
-7.1802

> <Gold.Chemscore.Internal_Hbond.Weighted>
0.0000

> <Gold.Chemscore.DEClash.Weighted>
0.0126

> <Gold.Chemscore.DEInternal.Weighted>
2.9007

> <Gold.Chemscore.Rot.Weighted>
4.4286

> <Gold.Chemscore.Internal.Correction.Weighted>
   9.000000E+99

> <Gold.Protein.RotatedTorsions>
[ 6907 6896 6895 6894 ] final -162.89 input  -60.11 | X-H torsion
[ 7974 7965 7964 7962 ] final    2.79 input  175.53 | X-H torsion
[ 8008 7997 7996 7995 ] final   74.53 input   59.86 | X-H torsion
[ 10167 10162 10161 10158 ] final  -80.44 input  -65.29 | X-H torsion
[ 10718 10713 10712 10709 ] final  -53.72 input   66.30 | X-H torsion
[ 10763 10752 10751 10750 ] final  171.38 input  -60.55 | X-H torsion
[ 11005 11000 10999 10996 ] final   65.29 input  -57.11 | X-H torsion

> <Gold.Protein.ActiveResidues>
 VAL166  LYS551  ARG553  GLY616  TRP617  ASP618  TYR619  PRO620  LYS621  CYS622 
 ASP623  PHE694  ASN695  SER759  ASP760  ASP761  ALA762  ILE779  LEU786  VAL792 
 PHE793  MET794  SER795  GLU796  ALA797  LYS798  CYS799  TRP800  GLU811  SER814 

> <Gold.Protein.RotatedAtoms>
  151.3874  133.3800  159.2716 H   0  0  0  0  0  0  0  0  0  0  0  0  # atno 6907 bound_to 6896
  150.9531  134.8929  159.7695 H   0  0  0  0  0  0  0  0  0  0  0  0  # atno 6908 bound_to 6896
  152.5120  134.3830  159.9410 H   0  0  0  0  0  0  0  0  0  0  0  0  # atno 6909 bound_to 6896
  146.2444  140.0783  142.8358 H   0  0  0  0  0  0  0  0  0  0  0  0  # atno 7974 bound_to 7965
  155.7997  140.3476  155.5396 H   0  0  0  0  0  0  0  0  0  0  0  0  # atno 8008 bound_to 7997
  155.8550  140.0962  157.1670 H   0  0  0  0  0  0  0  0  0  0  0  0  # atno 8009 bound_to 7997
  154.4009  140.1369  156.3879 H   0  0  0  0  0  0  0  0  0  0  0  0  # atno 8010 bound_to 7997
  140.4503  143.2485  151.8498 H   0  0  0  0  0  0  0  0  0  0  0  0  # atno 10167 bound_to 10162
  156.1511  130.4151  149.9943 H   0  0  0  0  0  0  0  0  0  0  0  0  # atno 10718 bound_to 10713
  154.4110  135.2756  155.2037 H   0  0  0  0  0  0  0  0  0  0  0  0  # atno 10763 bound_to 10752
  154.4022  135.6042  153.5907 H   0  0  0  0  0  0  0  0  0  0  0  0  # atno 10764 bound_to 10752
  152.9831  135.5929  154.4392 H   0  0  0  0  0  0  0  0  0  0  0  0  # atno 10765 bound_to 10752
  139.9904  134.6600  156.0101 H   0  0  0  0  0  0  0  0  0  0  0  0  # atno 11005 bound_to 11000
  145.0755  140.9185  143.4856 LP  0  0  0  0  0  0  0  0  0  0  0  0  # atno 17320 bound_to 7965
  145.0925  139.2880  143.5727 LP  0  0  0  0  0  0  0  0  0  0  0  0  # atno 17321 bound_to 7965
  139.4796  144.5127  151.8910 LP  0  0  0  0  0  0  0  0  0  0  0  0  # atno 17342 bound_to 10162
  140.4215  144.2237  150.5887 LP  0  0  0  0  0  0  0  0  0  0  0  0  # atno 17343 bound_to 10162
  156.7800  130.9218  151.3646 LP  0  0  0  0  0  0  0  0  0  0  0  0  # atno 17370 bound_to 10713
  157.6658  130.9006  149.9928 LP  0  0  0  0  0  0  0  0  0  0  0  0  # atno 17371 bound_to 10713
  141.1561  133.6543  156.4166 LP  0  0  0  0  0  0  0  0  0  0  0  0  # atno 17394 bound_to 11000
  140.4919  134.6567  157.5214 LP  0  0  0  0  0  0  0  0  0  0  0  0  # atno 17395 bound_to 11000

$$$$
