#       Name:                AV-unprocessed.smi:1356
#       Creating user name   scv26
#       Creation time:       Fri Mar 27 05:13:36 2020


#       File generated by GOLD software.
#

@<TRIPOS>MOLECULE
AV-unprocessed.smi:1356
    46    47     1
SMALL
NO_CHARGES


@<TRIPOS>ATOM
      1 ****        -2.4853   6.6318  -0.6325 C.3            1 S1                 0.0000
      2 ****        -2.3938   5.5702   0.4420 C.3            1 S1                 0.0000
      3 ****        -3.5642   5.2849   1.3513 C.3            1 S1                 0.0000
      4 ****        -3.1614   4.2691   0.3015 C.3            1 S1                 0.0000
      5 ****        -2.4944   3.0168   0.7690 C.2            1 S1                 0.0000
      6 ****        -1.7389   2.9793   1.7416 O.2            1 S1                 0.0000
      7 ****        -2.7869   1.9363   0.0296 N.am           1 S1                 0.0000
      8 ****        -2.2579   0.5962   0.2559 C.3            1 S1                 0.0000
      9 ****        -0.8264   0.4541  -0.2967 C.3            1 S1                 0.0000
     10 ****        -0.2400  -0.9421  -0.0719 C.2            1 S1                 0.0000
     11 ****        -0.9469  -1.9432  -0.1915 O.2            1 S1                 0.0000
     12 ****         1.0630  -0.9962   0.2439 N.am           1 S1                 0.0000
     13 ****         1.8164  -2.2214   0.4838 C.3            1 S1                 0.0000
     14 ****         2.2498  -2.8843  -0.8340 C.3            1 S1                 0.0000
     15 ****         3.0491  -4.1522  -0.6024 C.ar           1 S1                 0.0000
     16 ****         2.4345  -5.4187  -0.7011 C.ar           1 S1                 0.0000
     17 ****         3.2192  -6.5649  -0.4697 C.ar           1 S1                 0.0000
     18 ****         4.5805  -6.4012  -0.1489 C.ar           1 S1                 0.0000
     19 ****         5.0986  -5.0930  -0.0732 C.ar           1 S1                 0.0000
     20 ****         4.3550  -3.9872  -0.2928 N.ar           1 S1                 0.0000
     21 ****        -3.4849   6.6580  -1.0675 H              1 S1                 0.0000
     22 ****        -1.7665   6.4239  -1.4251 H              1 S1                 0.0000
     23 ****        -2.2638   7.6120  -0.2099 H              1 S1                 0.0000
     24 ****        -1.4103   5.5165   0.9063 H              1 S1                 0.0000
     25 ****        -3.3438   5.0709   2.3958 H              1 S1                 0.0000
     26 ****        -4.4933   5.8252   1.1812 H              1 S1                 0.0000
     27 ****        -3.8180   4.1749  -0.5625 H              1 S1                 0.0000
     28 ****        -3.4193   2.0521  -0.7492 H              1 S1                 0.0000
     29 ****        -2.2862   0.3596   1.3212 H              1 S1                 0.0000
     30 ****        -2.9268  -0.1101  -0.2371 H              1 S1                 0.0000
     31 ****        -0.8185   0.6592  -1.3677 H              1 S1                 0.0000
     32 ****        -0.1746   1.1960   0.1675 H              1 S1                 0.0000
     33 ****         1.5697  -0.1260   0.3208 H              1 S1                 0.0000
     34 ****         2.6934  -1.9676   1.0799 H              1 S1                 0.0000
     35 ****         1.2241  -2.9147   1.0834 H              1 S1                 0.0000
     36 ****         1.3760  -3.1225  -1.4422 H              1 S1                 0.0000
     37 ****         2.8514  -2.1895  -1.4219 H              1 S1                 0.0000
     38 ****         1.3865  -5.5112  -0.9464 H              1 S1                 0.0000
     39 ****         2.7845  -7.5513  -0.5366 H              1 S1                 0.0000
     40 ****         5.2123  -7.2575   0.0352 H              1 S1                 0.0000
     41 ****         6.1380  -4.9305   0.1706 H              1 S1                 0.0000
     42 ****        -1.5476   3.8136   2.2586 LP             1 S1                 0.0000
     43 ****        -1.3170   2.1145   2.0140 LP             1 S1                 0.0000
     44 ****        -1.9115  -1.8477  -0.4371 LP             1 S1                 0.0000
     45 ****        -0.5563  -2.8518  -0.0430 LP             1 S1                 0.0000
     46 ****         4.7579  -3.0743  -0.2284 LP             1 S1                 0.0000
@<TRIPOS>BOND
    1    1    2 1     
    2    1   21 1     
    3    1   22 1     
    4    1   23 1     
    5    2    4 1     
    6    2    3 1     
    7    2   24 1     
    8    3    4 1     
    9    3   25 1     
   10    3   26 1     
   11    4    5 1     
   12    4   27 1     
   13    5    6 2     
   14    5    7 am    
   15    7    8 1     
   16    7   28 1     
   17    8    9 1     
   18    8   29 1     
   19    8   30 1     
   20    9   10 1     
   21    9   31 1     
   22    9   32 1     
   23   10   11 2     
   24   10   12 am    
   25   12   13 1     
   26   12   33 1     
   27   13   14 1     
   28   13   34 1     
   29   13   35 1     
   30   14   15 1     
   31   14   36 1     
   32   14   37 1     
   33   15   20 ar    
   34   15   16 ar    
   35   16   17 ar    
   36   16   38 1     
   37   17   18 ar    
   38   17   39 1     
   39   18   19 ar    
   40   18   40 1     
   41   19   20 ar    
   42   19   41 1     
   43    6   42 1     
   44    6   43 1     
   45   11   44 1     
   46   11   45 1     
   47   20   46 1     
@<TRIPOS>SUBSTRUCTURE
      1 S1             1
@<TRIPOS>SET
LONE_PAIRS      STATIC     ATOMS    <user>   **** ""
5 42 43 44 45 46
DONOR_HYDROGENS      STATIC     ATOMS    <user>   **** ""
2 28 33
ATOM$BLUE        STATIC     ATOMS    COLORGROUP SYSTEM
5 42 43 44 45 46
ATOM$RED        STATIC     ATOMS    COLORGROUP SYSTEM
2 28 33
