#       Name:                AV-unprocessed.smi:2531
#       Creating user name   scv26
#       Creation time:       Fri Mar 27 14:01:05 2020


#       File generated by GOLD software.
#

@<TRIPOS>MOLECULE
AV-unprocessed.smi:2531
    49    51     1
SMALL
NO_CHARGES


@<TRIPOS>ATOM
      1 ****        -3.8267   2.6350  -0.9915 O.2            1 S1                 0.0000
      2 ****        -2.6460   2.8753  -0.7349 C.2            1 S1                 0.0000
      3 ****        -1.7368   3.5533  -1.7805 C.3            1 S1                 0.0000
      4 ****        -2.4127   4.7690  -2.4567 C.3            1 S1                 0.0000
      5 ****        -2.6244   4.4048  -3.9340 C.3            1 S1                 0.0000
      6 ****        -2.4191   2.8937  -4.0244 C.3            1 S1                 0.0000
      7 ****        -1.3940   2.5925  -2.9327 C.3            1 S1                 0.0000
      8 ****        -2.0628   2.4634   0.4672 N.am           1 S1                 0.0000
      9 ****        -2.6218   1.3555   1.2285 C.3            1 S1                 0.0000
     10 ****        -1.1897   1.1110   1.7177 C.3            1 S1                 0.0000
     11 ****        -0.7050  -0.6723   1.6653 S.o2           1 S1                 0.0000
     12 ****        -1.6432  -1.3672   2.5618 O.2            1 S1                 0.0000
     13 ****        -0.7177  -1.0783   0.2503 O.2            1 S1                 0.0000
     14 ****         0.7959  -0.5887   2.2770 N.pl3          1 S1                -1.0000
     15 ****         1.5437  -1.8060   2.5473 C.3            1 S1                 0.0000
     16 ****         2.0860  -2.4275   1.2403 C.3            1 S1                 0.0000
     17 ****         2.9240  -3.6806   1.4553 C.ar           1 S1                 0.0000
     18 ****         4.3358  -3.6388   1.5131 C.ar           1 S1                 0.0000
     19 ****         5.0560  -4.8363   1.7049 C.ar           1 S1                 0.0000
     20 ****         4.3532  -6.0525   1.8307 C.ar           1 S1                 0.0000
     21 ****         2.9455  -6.0409   1.7606 C.ar           1 S1                 0.0000
     22 ****         2.2912  -4.8734   1.5762 N.pl3          1 S1                 1.0000
     23 ****        -0.7041   1.9426   0.5226 C.3            1 S1                 0.0000
     24 ****        -0.8194   3.8853  -1.2933 H              1 S1                 0.0000
     25 ****        -3.3658   5.0243  -1.9909 H              1 S1                 0.0000
     26 ****        -1.7846   5.6566  -2.3733 H              1 S1                 0.0000
     27 ****        -3.6044   4.7105  -4.3022 H              1 S1                 0.0000
     28 ****        -1.8737   4.9098  -4.5435 H              1 S1                 0.0000
     29 ****        -3.3554   2.3787  -3.8052 H              1 S1                 0.0000
     30 ****        -2.0867   2.5738  -5.0123 H              1 S1                 0.0000
     31 ****        -0.3900   2.8084  -3.2999 H              1 S1                 0.0000
     32 ****        -1.4101   1.5406  -2.6426 H              1 S1                 0.0000
     33 ****        -3.3211   1.6600   2.0075 H              1 S1                 0.0000
     34 ****        -3.0137   0.5506   0.6030 H              1 S1                 0.0000
     35 ****        -0.9858   1.5593   2.6913 H              1 S1                 0.0000
     36 ****         2.3890  -1.5989   3.2043 H              1 S1                 0.0000
     37 ****         0.9404  -2.5455   3.0750 H              1 S1                 0.0000
     38 ****         1.2640  -2.6905   0.5748 H              1 S1                 0.0000
     39 ****         2.6879  -1.6936   0.7025 H              1 S1                 0.0000
     40 ****         4.8601  -2.6992   1.4145 H              1 S1                 0.0000
     41 ****         6.1349  -4.8216   1.7539 H              1 S1                 0.0000
     42 ****         4.8866  -6.9803   1.9781 H              1 S1                 0.0000
     43 ****         2.3270  -6.9224   1.8455 H              1 S1                 0.0000
     44 ****        -0.4266   1.3564  -0.3543 H              1 S1                 0.0000
     45 ****         0.0466   2.6917   0.7756 H              1 S1                 0.0000
     46 ****         1.2718  -4.8876   1.5287 H              1 S1                 0.0000
     47 ****        -4.2041   2.8798  -1.8846 LP             1 S1                 0.0000
     48 ****        -4.4077   2.1951  -0.3067 LP             1 S1                 0.0000
     49 ****         1.2075   0.3023   2.4685 LP             1 S1                 0.0000
@<TRIPOS>BOND
    1    1    2 2     
    2    2    3 1     
    3    2    8 am    
    4    3    7 1     
    5    3    4 1     
    6    3   24 1     
    7    4    5 1     
    8    4   25 1     
    9    4   26 1     
   10    5    6 1     
   11    5   27 1     
   12    5   28 1     
   13    6    7 1     
   14    6   29 1     
   15    6   30 1     
   16    7   31 1     
   17    7   32 1     
   18    8   23 1     
   19    8    9 1     
   20    9   10 1     
   21    9   33 1     
   22    9   34 1     
   23   10   11 1     
   24   10   23 1     
   25   10   35 1     
   26   11   12 2     
   27   11   13 2     
   28   11   14 1     
   29   14   15 1     
   30   15   16 1     
   31   15   36 1     
   32   15   37 1     
   33   16   17 1     
   34   16   38 1     
   35   16   39 1     
   36   17   22 ar    
   37   17   18 ar    
   38   18   19 ar    
   39   18   40 1     
   40   19   20 ar    
   41   19   41 1     
   42   20   21 ar    
   43   20   42 1     
   44   21   22 ar    
   45   21   43 1     
   46   22   46 1     
   47   23   44 1     
   48   23   45 1     
   49    1   47 1     
   50    1   48 1     
   51   14   49 1     
@<TRIPOS>SUBSTRUCTURE
      1 S1             1
@<TRIPOS>SET
LONE_PAIRS      STATIC     ATOMS    <user>   **** ""
5 47 48 12 13 49
DONOR_HYDROGENS      STATIC     ATOMS    <user>   **** ""
1 46
ATOM$BLUE        STATIC     ATOMS    COLORGROUP SYSTEM
5 47 48 12 13 49
ATOM$RED        STATIC     ATOMS    COLORGROUP SYSTEM
1 46
