AV-unprocessed.smi:1049|AV-procd|sdf|4610|dock1
  -GOLD-   22720 3103D 1   1.00000     0.00000
 Structure written by MMmdl.
 41 42  0  0  0  0  0  0  0  0  2 V2000
  145.3625  138.4263  154.7128 C   0  0  0  0  0  0  0  0  0  0  0  0
  146.2244  139.6695  154.9721 C   0  0  2  0  0  0  0  0  0  0  0  0
  145.3544  140.9304  155.1701 C   0  0  0  0  0  0  0  0  0  0  0  0
  146.2054  142.2082  155.2980 C   0  0  0  0  0  0  0  0  0  0  0  0
  147.2262  142.3050  154.1503 C   0  0  0  0  0  0  0  0  0  0  0  0
  148.0527  141.0857  154.1528 N   0  0  0  0  0  0  0  0  0  0  0  0
  149.3255  140.9832  154.6125 C   0  0  0  0  0  0  0  0  0  0  0  0
  150.0725  140.0447  154.3332 O   0  0  0  0  0  0  0  0  0  0  0  0
  149.7205  141.9958  155.4022 N   0  0  0  0  0  0  0  0  0  0  0  0
  151.0190  142.0998  156.0609 C   0  0  0  0  0  0  0  0  0  0  0  0
  150.9450  141.9073  157.5910 C   0  0  0  0  0  0  0  0  0  0  0  0
  151.1833  143.1534  158.3936 C   0  0  0  0  0  0  0  0  0  0  0  0
  150.6943  144.3630  158.0937 N   0  3  0  0  0  0  0  0  0  0  0  0
  151.1058  145.2879  159.0128 C   0  0  0  0  0  0  0  0  0  0  0  0
  151.8799  144.6126  159.9192 C   0  0  0  0  0  0  0  0  0  0  0  0
  151.9122  143.3021  159.5142 N   0  0  0  0  0  0  0  0  0  0  0  0
  152.6110  142.2079  160.1965 C   0  0  0  0  0  0  0  0  0  0  0  0
  153.5931  141.7352  159.4293 F   0  0  0  0  0  0  0  0  0  0  0  0
  153.0921  142.6154  161.3698 F   0  0  0  0  0  0  0  0  0  0  0  0
  147.2461  139.8996  153.8378 C   0  0  0  0  0  0  0  0  0  0  0  0
  144.7813  138.5310  153.7960 H   0  0  0  0  0  0  0  0  0  0  0  0
  144.6641  138.2544  155.5323 H   0  0  0  0  0  0  0  0  0  0  0  0
  145.9809  137.5336  154.6136 H   0  0  0  0  0  0  0  0  0  0  0  0
  146.7811  139.4964  155.8946 H   0  0  0  0  0  0  0  0  0  0  0  0
  144.6817  141.0401  154.3181 H   0  0  0  0  0  0  0  0  0  0  0  0
  144.7191  140.8172  156.0492 H   0  0  0  0  0  0  0  0  0  0  0  0
  145.5595  143.0867  155.3022 H   0  0  0  0  0  0  0  0  0  0  0  0
  146.7297  142.2052  156.2539 H   0  0  0  0  0  0  0  0  0  0  0  0
  146.7042  142.3816  153.1953 H   0  0  0  0  0  0  0  0  0  0  0  0
  147.7970  143.2292  154.2388 H   0  0  0  0  0  0  0  0  0  0  0  0
  149.0631  142.7437  155.5709 H   0  0  0  0  0  0  0  0  0  0  0  0
  151.7226  141.3907  155.6227 H   0  0  0  0  0  0  0  0  0  0  0  0
  151.4086  143.0916  155.8344 H   0  0  0  0  0  0  0  0  0  0  0  0
  149.9572  141.5442  157.8772 H   0  0  0  0  0  0  0  0  0  0  0  0
  151.6596  141.1537  157.9200 H   0  0  0  0  0  0  0  0  0  0  0  0
  150.8223  146.3288  158.9551 H   0  0  0  0  0  0  0  0  0  0  0  0
  152.3962  144.9596  160.8025 H   0  0  0  0  0  0  0  0  0  0  0  0
  151.9118  141.3931  160.3872 H   0  0  0  0  0  0  0  0  0  0  0  0
  147.8584  139.0081  153.6932 H   0  0  0  0  0  0  0  0  0  0  0  0
  146.7300  140.0552  152.8891 H   0  0  0  0  0  0  0  0  0  0  0  0
  150.1038  144.5613  157.2955 H   0  0  0  0  0  0  0  0  0  0  0  0
  1  2  1  0  0  0  0
  1 21  1  0  0  0  0
  1 22  1  0  0  0  0
  1 23  1  0  0  0  0
  2 20  1  0  0  0  0
  2  3  1  0  0  0  0
  2 24  1  0  0  0  0
  3  4  1  0  0  0  0
  3 25  1  0  0  0  0
  3 26  1  0  0  0  0
  4  5  1  0  0  0  0
  4 27  1  0  0  0  0
  4 28  1  0  0  0  0
  5  6  1  0  0  0  0
  5 29  1  0  0  0  0
  5 30  1  0  0  0  0
  6  7  1  0  0  0  0
  6 20  1  0  0  0  0
  7  8  2  0  0  0  0
  7  9  1  0  0  0  0
  9 10  1  0  0  0  0
  9 31  1  0  0  0  0
 10 11  1  0  0  0  0
 10 32  1  0  0  0  0
 10 33  1  0  0  0  0
 11 12  1  0  0  0  0
 11 34  1  0  0  0  0
 11 35  1  0  0  0  0
 12 16  1  0  0  0  0
 12 13  2  0  0  0  0
 13 14  1  0  0  0  0
 13 41  1  0  0  0  0
 14 15  2  0  0  0  0
 14 36  1  0  0  0  0
 15 16  1  0  0  0  0
 15 37  1  0  0  0  0
 16 17  1  0  0  0  0
 17 18  1  0  0  0  0
 17 19  1  0  0  0  0
 17 38  1  0  0  0  0
 20 39  1  0  0  0  0
 20 40  1  0  0  0  0
M  CHG  1  13   1
M  END
> <s_m_source_file>
AV-unprocessed.smi

> <i_m_source_file_index>
1049

> <i_lp_mmshare_version>
43012

> <i_f3d_flags>
0

> <s_epik_input>
W0NIM11bQ0BASF0xW0NIMl1bQ0gyXVtDSDJdTihbQ0gyXTEpQyg9TylbTkhdW0NIMl1bQ0gyXWMybltjSF1bY0hdbjJbQ0hdKEYpRg==

> <s_epik_cmdline>
J2VwaWtfcHl0aG9uJywgJy1waCcsICc3LjAnLCAnLXRuJywgJzgnLCAnLW1hJywgJzIwMCcsICctbWV0YWxfYmluZGluZycsICctaW1hZScsICc8aW5maWxlLm1hZT4nLCAnLW9tYWUnLCAnPG91dGZpbGUubWFlPic=

> <r_lp_tautomer_probability>
1

> <r_epik_Ionization_Penalty>
1.09766

> <r_epik_Ionization_Penalty_Charging>
0

> <r_epik_Ionization_Penalty_Neutral>
1.09766

> <r_epik_State_Penalty>
1.15444

> <r_epik_Charging_Adjusted_Penalty>
1.15444

> <i_epik_Tot_Q>
1

> <i_epik_Tot_abs_Q>
1

> <r_epik_Metal_State_Penalty>
1.24204

> <b_epik_Metal_Only>
0

> <s_lp_Force_Field>
OPLS_2005

> <r_lp_Energy>
36.2432

> <b_lp_Chiralities_Consistent>
1

> <s_lp_Variant>
AV-unprocessed.smi:1049-3

> <Gold.Version>
5.8.1

> <Gold.Id.Protein>
6NUR|6NUR_protein|mol2

> <Gold.PLP.Fitness>
55.8464

> <Gold.PLP.PLP>
-45.7743

> <Gold.PLP.part.hbond>
-2.9889

> <Gold.PLP.part.metal>
0.0000

> <Gold.PLP.part.buried>
-5.8054

> <Gold.PLP.part.nonpolar>
-36.6863

> <Gold.PLP.part.repulsive>
0.3631

> <Gold.PLP.ligand.clash>
0.0008

> <Gold.PLP.ligand.torsion>
0.9750

> <Gold.PLP.Chemscore.Hbond>
3.9600

> <Gold.PLP.Chemscore.CHOScore>
0.0000

> <Gold.PLP.Chemscore.Metal>
0.0000

> <Gold.Chemscore.Hbonds>
donor molecule, donor type, donor heavy atom, donor atom, acceptor molecule, acceptor atom, score
      L1  H     9    31       P1  8028  0.88
      L1  H    13    41       P1  8028  2.00
      P1  H  7989  7998       L1     8  1.00

> <Gold.PLP.Chemscore.Internal.Correction>
0.1429

> <Gold.Rescore>
     Score         DG    S(hbond)    S(metal)    S(lipo)     H(rot)  DE(clash)    DE(int)     intcor
     14.52     -15.58       1.73        0.00      72.17       1.61       0.12       0.95       ----

> <Gold.Chemscore.Fitness>
14.5163

> <Gold.Chemscore.DG>
-15.5828

> <Gold.Chemscore.ZeroCoef>
-5.4800

> <Gold.Chemscore.Hbond>
1.7270

> <Gold.Chemscore.Metal>
0.0000

> <Gold.Chemscore.Lipo>
72.1702

> <Gold.Chemscore.Internal_Hbond>
0.0000

> <Gold.Chemscore.DEClash>
0.1195

> <Gold.Chemscore.DEInternal>
0.9470

> <Gold.Chemscore.Rot>
1.6051

> <Gold.Chemscore.Internal.Correction>
   9.000000E+99

> <Gold.Chemscore.Hbonds>
donor molecule, donor type, donor heavy atom, donor atom, acceptor molecule, acceptor atom, score
      L1  H     9    31       P1  8028  0.84
      L1  H    13    41       P1  8028  0.33
      P1  H  7989  7998       L1     8  0.48

> <Gold.Chemscore.Hbond.Weighted>
-5.7680

> <Gold.Chemscore.Metal.Weighted>
-0.0000

> <Gold.Chemscore.Lipo.Weighted>
-8.4439

> <Gold.Chemscore.Internal_Hbond.Weighted>
0.0000

> <Gold.Chemscore.DEClash.Weighted>
0.1195

> <Gold.Chemscore.DEInternal.Weighted>
0.9470

> <Gold.Chemscore.Rot.Weighted>
4.1092

> <Gold.Chemscore.Internal.Correction.Weighted>
   9.000000E+99

> <Gold.Protein.RotatedTorsions>
[ 6907 6896 6895 6894 ] final -173.46 input  -60.11 | X-H torsion
[ 7974 7965 7964 7962 ] final  142.42 input  175.53 | X-H torsion
[ 8008 7997 7996 7995 ] final   68.98 input   59.86 | X-H torsion
[ 10167 10162 10161 10158 ] final -159.19 input  -65.29 | X-H torsion
[ 10718 10713 10712 10709 ] final   24.62 input   66.30 | X-H torsion
[ 10763 10752 10751 10750 ] final  120.87 input  -60.55 | X-H torsion
[ 11005 11000 10999 10996 ] final   54.05 input  -57.11 | X-H torsion

> <Gold.Protein.ActiveResidues>
 VAL166  LYS551  ARG553  GLY616  TRP617  ASP618  TYR619  PRO620  LYS621  CYS622 
 ASP623  PHE694  ASN695  SER759  ASP760  ASP761  ALA762  ILE779  LEU786  VAL792 
 PHE793  MET794  SER795  GLU796  ALA797  LYS798  CYS799  TRP800  GLU811  SER814 

> <Gold.Protein.RotatedAtoms>
  151.5565  133.3409  159.2962 H   0  0  0  0  0  0  0  0  0  0  0  0  # atno 6907 bound_to 6896
  150.8448  134.7755  159.6972 H   0  0  0  0  0  0  0  0  0  0  0  0  # atno 6908 bound_to 6896
  152.4508  134.5406  159.9889 H   0  0  0  0  0  0  0  0  0  0  0  0  # atno 6909 bound_to 6896
  144.9009  139.5424  143.5754 H   0  0  0  0  0  0  0  0  0  0  0  0  # atno 7974 bound_to 7965
  155.7167  140.3494  155.4997 H   0  0  0  0  0  0  0  0  0  0  0  0  # atno 8008 bound_to 7997
  155.9307  140.1083  157.1156 H   0  0  0  0  0  0  0  0  0  0  0  0  # atno 8009 bound_to 7997
  154.4085  140.1231  156.4786 H   0  0  0  0  0  0  0  0  0  0  0  0  # atno 8010 bound_to 7997
  139.6634  143.9872  152.2240 H   0  0  0  0  0  0  0  0  0  0  0  0  # atno 10167 bound_to 10162
  157.1822  130.6808  149.6117 H   0  0  0  0  0  0  0  0  0  0  0  0  # atno 10718 bound_to 10713
  153.6052  135.3440  155.2959 H   0  0  0  0  0  0  0  0  0  0  0  0  # atno 10763 bound_to 10752
  154.8629  135.4237  154.2369 H   0  0  0  0  0  0  0  0  0  0  0  0  # atno 10764 bound_to 10752
  153.3207  135.7038  153.7105 H   0  0  0  0  0  0  0  0  0  0  0  0  # atno 10765 bound_to 10752
  140.0718  134.5459  155.9039 H   0  0  0  0  0  0  0  0  0  0  0  0  # atno 11005 bound_to 11000
  146.3108  139.7739  142.9021 LP  0  0  0  0  0  0  0  0  0  0  0  0  # atno 17320 bound_to 7965
  145.3618  141.0327  143.3280 LP  0  0  0  0  0  0  0  0  0  0  0  0  # atno 17321 bound_to 7965
  139.9617  144.6553  150.8073 LP  0  0  0  0  0  0  0  0  0  0  0  0  # atno 17342 bound_to 10162
  140.7589  143.3118  151.2827 LP  0  0  0  0  0  0  0  0  0  0  0  0  # atno 17343 bound_to 10162
  155.9723  130.4643  150.6211 LP  0  0  0  0  0  0  0  0  0  0  0  0  # atno 17370 bound_to 10713
  157.3941  131.0800  151.1367 LP  0  0  0  0  0  0  0  0  0  0  0  0  # atno 17371 bound_to 10713
  141.2014  133.6618  156.5951 LP  0  0  0  0  0  0  0  0  0  0  0  0  # atno 17394 bound_to 11000
  140.3616  134.7682  157.4538 LP  0  0  0  0  0  0  0  0  0  0  0  0  # atno 17395 bound_to 11000

$$$$
