AV-unprocessed.smi:200|AV-procd|sdf|1579|dock1
  -GOLD-   2262019463D 1   1.00000     0.00000
 Structure written by MMmdl.
 56 59  0  0  0  0  0  0  0  0  1 V2000
  147.9844  141.5176  154.1132 C   0  0  0  0  0  0  0  0  0  0  0  0
  149.3996  141.4575  154.1204 O   0  0  0  0  0  0  0  0  0  0  0  0
  149.8957  140.4260  154.9572 C   0  0  0  0  0  0  0  0  0  0  0  0
  149.4308  140.6855  156.4010 C   0  0  0  0  0  0  0  0  0  0  0  0
  150.4759  140.4552  157.4053 N   0  0  0  0  0  0  0  0  0  0  0  0
  150.4911  139.2367  157.9951 C   0  0  0  0  0  0  0  0  0  0  0  0
  151.7048  138.7050  158.2836 N   0  0  0  0  0  0  0  0  0  0  0  0
  151.7885  137.5033  158.8614 C   0  0  0  0  0  0  0  0  0  0  0  0
  150.8016  136.6863  159.2352 N   0  0  0  0  0  0  0  0  0  0  0  0
  149.5791  137.2250  158.9622 C   0  0  0  0  0  0  0  0  0  0  0  0
  149.3335  138.4848  158.3458 C   0  0  0  0  0  0  0  0  0  0  0  0
  147.9648  138.6966  158.2333 N   0  0  0  0  0  0  0  0  0  0  0  0
  147.4323  137.6223  158.7470 C   0  0  0  0  0  0  0  0  0  0  0  0
  148.3287  136.6898  159.2187 N   0  0  0  0  0  0  0  0  0  0  0  0
  148.0036  135.4146  159.8397 C   0  0  0  0  0  0  0  0  0  0  0  0
  146.9969  135.5133  161.0054 C   0  0  0  0  0  0  0  0  0  0  0  0
  147.5946  136.2994  162.1864 C   0  0  0  0  0  0  0  0  0  0  0  0
  147.2683  137.6727  162.1122 O   0  0  0  0  0  0  0  0  0  0  0  0
  145.5695  135.9234  160.6175 C   0  0  0  0  0  0  0  0  0  0  0  0
  144.9949  134.8093  161.3326 O   0  0  0  0  0  0  0  0  0  0  0  0
  146.3024  134.2035  161.4066 C   0  0  0  0  0  0  0  0  0  0  0  0
  150.8597  141.5233  158.3346 C   0  0  1  0  0  0  0  0  0  0  0  0
  152.1739  141.2939  159.0854 C   0  0  0  0  0  0  0  0  0  0  0  0
  152.4806  142.6794  159.6493 C   0  0  0  0  0  0  0  0  0  0  0  0
  152.0650  143.6557  158.5368 C   0  0  2  0  0  0  0  0  0  0  0  0
  151.6081  145.0221  159.0652 C   0  0  0  0  0  0  0  0  0  0  0  0
  150.9937  142.9215  157.7066 C   0  0  0  0  0  0  0  0  0  0  0  0
  147.6558  142.3286  153.4635 H   0  0  0  0  0  0  0  0  0  0  0  0
  147.5921  141.7065  155.1133 H   0  0  0  0  0  0  0  0  0  0  0  0
  147.5535  140.5890  153.7367 H   0  0  0  0  0  0  0  0  0  0  0  0
  149.4970  139.4685  154.6194 H   0  0  0  0  0  0  0  0  0  0  0  0
  150.9823  140.3573  154.8893 H   0  0  0  0  0  0  0  0  0  0  0  0
  149.0730  141.7112  156.4656 H   0  0  0  0  0  0  0  0  0  0  0  0
  148.5682  140.0580  156.6195 H   0  0  0  0  0  0  0  0  0  0  0  0
  152.7895  137.1453  159.0521 H   0  0  0  0  0  0  0  0  0  0  0  0
  146.3624  137.4833  158.8055 H   0  0  0  0  0  0  0  0  0  0  0  0
  147.6205  134.7489  159.0654 H   0  0  0  0  0  0  0  0  0  0  0  0
  148.9367  134.9610  160.1757 H   0  0  0  0  0  0  0  0  0  0  0  0
  147.2102  135.9175  163.1329 H   0  0  0  0  0  0  0  0  0  0  0  0
  148.6779  136.1896  162.2380 H   0  0  0  0  0  0  0  0  0  0  0  0
  147.0735  137.9820  162.9838 H   0  0  0  0  0  0  0  0  0  0  0  0
  145.2564  136.8876  161.0196 H   0  0  0  0  0  0  0  0  0  0  0  0
  145.3673  135.8645  159.5467 H   0  0  0  0  0  0  0  0  0  0  0  0
  146.4082  133.3979  160.6788 H   0  0  0  0  0  0  0  0  0  0  0  0
  146.5514  133.8561  162.4098 H   0  0  0  0  0  0  0  0  0  0  0  0
  150.0880  141.5949  159.1040 H   0  0  0  0  0  0  0  0  0  0  0  0
  152.0847  140.5345  159.8625 H   0  0  0  0  0  0  0  0  0  0  0  0
  152.9801  140.9970  158.4159 H   0  0  0  0  0  0  0  0  0  0  0  0
  151.8775  142.8454  160.5434 H   0  0  0  0  0  0  0  0  0  0  0  0
  153.5274  142.7922  159.9333 H   0  0  0  0  0  0  0  0  0  0  0  0
  152.9313  143.8123  157.8923 H   0  0  0  0  0  0  0  0  0  0  0  0
  150.7357  144.9256  159.7120 H   0  0  0  0  0  0  0  0  0  0  0  0
  151.3429  145.6894  158.2447 H   0  0  0  0  0  0  0  0  0  0  0  0
  152.3996  145.5027  159.6409 H   0  0  0  0  0  0  0  0  0  0  0  0
  151.3219  142.8703  156.6685 H   0  0  0  0  0  0  0  0  0  0  0  0
  150.0329  143.4377  157.7100 H   0  0  0  0  0  0  0  0  0  0  0  0
  1  2  1  0  0  0  0
  1 28  1  0  0  0  0
  1 29  1  0  0  0  0
  1 30  1  0  0  0  0
  2  3  1  0  0  0  0
  3  4  1  0  0  0  0
  3 31  1  0  0  0  0
  3 32  1  0  0  0  0
  4  5  1  0  0  0  0
  4 33  1  0  0  0  0
  4 34  1  0  0  0  0
  5  6  1  0  0  0  0
  5 22  1  0  0  0  0
  6 11  1  0  0  0  0
  6  7  2  0  0  0  0
  7  8  1  0  0  0  0
  8  9  2  0  0  0  0
  8 35  1  0  0  0  0
  9 10  1  0  0  0  0
 10 14  1  0  0  0  0
 10 11  2  0  0  0  0
 11 12  1  0  0  0  0
 12 13  2  0  0  0  0
 13 14  1  0  0  0  0
 13 36  1  0  0  0  0
 14 15  1  0  0  0  0
 15 16  1  0  0  0  0
 15 37  1  0  0  0  0
 15 38  1  0  0  0  0
 16 21  1  0  0  0  0
 16 17  1  0  0  0  0
 16 19  1  0  0  0  0
 17 18  1  0  0  0  0
 17 39  1  0  0  0  0
 17 40  1  0  0  0  0
 18 41  1  0  0  0  0
 19 20  1  0  0  0  0
 19 42  1  0  0  0  0
 19 43  1  0  0  0  0
 20 21  1  0  0  0  0
 21 44  1  0  0  0  0
 21 45  1  0  0  0  0
 22 27  1  0  0  0  0
 22 23  1  0  0  0  0
 22 46  1  0  0  0  0
 23 24  1  0  0  0  0
 23 47  1  0  0  0  0
 23 48  1  0  0  0  0
 24 25  1  0  0  0  0
 24 49  1  0  0  0  0
 24 50  1  0  0  0  0
 25 26  1  0  0  0  0
 25 27  1  0  0  0  0
 25 51  1  0  0  0  0
 26 52  1  0  0  0  0
 26 53  1  0  0  0  0
 26 54  1  0  0  0  0
 27 55  1  0  0  0  0
 27 56  1  0  0  0  0
M  END
> <s_m_source_file>
AV-unprocessed.smi

> <i_m_source_file_index>
200

> <i_lp_mmshare_version>
43012

> <i_f3d_flags>
0

> <s_epik_input>
W0NIM11bQ0BASF0oW0NIMl0xKVtDSDJdW0NIMl1bQ0BIXTFOKFtDSDJdW0NIMl1PW0NIM10pYyhuW2NIXW4yKWMoYzIzKW5bY0hdbjNbQ0gyXUM0KFtDSDJdW09IXSlbQ0gyXU9bQ0gyXTQ=

> <s_epik_cmdline>
J2VwaWtfcHl0aG9uJywgJy1waCcsICc3LjAnLCAnLXRuJywgJzgnLCAnLW1hJywgJzIwMCcsICctbWV0YWxfYmluZGluZycsICctaW1hZScsICc8aW5maWxlLm1hZT4nLCAnLW9tYWUnLCAnPG91dGZpbGUubWFlPic=

> <r_lp_tautomer_probability>
1

> <r_epik_Ionization_Penalty>
0.00363087

> <r_epik_Ionization_Penalty_Charging>
0

> <r_epik_Ionization_Penalty_Neutral>
0.00363087

> <r_epik_State_Penalty>
0.0024341

> <r_epik_Charging_Adjusted_Penalty>
0.0024341

> <i_epik_Tot_Q>
0

> <i_epik_Tot_abs_Q>
0

> <r_epik_Metal_State_Penalty>
-0

> <b_epik_Metal_Only>
0

> <s_lp_Force_Field>
OPLS_2005

> <r_lp_Energy>
49.9898

> <b_lp_Chiralities_Consistent>
1

> <s_lp_Variant>
AV-unprocessed.smi:200-4

> <Gold.Version>
5.8.1

> <Gold.Id.Protein>
6NUR|6NUR_protein|mol2

> <Gold.PLP.Fitness>
53.6044

> <Gold.PLP.PLP>
-48.7395

> <Gold.PLP.part.hbond>
-5.4964

> <Gold.PLP.part.metal>
0.0000

> <Gold.PLP.part.buried>
-4.1518

> <Gold.PLP.part.nonpolar>
-38.9713

> <Gold.PLP.part.repulsive>
0.1845

> <Gold.PLP.ligand.clash>
0.0000

> <Gold.PLP.ligand.torsion>
2.3273

> <Gold.PLP.Chemscore.Hbond>
2.7158

> <Gold.PLP.Chemscore.CHOScore>
0.0000

> <Gold.PLP.Chemscore.Metal>
0.0000

> <Gold.Chemscore.Hbonds>
donor molecule, donor type, donor heavy atom, donor atom, acceptor molecule, acceptor atom, score
      P1  H  6896  6908       L1     9  1.00
      P1  H  6931  6943       L1    18  0.49
      P1  H  6934  6947       L1    18  0.56
      P1  H  8011  8017       L1     2  0.62

> <Gold.PLP.Chemscore.Internal.Correction>
1.3720

> <Gold.Rescore>
     Score         DG    S(hbond)    S(metal)    S(lipo)     H(rot)  DE(clash)    DE(int)     intcor
     11.59     -15.64       1.72        0.00     109.30       3.28       0.33       3.71       ----

> <Gold.Chemscore.Fitness>
11.5904

> <Gold.Chemscore.DG>
-15.6381

> <Gold.Chemscore.ZeroCoef>
-5.4800

> <Gold.Chemscore.Hbond>
1.7235

> <Gold.Chemscore.Metal>
0.0000

> <Gold.Chemscore.Lipo>
109.3041

> <Gold.Chemscore.Internal_Hbond>
0.0000

> <Gold.Chemscore.DEClash>
0.3350

> <Gold.Chemscore.DEInternal>
3.7127

> <Gold.Chemscore.Rot>
3.2761

> <Gold.Chemscore.Internal.Correction>
   9.000000E+99

> <Gold.Chemscore.Hbonds>
donor molecule, donor type, donor heavy atom, donor atom, acceptor molecule, acceptor atom, score
      P1  H  6896  6908       L1     9  0.95
      P1  H  6931  6943       L1    18  0.02
      P1  H  6934  6947       L1    18  0.39
      P1  H  8011  8017       L1     2  0.15

> <Gold.Chemscore.Hbond.Weighted>
-5.7563

> <Gold.Chemscore.Metal.Weighted>
-0.0000

> <Gold.Chemscore.Lipo.Weighted>
-12.7886

> <Gold.Chemscore.Internal_Hbond.Weighted>
0.0000

> <Gold.Chemscore.DEClash.Weighted>
0.3350

> <Gold.Chemscore.DEInternal.Weighted>
3.7127

> <Gold.Chemscore.Rot.Weighted>
8.3868

> <Gold.Chemscore.Internal.Correction.Weighted>
   9.000000E+99

> <Gold.Protein.RotatedTorsions>
[ 6907 6896 6895 6894 ] final -139.60 input  -60.11 | X-H torsion
[ 7974 7965 7964 7962 ] final -114.51 input  175.53 | X-H torsion
[ 8008 7997 7996 7995 ] final  128.38 input   59.86 | X-H torsion
[ 10167 10162 10161 10158 ] final  148.71 input  -65.29 | X-H torsion
[ 10718 10713 10712 10709 ] final  -95.30 input   66.30 | X-H torsion
[ 10763 10752 10751 10750 ] final  108.54 input  -60.55 | X-H torsion
[ 11005 11000 10999 10996 ] final  142.95 input  -57.11 | X-H torsion

> <Gold.Protein.ActiveResidues>
 VAL166  LYS551  ARG553  GLY616  TRP617  ASP618  TYR619  PRO620  LYS621  CYS622 
 ASP623  PHE694  ASN695  SER759  ASP760  ASP761  ALA762  ILE779  LEU786  VAL792 
 PHE793  MET794  SER795  GLU796  ALA797  LYS798  CYS799  TRP800  GLU811  SER814 

> <Gold.Protein.RotatedAtoms>
  151.0499  133.5633  159.2643 H   0  0  0  0  0  0  0  0  0  0  0  0  # atno 6907 bound_to 6896
  151.2648  135.0665  159.9122 H   0  0  0  0  0  0  0  0  0  0  0  0  # atno 6908 bound_to 6896
  152.5380  134.0239  159.8048 H   0  0  0  0  0  0  0  0  0  0  0  0  # atno 6909 bound_to 6896
  145.1193  140.8659  143.3823 H   0  0  0  0  0  0  0  0  0  0  0  0  # atno 7974 bound_to 7965
  156.2913  140.2646  156.2426 H   0  0  0  0  0  0  0  0  0  0  0  0  # atno 8008 bound_to 7997
  154.9962  140.0388  157.2359 H   0  0  0  0  0  0  0  0  0  0  0  0  # atno 8009 bound_to 7997
  154.7642  140.2766  155.6195 H   0  0  0  0  0  0  0  0  0  0  0  0  # atno 8010 bound_to 7997
  139.4871  144.5658  151.7147 H   0  0  0  0  0  0  0  0  0  0  0  0  # atno 10167 bound_to 10162
  156.0041  130.5103  150.6055 H   0  0  0  0  0  0  0  0  0  0  0  0  # atno 10718 bound_to 10713
  153.4221  135.3808  155.2118 H   0  0  0  0  0  0  0  0  0  0  0  0  # atno 10763 bound_to 10752
  154.8745  135.3820  154.4371 H   0  0  0  0  0  0  0  0  0  0  0  0  # atno 10764 bound_to 10752
  153.4892  135.7088  153.5956 H   0  0  0  0  0  0  0  0  0  0  0  0  # atno 10765 bound_to 10752
  140.0516  134.9252  157.1027 H   0  0  0  0  0  0  0  0  0  0  0  0  # atno 11005 bound_to 11000
  145.0759  139.2996  143.5808 LP  0  0  0  0  0  0  0  0  0  0  0  0  # atno 17320 bound_to 7965
  146.3522  140.0249  142.8655 LP  0  0  0  0  0  0  0  0  0  0  0  0  # atno 17321 bound_to 7965
  140.5236  144.0840  150.6030 LP  0  0  0  0  0  0  0  0  0  0  0  0  # atno 17342 bound_to 10162
  140.3806  143.2804  152.0174 LP  0  0  0  0  0  0  0  0  0  0  0  0  # atno 17343 bound_to 10162
  157.3897  131.0793  151.1405 LP  0  0  0  0  0  0  0  0  0  0  0  0  # atno 17370 bound_to 10713
  157.2101  130.6434  149.5771 LP  0  0  0  0  0  0  0  0  0  0  0  0  # atno 17371 bound_to 10713
  140.3909  134.2186  155.7166 LP  0  0  0  0  0  0  0  0  0  0  0  0  # atno 17394 bound_to 11000
  141.1933  133.8154  157.0805 LP  0  0  0  0  0  0  0  0  0  0  0  0  # atno 17395 bound_to 11000

$$$$
