AV-unprocessed.smi:1824|AV-procd|sdf|7394|dock6
  -GOLD-   22720 9 63D 1   1.00000     0.00000
 Structure written by MMmdl.
 44 46  0  0  0  0  0  0  0  0  1 V2000
  147.4273  138.4147  151.3010 C   0  0  0  0  0  0  0  0  0  0  0  0
  147.4557  138.4308  152.8330 C   0  0  1  0  0  0  0  0  0  0  0  0
  147.6933  139.8448  153.3963 C   0  0  0  0  0  0  0  0  0  0  0  0
  147.6448  139.8700  154.8540 N   0  0  0  0  0  0  0  0  0  0  0  0
  147.8835  141.2210  155.3623 C   0  0  0  0  0  0  0  0  0  0  0  0
  148.8958  141.3188  156.5233 C   0  0  2  0  0  0  0  0  0  0  0  0
  148.5427  142.4090  157.3536 O   0  0  0  0  0  0  0  0  0  0  0  0
  150.3345  141.5371  156.0146 C   0  0  0  0  0  0  0  0  0  0  0  0
  151.3343  141.0385  156.9426 N   0  0  0  0  0  0  0  0  0  0  0  0
  152.1352  139.9680  156.7783 C   0  0  0  0  0  0  0  0  0  0  0  0
  152.9861  139.6873  157.7615 N   0  0  0  0  0  0  0  0  0  0  0  0
  152.7041  140.6924  158.6707 C   0  0  0  0  0  0  0  0  0  0  0  0
  153.2646  140.9662  159.9388 C   0  0  0  0  0  0  0  0  0  0  0  0
  152.8112  142.0645  160.6990 C   0  0  0  0  0  0  0  0  0  0  0  0
  153.3590  142.3121  161.9124 F   0  0  0  0  0  0  0  0  0  0  0  0
  151.7920  142.9045  160.2030 C   0  0  0  0  0  0  0  0  0  0  0  0
  151.3633  143.9574  160.9386 F   0  0  0  0  0  0  0  0  0  0  0  0
  151.2178  142.6511  158.9424 C   0  0  0  0  0  0  0  0  0  0  0  0
  151.6737  141.5546  158.1880 C   0  0  0  0  0  0  0  0  0  0  0  0
  146.3658  139.3190  155.2938 C   0  0  0  0  0  0  0  0  0  0  0  0
  146.1211  137.9053  154.7315 C   0  0  1  0  0  0  0  0  0  0  0  0
  144.7436  137.3589  155.1197 C   0  0  0  0  0  0  0  0  0  0  0  0
  146.2034  137.9469  153.3098 O   0  0  0  0  0  0  0  0  0  0  0  0
  148.3715  138.7702  150.8877 H   0  0  0  0  0  0  0  0  0  0  0  0
  146.6311  139.0512  150.9144 H   0  0  0  0  0  0  0  0  0  0  0  0
  147.2592  137.4052  150.9250 H   0  0  0  0  0  0  0  0  0  0  0  0
  148.2472  137.7623  153.1760 H   0  0  0  0  0  0  0  0  0  0  0  0
  148.6626  140.2091  153.0539 H   0  0  0  0  0  0  0  0  0  0  0  0
  146.9438  140.5271  152.9914 H   0  0  0  0  0  0  0  0  0  0  0  0
  148.2795  141.8132  154.5363 H   0  0  0  0  0  0  0  0  0  0  0  0
  146.9417  141.7015  155.6335 H   0  0  0  0  0  0  0  0  0  0  0  0
  148.8690  140.4031  157.1159 H   0  0  0  0  0  0  0  0  0  0  0  0
  148.5477  143.1960  156.8307 H   0  0  0  0  0  0  0  0  0  0  0  0
  150.4783  141.0287  155.0605 H   0  0  0  0  0  0  0  0  0  0  0  0
  150.5201  142.5972  155.8348 H   0  0  0  0  0  0  0  0  0  0  0  0
  152.0931  139.3621  155.8849 H   0  0  0  0  0  0  0  0  0  0  0  0
  154.0454  140.3302  160.3282 H   0  0  0  0  0  0  0  0  0  0  0  0
  150.4379  143.2924  158.5598 H   0  0  0  0  0  0  0  0  0  0  0  0
  146.3340  139.2694  156.3820 H   0  0  0  0  0  0  0  0  0  0  0  0
  145.5541  139.9798  154.9855 H   0  0  0  0  0  0  0  0  0  0  0  0
  146.8866  137.2252  155.1091 H   0  0  0  0  0  0  0  0  0  0  0  0
  144.6372  137.2973  156.2031 H   0  0  0  0  0  0  0  0  0  0  0  0
  144.5931  136.3583  154.7140 H   0  0  0  0  0  0  0  0  0  0  0  0
  143.9448  137.9962  154.7398 H   0  0  0  0  0  0  0  0  0  0  0  0
  1  2  1  0  0  0  0
  1 24  1  0  0  0  0
  1 25  1  0  0  0  0
  1 26  1  0  0  0  0
  2 23  1  0  0  0  0
  2  3  1  0  0  0  0
  2 27  1  0  0  0  0
  3  4  1  0  0  0  0
  3 28  1  0  0  0  0
  3 29  1  0  0  0  0
  4  5  1  0  0  0  0
  4 20  1  0  0  0  0
  5  6  1  0  0  0  0
  5 30  1  0  0  0  0
  5 31  1  0  0  0  0
  6  7  1  0  0  0  0
  6  8  1  0  0  0  0
  6 32  1  0  0  0  0
  7 33  1  0  0  0  0
  8  9  1  0  0  0  0
  8 34  1  0  0  0  0
  8 35  1  0  0  0  0
  9 19  1  0  0  0  0
  9 10  1  0  0  0  0
 10 11  2  0  0  0  0
 10 36  1  0  0  0  0
 11 12  1  0  0  0  0
 12 19  2  0  0  0  0
 12 13  1  0  0  0  0
 13 14  2  0  0  0  0
 13 37  1  0  0  0  0
 14 15  1  0  0  0  0
 14 16  1  0  0  0  0
 16 17  1  0  0  0  0
 16 18  2  0  0  0  0
 18 19  1  0  0  0  0
 18 38  1  0  0  0  0
 20 21  1  0  0  0  0
 20 39  1  0  0  0  0
 20 40  1  0  0  0  0
 21 22  1  0  0  0  0
 21 23  1  0  0  0  0
 21 41  1  0  0  0  0
 22 42  1  0  0  0  0
 22 43  1  0  0  0  0
 22 44  1  0  0  0  0
M  END
> <s_m_source_file>
AV-unprocessed.smi

> <i_m_source_file_index>
1824

> <i_lp_mmshare_version>
43012

> <i_f3d_flags>
0

> <s_epik_input>
W0NIM11bQ0BASF0xW0NIMl1OKFtDSDJdW0NASF0oTzEpW0NIM10pW0NIMl1bQ0BIXShbT0hdKVtDSDJdbihbY0hdbjIpYyhjMjMpW2NIXWMoRiljKEYpW2NIXTM=

> <s_epik_cmdline>
J2VwaWtfcHl0aG9uJywgJy1waCcsICc3LjAnLCAnLXRuJywgJzgnLCAnLW1hJywgJzIwMCcsICctbWV0YWxfYmluZGluZycsICctaW1hZScsICc8aW5maWxlLm1hZT4nLCAnLW9tYWUnLCAnPG91dGZpbGUubWFlPic=

> <r_epik_Ionization_Penalty>
0.273778

> <r_epik_Ionization_Penalty_Charging>
0

> <r_epik_Ionization_Penalty_Neutral>
0.273778

> <r_epik_State_Penalty>
0.246794

> <r_epik_Charging_Adjusted_Penalty>
0.246794

> <i_epik_Tot_Q>
0

> <i_epik_Tot_abs_Q>
0

> <r_epik_Metal_State_Penalty>
0.238234

> <b_epik_Metal_Only>
0

> <s_lp_Force_Field>
OPLS_2005

> <r_lp_Energy>
27.3836

> <b_lp_Chiralities_Consistent>
1

> <s_lp_Variant>
AV-unprocessed.smi:1824-2

> <Gold.Version>
5.8.1

> <Gold.Id.Protein>
6NUR|6NUR_protein|mol2

> <Gold.PLP.Fitness>
44.5873

> <Gold.PLP.PLP>
-41.3862

> <Gold.PLP.part.hbond>
-2.1806

> <Gold.PLP.part.metal>
0.0000

> <Gold.PLP.part.buried>
-1.2732

> <Gold.PLP.part.nonpolar>
-38.3337

> <Gold.PLP.part.repulsive>
1.2641

> <Gold.PLP.ligand.clash>
0.0000

> <Gold.PLP.ligand.torsion>
1.4301

> <Gold.PLP.Chemscore.Hbond>
2.0000

> <Gold.PLP.Chemscore.CHOScore>
0.0000

> <Gold.PLP.Chemscore.Metal>
0.0000

> <Gold.Chemscore.Hbonds>
donor molecule, donor type, donor heavy atom, donor atom, acceptor molecule, acceptor atom, score
      L1  H     7    33       P1  8028  1.00
      P1  H  7997  8008       L1    11  0.65

> <Gold.PLP.Chemscore.Internal.Correction>
0.0612

> <Gold.Rescore>
     Score         DG    S(hbond)    S(metal)    S(lipo)     H(rot)  DE(clash)    DE(int)     intcor
     11.80     -14.16       0.94        0.00      96.99       2.26       0.12       2.24       ----

> <Gold.Chemscore.Fitness>
11.7973

> <Gold.Chemscore.DG>
-14.1646

> <Gold.Chemscore.ZeroCoef>
-5.4800

> <Gold.Chemscore.Hbond>
0.9362

> <Gold.Chemscore.Metal>
0.0000

> <Gold.Chemscore.Lipo>
96.9919

> <Gold.Chemscore.Internal_Hbond>
0.0000

> <Gold.Chemscore.DEClash>
0.1234

> <Gold.Chemscore.DEInternal>
2.2439

> <Gold.Chemscore.Rot>
2.2619

> <Gold.Chemscore.Internal.Correction>
   9.000000E+99

> <Gold.Chemscore.Hbonds>
donor molecule, donor type, donor heavy atom, donor atom, acceptor molecule, acceptor atom, score
      L1  H     7    33       P1  8028  0.55
      P1  H  7997  8008       L1    11  0.05

> <Gold.Chemscore.Hbond.Weighted>
-3.1270

> <Gold.Chemscore.Metal.Weighted>
-0.0000

> <Gold.Chemscore.Lipo.Weighted>
-11.3480

> <Gold.Chemscore.Internal_Hbond.Weighted>
0.0000

> <Gold.Chemscore.DEClash.Weighted>
0.1234

> <Gold.Chemscore.DEInternal.Weighted>
2.2439

> <Gold.Chemscore.Rot.Weighted>
5.7904

> <Gold.Chemscore.Internal.Correction.Weighted>
   9.000000E+99

> <Gold.Protein.RotatedTorsions>
[ 6907 6896 6895 6894 ] final  171.43 input  -60.11 | X-H torsion
[ 7974 7965 7964 7962 ] final   47.50 input  175.53 | X-H torsion
[ 8008 7997 7996 7995 ] final  -66.17 input   59.86 | X-H torsion
[ 10167 10162 10161 10158 ] final  104.92 input  -65.29 | X-H torsion
[ 10718 10713 10712 10709 ] final  118.62 input   66.30 | X-H torsion
[ 10763 10752 10751 10750 ] final  114.28 input  -60.55 | X-H torsion
[ 11005 11000 10999 10996 ] final -119.16 input  -57.11 | X-H torsion

> <Gold.Protein.ActiveResidues>
 VAL166  LYS551  ARG553  GLY616  TRP617  ASP618  TYR619  PRO620  LYS621  CYS622 
 ASP623  PHE694  ASN695  SER759  ASP760  ASP761  ALA762  ILE779  LEU786  VAL792 
 PHE793  MET794  SER795  GLU796  ALA797  LYS798  CYS799  TRP800  GLU811  SER814 

> <Gold.Protein.RotatedAtoms>
  151.8004  133.3369  159.3525 H   0  0  0  0  0  0  0  0  0  0  0  0  # atno 6907 bound_to 6896
  150.7360  134.5759  159.5923 H   0  0  0  0  0  0  0  0  0  0  0  0  # atno 6908 bound_to 6896
  152.3147  134.7456  160.0379 H   0  0  0  0  0  0  0  0  0  0  0  0  # atno 6909 bound_to 6896
  146.0292  139.4743  142.9848 H   0  0  0  0  0  0  0  0  0  0  0  0  # atno 7974 bound_to 7965
  154.4717  140.0918  156.7162 H   0  0  0  0  0  0  0  0  0  0  0  0  # atno 8008 bound_to 7997
  155.4705  140.3464  155.4307 H   0  0  0  0  0  0  0  0  0  0  0  0  # atno 8009 bound_to 7997
  156.1050  140.1432  156.9404 H   0  0  0  0  0  0  0  0  0  0  0  0  # atno 8010 bound_to 7997
  139.7136  144.7072  151.0986 H   0  0  0  0  0  0  0  0  0  0  0  0  # atno 10167 bound_to 10162
  157.6017  131.1050  150.7782 H   0  0  0  0  0  0  0  0  0  0  0  0  # atno 10718 bound_to 10713
  153.5049  135.3630  155.2558 H   0  0  0  0  0  0  0  0  0  0  0  0  # atno 10763 bound_to 10752
  154.8745  135.4009  154.3435 H   0  0  0  0  0  0  0  0  0  0  0  0  # atno 10764 bound_to 10752
  153.4078  135.7077  153.6447 H   0  0  0  0  0  0  0  0  0  0  0  0  # atno 10765 bound_to 10752
  141.0235  134.0089  157.3248 H   0  0  0  0  0  0  0  0  0  0  0  0  # atno 11005 bound_to 11000
  145.7068  141.0119  143.1474 LP  0  0  0  0  0  0  0  0  0  0  0  0  # atno 17320 bound_to 7965
  144.7023  139.8710  143.7440 LP  0  0  0  0  0  0  0  0  0  0  0  0  # atno 17321 bound_to 7965
  140.7739  143.5259  150.9481 LP  0  0  0  0  0  0  0  0  0  0  0  0  # atno 17342 bound_to 10162
  139.8944  143.6912  152.3140 LP  0  0  0  0  0  0  0  0  0  0  0  0  # atno 17343 bound_to 10162
  156.8179  130.4974  149.5347 LP  0  0  0  0  0  0  0  0  0  0  0  0  # atno 17370 bound_to 10713
  156.1093  130.6028  151.0021 LP  0  0  0  0  0  0  0  0  0  0  0  0  # atno 17371 bound_to 10713
  139.9161  135.0197  156.7885 LP  0  0  0  0  0  0  0  0  0  0  0  0  # atno 17394 bound_to 11000
  140.6532  133.9712  155.7766 LP  0  0  0  0  0  0  0  0  0  0  0  0  # atno 17395 bound_to 11000

$$$$
