#       Name:                AV-unprocessed.smi:2868
#       Creating user name   scv26
#       Creation time:       Fri Mar 27 15:49:06 2020


#       File generated by GOLD software.
#

@<TRIPOS>MOLECULE
AV-unprocessed.smi:2868
    54    55     1
SMALL
NO_CHARGES


@<TRIPOS>ATOM
      1 ****        -4.3783  -2.3532   2.1323 C.3            1 S1                 0.0000
      2 ****        -4.2136  -2.2872   0.6039 C.3            1 S1                 0.0000
      3 ****        -3.5366  -3.5858   0.1170 C.3            1 S1                 0.0000
      4 ****        -5.6053  -2.1227  -0.0427 C.3            1 S1                 0.0000
      5 ****        -3.3670  -1.1229   0.3173 N.am           1 S1                 0.0000
      6 ****        -2.9431  -0.6607  -0.8752 C.2            1 S1                 0.0000
      7 ****        -3.2508  -1.1941  -1.9417 O.2            1 S1                 0.0000
      8 ****        -2.1627   0.4481  -0.8037 N.am           1 S1                 0.0000
      9 ****        -1.6189   1.0583   0.4216 C.3            1 S1                 0.0000
     10 ****        -0.1169   0.7340   0.5109 C.3            1 S1                 0.0000
     11 ****         0.6363   1.2096  -0.7507 C.3            1 S1                 0.0000
     12 ****         2.0111   0.7213  -0.7119 N.am           1 S1                 0.0000
     13 ****         3.0486   1.2708  -1.3622 C.2            1 S1                 0.0000
     14 ****         2.9510   2.2630  -2.0838 O.2            1 S1                 0.0000
     15 ****         4.4085   0.6014  -1.1642 C.3            1 S1                 0.0000
     16 ****         5.1808   1.2984  -0.0589 C.ar           1 S1                 0.0000
     17 ****         5.0510   0.8914   1.2853 C.ar           1 S1                 0.0000
     18 ****         5.7873   1.5715   2.2743 C.ar           1 S1                 0.0000
     19 ****         6.6252   2.6322   1.8759 C.ar           1 S1                 0.0000
     20 ****         6.7580   3.0302   0.5923 N.ar           1 S1                 0.0000
     21 ****         6.0477   2.3735  -0.3499 C.ar           1 S1                 0.0000
     22 ****        -0.0747   0.7440  -2.0430 C.3            1 S1                 0.0000
     23 ****        -1.5795   1.0663  -2.0005 C.3            1 S1                 0.0000
     24 ****        -5.0067  -3.1940   2.4283 H              1 S1                 0.0000
     25 ****        -4.8410  -1.4459   2.5228 H              1 S1                 0.0000
     26 ****        -3.4160  -2.4726   2.6321 H              1 S1                 0.0000
     27 ****        -2.5366  -3.6945   0.5384 H              1 S1                 0.0000
     28 ****        -3.4424  -3.6180  -0.9684 H              1 S1                 0.0000
     29 ****        -4.1131  -4.4631   0.4122 H              1 S1                 0.0000
     30 ****        -6.2737  -2.9322   0.2532 H              1 S1                 0.0000
     31 ****        -5.5562  -2.1332  -1.1314 H              1 S1                 0.0000
     32 ****        -6.0741  -1.1850   0.2575 H              1 S1                 0.0000
     33 ****        -3.0603  -0.6046   1.1276 H              1 S1                 0.0000
     34 ****        -1.7618   2.1390   0.3762 H              1 S1                 0.0000
     35 ****        -2.1214   0.7427   1.3357 H              1 S1                 0.0000
     36 ****         0.3122   1.1989   1.3992 H              1 S1                 0.0000
     37 ****         0.0079  -0.3430   0.6349 H              1 S1                 0.0000
     38 ****         0.6457   2.3013  -0.7371 H              1 S1                 0.0000
     39 ****         2.1886  -0.0929  -0.1420 H              1 S1                 0.0000
     40 ****         4.2817  -0.4547  -0.9214 H              1 S1                 0.0000
     41 ****         4.9746   0.6440  -2.0956 H              1 S1                 0.0000
     42 ****         4.3971   0.0750   1.5551 H              1 S1                 0.0000
     43 ****         5.7114   1.2876   3.3136 H              1 S1                 0.0000
     44 ****         7.2044   3.1755   2.6078 H              1 S1                 0.0000
     45 ****         6.1740   2.7176  -1.3659 H              1 S1                 0.0000
     46 ****         0.3789   1.2157  -2.9153 H              1 S1                 0.0000
     47 ****         0.0563  -0.3318  -2.1709 H              1 S1                 0.0000
     48 ****        -2.0576   0.7356  -2.9235 H              1 S1                 0.0000
     49 ****        -1.7303   2.1462  -1.9631 H              1 S1                 0.0000
     50 ****        -3.8378  -2.0037  -1.9449 LP             1 S1                 0.0000
     51 ****        -2.9136  -0.8177  -2.8047 LP             1 S1                 0.0000
     52 ****         2.0624   2.7038  -2.2103 LP             1 S1                 0.0000
     53 ****         3.7604   2.6284  -2.5437 LP             1 S1                 0.0000
     54 ****         7.3634   3.7875   0.3472 LP             1 S1                 0.0000
@<TRIPOS>BOND
    1    1    2 1     
    2    1   24 1     
    3    1   25 1     
    4    1   26 1     
    5    2    3 1     
    6    2    4 1     
    7    2    5 1     
    8    3   27 1     
    9    3   28 1     
   10    3   29 1     
   11    4   30 1     
   12    4   31 1     
   13    4   32 1     
   14    5    6 am    
   15    5   33 1     
   16    6    7 2     
   17    6    8 am    
   18    8   23 1     
   19    8    9 1     
   20    9   10 1     
   21    9   34 1     
   22    9   35 1     
   23   10   11 1     
   24   10   36 1     
   25   10   37 1     
   26   11   12 1     
   27   11   22 1     
   28   11   38 1     
   29   12   13 am    
   30   12   39 1     
   31   13   14 2     
   32   13   15 1     
   33   15   16 1     
   34   15   40 1     
   35   15   41 1     
   36   16   21 ar    
   37   16   17 ar    
   38   17   18 ar    
   39   17   42 1     
   40   18   19 ar    
   41   18   43 1     
   42   19   20 ar    
   43   19   44 1     
   44   20   21 ar    
   45   21   45 1     
   46   22   23 1     
   47   22   46 1     
   48   22   47 1     
   49   23   48 1     
   50   23   49 1     
   51    7   50 1     
   52    7   51 1     
   53   14   52 1     
   54   14   53 1     
   55   20   54 1     
@<TRIPOS>SUBSTRUCTURE
      1 S1             1
@<TRIPOS>SET
LONE_PAIRS      STATIC     ATOMS    <user>   **** ""
5 50 51 52 53 54
DONOR_HYDROGENS      STATIC     ATOMS    <user>   **** ""
2 33 39
ATOM$BLUE        STATIC     ATOMS    COLORGROUP SYSTEM
5 50 51 52 53 54
ATOM$RED        STATIC     ATOMS    COLORGROUP SYSTEM
2 33 39
