#       Name:                AV-unprocessed.smi:3025
#       Creating user name   scv26
#       Creation time:       Fri Mar 27 16:44:07 2020


#       File generated by GOLD software.
#

@<TRIPOS>MOLECULE
AV-unprocessed.smi:3025
    44    45     1
SMALL
NO_CHARGES


@<TRIPOS>ATOM
      1 ****        -5.6933  -2.4810   1.2207 C.3            1 S1                 0.0000
      2 ****        -4.1868  -2.2030   1.2637 C.3            1 S1                 0.0000
      3 ****        -3.6401  -1.7133  -0.0881 C.3            1 S1                 0.0000
      4 ****        -2.1083  -1.5319  -0.1203 C.3            1 S1                 0.0000
      5 ****        -1.6275  -0.3693   0.7745 C.3            1 S1                 0.0000
      6 ****        -0.1010  -0.1943   0.7155 C.3            1 S1                 0.0000
      7 ****         0.3937   0.0096  -0.7314 C.3            1 S1                 0.0000
      8 ****         1.8687   0.1130  -0.7925 N.4            1 S1                 1.0000
      9 ****         2.4303   1.4015  -0.3354 C.3            1 S1                 0.0000
     10 ****         3.9579   1.4177  -0.4785 C.3            1 S1                 0.0000
     11 ****         4.5588   2.7097  -0.0305 C.2            1 S1                 0.0000
     12 ****         5.1166   2.8610   1.1724 N.pl3          1 S1                 0.0000
     13 ****         5.5552   4.1304   1.3031 N.2            1 S1                 0.0000
     14 ****         5.2166   4.6652   0.1314 C.2            1 S1                 0.0000
     15 ****         4.5855   3.8283  -0.7466 N.2            1 S1                 0.0000
     16 ****        -0.0841  -1.1523  -1.6206 C.3            1 S1                 0.0000
     17 ****        -1.6112  -1.3158  -1.5637 C.3            1 S1                 0.0000
     18 ****         5.2179   2.1660   1.8985 H              1 S1                 0.0000
     19 ****        -6.0526  -2.8249   2.1908 H              1 S1                 0.0000
     20 ****        -5.9315  -3.2510   0.4866 H              1 S1                 0.0000
     21 ****        -6.2524  -1.5823   0.9589 H              1 S1                 0.0000
     22 ****        -3.9906  -1.4641   2.0401 H              1 S1                 0.0000
     23 ****        -3.6651  -3.1127   1.5627 H              1 S1                 0.0000
     24 ****        -3.9228  -2.4400  -0.8510 H              1 S1                 0.0000
     25 ****        -4.1294  -0.7793  -0.3675 H              1 S1                 0.0000
     26 ****        -1.6564  -2.4544   0.2480 H              1 S1                 0.0000
     27 ****        -2.1121   0.5582   0.4662 H              1 S1                 0.0000
     28 ****        -1.9195  -0.5390   1.8105 H              1 S1                 0.0000
     29 ****         0.1789   0.6528   1.3413 H              1 S1                 0.0000
     30 ****         0.3802  -1.0714   1.1510 H              1 S1                 0.0000
     31 ****        -0.0308   0.9334  -1.1285 H              1 S1                 0.0000
     32 ****         2.2702  -0.6386  -0.2500 H              1 S1                 0.0000
     33 ****         1.9944   2.2109  -0.9229 H              1 S1                 0.0000
     34 ****         2.1607   1.5762   0.7061 H              1 S1                 0.0000
     35 ****         4.3978   0.6042   0.1004 H              1 S1                 0.0000
     36 ****         4.2399   1.2479  -1.5185 H              1 S1                 0.0000
     37 ****         5.4289   5.6988  -0.0997 H              1 S1                 0.0000
     38 ****         0.2248  -0.9842  -2.6530 H              1 S1                 0.0000
     39 ****         0.3903  -2.0826  -1.3043 H              1 S1                 0.0000
     40 ****        -1.9068  -2.1581  -2.1905 H              1 S1                 0.0000
     41 ****        -2.0885  -0.4325  -1.9908 H              1 S1                 0.0000
     42 ****         2.1431  -0.0075  -1.7571 H              1 S1                 0.0000
     43 ****         6.0160   4.5593   2.0800 LP             1 S1                 0.0000
     44 ****         4.2411   4.0077  -1.6681 LP             1 S1                 0.0000
@<TRIPOS>BOND
    1    1    2 1     
    2    1   19 1     
    3    1   20 1     
    4    1   21 1     
    5    2    3 1     
    6    2   22 1     
    7    2   23 1     
    8    3    4 1     
    9    3   24 1     
   10    3   25 1     
   11    4   17 1     
   12    4    5 1     
   13    4   26 1     
   14    5    6 1     
   15    5   27 1     
   16    5   28 1     
   17    6    7 1     
   18    6   29 1     
   19    6   30 1     
   20    7    8 1     
   21    7   16 1     
   22    7   31 1     
   23    8    9 1     
   24    8   32 1     
   25    8   42 1     
   26    9   10 1     
   27    9   33 1     
   28    9   34 1     
   29   10   35 1     
   30   10   36 1     
   31   10   11 1     
   32   11   15 2     
   33   11   12 1     
   34   12   18 1     
   35   12   13 1     
   36   13   14 2     
   37   14   15 1     
   38   14   37 1     
   39   16   17 1     
   40   16   38 1     
   41   16   39 1     
   42   17   40 1     
   43   17   41 1     
   44   13   43 1     
   45   15   44 1     
@<TRIPOS>SUBSTRUCTURE
      1 S1             1
@<TRIPOS>SET
LONE_PAIRS      STATIC     ATOMS    <user>   **** ""
2 43 44
DONOR_HYDROGENS      STATIC     ATOMS    <user>   **** ""
3 32 42 18
ATOM$BLUE        STATIC     ATOMS    COLORGROUP SYSTEM
2 43 44
ATOM$RED        STATIC     ATOMS    COLORGROUP SYSTEM
3 32 42 18
