AV-unprocessed.smi:229|AV-procd|sdf|1751|dock1
  -GOLD-   2262020273D 1   1.00000     0.00000
 Structure written by MMmdl.
 58 62  0  0  0  0  0  0  0  0  1 V2000
  144.9774  135.0273  154.6721 C   0  0  0  0  0  0  0  0  0  0  0  0
  146.0870  136.0842  154.5902 C   0  0  0  0  0  0  0  0  0  0  0  0
  147.3954  135.6642  155.2806 C   0  0  2  0  0  0  0  0  0  0  0  0
  148.5303  136.6884  155.0913 C   0  0  0  0  0  0  0  0  0  0  0  0
  149.7687  136.1714  155.6595 N   0  0  0  0  0  0  0  0  0  0  0  0
  150.7449  137.0947  155.8502 C   0  0  0  0  0  0  0  0  0  0  0  0
  151.9017  137.0179  155.1386 N   0  0  0  0  0  0  0  0  0  0  0  0
  152.8648  137.9272  155.3138 C   0  0  0  0  0  0  0  0  0  0  0  0
  152.8817  138.9769  156.1370 N   0  0  0  0  0  0  0  0  0  0  0  0
  151.7288  139.0543  156.8612 C   0  0  0  0  0  0  0  0  0  0  0  0
  150.6204  138.1643  156.7817 C   0  0  0  0  0  0  0  0  0  0  0  0
  149.6350  138.5564  157.6811 N   0  0  0  0  0  0  0  0  0  0  0  0
  150.1273  139.6233  158.2496 C   0  0  0  0  0  0  0  0  0  0  0  0
  151.3795  139.9932  157.8154 N   0  0  0  0  0  0  0  0  0  0  0  0
  152.1548  141.1328  158.2729 C   0  0  0  0  0  0  0  0  0  0  0  0
  151.3421  142.4448  158.2395 C   0  0  2  0  0  0  0  0  0  0  0  0
  151.0268  142.8054  156.9091 O   0  0  0  0  0  0  0  0  0  0  0  0
  152.0343  143.6417  158.9236 C   0  0  1  0  0  0  0  0  0  0  0  0
  151.3203  144.9793  158.7262 C   0  0  0  0  0  0  0  0  0  0  0  0
  151.8665  145.7851  159.8825 C   0  0  0  0  0  0  0  0  0  0  0  0
  151.9405  144.7381  160.9908 C   0  0  0  0  0  0  0  0  0  0  0  0
  152.0971  143.4796  160.3390 O   0  0  0  0  0  0  0  0  0  0  0  0
  150.1464  134.8739  155.1085 C   0  0  0  0  0  0  0  0  0  0  0  0
  148.9922  133.8574  155.2611 C   0  0  1  0  0  0  0  0  0  0  0  0
  149.2956  132.5690  154.5042 C   0  0  0  0  0  0  0  0  0  0  0  0
  149.9156  131.6790  155.5704 C   0  0  0  0  0  0  0  0  0  0  0  0
  149.1117  131.9570  156.7017 O   0  0  0  0  0  0  0  0  0  0  0  0
  148.8173  133.3498  156.7118 C   0  0  0  0  0  0  0  0  0  0  0  0
  147.7924  134.4134  154.7147 O   0  0  0  0  0  0  0  0  0  0  0  0
  144.0984  135.3478  154.1126 H   0  0  0  0  0  0  0  0  0  0  0  0
  144.6639  134.8532  155.7013 H   0  0  0  0  0  0  0  0  0  0  0  0
  145.3075  134.0756  154.2548 H   0  0  0  0  0  0  0  0  0  0  0  0
  146.2935  136.2844  153.5383 H   0  0  0  0  0  0  0  0  0  0  0  0
  145.7302  137.0242  155.0126 H   0  0  0  0  0  0  0  0  0  0  0  0
  147.1981  135.5370  156.3455 H   0  0  0  0  0  0  0  0  0  0  0  0
  148.6851  136.8862  154.0296 H   0  0  0  0  0  0  0  0  0  0  0  0
  148.2541  137.6359  155.5510 H   0  0  0  0  0  0  0  0  0  0  0  0
  153.7484  137.7947  154.7070 H   0  0  0  0  0  0  0  0  0  0  0  0
  149.5873  140.1742  159.0061 H   0  0  0  0  0  0  0  0  0  0  0  0
  152.5007  140.9206  159.2846 H   0  0  0  0  0  0  0  0  0  0  0  0
  153.0472  141.2160  157.6515 H   0  0  0  0  0  0  0  0  0  0  0  0
  150.3854  142.2779  158.7364 H   0  0  0  0  0  0  0  0  0  0  0  0
  150.5001  142.1176  156.5305 H   0  0  0  0  0  0  0  0  0  0  0  0
  153.0545  143.7501  158.5506 H   0  0  0  0  0  0  0  0  0  0  0  0
  151.5267  145.4319  157.7560 H   0  0  0  0  0  0  0  0  0  0  0  0
  150.2404  144.8700  158.8290 H   0  0  0  0  0  0  0  0  0  0  0  0
  152.8664  146.1497  159.6433 H   0  0  0  0  0  0  0  0  0  0  0  0
  151.2435  146.6409  160.1442 H   0  0  0  0  0  0  0  0  0  0  0  0
  152.7593  144.9306  161.6842 H   0  0  0  0  0  0  0  0  0  0  0  0
  151.0113  144.7175  161.5613 H   0  0  0  0  0  0  0  0  0  0  0  0
  150.3897  135.0032  154.0526 H   0  0  0  0  0  0  0  0  0  0  0  0
  151.0443  134.4982  155.6014 H   0  0  0  0  0  0  0  0  0  0  0  0
  148.3688  132.1106  154.1552 H   0  0  0  0  0  0  0  0  0  0  0  0
  149.9413  132.7100  153.6368 H   0  0  0  0  0  0  0  0  0  0  0  0
  149.8903  130.6214  155.3075 H   0  0  0  0  0  0  0  0  0  0  0  0
  150.9498  131.9639  155.7704 H   0  0  0  0  0  0  0  0  0  0  0  0
  149.4942  133.8591  157.3991 H   0  0  0  0  0  0  0  0  0  0  0  0
  147.8030  133.4845  157.0870 H   0  0  0  0  0  0  0  0  0  0  0  0
  1  2  1  0  0  0  0
  1 30  1  0  0  0  0
  1 31  1  0  0  0  0
  1 32  1  0  0  0  0
  2  3  1  0  0  0  0
  2 33  1  0  0  0  0
  2 34  1  0  0  0  0
  3 29  1  0  0  0  0
  3  4  1  0  0  0  0
  3 35  1  0  0  0  0
  4  5  1  0  0  0  0
  4 36  1  0  0  0  0
  4 37  1  0  0  0  0
  5  6  1  0  0  0  0
  5 23  1  0  0  0  0
  6 11  1  0  0  0  0
  6  7  2  0  0  0  0
  7  8  1  0  0  0  0
  8  9  2  0  0  0  0
  8 38  1  0  0  0  0
  9 10  1  0  0  0  0
 10 14  1  0  0  0  0
 10 11  2  0  0  0  0
 11 12  1  0  0  0  0
 12 13  2  0  0  0  0
 13 14  1  0  0  0  0
 13 39  1  0  0  0  0
 14 15  1  0  0  0  0
 15 16  1  0  0  0  0
 15 40  1  0  0  0  0
 15 41  1  0  0  0  0
 16 17  1  0  0  0  0
 16 18  1  0  0  0  0
 16 42  1  0  0  0  0
 17 43  1  0  0  0  0
 18 22  1  0  0  0  0
 18 19  1  0  0  0  0
 18 44  1  0  0  0  0
 19 20  1  0  0  0  0
 19 45  1  0  0  0  0
 19 46  1  0  0  0  0
 20 21  1  0  0  0  0
 20 47  1  0  0  0  0
 20 48  1  0  0  0  0
 21 22  1  0  0  0  0
 21 49  1  0  0  0  0
 21 50  1  0  0  0  0
 23 24  1  0  0  0  0
 23 51  1  0  0  0  0
 23 52  1  0  0  0  0
 24 28  1  0  0  0  0
 24 25  1  0  0  0  0
 24 29  1  0  0  0  0
 25 26  1  0  0  0  0
 25 53  1  0  0  0  0
 25 54  1  0  0  0  0
 26 27  1  0  0  0  0
 26 55  1  0  0  0  0
 26 56  1  0  0  0  0
 27 28  1  0  0  0  0
 28 57  1  0  0  0  0
 28 58  1  0  0  0  0
M  END
> <s_m_source_file>
AV-unprocessed.smi

> <i_m_source_file_index>
229

> <i_lp_mmshare_version>
43012

> <i_f3d_flags>
0

> <s_epik_input>
W0NIMl0xT1tDSDJdW0NIMl1bQ0BdMTJbQ0gyXU4oW0NIMl1bQ0BIXShPMilbQ0gyXVtDSDNdKWMobltjSF1uMyljKGMzNCluW2NIXW40W0NIMl1bQ0BIXShbT0hdKVtDQEBIXTVbQ0gyXVtDSDJdW0NIMl1PNQ==

> <s_epik_cmdline>
J2VwaWtfcHl0aG9uJywgJy1waCcsICc3LjAnLCAnLXRuJywgJzgnLCAnLW1hJywgJzIwMCcsICctbWV0YWxfYmluZGluZycsICctaW1hZScsICc8aW5maWxlLm1hZT4nLCAnLW9tYWUnLCAnPG91dGZpbGUubWFlPic=

> <r_lp_tautomer_probability>
1

> <r_epik_Ionization_Penalty>
0.00318402

> <r_epik_Ionization_Penalty_Charging>
0

> <r_epik_Ionization_Penalty_Neutral>
0.00318402

> <r_epik_State_Penalty>
0.00215642

> <r_epik_Charging_Adjusted_Penalty>
0.00215642

> <i_epik_Tot_Q>
0

> <i_epik_Tot_abs_Q>
0

> <r_epik_Metal_State_Penalty>
-0

> <b_epik_Metal_Only>
0

> <s_lp_Force_Field>
OPLS_2005

> <r_lp_Energy>
54.9877

> <b_lp_Chiralities_Consistent>
1

> <s_lp_Variant>
AV-unprocessed.smi:229-5

> <Gold.Version>
5.8.1

> <Gold.Id.Protein>
6NUR|6NUR_protein|mol2

> <Gold.PLP.Fitness>
49.3759

> <Gold.PLP.PLP>
-44.1173

> <Gold.PLP.part.hbond>
-3.0000

> <Gold.PLP.part.metal>
0.0000

> <Gold.PLP.part.buried>
-8.8758

> <Gold.PLP.part.nonpolar>
-32.4643

> <Gold.PLP.part.repulsive>
0.3594

> <Gold.PLP.ligand.clash>
0.0000

> <Gold.PLP.ligand.torsion>
0.6063

> <Gold.PLP.Chemscore.Hbond>
1.9920

> <Gold.PLP.Chemscore.CHOScore>
0.0000

> <Gold.PLP.Chemscore.Metal>
0.0000

> <Gold.Chemscore.Hbonds>
donor molecule, donor type, donor heavy atom, donor atom, acceptor molecule, acceptor atom, score
      P1  H  7997  8009       L1     9  1.00
      P1  H 10752 10763       L1     7  0.85

> <Gold.PLP.Chemscore.Internal.Correction>
0.4952

> <Gold.Rescore>
     Score         DG    S(hbond)    S(metal)    S(lipo)     H(rot)  DE(clash)    DE(int)     intcor
     15.62     -16.61       1.60        0.00     103.16       2.46       0.10       0.89       ----

> <Gold.Chemscore.Fitness>
15.6185

> <Gold.Chemscore.DG>
-16.6057

> <Gold.Chemscore.ZeroCoef>
-5.4800

> <Gold.Chemscore.Hbond>
1.6023

> <Gold.Chemscore.Metal>
0.0000

> <Gold.Chemscore.Lipo>
103.1565

> <Gold.Chemscore.Internal_Hbond>
0.0000

> <Gold.Chemscore.DEClash>
0.0974

> <Gold.Chemscore.DEInternal>
0.8898

> <Gold.Chemscore.Rot>
2.4591

> <Gold.Chemscore.Internal.Correction>
   9.000000E+99

> <Gold.Chemscore.Hbonds>
donor molecule, donor type, donor heavy atom, donor atom, acceptor molecule, acceptor atom, score
      P1  H  7997  8009       L1     9  0.95
      P1  H 10752 10763       L1     7  0.19

> <Gold.Chemscore.Hbond.Weighted>
-5.3517

> <Gold.Chemscore.Metal.Weighted>
-0.0000

> <Gold.Chemscore.Lipo.Weighted>
-12.0693

> <Gold.Chemscore.Internal_Hbond.Weighted>
0.0000

> <Gold.Chemscore.DEClash.Weighted>
0.0974

> <Gold.Chemscore.DEInternal.Weighted>
0.8898

> <Gold.Chemscore.Rot.Weighted>
6.2953

> <Gold.Chemscore.Internal.Correction.Weighted>
   9.000000E+99

> <Gold.Protein.RotatedTorsions>
[ 6907 6896 6895 6894 ] final  -38.98 input  -60.11 | X-H torsion
[ 7974 7965 7964 7962 ] final  162.17 input  175.53 | X-H torsion
[ 8008 7997 7996 7995 ] final -148.29 input   59.86 | X-H torsion
[ 10167 10162 10161 10158 ] final   -8.63 input  -65.29 | X-H torsion
[ 10718 10713 10712 10709 ] final -139.47 input   66.30 | X-H torsion
[ 10763 10752 10751 10750 ] final   46.06 input  -60.55 | X-H torsion
[ 11005 11000 10999 10996 ] final   31.25 input  -57.11 | X-H torsion

> <Gold.Protein.ActiveResidues>
 VAL166  LYS551  ARG553  GLY616  TRP617  ASP618  TYR619  PRO620  LYS621  CYS622 
 ASP623  PHE694  ASN695  SER759  ASP760  ASP761  ALA762  ILE779  LEU786  VAL792 
 PHE793  MET794  SER795  GLU796  ALA797  LYS798  CYS799  TRP800  GLU811  SER814 

> <Gold.Protein.RotatedAtoms>
  150.9958  134.9282  159.7925 H   0  0  0  0  0  0  0  0  0  0  0  0  # atno 6907 bound_to 6896
  152.5264  134.3220  159.9162 H   0  0  0  0  0  0  0  0  0  0  0  0  # atno 6908 bound_to 6896
  151.3226  133.3992  159.2690 H   0  0  0  0  0  0  0  0  0  0  0  0  # atno 6909 bound_to 6896
  144.7650  139.8002  143.6319 H   0  0  0  0  0  0  0  0  0  0  0  0  # atno 7974 bound_to 7965
  155.5893  140.0651  157.2763 H   0  0  0  0  0  0  0  0  0  0  0  0  # atno 8008 bound_to 7997
  154.4310  140.1838  156.1104 H   0  0  0  0  0  0  0  0  0  0  0  0  # atno 8009 bound_to 7997
  156.0245  140.3313  155.7077 H   0  0  0  0  0  0  0  0  0  0  0  0  # atno 8010 bound_to 7997
  140.7064  143.5948  150.8857 H   0  0  0  0  0  0  0  0  0  0  0  0  # atno 10167 bound_to 10162
  156.3111  130.7482  151.1558 H   0  0  0  0  0  0  0  0  0  0  0  0  # atno 10718 bound_to 10713
  152.9816  135.6020  154.3538 H   0  0  0  0  0  0  0  0  0  0  0  0  # atno 10763 bound_to 10752
  154.3225  135.2769  155.2514 H   0  0  0  0  0  0  0  0  0  0  0  0  # atno 10764 bound_to 10752
  154.4674  135.5950  153.6353 H   0  0  0  0  0  0  0  0  0  0  0  0  # atno 10765 bound_to 10752
  140.2858  134.2920  155.7788 H   0  0  0  0  0  0  0  0  0  0  0  0  # atno 11005 bound_to 11000
  146.1748  139.4914  142.9904 LP  0  0  0  0  0  0  0  0  0  0  0  0  # atno 17320 bound_to 7965
  145.6500  141.0265  143.1765 LP  0  0  0  0  0  0  0  0  0  0  0  0  # atno 17321 bound_to 7965
  139.9673  143.6096  152.2984 LP  0  0  0  0  0  0  0  0  0  0  0  0  # atno 17342 bound_to 10162
  139.6670  144.7662  151.1854 LP  0  0  0  0  0  0  0  0  0  0  0  0  # atno 17343 bound_to 10162
  157.7391  131.0533  150.5253 LP  0  0  0  0  0  0  0  0  0  0  0  0  # atno 17370 bound_to 10713
  156.5392  130.4204  149.6162 LP  0  0  0  0  0  0  0  0  0  0  0  0  # atno 17371 bound_to 10713
  141.2155  133.7554  156.9550 LP  0  0  0  0  0  0  0  0  0  0  0  0  # atno 17394 bound_to 11000
  140.1241  134.9398  157.2244 LP  0  0  0  0  0  0  0  0  0  0  0  0  # atno 17395 bound_to 11000

$$$$
