AV-unprocessed.smi:1795|AV-procd|sdf|7242|dock3
  -GOLD-   22720 8493D 1   1.00000     0.00000
 Structure written by MMmdl.
 47 48  0  0  0  0  0  0  0  0  1 V2000
  151.4461  145.3723  159.3862 C   0  0  0  0  0  0  0  0  0  0  0  0
  151.6811  143.8943  159.7146 C   0  0  1  0  0  0  0  0  0  0  0  0
  150.7831  142.9655  158.8771 C   0  0  0  0  0  0  0  0  0  0  0  0
  151.0540  141.5444  159.1151 N   0  0  0  0  0  0  0  0  0  0  0  0
  150.1749  140.6494  158.3256 C   0  0  1  0  0  0  0  0  0  0  0  0
  149.8162  141.2367  156.9359 C   0  0  0  0  0  0  0  0  0  0  0  0
  150.7683  139.2268  158.1276 C   0  0  0  0  0  0  0  0  0  0  0  0
  149.7637  138.1777  158.2756 N   0  0  0  0  0  0  0  0  0  0  0  0
  150.0210  136.8629  158.3310 C   0  0  0  0  0  0  0  0  0  0  0  0
  151.1590  136.3950  158.2730 O   0  0  0  0  0  0  0  0  0  0  0  0
  148.7926  135.9500  158.4624 C   0  0  0  0  0  0  0  0  0  0  0  0
  148.8360  135.0646  159.6383 N   0  0  0  0  0  0  0  0  0  0  0  0
  149.1711  133.7150  159.4100 C   0  0  0  0  0  0  0  0  0  0  0  0
  149.2409  132.8214  160.4092 C   0  0  0  0  0  0  0  0  0  0  0  0
  148.9614  133.2751  161.7510 C   0  0  0  0  0  0  0  0  0  0  0  0
  148.6442  134.5647  161.9814 C   0  0  0  0  0  0  0  0  0  0  0  0
  148.5693  135.5456  160.8920 C   0  0  0  0  0  0  0  0  0  0  0  0
  148.2840  136.7261  161.0943 O   0  0  0  0  0  0  0  0  0  0  0  0
  152.4793  141.3086  158.8565 C   0  0  0  0  0  0  0  0  0  0  0  0
  153.4145  142.2366  159.6571 C   0  0  2  0  0  0  0  0  0  0  0  0
  153.4985  141.8773  161.1508 C   0  0  0  0  0  0  0  0  0  0  0  0
  153.0496  143.5997  159.4558 O   0  0  0  0  0  0  0  0  0  0  0  0
  150.4113  145.6581  159.5769 H   0  0  0  0  0  0  0  0  0  0  0  0
  151.6649  145.5831  158.3389 H   0  0  0  0  0  0  0  0  0  0  0  0
  152.0852  146.0123  159.9951 H   0  0  0  0  0  0  0  0  0  0  0  0
  151.4710  143.7433  160.7737 H   0  0  0  0  0  0  0  0  0  0  0  0
  149.7553  143.2109  159.1354 H   0  0  0  0  0  0  0  0  0  0  0  0
  150.9068  143.1916  157.8168 H   0  0  0  0  0  0  0  0  0  0  0  0
  149.2381  140.5305  158.8725 H   0  0  0  0  0  0  0  0  0  0  0  0
  149.2129  140.5561  156.3363 H   0  0  0  0  0  0  0  0  0  0  0  0
  150.7148  141.4670  156.3626 H   0  0  0  0  0  0  0  0  0  0  0  0
  149.2208  142.1453  157.0106 H   0  0  0  0  0  0  0  0  0  0  0  0
  151.2508  139.1681  157.1502 H   0  0  0  0  0  0  0  0  0  0  0  0
  151.5293  138.9990  158.8719 H   0  0  0  0  0  0  0  0  0  0  0  0
  148.8003  138.4752  158.3290 H   0  0  0  0  0  0  0  0  0  0  0  0
  147.8933  136.5684  158.4860 H   0  0  0  0  0  0  0  0  0  0  0  0
  148.7061  135.3584  157.5497 H   0  0  0  0  0  0  0  0  0  0  0  0
  149.3722  133.4590  158.3797 H   0  0  0  0  0  0  0  0  0  0  0  0
  149.5029  131.7918  160.2149 H   0  0  0  0  0  0  0  0  0  0  0  0
  149.0085  132.5774  162.5741 H   0  0  0  0  0  0  0  0  0  0  0  0
  148.4393  134.8864  162.9918 H   0  0  0  0  0  0  0  0  0  0  0  0
  152.7557  140.2852  159.1026 H   0  0  0  0  0  0  0  0  0  0  0  0
  152.6790  141.4390  157.7917 H   0  0  0  0  0  0  0  0  0  0  0  0
  154.4199  142.1285  159.2497 H   0  0  0  0  0  0  0  0  0  0  0  0
  153.8956  140.8708  161.2848 H   0  0  0  0  0  0  0  0  0  0  0  0
  152.5236  141.9082  161.6371 H   0  0  0  0  0  0  0  0  0  0  0  0
  154.1586  142.5650  161.6796 H   0  0  0  0  0  0  0  0  0  0  0  0
  1  2  1  0  0  0  0
  1 23  1  0  0  0  0
  1 24  1  0  0  0  0
  1 25  1  0  0  0  0
  2 22  1  0  0  0  0
  2  3  1  0  0  0  0
  2 26  1  0  0  0  0
  3  4  1  0  0  0  0
  3 27  1  0  0  0  0
  3 28  1  0  0  0  0
  4  5  1  0  0  0  0
  4 19  1  0  0  0  0
  5  6  1  0  0  0  0
  5  7  1  0  0  0  0
  5 29  1  0  0  0  0
  6 30  1  0  0  0  0
  6 31  1  0  0  0  0
  6 32  1  0  0  0  0
  7  8  1  0  0  0  0
  7 33  1  0  0  0  0
  7 34  1  0  0  0  0
  8  9  1  0  0  0  0
  8 35  1  0  0  0  0
  9 10  2  0  0  0  0
  9 11  1  0  0  0  0
 11 12  1  0  0  0  0
 11 36  1  0  0  0  0
 11 37  1  0  0  0  0
 12 17  1  0  0  0  0
 12 13  1  0  0  0  0
 13 14  2  0  0  0  0
 13 38  1  0  0  0  0
 14 15  1  0  0  0  0
 14 39  1  0  0  0  0
 15 16  2  0  0  0  0
 15 40  1  0  0  0  0
 16 17  1  0  0  0  0
 16 41  1  0  0  0  0
 17 18  2  0  0  0  0
 19 20  1  0  0  0  0
 19 42  1  0  0  0  0
 19 43  1  0  0  0  0
 20 21  1  0  0  0  0
 20 22  1  0  0  0  0
 20 44  1  0  0  0  0
 21 45  1  0  0  0  0
 21 46  1  0  0  0  0
 21 47  1  0  0  0  0
M  END
> <s_m_source_file>
AV-unprocessed.smi

> <i_m_source_file_index>
1795

> <i_lp_mmshare_version>
43012

> <i_f3d_flags>
0

> <s_epik_input>
W0NIM11bQ0BASF0xW0NIMl1OKFtDSDJdW0NASF0oTzEpW0NIM10pW0NASF0oW0NIM10pW0NIMl1bTkhdQyg9TylbQ0gyXW4yW2NIXVtjSF1bY0hdW2NIXWMyPU8=

> <s_epik_cmdline>
J2VwaWtfcHl0aG9uJywgJy1waCcsICc3LjAnLCAnLXRuJywgJzgnLCAnLW1hJywgJzIwMCcsICctbWV0YWxfYmluZGluZycsICctaW1hZScsICc8aW5maWxlLm1hZT4nLCAnLW9tYWUnLCAnPG91dGZpbGUubWFlPic=

> <r_lp_tautomer_probability>
1

> <r_epik_Ionization_Penalty>
0.237383

> <r_epik_Ionization_Penalty_Charging>
3.58805e-07

> <r_epik_Ionization_Penalty_Neutral>
0.237382

> <r_epik_State_Penalty>
0.228245

> <r_epik_Charging_Adjusted_Penalty>
0.228245

> <i_epik_Tot_Q>
0

> <i_epik_Tot_abs_Q>
0

> <r_epik_Metal_State_Penalty>
0.228221

> <b_epik_Metal_Only>
0

> <s_lp_Force_Field>
OPLS_2005

> <r_lp_Energy>
40.9254

> <b_lp_Chiralities_Consistent>
1

> <s_lp_Variant>
AV-unprocessed.smi:1795-6

> <Gold.Version>
5.8.1

> <Gold.Id.Protein>
6NUR|6NUR_protein|mol2

> <Gold.PLP.Fitness>
52.6850

> <Gold.PLP.PLP>
-47.2318

> <Gold.PLP.part.hbond>
-3.1240

> <Gold.PLP.part.metal>
0.0000

> <Gold.PLP.part.buried>
-5.9736

> <Gold.PLP.part.nonpolar>
-38.1410

> <Gold.PLP.part.repulsive>
0.1816

> <Gold.PLP.ligand.clash>
0.0000

> <Gold.PLP.ligand.torsion>
1.3749

> <Gold.PLP.Chemscore.Hbond>
2.7120

> <Gold.PLP.Chemscore.CHOScore>
0.0000

> <Gold.PLP.Chemscore.Metal>
0.0000

> <Gold.Chemscore.Hbonds>
donor molecule, donor type, donor heavy atom, donor atom, acceptor molecule, acceptor atom, score
      P1  H  6896  6908       L1    10  0.38
      P1  H  6931  6943       L1    18  1.00

> <Gold.PLP.Chemscore.Internal.Correction>
0.0669

> <Gold.Rescore>
     Score         DG    S(hbond)    S(metal)    S(lipo)     H(rot)  DE(clash)    DE(int)     intcor
     21.11     -22.11       2.66        0.00     106.00       1.83       0.00       0.99       ----

> <Gold.Chemscore.Fitness>
21.1133

> <Gold.Chemscore.DG>
-22.1088

> <Gold.Chemscore.ZeroCoef>
-5.4800

> <Gold.Chemscore.Hbond>
2.6644

> <Gold.Chemscore.Metal>
0.0000

> <Gold.Chemscore.Lipo>
106.0012

> <Gold.Chemscore.Internal_Hbond>
0.0000

> <Gold.Chemscore.DEClash>
0.0048

> <Gold.Chemscore.DEInternal>
0.9906

> <Gold.Chemscore.Rot>
1.8251

> <Gold.Chemscore.Internal.Correction>
   9.000000E+99

> <Gold.Chemscore.Hbonds>
donor molecule, donor type, donor heavy atom, donor atom, acceptor molecule, acceptor atom, score
      P1  H  6896  6908       L1    10  0.06
      P1  H  6931  6943       L1    18  0.99

> <Gold.Chemscore.Hbond.Weighted>
-8.8990

> <Gold.Chemscore.Metal.Weighted>
-0.0000

> <Gold.Chemscore.Lipo.Weighted>
-12.4021

> <Gold.Chemscore.Internal_Hbond.Weighted>
0.0000

> <Gold.Chemscore.DEClash.Weighted>
0.0048

> <Gold.Chemscore.DEInternal.Weighted>
0.9906

> <Gold.Chemscore.Rot.Weighted>
4.6724

> <Gold.Chemscore.Internal.Correction.Weighted>
   9.000000E+99

> <Gold.Protein.RotatedTorsions>
[ 6907 6896 6895 6894 ] final -170.81 input  -60.11 | X-H torsion
[ 7974 7965 7964 7962 ] final   63.82 input  175.53 | X-H torsion
[ 8008 7997 7996 7995 ] final  160.60 input   59.86 | X-H torsion
[ 10167 10162 10161 10158 ] final   61.37 input  -65.29 | X-H torsion
[ 10718 10713 10712 10709 ] final  -60.73 input   66.30 | X-H torsion
[ 10763 10752 10751 10750 ] final   12.25 input  -60.55 | X-H torsion
[ 11005 11000 10999 10996 ] final -160.45 input  -57.11 | X-H torsion

> <Gold.Protein.ActiveResidues>
 VAL166  LYS551  ARG553  GLY616  TRP617  ASP618  TYR619  PRO620  LYS621  CYS622 
 ASP623  PHE694  ASN695  SER759  ASP760  ASP761  ALA762  ILE779  LEU786  VAL792 
 PHE793  MET794  SER795  GLU796  ALA797  LYS798  CYS799  TRP800  GLU811  SER814 

> <Gold.Protein.RotatedAtoms>
  151.5137  133.3480  159.2889 H   0  0  0  0  0  0  0  0  0  0  0  0  # atno 6907 bound_to 6896
  150.8696  134.8069  159.7155 H   0  0  0  0  0  0  0  0  0  0  0  0  # atno 6908 bound_to 6896
  152.4689  134.5019  159.9779 H   0  0  0  0  0  0  0  0  0  0  0  0  # atno 6909 bound_to 6896
  145.8574  139.3293  143.0839 H   0  0  0  0  0  0  0  0  0  0  0  0  # atno 7974 bound_to 7965
  156.2161  140.1800  156.7585 H   0  0  0  0  0  0  0  0  0  0  0  0  # atno 8008 bound_to 7997
  154.5794  140.0669  156.9111 H   0  0  0  0  0  0  0  0  0  0  0  0  # atno 8009 bound_to 7997
  155.2530  140.3330  155.4283 H   0  0  0  0  0  0  0  0  0  0  0  0  # atno 8010 bound_to 7997
  140.1555  144.4422  150.6737 H   0  0  0  0  0  0  0  0  0  0  0  0  # atno 10167 bound_to 10162
  156.0970  130.4191  150.0895 H   0  0  0  0  0  0  0  0  0  0  0  0  # atno 10718 bound_to 10713
  153.1842  135.6832  153.8438 H   0  0  0  0  0  0  0  0  0  0  0  0  # atno 10763 bound_to 10752
  153.7759  135.3189  155.3360 H   0  0  0  0  0  0  0  0  0  0  0  0  # atno 10764 bound_to 10752
  154.8078  135.4737  154.0533 H   0  0  0  0  0  0  0  0  0  0  0  0  # atno 10765 bound_to 10752
  140.6314  134.4647  157.5229 H   0  0  0  0  0  0  0  0  0  0  0  0  # atno 11005 bound_to 11000
  145.9287  140.9064  143.0367 LP  0  0  0  0  0  0  0  0  0  0  0  0  # atno 17320 bound_to 7965
  144.6727  140.1388  143.7438 LP  0  0  0  0  0  0  0  0  0  0  0  0  # atno 17321 bound_to 7965
  140.6676  143.2273  151.5705 LP  0  0  0  0  0  0  0  0  0  0  0  0  # atno 17342 bound_to 10162
  139.5406  144.2659  152.1342 LP  0  0  0  0  0  0  0  0  0  0  0  0  # atno 17343 bound_to 10162
  156.8892  130.9583  151.3590 LP  0  0  0  0  0  0  0  0  0  0  0  0  # atno 17370 bound_to 10713
  157.6133  130.8599  149.8987 LP  0  0  0  0  0  0  0  0  0  0  0  0  # atno 17371 bound_to 10713
  139.9115  134.8336  156.1513 LP  0  0  0  0  0  0  0  0  0  0  0  0  # atno 17394 bound_to 11000
  141.0673  133.6813  156.2069 LP  0  0  0  0  0  0  0  0  0  0  0  0  # atno 17395 bound_to 11000

$$$$
