AV-unprocessed.smi:1413|AV-procd|sdf|5758|dock1
  -GOLD-   22720 5393D 1   1.00000     0.00000
 Structure written by MMmdl.
 53 55  0  0  0  0  0  0  0  0  1 V2000
  151.9657  144.4091  157.0226 C   0  0  0  0  0  0  0  0  0  0  0  0
  151.1337  143.6753  158.0896 C   0  0  1  0  0  0  0  0  0  0  0  0
  150.4949  142.3696  157.5768 C   0  0  0  0  0  0  0  0  0  0  0  0
  151.4909  141.3078  157.4635 N   0  0  0  0  0  0  0  0  0  0  0  0
  151.0926  140.1705  156.7284 C   0  0  0  0  0  0  0  0  0  0  0  0
  151.0819  138.8955  157.3410 C   0  0  0  0  0  0  0  0  0  0  0  0
  150.6870  137.7749  156.5865 C   0  0  0  0  0  0  0  0  0  0  0  0
  150.3160  137.9457  155.2388 C   0  0  0  0  0  0  0  0  0  0  0  0
  149.9113  136.7939  154.5099 N   0  0  0  0  0  0  0  0  0  0  0  0
  149.6988  135.5446  154.9580 C   0  0  0  0  0  0  0  0  0  0  0  0
  149.8072  135.1776  156.1276 O   0  0  0  0  0  0  0  0  0  0  0  0
  149.3306  134.7303  153.9589 N   0  0  0  0  0  0  0  0  0  0  0  0
  148.9935  133.3158  154.1010 C   0  0  2  0  0  0  0  0  0  0  0  0
  150.2680  132.5098  154.4071 C   0  0  0  0  0  0  0  0  0  0  0  0
  148.2889  132.8316  152.8191 C   0  0  1  0  0  0  0  0  0  0  0  0
  147.6636  131.4391  152.9230 C   0  0  0  0  0  0  0  0  0  0  0  0
  146.5953  131.5010  151.8563 C   0  0  0  0  0  0  0  0  0  0  0  0
  146.0928  132.9337  152.0017 C   0  0  0  0  0  0  0  0  0  0  0  0
  147.1955  133.6899  152.4958 O   0  0  0  0  0  0  0  0  0  0  0  0
  150.3385  139.2609  154.7163 C   0  0  0  0  0  0  0  0  0  0  0  0
  150.7156  140.3381  155.4373 N   0  0  0  0  0  0  0  0  0  0  0  0
  152.2534  141.1029  158.6923 C   0  0  0  0  0  0  0  0  0  0  0  0
  152.8917  142.4250  159.1544 C   0  0  2  0  0  0  0  0  0  0  0  0
  153.5886  142.2799  160.5114 C   0  0  0  0  0  0  0  0  0  0  0  0
  151.8821  143.4257  159.2814 O   0  0  0  0  0  0  0  0  0  0  0  0
  151.3379  144.7073  156.1827 H   0  0  0  0  0  0  0  0  0  0  0  0
  152.7654  143.7871  156.6212 H   0  0  0  0  0  0  0  0  0  0  0  0
  152.4170  145.3121  157.4340 H   0  0  0  0  0  0  0  0  0  0  0  0
  150.3254  144.3487  158.3752 H   0  0  0  0  0  0  0  0  0  0  0  0
  149.7269  142.0396  158.2778 H   0  0  0  0  0  0  0  0  0  0  0  0
  149.9891  142.5626  156.6319 H   0  0  0  0  0  0  0  0  0  0  0  0
  151.3563  138.7668  158.3773 H   0  0  0  0  0  0  0  0  0  0  0  0
  150.6710  136.7955  157.0421 H   0  0  0  0  0  0  0  0  0  0  0  0
  149.7122  136.9507  153.5328 H   0  0  0  0  0  0  0  0  0  0  0  0
  149.2583  135.1197  153.0306 H   0  0  0  0  0  0  0  0  0  0  0  0
  148.2983  133.1979  154.9343 H   0  0  0  0  0  0  0  0  0  0  0  0
  150.0426  131.4556  154.5683 H   0  0  0  0  0  0  0  0  0  0  0  0
  150.7593  132.8746  155.3099 H   0  0  0  0  0  0  0  0  0  0  0  0
  150.9854  132.5758  153.5885 H   0  0  0  0  0  0  0  0  0  0  0  0
  148.9821  132.8489  151.9760 H   0  0  0  0  0  0  0  0  0  0  0  0
  148.3816  130.6351  152.7589 H   0  0  0  0  0  0  0  0  0  0  0  0
  147.2039  131.2940  153.9018 H   0  0  0  0  0  0  0  0  0  0  0  0
  147.0412  131.3562  150.8716 H   0  0  0  0  0  0  0  0  0  0  0  0
  145.8097  130.7567  151.9898 H   0  0  0  0  0  0  0  0  0  0  0  0
  145.7217  133.3393  151.0604 H   0  0  0  0  0  0  0  0  0  0  0  0
  145.2855  132.9835  152.7331 H   0  0  0  0  0  0  0  0  0  0  0  0
  150.0346  139.4849  153.7062 H   0  0  0  0  0  0  0  0  0  0  0  0
  151.5894  140.7127  159.4649 H   0  0  0  0  0  0  0  0  0  0  0  0
  153.0379  140.3620  158.5314 H   0  0  0  0  0  0  0  0  0  0  0  0
  153.6369  142.7448  158.4261 H   0  0  0  0  0  0  0  0  0  0  0  0
  154.3817  141.5331  160.4675 H   0  0  0  0  0  0  0  0  0  0  0  0
  152.8844  141.9762  161.2864 H   0  0  0  0  0  0  0  0  0  0  0  0
  154.0379  143.2237  160.8212 H   0  0  0  0  0  0  0  0  0  0  0  0
  1  2  1  0  0  0  0
  1 26  1  0  0  0  0
  1 27  1  0  0  0  0
  1 28  1  0  0  0  0
  2 25  1  0  0  0  0
  2  3  1  0  0  0  0
  2 29  1  0  0  0  0
  3  4  1  0  0  0  0
  3 30  1  0  0  0  0
  3 31  1  0  0  0  0
  4  5  1  0  0  0  0
  4 22  1  0  0  0  0
  5 21  1  0  0  0  0
  5  6  2  0  0  0  0
  6  7  1  0  0  0  0
  6 32  1  0  0  0  0
  7  8  2  0  0  0  0
  7 33  1  0  0  0  0
  8  9  1  0  0  0  0
  8 20  1  0  0  0  0
  9 10  1  0  0  0  0
  9 34  1  0  0  0  0
 10 11  2  0  0  0  0
 10 12  1  0  0  0  0
 12 13  1  0  0  0  0
 12 35  1  0  0  0  0
 13 14  1  0  0  0  0
 13 15  1  0  0  0  0
 13 36  1  0  0  0  0
 14 37  1  0  0  0  0
 14 38  1  0  0  0  0
 14 39  1  0  0  0  0
 15 19  1  0  0  0  0
 15 16  1  0  0  0  0
 15 40  1  0  0  0  0
 16 17  1  0  0  0  0
 16 41  1  0  0  0  0
 16 42  1  0  0  0  0
 17 18  1  0  0  0  0
 17 43  1  0  0  0  0
 17 44  1  0  0  0  0
 18 19  1  0  0  0  0
 18 45  1  0  0  0  0
 18 46  1  0  0  0  0
 20 21  2  0  0  0  0
 20 47  1  0  0  0  0
 22 23  1  0  0  0  0
 22 48  1  0  0  0  0
 22 49  1  0  0  0  0
 23 24  1  0  0  0  0
 23 25  1  0  0  0  0
 23 50  1  0  0  0  0
 24 51  1  0  0  0  0
 24 52  1  0  0  0  0
 24 53  1  0  0  0  0
M  END
> <s_m_source_file>
AV-unprocessed.smi

> <i_m_source_file_index>
1413

> <i_lp_mmshare_version>
43012

> <i_f3d_flags>
0

> <s_epik_input>
W0NIM11bQ0BASF0xW0NIMl1OKFtDSDJdW0NASF0oTzEpW0NIM10pYzJbY0hdW2NIXWMoW2NIXW4yKVtOSF1DKD1PKVtOSF1bQ0BIXShbQ0gzXSlbQ0BASF0zW0NIMl1bQ0gyXVtDSDJdTzM=

> <s_epik_cmdline>
J2VwaWtfcHl0aG9uJywgJy1waCcsICc3LjAnLCAnLXRuJywgJzgnLCAnLW1hJywgJzIwMCcsICctbWV0YWxfYmluZGluZycsICctaW1hZScsICc8aW5maWxlLm1hZT4nLCAnLW9tYWUnLCAnPG91dGZpbGUubWFlPic=

> <r_lp_tautomer_probability>
1

> <r_epik_Ionization_Penalty>
0.00271172

> <r_epik_Ionization_Penalty_Charging>
0

> <r_epik_Ionization_Penalty_Neutral>
0.00271172

> <r_epik_State_Penalty>
0.00186503

> <r_epik_Charging_Adjusted_Penalty>
0.00186503

> <i_epik_Tot_Q>
0

> <i_epik_Tot_abs_Q>
0

> <r_epik_Metal_State_Penalty>
-0

> <b_epik_Metal_Only>
0

> <s_lp_Force_Field>
OPLS_2005

> <r_lp_Energy>
37.0266

> <b_lp_Chiralities_Consistent>
1

> <s_lp_Variant>
AV-unprocessed.smi:1413-11

> <Gold.Version>
5.8.1

> <Gold.Id.Protein>
6NUR|6NUR_protein|mol2

> <Gold.PLP.Fitness>
48.3231

> <Gold.PLP.PLP>
-40.6703

> <Gold.PLP.part.hbond>
-2.6797

> <Gold.PLP.part.metal>
0.0000

> <Gold.PLP.part.buried>
-5.8366

> <Gold.PLP.part.nonpolar>
-32.9443

> <Gold.PLP.part.repulsive>
0.2684

> <Gold.PLP.ligand.clash>
0.0000

> <Gold.PLP.ligand.torsion>
0.4698

> <Gold.PLP.Chemscore.Hbond>
1.9525

> <Gold.PLP.Chemscore.CHOScore>
0.7919

> <Gold.PLP.Chemscore.Metal>
0.0000

> <Gold.Chemscore.Hbonds>
donor molecule, donor type, donor heavy atom, donor atom, acceptor molecule, acceptor atom, score
      L1  H     9    34       P1  7948  0.96
      L1  H    12    35       P1  7948  0.55
      P1  H  7989  7998       L1    21  0.03
      L1  C    20    47       P1  7957  0.74

> <Gold.PLP.Chemscore.Internal.Correction>
0.3593

> <Gold.Rescore>
     Score         DG    S(hbond)    S(metal)    S(lipo)     H(rot)  DE(clash)    DE(int)     intcor
     18.36     -20.41       1.70        0.00     108.63       1.35       0.12       1.93       ----

> <Gold.Chemscore.Fitness>
18.3582

> <Gold.Chemscore.DG>
-20.4075

> <Gold.Chemscore.ZeroCoef>
-5.4800

> <Gold.Chemscore.Hbond>
1.6965

> <Gold.Chemscore.Metal>
0.0000

> <Gold.Chemscore.Lipo>
108.6302

> <Gold.Chemscore.Internal_Hbond>
0.0000

> <Gold.Chemscore.DEClash>
0.1232

> <Gold.Chemscore.DEInternal>
1.9260

> <Gold.Chemscore.Rot>
1.3471

> <Gold.Chemscore.Internal.Correction>
   9.000000E+99

> <Gold.Chemscore.Hbonds>
donor molecule, donor type, donor heavy atom, donor atom, acceptor molecule, acceptor atom, score
      L1  H     9    34       P1  7948  0.60
      L1  H    12    35       P1  7948  0.03

> <Gold.Chemscore.Hbond.Weighted>
-5.6663

> <Gold.Chemscore.Metal.Weighted>
-0.0000

> <Gold.Chemscore.Lipo.Weighted>
-12.7097

> <Gold.Chemscore.Internal_Hbond.Weighted>
0.0000

> <Gold.Chemscore.DEClash.Weighted>
0.1232

> <Gold.Chemscore.DEInternal.Weighted>
1.9260

> <Gold.Chemscore.Rot.Weighted>
3.4485

> <Gold.Chemscore.Internal.Correction.Weighted>
   9.000000E+99

> <Gold.Protein.RotatedTorsions>
[ 6907 6896 6895 6894 ] final -110.36 input  -60.11 | X-H torsion
[ 7974 7965 7964 7962 ] final  -37.15 input  175.53 | X-H torsion
[ 8008 7997 7996 7995 ] final  109.75 input   59.86 | X-H torsion
[ 10167 10162 10161 10158 ] final  109.85 input  -65.29 | X-H torsion
[ 10718 10713 10712 10709 ] final   71.12 input   66.30 | X-H torsion
[ 10763 10752 10751 10750 ] final -172.17 input  -60.55 | X-H torsion
[ 11005 11000 10999 10996 ] final  171.22 input  -57.11 | X-H torsion

> <Gold.Protein.ActiveResidues>
 VAL166  LYS551  ARG553  GLY616  TRP617  ASP618  TYR619  PRO620  LYS621  CYS622 
 ASP623  PHE694  ASN695  SER759  ASP760  ASP761  ALA762  ILE779  LEU786  VAL792 
 PHE793  MET794  SER795  GLU796  ALA797  LYS798  CYS799  TRP800  GLU811  SER814 

> <Gold.Protein.RotatedAtoms>
  150.7620  133.9394  159.3451 H   0  0  0  0  0  0  0  0  0  0  0  0  # atno 6907 bound_to 6896
  151.7300  135.0875  160.0308 H   0  0  0  0  0  0  0  0  0  0  0  0  # atno 6908 bound_to 6896
  152.3595  133.6242  159.6040 H   0  0  0  0  0  0  0  0  0  0  0  0  # atno 6909 bound_to 6896
  146.0600  140.6362  142.9001 H   0  0  0  0  0  0  0  0  0  0  0  0  # atno 7974 bound_to 7965
  156.2002  140.3052  155.9511 H   0  0  0  0  0  0  0  0  0  0  0  0  # atno 8008 bound_to 7997
  155.2971  140.0444  157.3044 H   0  0  0  0  0  0  0  0  0  0  0  0  # atno 8009 bound_to 7997
  154.5561  140.2306  155.8416 H   0  0  0  0  0  0  0  0  0  0  0  0  # atno 8010 bound_to 7997
  139.6734  144.7124  151.1646 H   0  0  0  0  0  0  0  0  0  0  0  0  # atno 10167 bound_to 10162
  157.6436  130.9512  150.0746 H   0  0  0  0  0  0  0  0  0  0  0  0  # atno 10718 bound_to 10713
  154.6223  135.2876  155.0312 H   0  0  0  0  0  0  0  0  0  0  0  0  # atno 10763 bound_to 10752
  154.1503  135.6504  153.4966 H   0  0  0  0  0  0  0  0  0  0  0  0  # atno 10764 bound_to 10752
  153.0241  135.5354  154.7017 H   0  0  0  0  0  0  0  0  0  0  0  0  # atno 10765 bound_to 10752
  140.3167  134.7471  157.4033 H   0  0  0  0  0  0  0  0  0  0  0  0  # atno 11005 bound_to 11000
  144.7169  140.4241  143.7037 LP  0  0  0  0  0  0  0  0  0  0  0  0  # atno 17320 bound_to 7965
  145.6577  139.1576  143.2826 LP  0  0  0  0  0  0  0  0  0  0  0  0  # atno 17321 bound_to 7965
  140.7626  143.5809  150.8896 LP  0  0  0  0  0  0  0  0  0  0  0  0  # atno 17342 bound_to 10162
  139.9476  143.6310  152.3037 LP  0  0  0  0  0  0  0  0  0  0  0  0  # atno 17343 bound_to 10162
  156.1740  130.3647  149.9126 LP  0  0  0  0  0  0  0  0  0  0  0  0  # atno 17370 bound_to 10713
  156.7095  130.8964  151.3608 LP  0  0  0  0  0  0  0  0  0  0  0  0  # atno 17371 bound_to 10713
  140.0977  134.5515  155.8382 LP  0  0  0  0  0  0  0  0  0  0  0  0  # atno 17394 bound_to 11000
  141.2096  133.6685  156.6449 LP  0  0  0  0  0  0  0  0  0  0  0  0  # atno 17395 bound_to 11000

$$$$
