#       Name:                AV-unprocessed.smi:13
#       Creating user name   scv26
#       Creation time:       Thu Mar 26 15:19:37 2020


#       File generated by GOLD software.
#

@<TRIPOS>MOLECULE
AV-unprocessed.smi:13
    64    68     1
SMALL
NO_CHARGES


@<TRIPOS>ATOM
      1 ****        -3.7796   2.1205  -2.3250 C.3            1 S1                 0.0000
      2 ****        -3.3115   1.1781  -1.2166 C.3            1 S1                 0.0000
      3 ****        -4.5722   0.5319  -0.6251 C.3            1 S1                 0.0000
      4 ****        -2.1854   0.2025  -1.5994 C.3            1 S1                 0.0000
      5 ****        -1.6252   0.4559  -0.2835 N.3            1 S1                 0.0000
      6 ****        -0.2048   0.4320  -0.2420 C.ar           1 S1                 0.0000
      7 ****         0.5412   1.4530  -0.7444 N.ar           1 S1                 0.0000
      8 ****         1.8756   1.4199  -0.6869 C.ar           1 S1                 0.0000
      9 ****         2.6645   0.4709  -0.1815 N.ar           1 S1                 0.0000
     10 ****         1.9288  -0.5635   0.3155 C.ar           1 S1                 0.0000
     11 ****         0.5087  -0.6579   0.3249 C.ar           1 S1                 0.0000
     12 ****         0.1168  -1.8491   0.9212 N.2            1 S1                 0.0000
     13 ****         1.2412  -2.4250   1.2488 C.2            1 S1                 0.0000
     14 ****         2.3809  -1.7300   0.9089 N.pl3          1 S1                 0.0000
     15 ****         3.7588  -2.1261   1.1621 C.3            1 S1                 0.0000
     16 ****         4.4019  -3.0057   0.0587 C.3            1 S1                 0.0000
     17 ****         5.7470  -3.2217   0.4455 O.3            1 S1                 0.0000
     18 ****         4.4045  -2.4012  -1.3462 C.3            1 S1                 0.0000
     19 ****         4.3358  -3.6270  -2.2464 C.3            1 S1                 0.0000
     20 ****         3.4352  -4.4665  -1.5460 O.3            1 S1                 0.0000
     21 ****         3.7412  -4.3849  -0.1585 C.3            1 S1                 0.0000
     22 ****        -2.2740   1.7616  -0.2328 C.3            1 S1                 0.0000
     23 ****        -2.6290   2.1577   1.2007 C.3            1 S1                 0.0000
     24 ****        -3.5940   3.3417   1.2978 C.3            1 S1                 0.0000
     25 ****        -3.1910   4.0473   2.5856 C.3            1 S1                 0.0000
     26 ****        -1.9265   3.3145   3.0361 C.3            1 S1                 0.0000
     27 ****        -1.4761   2.6438   1.8706 O.3            1 S1                 0.0000
     28 ****        -4.3386   1.5876  -3.0947 H              1 S1                 0.0000
     29 ****        -2.9371   2.6072  -2.8174 H              1 S1                 0.0000
     30 ****        -4.4231   2.9089  -1.9335 H              1 S1                 0.0000
     31 ****        -4.3352  -0.1324   0.2065 H              1 S1                 0.0000
     32 ****        -5.0979  -0.0661  -1.3700 H              1 S1                 0.0000
     33 ****        -5.2733   1.2790  -0.2530 H              1 S1                 0.0000
     34 ****        -2.5061  -0.8287  -1.7497 H              1 S1                 0.0000
     35 ****        -1.5528   0.5615  -2.4140 H              1 S1                 0.0000
     36 ****         2.3825   2.2768  -1.1051 H              1 S1                 0.0000
     37 ****         1.2657  -3.3784   1.7559 H              1 S1                 0.0000
     38 ****         4.3471  -1.2176   1.3000 H              1 S1                 0.0000
     39 ****         3.7869  -2.6500   2.1185 H              1 S1                 0.0000
     40 ****         6.1633  -3.7626  -0.2081 H              1 S1                 0.0000
     41 ****         3.5106  -1.8070  -1.5260 H              1 S1                 0.0000
     42 ****         5.2668  -1.7653  -1.5510 H              1 S1                 0.0000
     43 ****         3.9758  -3.3963  -3.2493 H              1 S1                 0.0000
     44 ****         5.3095  -4.1127  -2.3287 H              1 S1                 0.0000
     45 ****         4.4121  -5.2040   0.1061 H              1 S1                 0.0000
     46 ****         2.8308  -4.5247   0.4209 H              1 S1                 0.0000
     47 ****        -1.6967   2.5358  -0.7414 H              1 S1                 0.0000
     48 ****        -3.0306   1.3115   1.7620 H              1 S1                 0.0000
     49 ****        -3.4564   4.0174   0.4524 H              1 S1                 0.0000
     50 ****        -4.6369   3.0247   1.3044 H              1 S1                 0.0000
     51 ****        -2.9827   5.0997   2.3890 H              1 S1                 0.0000
     52 ****        -3.9704   3.9950   3.3464 H              1 S1                 0.0000
     53 ****        -1.1651   3.9885   3.4294 H              1 S1                 0.0000
     54 ****        -2.1612   2.5776   3.8058 H              1 S1                 0.0000
     55 ****        -1.7774  -0.1779   0.4749 LP             1 S1                 0.0000
     56 ****         0.0847   2.2386  -1.1621 LP             1 S1                 0.0000
     57 ****         3.6636   0.5126  -0.1687 LP             1 S1                 0.0000
     58 ****        -0.8129  -2.1877   1.0663 LP             1 S1                 0.0000
     59 ****         5.7732  -3.6834   1.3322 LP             1 S1                 0.0000
     60 ****         6.2239  -2.3452   0.5119 LP             1 S1                 0.0000
     61 ****         3.5374  -5.4102  -1.8605 LP             1 S1                 0.0000
     62 ****         2.4958  -4.1623  -1.7042 LP             1 S1                 0.0000
     63 ****        -0.9776   3.2785   1.2801 LP             1 S1                 0.0000
     64 ****        -0.8782   1.8826   2.1218 LP             1 S1                 0.0000
@<TRIPOS>BOND
    1    1    2 1     
    2    1   28 1     
    3    1   29 1     
    4    1   30 1     
    5    2   22 1     
    6    2    3 1     
    7    2    4 1     
    8    3   31 1     
    9    3   32 1     
   10    3   33 1     
   11    4    5 1     
   12    4   34 1     
   13    4   35 1     
   14    5    6 1     
   15    5   22 1     
   16    6   11 ar    
   17    6    7 ar    
   18    7    8 ar    
   19    8    9 ar    
   20    8   36 1     
   21    9   10 ar    
   22   10   14 1     
   23   10   11 ar    
   24   11   12 1     
   25   12   13 2     
   26   13   14 1     
   27   13   37 1     
   28   14   15 1     
   29   15   16 1     
   30   15   38 1     
   31   15   39 1     
   32   16   21 1     
   33   16   17 1     
   34   16   18 1     
   35   17   40 1     
   36   18   19 1     
   37   18   41 1     
   38   18   42 1     
   39   19   20 1     
   40   19   43 1     
   41   19   44 1     
   42   20   21 1     
   43   21   45 1     
   44   21   46 1     
   45   22   23 1     
   46   22   47 1     
   47   23   27 1     
   48   23   24 1     
   49   23   48 1     
   50   24   25 1     
   51   24   49 1     
   52   24   50 1     
   53   25   26 1     
   54   25   51 1     
   55   25   52 1     
   56   26   27 1     
   57   26   53 1     
   58   26   54 1     
   59    5   55 1     
   60    7   56 1     
   61    9   57 1     
   62   12   58 1     
   63   17   59 1     
   64   17   60 1     
   65   20   61 1     
   66   20   62 1     
   67   27   63 1     
   68   27   64 1     
@<TRIPOS>SUBSTRUCTURE
      1 S1             1
@<TRIPOS>SET
LONE_PAIRS      STATIC     ATOMS    <user>   **** ""
10 55 56 57 58 59 60 61 62 63 64
DONOR_HYDROGENS      STATIC     ATOMS    <user>   **** ""
1 40
ATOM$BLUE        STATIC     ATOMS    COLORGROUP SYSTEM
10 55 56 57 58 59 60 61 62 63 64
ATOM$RED        STATIC     ATOMS    COLORGROUP SYSTEM
1 40
