AV-unprocessed.smi:3047|AV-procd|sdf|11624|dock8
  -GOLD-   2272017 13D 1   1.00000     0.00000
 Structure written by MMmdl.
 37 38  0  0  0  0  0  0  0  0  1 V2000
  156.2336  140.4940  160.0980 C   0  0  0  0  0  0  0  0  0  0  0  0
  154.4835  139.9363  159.9780 S   0  0  0  0  0  0  0  0  0  0  0  0
  154.2788  139.3742  158.6344 O   0  0  0  0  0  0  0  0  0  0  0  0
  154.1603  139.1341  161.1679 O   0  0  0  0  0  0  0  0  0  0  0  0
  153.5823  141.4171  160.0625 N   0  0  0  0  0  0  0  0  0  0  0  0
  153.3899  142.1423  161.3157 C   0  0  0  0  0  0  0  0  0  0  0  0
  152.7655  143.4671  160.8878 C   0  0  0  0  0  0  0  0  0  0  0  0
  151.9530  143.1073  159.6464 C   0  0  0  0  0  0  0  0  0  0  0  0
  152.7258  141.9456  158.9851 C   0  0  2  0  0  0  0  0  0  0  0  0
  151.7870  140.9185  158.3327 C   0  0  0  0  0  0  0  0  0  0  0  0
  151.8021  139.7388  158.6860 O   0  0  0  0  0  0  0  0  0  0  0  0
  150.9923  141.3772  157.3557 N   0  0  0  0  0  0  0  0  0  0  0  0
  150.0911  140.5477  156.5698 C   0  0  0  0  0  0  0  0  0  0  0  0
  150.1365  140.9578  155.0922 C   0  0  0  0  0  0  0  0  0  0  0  0
  148.8048  141.1181  154.5450 N   0  0  0  0  0  0  0  0  0  0  0  0
  148.2326  140.3959  153.5060 C   0  0  0  0  0  0  0  0  0  0  0  0
  146.9626  140.8983  153.3317 C   0  0  0  0  0  0  0  0  0  0  0  0
  146.7346  141.9243  154.2461 N   0  0  0  0  0  0  0  0  0  0  0  0
  147.8694  141.9972  154.9297 C   0  0  0  0  0  0  0  0  0  0  0  0
  156.8932  139.6374  159.9621 H   0  0  0  0  0  0  0  0  0  0  0  0
  156.4224  140.9331  161.0760 H   0  0  0  0  0  0  0  0  0  0  0  0
  156.4367  141.2312  159.3220 H   0  0  0  0  0  0  0  0  0  0  0  0
  152.7134  141.5756  161.9564 H   0  0  0  0  0  0  0  0  0  0  0  0
  154.3349  142.2829  161.8409 H   0  0  0  0  0  0  0  0  0  0  0  0
  152.1611  143.9229  161.6725 H   0  0  0  0  0  0  0  0  0  0  0  0
  153.5526  144.1731  160.6193 H   0  0  0  0  0  0  0  0  0  0  0  0
  150.9492  142.8125  159.9556 H   0  0  0  0  0  0  0  0  0  0  0  0
  151.8461  143.9607  158.9760 H   0  0  0  0  0  0  0  0  0  0  0  0
  153.3888  142.3563  158.2217 H   0  0  0  0  0  0  0  0  0  0  0  0
  151.0467  142.3564  157.1148 H   0  0  0  0  0  0  0  0  0  0  0  0
  150.3800  139.5007  156.6755 H   0  0  0  0  0  0  0  0  0  0  0  0
  149.0762  140.6453  156.9589 H   0  0  0  0  0  0  0  0  0  0  0  0
  150.6769  141.8978  154.9718 H   0  0  0  0  0  0  0  0  0  0  0  0
  150.6661  140.2075  154.5031 H   0  0  0  0  0  0  0  0  0  0  0  0
  148.7617  139.6079  152.9905 H   0  0  0  0  0  0  0  0  0  0  0  0
  146.2019  140.6033  152.6240 H   0  0  0  0  0  0  0  0  0  0  0  0
  148.0244  142.7084  155.7281 H   0  0  0  0  0  0  0  0  0  0  0  0
  1  2  1  0  0  0  0
  1 20  1  0  0  0  0
  1 21  1  0  0  0  0
  1 22  1  0  0  0  0
  2  3  2  0  0  0  0
  2  4  2  0  0  0  0
  2  5  1  0  0  0  0
  5  9  1  0  0  0  0
  5  6  1  0  0  0  0
  6  7  1  0  0  0  0
  6 23  1  0  0  0  0
  6 24  1  0  0  0  0
  7  8  1  0  0  0  0
  7 25  1  0  0  0  0
  7 26  1  0  0  0  0
  8  9  1  0  0  0  0
  8 27  1  0  0  0  0
  8 28  1  0  0  0  0
  9 10  1  0  0  0  0
  9 29  1  0  0  0  0
 10 11  2  0  0  0  0
 10 12  1  0  0  0  0
 12 13  1  0  0  0  0
 12 30  1  0  0  0  0
 13 14  1  0  0  0  0
 13 31  1  0  0  0  0
 13 32  1  0  0  0  0
 14 15  1  0  0  0  0
 14 33  1  0  0  0  0
 14 34  1  0  0  0  0
 15 19  1  0  0  0  0
 15 16  1  0  0  0  0
 16 17  2  0  0  0  0
 16 35  1  0  0  0  0
 17 18  1  0  0  0  0
 17 36  1  0  0  0  0
 18 19  2  0  0  0  0
 19 37  1  0  0  0  0
M  END
> <s_m_source_file>
AV-unprocessed.smi

> <i_m_source_file_index>
3047

> <i_lp_mmshare_version>
43012

> <i_f3d_flags>
0

> <s_epik_input>
W0NIM11TKD1PKSg9TylOMVtDSDJdW0NIMl1bQ0gyXVtDQEhdMUMoPU8pW05IXVtDSDJdW0NIMl1uMltjSF1bY0hdbltjSF0y

> <s_epik_cmdline>
J2VwaWtfcHl0aG9uJywgJy1waCcsICc3LjAnLCAnLXRuJywgJzgnLCAnLW1hJywgJzIwMCcsICctbWV0YWxfYmluZGluZycsICctaW1hZScsICc8aW5maWxlLm1hZT4nLCAnLW9tYWUnLCAnPG91dGZpbGUubWFlPic=

> <r_lp_tautomer_probability>
1

> <r_epik_Ionization_Penalty>
0.575721

> <r_epik_Ionization_Penalty_Charging>
0.575721

> <r_epik_Ionization_Penalty_Neutral>
1.33078e-07

> <r_epik_State_Penalty>
0.588056

> <r_epik_Charging_Adjusted_Penalty>
1.16378

> <i_epik_Tot_Q>
0

> <i_epik_Tot_abs_Q>
0

> <r_epik_Metal_State_Penalty>
0.294357

> <b_epik_Metal_Only>
0

> <s_lp_Force_Field>
OPLS_2005

> <r_lp_Energy>
9.27481

> <b_lp_Chiralities_Consistent>
1

> <s_lp_Variant>
AV-unprocessed.smi:3047-4

> <Gold.Version>
5.8.1

> <Gold.Id.Protein>
6NUR|6NUR_protein|mol2

> <Gold.PLP.Fitness>
45.1869

> <Gold.PLP.PLP>
-34.9752

> <Gold.PLP.part.hbond>
-1.0000

> <Gold.PLP.part.metal>
0.0000

> <Gold.PLP.part.buried>
0.7512

> <Gold.PLP.part.nonpolar>
-34.5706

> <Gold.PLP.part.repulsive>
0.2197

> <Gold.PLP.ligand.clash>
0.0000

> <Gold.PLP.ligand.torsion>
1.5211

> <Gold.PLP.Chemscore.Hbond>
1.0000

> <Gold.PLP.Chemscore.CHOScore>
2.7382

> <Gold.PLP.Chemscore.Metal>
0.0000

> <Gold.Chemscore.Hbonds>
donor molecule, donor type, donor heavy atom, donor atom, acceptor molecule, acceptor atom, score
      P1  H  7997  8008       L1     3  1.00
      L1  C    16    35       P1  7957  0.77
      L1  C    17    36       P1 10175  1.00
      L1  C    19    37       P1  8028  0.99

> <Gold.PLP.Chemscore.Internal.Correction>
2.0395

> <Gold.Rescore>
     Score         DG    S(hbond)    S(metal)    S(lipo)     H(rot)  DE(clash)    DE(int)     intcor
      6.83     -12.82       0.98        0.00      79.14       2.03       0.41       5.58       ----

> <Gold.Chemscore.Fitness>
6.8288

> <Gold.Chemscore.DG>
-12.8194

> <Gold.Chemscore.ZeroCoef>
-5.4800

> <Gold.Chemscore.Hbond>
0.9781

> <Gold.Chemscore.Metal>
0.0000

> <Gold.Chemscore.Lipo>
79.1353

> <Gold.Chemscore.Internal_Hbond>
0.0000

> <Gold.Chemscore.DEClash>
0.4085

> <Gold.Chemscore.DEInternal>
5.5820

> <Gold.Chemscore.Rot>
2.0259

> <Gold.Chemscore.Internal.Correction>
   9.000000E+99

> <Gold.Chemscore.Hbonds>
donor molecule, donor type, donor heavy atom, donor atom, acceptor molecule, acceptor atom, score
      P1  H  7997  8008       L1     3  0.93

> <Gold.Chemscore.Hbond.Weighted>
-3.2668

> <Gold.Chemscore.Metal.Weighted>
-0.0000

> <Gold.Chemscore.Lipo.Weighted>
-9.2588

> <Gold.Chemscore.Internal_Hbond.Weighted>
0.0000

> <Gold.Chemscore.DEClash.Weighted>
0.4085

> <Gold.Chemscore.DEInternal.Weighted>
5.5820

> <Gold.Chemscore.Rot.Weighted>
5.1863

> <Gold.Chemscore.Internal.Correction.Weighted>
   9.000000E+99

> <Gold.Protein.RotatedTorsions>
[ 6907 6896 6895 6894 ] final   16.38 input  -60.11 | X-H torsion
[ 7974 7965 7964 7962 ] final -139.99 input  175.53 | X-H torsion
[ 8008 7997 7996 7995 ] final -126.39 input   59.86 | X-H torsion
[ 10167 10162 10161 10158 ] final    3.33 input  -65.29 | X-H torsion
[ 10718 10713 10712 10709 ] final  172.92 input   66.30 | X-H torsion
[ 10763 10752 10751 10750 ] final  -86.25 input  -60.55 | X-H torsion
[ 11005 11000 10999 10996 ] final  117.03 input  -57.11 | X-H torsion

> <Gold.Protein.ActiveResidues>
 VAL166  LYS551  ARG553  GLY616  TRP617  ASP618  TYR619  PRO620  LYS621  CYS622 
 ASP623  PHE694  ASN695  SER759  ASP760  ASP761  ALA762  ILE779  LEU786  VAL792 
 PHE793  MET794  SER795  GLU796  ALA797  LYS798  CYS799  TRP800  GLU811  SER814 

> <Gold.Protein.RotatedAtoms>
  151.8329  135.0615  160.0438 H   0  0  0  0  0  0  0  0  0  0  0  0  # atno 6907 bound_to 6896
  152.2867  133.5517  159.5540 H   0  0  0  0  0  0  0  0  0  0  0  0  # atno 6908 bound_to 6896
  150.7212  134.0403  159.3806 H   0  0  0  0  0  0  0  0  0  0  0  0  # atno 6909 bound_to 6896
  144.8632  140.6253  143.5314 H   0  0  0  0  0  0  0  0  0  0  0  0  # atno 7974 bound_to 7965
  155.2289  140.0424  157.2959 H   0  0  0  0  0  0  0  0  0  0  0  0  # atno 8008 bound_to 7997
  154.5901  140.2424  155.7902 H   0  0  0  0  0  0  0  0  0  0  0  0  # atno 8009 bound_to 7997
  156.2253  140.2956  156.0061 H   0  0  0  0  0  0  0  0  0  0  0  0  # atno 8010 bound_to 7997
  140.6591  143.7350  150.7706 H   0  0  0  0  0  0  0  0  0  0  0  0  # atno 10167 bound_to 10162
  156.9719  131.0092  151.2903 H   0  0  0  0  0  0  0  0  0  0  0  0  # atno 10718 bound_to 10713
  154.6203  135.5456  153.7568 H   0  0  0  0  0  0  0  0  0  0  0  0  # atno 10763 bound_to 10752
  153.0235  135.6411  154.1450 H   0  0  0  0  0  0  0  0  0  0  0  0  # atno 10764 bound_to 10752
  154.1385  135.2910  155.3147 H   0  0  0  0  0  0  0  0  0  0  0  0  # atno 10765 bound_to 10752
  139.9061  134.9605  156.7289 H   0  0  0  0  0  0  0  0  0  0  0  0  # atno 11005 bound_to 11000
  145.4271  139.1555  143.4042 LP  0  0  0  0  0  0  0  0  0  0  0  0  # atno 17320 bound_to 7965
  146.2876  140.4385  142.8752 LP  0  0  0  0  0  0  0  0  0  0  0  0  # atno 17321 bound_to 7965
  140.1015  143.4783  152.2422 LP  0  0  0  0  0  0  0  0  0  0  0  0  # atno 17342 bound_to 10162
  139.5821  144.7515  151.3614 LP  0  0  0  0  0  0  0  0  0  0  0  0  # atno 17343 bound_to 10162
  157.5586  130.8231  149.8237 LP  0  0  0  0  0  0  0  0  0  0  0  0  # atno 17370 bound_to 10713
  156.0279  130.3773  150.1770 LP  0  0  0  0  0  0  0  0  0  0  0  0  # atno 17371 bound_to 10713
  140.6941  133.9364  155.7984 LP  0  0  0  0  0  0  0  0  0  0  0  0  # atno 17394 bound_to 11000
  141.0420  134.0608  157.3890 LP  0  0  0  0  0  0  0  0  0  0  0  0  # atno 17395 bound_to 11000

$$$$
