AV-unprocessed.smi:2451|AV-procd|sdf|9684|dock2
  -GOLD-   2272013323D 1   1.00000     0.00000
 Structure written by MMmdl.
 37 38  0  0  0  0  0  0  0  0  2 V2000
  151.9585  144.0804  158.6367 C   0  0  0  0  0  0  0  0  0  0  0  0
  152.4840  142.6337  158.5901 C   0  0  1  0  0  0  0  0  0  0  0  0
  153.1329  142.2862  159.9539 C   0  0  0  0  0  0  0  0  0  0  0  0
  153.6578  140.8377  159.9534 C   0  0  0  0  0  0  0  0  0  0  0  0
  152.5684  139.8108  159.5589 C   0  0  0  0  0  0  0  0  0  0  0  0
  151.8836  140.1148  158.2049 C   0  0  2  0  0  0  0  0  0  0  0  0
  152.8242  139.8709  157.1166 N   0  5  0  0  0  0  0  0  0  0  0  0
  152.3611  138.9942  155.8346 S   0  0  0  0  0  0  0  0  0  0  0  0
  151.3117  139.6586  155.0443 O   0  0  0  0  0  0  0  0  0  0  0  0
  153.5007  138.4319  155.0911 O   0  0  0  0  0  0  0  0  0  0  0  0
  151.5471  137.5711  156.6776 C   0  0  0  0  0  0  0  0  0  0  0  0
  152.5731  136.7361  157.3906 C   0  0  0  0  0  0  0  0  0  0  0  0
  153.5395  137.1513  158.3485 C   0  0  0  0  0  0  0  0  0  0  0  0
  154.1934  135.9956  158.6637 C   0  0  0  0  0  0  0  0  0  0  0  0
  153.6742  134.9513  157.9703 O   0  0  0  0  0  0  0  0  0  0  0  0
  152.6374  135.4332  157.1631 N   0  0  0  0  0  0  0  0  0  0  0  0
  151.3791  141.5955  158.1866 C   0  0  2  0  0  0  0  0  0  0  0  0
  150.6502  141.9578  156.8678 C   0  0  0  0  0  0  0  0  0  0  0  0
  151.1027  144.1702  159.3062 H   0  0  0  0  0  0  0  0  0  0  0  0
  151.6561  144.4328  157.6510 H   0  0  0  0  0  0  0  0  0  0  0  0
  152.7294  144.7653  158.9909 H   0  0  0  0  0  0  0  0  0  0  0  0
  153.2736  142.6160  157.8356 H   0  0  0  0  0  0  0  0  0  0  0  0
  153.9499  142.9740  160.1745 H   0  0  0  0  0  0  0  0  0  0  0  0
  152.3996  142.4054  160.7527 H   0  0  0  0  0  0  0  0  0  0  0  0
  154.5126  140.7615  159.2786 H   0  0  0  0  0  0  0  0  0  0  0  0
  154.0425  140.5930  160.9437 H   0  0  0  0  0  0  0  0  0  0  0  0
  152.9924  138.8057  159.5481 H   0  0  0  0  0  0  0  0  0  0  0  0
  151.8061  139.8011  160.3388 H   0  0  0  0  0  0  0  0  0  0  0  0
  151.0124  139.4631  158.1243 H   0  0  0  0  0  0  0  0  0  0  0  0
  150.8135  137.9666  157.3796 H   0  0  0  0  0  0  0  0  0  0  0  0
  151.0098  136.9914  155.9268 H   0  0  0  0  0  0  0  0  0  0  0  0
  153.7256  138.1420  158.7355 H   0  0  0  0  0  0  0  0  0  0  0  0
  155.0089  135.7630  159.3325 H   0  0  0  0  0  0  0  0  0  0  0  0
  150.6157  141.6523  158.9642 H   0  0  0  0  0  0  0  0  0  0  0  0
  151.3432  142.0496  156.0297 H   0  0  0  0  0  0  0  0  0  0  0  0
  150.1221  142.9064  156.9553 H   0  0  0  0  0  0  0  0  0  0  0  0
  149.8927  141.2207  156.5929 H   0  0  0  0  0  0  0  0  0  0  0  0
  1  2  1  0  0  0  0
  1 19  1  0  0  0  0
  1 20  1  0  0  0  0
  1 21  1  0  0  0  0
  2 17  1  0  0  0  0
  2  3  1  0  0  0  0
  2 22  1  0  0  0  0
  3  4  1  0  0  0  0
  3 23  1  0  0  0  0
  3 24  1  0  0  0  0
  4  5  1  0  0  0  0
  4 25  1  0  0  0  0
  4 26  1  0  0  0  0
  5  6  1  0  0  0  0
  5 27  1  0  0  0  0
  5 28  1  0  0  0  0
  6  7  1  0  0  0  0
  6 17  1  0  0  0  0
  6 29  1  0  0  0  0
  7  8  1  0  0  0  0
  8  9  2  0  0  0  0
  8 10  2  0  0  0  0
  8 11  1  0  0  0  0
 11 12  1  0  0  0  0
 11 30  1  0  0  0  0
 11 31  1  0  0  0  0
 12 16  2  0  0  0  0
 12 13  1  0  0  0  0
 13 14  2  0  0  0  0
 13 32  1  0  0  0  0
 14 15  1  0  0  0  0
 14 33  1  0  0  0  0
 15 16  1  0  0  0  0
 17 18  1  0  0  0  0
 17 34  1  0  0  0  0
 18 35  1  0  0  0  0
 18 36  1  0  0  0  0
 18 37  1  0  0  0  0
M  CHG  1   7  -1
M  END
> <s_m_source_file>
AV-unprocessed.smi

> <i_m_source_file_index>
2451

> <i_lp_mmshare_version>
43012

> <i_f3d_flags>
0

> <s_epik_input>
W0NIM11bQ0BASF0xW0NIMl1bQ0gyXVtDSDJdW0NASF0oW0NASF0xW0NIM10pW05IXVMoPU8pKD1PKVtDSDJdYzJbY0hdW2NIXW9uMg==

> <s_epik_cmdline>
J2VwaWtfcHl0aG9uJywgJy1waCcsICc3LjAnLCAnLXRuJywgJzgnLCAnLW1hJywgJzIwMCcsICctbWV0YWxfYmluZGluZycsICctaW1hZScsICc8aW5maWxlLm1hZT4nLCAnLW9tYWUnLCAnPG91dGZpbGUubWFlPic=

> <r_lp_tautomer_probability>
1

> <r_epik_Ionization_Penalty>
5.22693

> <r_epik_Ionization_Penalty_Charging>
5.22693

> <r_epik_Ionization_Penalty_Neutral>
2.67702e-10

> <r_epik_State_Penalty>
5.22685

> <r_epik_Charging_Adjusted_Penalty>
10.4538

> <i_epik_Tot_Q>
-1

> <i_epik_Tot_abs_Q>
1

> <r_epik_Metal_State_Penalty>
1.28716

> <b_epik_Metal_Only>
1

> <s_lp_Force_Field>
OPLS_2005

> <r_lp_Energy>
15.3657

> <b_lp_Chiralities_Consistent>
1

> <s_lp_Variant>
AV-unprocessed.smi:2451-16

> <Gold.Version>
5.8.1

> <Gold.Id.Protein>
6NUR|6NUR_protein|mol2

> <Gold.PLP.Fitness>
45.4243

> <Gold.PLP.PLP>
-33.8993

> <Gold.PLP.part.hbond>
-5.1567

> <Gold.PLP.part.metal>
0.0000

> <Gold.PLP.part.buried>
-4.7445

> <Gold.PLP.part.nonpolar>
-23.7134

> <Gold.PLP.part.repulsive>
0.0396

> <Gold.PLP.ligand.clash>
0.0000

> <Gold.PLP.ligand.torsion>
0.8587

> <Gold.PLP.Chemscore.Hbond>
4.0838

> <Gold.PLP.Chemscore.CHOScore>
0.0000

> <Gold.PLP.Chemscore.Metal>
0.0000

> <Gold.Chemscore.Hbonds>
donor molecule, donor type, donor heavy atom, donor atom, acceptor molecule, acceptor atom, score
      P1  H  6896  6907       L1    15  0.15
      P1  H  7989  7998       L1     9  1.00
      P1  H  7997  8009       L1     7  2.00
      P1  H 10752 10764       L1    16  0.93

> <Gold.PLP.Chemscore.Internal.Correction>
0.9909

> <Gold.Rescore>
     Score         DG    S(hbond)    S(metal)    S(lipo)     H(rot)  DE(clash)    DE(int)     intcor
     18.55     -19.33       2.18        0.00      86.82       1.40       0.01       0.77       ----

> <Gold.Chemscore.Fitness>
18.5520

> <Gold.Chemscore.DG>
-19.3308

> <Gold.Chemscore.ZeroCoef>
-5.4800

> <Gold.Chemscore.Hbond>
2.1777

> <Gold.Chemscore.Metal>
0.0000

> <Gold.Chemscore.Lipo>
86.8186

> <Gold.Chemscore.Internal_Hbond>
0.0000

> <Gold.Chemscore.DEClash>
0.0064

> <Gold.Chemscore.DEInternal>
0.7724

> <Gold.Chemscore.Rot>
1.3986

> <Gold.Chemscore.Internal.Correction>
   9.000000E+99

> <Gold.Chemscore.Hbonds>
donor molecule, donor type, donor heavy atom, donor atom, acceptor molecule, acceptor atom, score
      P1  H  6896  6907       L1    15  0.01
      P1  H  7989  7998       L1     9  0.97
      P1  H  7997  8009       L1     7  0.34
      P1  H 10752 10764       L1    16  0.16

> <Gold.Chemscore.Hbond.Weighted>
-7.2734

> <Gold.Chemscore.Metal.Weighted>
-0.0000

> <Gold.Chemscore.Lipo.Weighted>
-10.1578

> <Gold.Chemscore.Internal_Hbond.Weighted>
0.0000

> <Gold.Chemscore.DEClash.Weighted>
0.0064

> <Gold.Chemscore.DEInternal.Weighted>
0.7724

> <Gold.Chemscore.Rot.Weighted>
3.5804

> <Gold.Chemscore.Internal.Correction.Weighted>
   9.000000E+99

> <Gold.Protein.RotatedTorsions>
[ 6907 6896 6895 6894 ] final   97.16 input  -60.11 | X-H torsion
[ 7974 7965 7964 7962 ] final   84.81 input  175.53 | X-H torsion
[ 8008 7997 7996 7995 ] final  166.56 input   59.86 | X-H torsion
[ 10167 10162 10161 10158 ] final   69.12 input  -65.29 | X-H torsion
[ 10718 10713 10712 10709 ] final   -1.21 input   66.30 | X-H torsion
[ 10763 10752 10751 10750 ] final  -17.14 input  -60.55 | X-H torsion
[ 11005 11000 10999 10996 ] final  178.20 input  -57.11 | X-H torsion

> <Gold.Protein.ActiveResidues>
 VAL166  LYS551  ARG553  GLY616  TRP617  ASP618  TYR619  PRO620  LYS621  CYS622 
 ASP623  PHE694  ASN695  SER759  ASP760  ASP761  ALA762  ILE779  LEU786  VAL792 
 PHE793  MET794  SER795  GLU796  ALA797  LYS798  CYS799  TRP800  GLU811  SER814 

> <Gold.Protein.RotatedAtoms>
  152.5427  134.0775  159.8220 H   0  0  0  0  0  0  0  0  0  0  0  0  # atno 6907 bound_to 6896
  151.0881  133.5329  159.2624 H   0  0  0  0  0  0  0  0  0  0  0  0  # atno 6908 bound_to 6896
  151.2131  135.0498  159.8973 H   0  0  0  0  0  0  0  0  0  0  0  0  # atno 6909 bound_to 6896
  145.5938  139.2342  143.2284 H   0  0  0  0  0  0  0  0  0  0  0  0  # atno 7974 bound_to 7965
  156.1708  140.1640  156.8451 H   0  0  0  0  0  0  0  0  0  0  0  0  # atno 8008 bound_to 7997
  154.5255  140.0768  156.8284 H   0  0  0  0  0  0  0  0  0  0  0  0  # atno 8009 bound_to 7997
  155.3516  140.3390  155.4241 H   0  0  0  0  0  0  0  0  0  0  0  0  # atno 8010 bound_to 7997
  140.0713  144.5150  150.7225 H   0  0  0  0  0  0  0  0  0  0  0  0  # atno 10167 bound_to 10162
  156.8090  130.5418  149.5711 H   0  0  0  0  0  0  0  0  0  0  0  0  # atno 10718 bound_to 10713
  153.5694  135.7008  153.5511 H   0  0  0  0  0  0  0  0  0  0  0  0  # atno 10763 bound_to 10752
  153.3358  135.4034  155.1532 H   0  0  0  0  0  0  0  0  0  0  0  0  # atno 10764 bound_to 10752
  154.8635  135.3730  154.5215 H   0  0  0  0  0  0  0  0  0  0  0  0  # atno 10765 bound_to 10752
  140.3925  134.6849  157.4516 H   0  0  0  0  0  0  0  0  0  0  0  0  # atno 11005 bound_to 11000
  146.1627  140.6764  142.9270 LP  0  0  0  0  0  0  0  0  0  0  0  0  # atno 17320 bound_to 7965
  144.7339  140.4753  143.6917 LP  0  0  0  0  0  0  0  0  0  0  0  0  # atno 17321 bound_to 7965
  140.7124  143.2516  151.4539 LP  0  0  0  0  0  0  0  0  0  0  0  0  # atno 17342 bound_to 10162
  139.5834  144.1658  152.1998 LP  0  0  0  0  0  0  0  0  0  0  0  0  # atno 17343 bound_to 10162
  156.1056  130.6002  150.9965 LP  0  0  0  0  0  0  0  0  0  0  0  0  # atno 17370 bound_to 10713
  157.6515  131.0896  150.8040 LP  0  0  0  0  0  0  0  0  0  0  0  0  # atno 17371 bound_to 10713
  140.0396  134.6287  155.8998 LP  0  0  0  0  0  0  0  0  0  0  0  0  # atno 17394 bound_to 11000
  141.1886  133.6563  156.5330 LP  0  0  0  0  0  0  0  0  0  0  0  0  # atno 17395 bound_to 11000

$$$$
