#       Name:                AV-unprocessed.smi:302
#       Creating user name   scv26
#       Creation time:       Thu Mar 26 22:16:40 2020


#       File generated by GOLD software.
#

@<TRIPOS>MOLECULE
AV-unprocessed.smi:302
    52    53     1
SMALL
NO_CHARGES


@<TRIPOS>ATOM
      1 ****        -5.4032  -1.3050   2.7009 C.3            1 S1                 0.0000
      2 ****        -3.8870  -1.1102   2.6312 C.3            1 S1                 0.0000
      3 ****        -3.2651  -2.3886   2.5721 O.3            1 S1                 0.0000
      4 ****        -1.8392  -2.3772   2.5799 C.3            1 S1                 0.0000
      5 ****        -1.3764  -3.8170   2.8832 C.3            1 S1                 0.0000
      6 ****         0.1436  -3.9670   3.0503 C.3            1 S1                 0.0000
      7 ****        -1.3099  -1.8671   1.2277 C.2            1 S1                 0.0000
      8 ****        -1.5558  -2.4995   0.2009 O.2            1 S1                 0.0000
      9 ****        -0.5868  -0.7328   1.2733 N.am           1 S1                 0.0000
     10 ****         0.0397  -0.0381   0.2038 C.ar           1 S1                 0.0000
     11 ****        -0.3653  -0.1267  -1.1493 C.ar           1 S1                 0.0000
     12 ****         0.3300   0.6218  -2.1181 C.ar           1 S1                 0.0000
     13 ****         1.4003   1.4418  -1.7060 C.ar           1 S1                 0.0000
     14 ****         2.0992   2.1823  -2.6695 N.3            1 S1                 0.0000
     15 ****         3.4838   1.7580  -2.8348 C.3            1 S1                 0.0000
     16 ****         4.1352   2.5291  -3.9958 C.3            1 S1                 0.0000
     17 ****         4.0204   3.9304  -3.7637 O.3            1 S1                 0.0000
     18 ****         2.6610   4.3486  -3.6748 C.3            1 S1                 0.0000
     19 ****         1.9748   3.6251  -2.5033 C.3            1 S1                 0.0000
     20 ****         1.7826   1.5447  -0.4111 N.ar           1 S1                 0.0000
     21 ****         1.1117   0.8246   0.5125 C.ar           1 S1                 0.0000
     22 ****        -5.9171  -0.3453   2.7596 H              1 S1                 0.0000
     23 ****        -5.6837  -1.8891   3.5775 H              1 S1                 0.0000
     24 ****        -5.7711  -1.8277   1.8176 H              1 S1                 0.0000
     25 ****        -3.6380  -0.5093   1.7560 H              1 S1                 0.0000
     26 ****        -3.5438  -0.5676   3.5131 H              1 S1                 0.0000
     27 ****        -1.4929  -1.7278   3.3866 H              1 S1                 0.0000
     28 ****        -1.8580  -4.1518   3.8024 H              1 S1                 0.0000
     29 ****        -1.7240  -4.4953   2.1025 H              1 S1                 0.0000
     30 ****         0.4024  -4.9918   3.3168 H              1 S1                 0.0000
     31 ****         0.5182  -3.3145   3.8391 H              1 S1                 0.0000
     32 ****         0.6771  -3.7240   2.1311 H              1 S1                 0.0000
     33 ****        -0.4026  -0.3651   2.1956 H              1 S1                 0.0000
     34 ****        -1.1965  -0.7393  -1.4613 H              1 S1                 0.0000
     35 ****         0.0428   0.5675  -3.1581 H              1 S1                 0.0000
     36 ****         4.0390   1.9396  -1.9131 H              1 S1                 0.0000
     37 ****         3.5215   0.6854  -3.0294 H              1 S1                 0.0000
     38 ****         5.1901   2.2673  -4.0763 H              1 S1                 0.0000
     39 ****         3.6681   2.2678  -4.9467 H              1 S1                 0.0000
     40 ****         2.6296   5.4273  -3.5213 H              1 S1                 0.0000
     41 ****         2.1443   4.1450  -4.6144 H              1 S1                 0.0000
     42 ****         0.9210   3.9025  -2.4564 H              1 S1                 0.0000
     43 ****         2.4329   3.9308  -1.5616 H              1 S1                 0.0000
     44 ****         1.4485   0.9374   1.5327 H              1 S1                 0.0000
     45 ****        -3.5653  -2.8389   1.7311 LP             1 S1                 0.0000
     46 ****        -3.5736  -2.9183   3.3622 LP             1 S1                 0.0000
     47 ****        -2.0966  -3.3393   0.2483 LP             1 S1                 0.0000
     48 ****        -1.2149  -2.1735  -0.6809 LP             1 S1                 0.0000
     49 ****         1.6403   1.9686  -3.5319 LP             1 S1                 0.0000
     50 ****         4.4597   4.4193  -4.5174 LP             1 S1                 0.0000
     51 ****         4.4835   4.1544  -2.9062 LP             1 S1                 0.0000
     52 ****         2.5421   2.1387  -0.1461 LP             1 S1                 0.0000
@<TRIPOS>BOND
    1    1    2 1     
    2    1   22 1     
    3    1   23 1     
    4    1   24 1     
    5    2    3 1     
    6    2   25 1     
    7    2   26 1     
    8    3    4 1     
    9    4    5 1     
   10    4    7 1     
   11    4   27 1     
   12    5    6 1     
   13    5   28 1     
   14    5   29 1     
   15    6   30 1     
   16    6   31 1     
   17    6   32 1     
   18    7    8 2     
   19    7    9 am    
   20    9   10 1     
   21    9   33 1     
   22   10   21 ar    
   23   10   11 ar    
   24   11   12 ar    
   25   11   34 1     
   26   12   13 ar    
   27   12   35 1     
   28   13   14 1     
   29   13   20 ar    
   30   14   19 1     
   31   14   15 1     
   32   15   16 1     
   33   15   36 1     
   34   15   37 1     
   35   16   17 1     
   36   16   38 1     
   37   16   39 1     
   38   17   18 1     
   39   18   19 1     
   40   18   40 1     
   41   18   41 1     
   42   19   42 1     
   43   19   43 1     
   44   20   21 ar    
   45   21   44 1     
   46    3   45 1     
   47    3   46 1     
   48    8   47 1     
   49    8   48 1     
   50   14   49 1     
   51   17   50 1     
   52   17   51 1     
   53   20   52 1     
@<TRIPOS>SUBSTRUCTURE
      1 S1             1
@<TRIPOS>SET
LONE_PAIRS      STATIC     ATOMS    <user>   **** ""
8 45 46 47 48 49 50 51 52
DONOR_HYDROGENS      STATIC     ATOMS    <user>   **** ""
1 33
ATOM$BLUE        STATIC     ATOMS    COLORGROUP SYSTEM
8 45 46 47 48 49 50 51 52
ATOM$RED        STATIC     ATOMS    COLORGROUP SYSTEM
1 33
