AV-unprocessed.smi:3274|AV-procd|sdf|12525|dock2
  -GOLD-   2272018443D 1   1.00000     0.00000
 Structure written by MMmdl.
 43 44  0  0  0  0  0  0  0  0  2 V2000
  154.2007  140.6003  160.3015 C   0  0  0  0  0  0  0  0  0  0  0  0
  153.3993  141.8626  160.5728 C   0  0  0  0  0  0  0  0  0  0  0  0
  153.2337  142.3198  161.8298 C   0  0  0  0  0  0  0  0  0  0  0  0
  152.4974  143.5966  162.1974 C   0  0  0  0  0  0  0  0  0  0  0  0
  151.7821  144.2487  161.0020 C   0  0  0  0  0  0  0  0  0  0  0  0
  152.6047  144.1076  159.7100 C   0  0  2  0  0  0  0  0  0  0  0  0
  152.0314  144.9530  158.5585 C   0  0  0  0  0  0  0  0  0  0  0  0
  152.8331  142.6104  159.3591 C   0  0  2  0  0  0  0  0  0  0  0  0
  151.5669  141.9213  158.7894 C   0  0  0  0  0  0  0  0  0  0  0  0
  151.3013  142.2873  157.3820 N   0  3  0  0  0  0  0  0  0  0  0  0
  150.8501  141.1741  156.5160 C   0  0  2  0  0  0  0  0  0  0  0  0
  149.4250  140.7682  156.9142 C   0  0  0  0  0  0  0  0  0  0  0  0
  151.8090  139.9675  156.6116 C   0  0  0  0  0  0  0  0  0  0  0  0
  151.5935  138.9900  155.5606 N   0  0  0  0  0  0  0  0  0  0  0  0
  152.4343  138.4882  154.6547 C   0  0  0  0  0  0  0  0  0  0  0  0
  151.8842  137.5802  153.8608 N   0  0  0  0  0  0  0  0  0  0  0  0
  150.6122  137.5788  154.3598 C   0  0  0  0  0  0  0  0  0  0  0  0
  150.3858  138.4042  155.3820 N   0  0  0  0  0  0  0  0  0  0  0  0
  154.9396  140.7765  159.5192 H   0  0  0  0  0  0  0  0  0  0  0  0
  153.5577  139.7767  159.9961 H   0  0  0  0  0  0  0  0  0  0  0  0
  154.7362  140.2772  161.1950 H   0  0  0  0  0  0  0  0  0  0  0  0
  153.6691  141.7780  162.6570 H   0  0  0  0  0  0  0  0  0  0  0  0
  151.7841  143.3890  162.9954 H   0  0  0  0  0  0  0  0  0  0  0  0
  153.2329  144.2900  162.6062 H   0  0  0  0  0  0  0  0  0  0  0  0
  150.8019  143.7908  160.8662 H   0  0  0  0  0  0  0  0  0  0  0  0
  151.5951  145.3001  161.2239 H   0  0  0  0  0  0  0  0  0  0  0  0
  153.5896  144.5304  159.9180 H   0  0  0  0  0  0  0  0  0  0  0  0
  150.9841  144.7241  158.3618 H   0  0  0  0  0  0  0  0  0  0  0  0
  152.5923  144.7966  157.6366 H   0  0  0  0  0  0  0  0  0  0  0  0
  152.0853  146.0155  158.7974 H   0  0  0  0  0  0  0  0  0  0  0  0
  153.5993  142.5910  158.5824 H   0  0  0  0  0  0  0  0  0  0  0  0
  151.6571  140.8368  158.8606 H   0  0  0  0  0  0  0  0  0  0  0  0
  150.6923  142.1984  159.3722 H   0  0  0  0  0  0  0  0  0  0  0  0
  150.5997  143.0138  157.3574 H   0  0  0  0  0  0  0  0  0  0  0  0
  150.8110  141.5171  155.4807 H   0  0  0  0  0  0  0  0  0  0  0  0
  149.0535  139.9641  156.2782 H   0  0  0  0  0  0  0  0  0  0  0  0
  148.7358  141.6077  156.8162 H   0  0  0  0  0  0  0  0  0  0  0  0
  149.3828  140.4215  157.9473 H   0  0  0  0  0  0  0  0  0  0  0  0
  152.8482  140.2991  156.5796 H   0  0  0  0  0  0  0  0  0  0  0  0
  151.6761  139.4605  157.5683 H   0  0  0  0  0  0  0  0  0  0  0  0
  153.4708  138.7837  154.5813 H   0  0  0  0  0  0  0  0  0  0  0  0
  149.8321  136.9462  153.9625 H   0  0  0  0  0  0  0  0  0  0  0  0
  152.1593  142.6587  156.9999 H   0  0  0  0  0  0  0  0  0  0  0  0
  1  2  1  0  0  0  0
  1 19  1  0  0  0  0
  1 20  1  0  0  0  0
  1 21  1  0  0  0  0
  2  8  1  0  0  0  0
  2  3  2  0  0  0  0
  3  4  1  0  0  0  0
  3 22  1  0  0  0  0
  4  5  1  0  0  0  0
  4 23  1  0  0  0  0
  4 24  1  0  0  0  0
  5  6  1  0  0  0  0
  5 25  1  0  0  0  0
  5 26  1  0  0  0  0
  6  7  1  0  0  0  0
  6  8  1  0  0  0  0
  6 27  1  0  0  0  0
  7 28  1  0  0  0  0
  7 29  1  0  0  0  0
  7 30  1  0  0  0  0
  8  9  1  0  0  0  0
  8 31  1  0  0  0  0
  9 10  1  0  0  0  0
  9 32  1  0  0  0  0
  9 33  1  0  0  0  0
 10 11  1  0  0  0  0
 10 34  1  0  0  0  0
 10 43  1  0  0  0  0
 11 12  1  0  0  0  0
 11 13  1  0  0  0  0
 11 35  1  0  0  0  0
 12 36  1  0  0  0  0
 12 37  1  0  0  0  0
 12 38  1  0  0  0  0
 13 14  1  0  0  0  0
 13 39  1  0  0  0  0
 13 40  1  0  0  0  0
 14 18  1  0  0  0  0
 14 15  1  0  0  0  0
 15 16  2  0  0  0  0
 15 41  1  0  0  0  0
 16 17  1  0  0  0  0
 17 18  2  0  0  0  0
 17 42  1  0  0  0  0
M  CHG  1  10   1
M  END
> <s_m_source_file>
AV-unprocessed.smi

> <i_m_source_file_index>
3274

> <i_lp_mmshare_version>
43012

> <i_f3d_flags>
0

> <s_epik_input>
W0NIM11DMT1bQ0hdW0NIMl1bQ0gyXVtDQEBIXShbQ0gzXSlbQ0BIXTFbQ0gyXVtOSF1bQ0BIXShbQ0gzXSlbQ0gyXW4yW2NIXW5bY0hdbjI=

> <s_epik_cmdline>
J2VwaWtfcHl0aG9uJywgJy1waCcsICc3LjAnLCAnLXRuJywgJzgnLCAnLW1hJywgJzIwMCcsICctbWV0YWxfYmluZGluZycsICctaW1hZScsICc8aW5maWxlLm1hZT4nLCAnLW9tYWUnLCAnPG91dGZpbGUubWFlPic=

> <r_lp_tautomer_probability>
1

> <r_epik_Ionization_Penalty>
0.0017527

> <r_epik_Ionization_Penalty_Charging>
0.00175191

> <r_epik_Ionization_Penalty_Neutral>
7.94565e-07

> <r_epik_State_Penalty>
0.00118605

> <r_epik_Charging_Adjusted_Penalty>
0.00293796

> <i_epik_Tot_Q>
1

> <i_epik_Tot_abs_Q>
1

> <r_epik_Metal_State_Penalty>
-0

> <b_epik_Metal_Only>
0

> <s_lp_Force_Field>
OPLS_2005

> <r_lp_Energy>
18.1701

> <b_lp_Chiralities_Consistent>
1

> <s_lp_Variant>
AV-unprocessed.smi:3274-4

> <Gold.Version>
5.8.1

> <Gold.Id.Protein>
6NUR|6NUR_protein|mol2

> <Gold.PLP.Fitness>
52.1398

> <Gold.PLP.PLP>
-47.4173

> <Gold.PLP.part.hbond>
-1.0000

> <Gold.PLP.part.metal>
0.0000

> <Gold.PLP.part.buried>
-4.3312

> <Gold.PLP.part.nonpolar>
-43.6938

> <Gold.PLP.part.repulsive>
0.8785

> <Gold.PLP.ligand.clash>
0.0000

> <Gold.PLP.ligand.torsion>
0.5941

> <Gold.PLP.Chemscore.Hbond>
0.9120

> <Gold.PLP.Chemscore.CHOScore>
1.0102

> <Gold.PLP.Chemscore.Metal>
0.0000

> <Gold.Chemscore.Hbonds>
donor molecule, donor type, donor heavy atom, donor atom, acceptor molecule, acceptor atom, score
      P1  H 10752 10764       L1    16  0.60
      L1  C    17    42       P1  7948  1.00

> <Gold.PLP.Chemscore.Internal.Correction>
0.1441

> <Gold.Rescore>
     Score         DG    S(hbond)    S(metal)    S(lipo)     H(rot)  DE(clash)    DE(int)     intcor
     14.40     -16.34       0.87        0.00     119.62       2.36       0.05       1.89       ----

> <Gold.Chemscore.Fitness>
14.3982

> <Gold.Chemscore.DG>
-16.3366

> <Gold.Chemscore.ZeroCoef>
-5.4800

> <Gold.Chemscore.Hbond>
0.8701

> <Gold.Chemscore.Metal>
0.0000

> <Gold.Chemscore.Lipo>
119.6243

> <Gold.Chemscore.Internal_Hbond>
0.0000

> <Gold.Chemscore.DEClash>
0.0525

> <Gold.Chemscore.DEInternal>
1.8860

> <Gold.Chemscore.Rot>
2.3615

> <Gold.Chemscore.Internal.Correction>
   9.000000E+99

> <Gold.Chemscore.Hbonds>
donor molecule, donor type, donor heavy atom, donor atom, acceptor molecule, acceptor atom, score
      P1  H 10752 10764       L1    16  0.34

> <Gold.Chemscore.Hbond.Weighted>
-2.9060

> <Gold.Chemscore.Metal.Weighted>
-0.0000

> <Gold.Chemscore.Lipo.Weighted>
-13.9960

> <Gold.Chemscore.Internal_Hbond.Weighted>
0.0000

> <Gold.Chemscore.DEClash.Weighted>
0.0525

> <Gold.Chemscore.DEInternal.Weighted>
1.8860

> <Gold.Chemscore.Rot.Weighted>
6.0454

> <Gold.Chemscore.Internal.Correction.Weighted>
   9.000000E+99

> <Gold.Protein.RotatedTorsions>
[ 6907 6896 6895 6894 ] final  163.89 input  -60.11 | X-H torsion
[ 7974 7965 7964 7962 ] final -133.95 input  175.53 | X-H torsion
[ 8008 7997 7996 7995 ] final  -49.96 input   59.86 | X-H torsion
[ 10167 10162 10161 10158 ] final  -27.28 input  -65.29 | X-H torsion
[ 10718 10713 10712 10709 ] final -158.90 input   66.30 | X-H torsion
[ 10763 10752 10751 10750 ] final  -92.50 input  -60.55 | X-H torsion
[ 11005 11000 10999 10996 ] final  125.45 input  -57.11 | X-H torsion

> <Gold.Protein.ActiveResidues>
 VAL166  LYS551  ARG553  GLY616  TRP617  ASP618  TYR619  PRO620  LYS621  CYS622 
 ASP623  PHE694  ASN695  SER759  ASP760  ASP761  ALA762  ILE779  LEU786  VAL792 
 PHE793  MET794  SER795  GLU796  ALA797  LYS798  CYS799  TRP800  GLU811  SER814 

> <Gold.Protein.RotatedAtoms>
  151.9183  133.3579  159.3887 H   0  0  0  0  0  0  0  0  0  0  0  0  # atno 6907 bound_to 6896
  150.7042  134.4661  159.5413 H   0  0  0  0  0  0  0  0  0  0  0  0  # atno 6908 bound_to 6896
  152.2280  134.8349  160.0528 H   0  0  0  0  0  0  0  0  0  0  0  0  # atno 6909 bound_to 6896
  144.9146  140.6938  143.5003 H   0  0  0  0  0  0  0  0  0  0  0  0  # atno 7974 bound_to 7965
  154.4053  140.1284  156.4588 H   0  0  0  0  0  0  0  0  0  0  0  0  # atno 8008 bound_to 7997
  155.7293  140.3491  155.5032 H   0  0  0  0  0  0  0  0  0  0  0  0  # atno 8009 bound_to 7997
  155.9142  140.1041  157.1247 H   0  0  0  0  0  0  0  0  0  0  0  0  # atno 8010 bound_to 7997
  140.7278  143.4106  151.1112 H   0  0  0  0  0  0  0  0  0  0  0  0  # atno 10167 bound_to 10162
  156.5606  130.8645  151.2808 H   0  0  0  0  0  0  0  0  0  0  0  0  # atno 10718 bound_to 10713
  154.6867  135.5229  153.8337 H   0  0  0  0  0  0  0  0  0  0  0  0  # atno 10763 bound_to 10752
  153.0603  135.6566  154.0488 H   0  0  0  0  0  0  0  0  0  0  0  0  # atno 10764 bound_to 10752
  154.0368  135.2980  155.3340 H   0  0  0  0  0  0  0  0  0  0  0  0  # atno 10765 bound_to 10752
  139.9407  134.9635  156.8560 H   0  0  0  0  0  0  0  0  0  0  0  0  # atno 11005 bound_to 11000
  145.3397  139.1736  143.4492 LP  0  0  0  0  0  0  0  0  0  0  0  0  # atno 17320 bound_to 7965
  146.3175  140.3436  142.8650 LP  0  0  0  0  0  0  0  0  0  0  0  0  # atno 17321 bound_to 7965
  139.7739  143.8454  152.3125 LP  0  0  0  0  0  0  0  0  0  0  0  0  # atno 17342 bound_to 10162
  139.8382  144.7222  150.9365 LP  0  0  0  0  0  0  0  0  0  0  0  0  # atno 17343 bound_to 10162
  157.7369  130.9787  150.2164 LP  0  0  0  0  0  0  0  0  0  0  0  0  # atno 17370 bound_to 10713
  156.2803  130.3732  149.7942 LP  0  0  0  0  0  0  0  0  0  0  0  0  # atno 17371 bound_to 10713
  140.5959  134.0217  155.7518 LP  0  0  0  0  0  0  0  0  0  0  0  0  # atno 17394 bound_to 11000
  141.1040  133.9723  157.3029 LP  0  0  0  0  0  0  0  0  0  0  0  0  # atno 17395 bound_to 11000

$$$$
