AV-unprocessed.smi:1088|AV-procd|sdf|4732|dock4
  -GOLD-   22720 3263D 1   1.00000     0.00000
 Structure written by MMmdl.
 47 48  0  0  0  0  0  0  0  0  1 V2000
  152.6316  138.4388  155.8240 C   0  0  0  0  0  0  0  0  0  0  0  0
  151.9657  138.0414  154.6389 O   0  0  0  0  0  0  0  0  0  0  0  0
  150.5537  138.1041  154.7607 C   0  0  0  0  0  0  0  0  0  0  0  0
  150.1258  139.5051  155.2241 C   0  0  0  0  0  0  0  0  0  0  0  0
  148.7476  139.9218  154.9339 N   0  0  0  0  0  0  0  0  0  0  0  0
  148.4270  139.6257  153.5478 C   0  0  0  0  0  0  0  0  0  0  0  0
  147.1684  140.4157  153.2102 C   0  0  0  0  0  0  0  0  0  0  0  0
  147.2248  141.6038  154.1727 C   0  0  0  0  0  0  0  0  0  0  0  0
  148.4680  141.3553  155.0521 C   0  0  1  0  0  0  0  0  0  0  0  0
  148.2626  141.8941  156.4869 C   0  0  0  0  0  0  0  0  0  0  0  0
  149.4018  142.6953  156.9251 N   0  0  0  0  0  0  0  0  0  0  0  0
  150.4642  142.2444  157.6089 C   0  0  0  0  0  0  0  0  0  0  0  0
  150.5953  141.0726  157.9651 O   0  0  0  0  0  0  0  0  0  0  0  0
  151.5268  143.2947  157.9603 C   0  0  0  0  0  0  0  0  0  0  0  0
  151.9704  143.2251  159.3585 N   0  0  0  0  0  0  0  0  0  0  0  0
  151.6814  144.2654  160.2224 C   0  0  0  0  0  0  0  0  0  0  0  0
  152.0446  144.2760  161.5235 C   0  0  0  0  0  0  0  0  0  0  0  0
  152.7833  143.1615  162.1047 C   0  0  0  0  0  0  0  0  0  0  0  0
  153.1201  143.1262  163.2887 O   0  0  0  0  0  0  0  0  0  0  0  0
  153.0751  142.1155  161.1964 N   0  0  0  0  0  0  0  0  0  0  0  0
  153.7946  140.9531  161.6737 C   0  0  0  0  0  0  0  0  0  0  0  0
  152.6808  142.1047  159.8401 C   0  0  0  0  0  0  0  0  0  0  0  0
  152.9381  141.1555  159.0954 O   0  0  0  0  0  0  0  0  0  0  0  0
  153.7098  138.3822  155.6743 H   0  0  0  0  0  0  0  0  0  0  0  0
  152.3730  137.7849  156.6579 H   0  0  0  0  0  0  0  0  0  0  0  0
  152.3817  139.4660  156.0926 H   0  0  0  0  0  0  0  0  0  0  0  0
  150.0612  137.8369  153.8272 H   0  0  0  0  0  0  0  0  0  0  0  0
  150.2189  137.3686  155.4937 H   0  0  0  0  0  0  0  0  0  0  0  0
  150.3347  139.6118  156.2895 H   0  0  0  0  0  0  0  0  0  0  0  0
  150.7949  140.2076  154.7249 H   0  0  0  0  0  0  0  0  0  0  0  0
  149.2375  139.9591  152.8972 H   0  0  0  0  0  0  0  0  0  0  0  0
  148.2955  138.5552  153.3870 H   0  0  0  0  0  0  0  0  0  0  0  0
  147.1464  140.7225  152.1643 H   0  0  0  0  0  0  0  0  0  0  0  0
  146.2794  139.8148  153.4058 H   0  0  0  0  0  0  0  0  0  0  0  0
  147.2980  142.5547  153.6440 H   0  0  0  0  0  0  0  0  0  0  0  0
  146.3110  141.6277  154.7681 H   0  0  0  0  0  0  0  0  0  0  0  0
  149.2974  141.9002  154.5974 H   0  0  0  0  0  0  0  0  0  0  0  0
  147.3286  142.4553  156.5476 H   0  0  0  0  0  0  0  0  0  0  0  0
  148.1750  141.0913  157.2106 H   0  0  0  0  0  0  0  0  0  0  0  0
  149.3817  143.6754  156.6839 H   0  0  0  0  0  0  0  0  0  0  0  0
  152.3840  143.1901  157.2925 H   0  0  0  0  0  0  0  0  0  0  0  0
  151.1097  144.2808  157.7513 H   0  0  0  0  0  0  0  0  0  0  0  0
  151.1314  145.1135  159.8413 H   0  0  0  0  0  0  0  0  0  0  0  0
  151.7823  145.1200  162.1444 H   0  0  0  0  0  0  0  0  0  0  0  0
  154.5878  140.7301  160.9577 H   0  0  0  0  0  0  0  0  0  0  0  0
  153.0727  140.1374  161.7375 H   0  0  0  0  0  0  0  0  0  0  0  0
  154.2480  141.1455  162.6457 H   0  0  0  0  0  0  0  0  0  0  0  0
  1  2  1  0  0  0  0
  1 24  1  0  0  0  0
  1 25  1  0  0  0  0
  1 26  1  0  0  0  0
  2  3  1  0  0  0  0
  3  4  1  0  0  0  0
  3 27  1  0  0  0  0
  3 28  1  0  0  0  0
  4  5  1  0  0  0  0
  4 29  1  0  0  0  0
  4 30  1  0  0  0  0
  5  9  1  0  0  0  0
  5  6  1  0  0  0  0
  6  7  1  0  0  0  0
  6 31  1  0  0  0  0
  6 32  1  0  0  0  0
  7  8  1  0  0  0  0
  7 33  1  0  0  0  0
  7 34  1  0  0  0  0
  8  9  1  0  0  0  0
  8 35  1  0  0  0  0
  8 36  1  0  0  0  0
  9 10  1  0  0  0  0
  9 37  1  0  0  0  0
 10 11  1  0  0  0  0
 10 38  1  0  0  0  0
 10 39  1  0  0  0  0
 11 12  1  0  0  0  0
 11 40  1  0  0  0  0
 12 13  2  0  0  0  0
 12 14  1  0  0  0  0
 14 15  1  0  0  0  0
 14 41  1  0  0  0  0
 14 42  1  0  0  0  0
 15 22  1  0  0  0  0
 15 16  1  0  0  0  0
 16 17  2  0  0  0  0
 16 43  1  0  0  0  0
 17 18  1  0  0  0  0
 17 44  1  0  0  0  0
 18 19  2  0  0  0  0
 18 20  1  0  0  0  0
 20 21  1  0  0  0  0
 20 22  1  0  0  0  0
 21 45  1  0  0  0  0
 21 46  1  0  0  0  0
 21 47  1  0  0  0  0
 22 23  2  0  0  0  0
M  END
> <s_m_source_file>
AV-unprocessed.smi

> <i_m_source_file_index>
1088

> <i_lp_mmshare_version>
43012

> <i_f3d_flags>
0

> <s_epik_input>
W0NIM11PW0NIMl1bQ0gyXU4xW0NIMl1bQ0gyXVtDSDJdW0NASF0xW0NIMl1bTkhdQyg9TylbQ0gyXW4yW2NIXVtjSF1jKD1PKW4oW0NIM10pYzI9Tw==

> <s_epik_cmdline>
J2VwaWtfcHl0aG9uJywgJy1waCcsICc3LjAnLCAnLXRuJywgJzgnLCAnLW1hJywgJzIwMCcsICctbWV0YWxfYmluZGluZycsICctaW1hZScsICc8aW5maWxlLm1hZT4nLCAnLW9tYWUnLCAnPG91dGZpbGUubWFlPic=

> <r_lp_tautomer_probability>
1

> <r_epik_Ionization_Penalty>
2.28131

> <r_epik_Ionization_Penalty_Charging>
1.22971e-08

> <r_epik_Ionization_Penalty_Neutral>
2.28131

> <r_epik_State_Penalty>
2.43063

> <r_epik_Charging_Adjusted_Penalty>
2.43063

> <i_epik_Tot_Q>
0

> <i_epik_Tot_abs_Q>
0

> <r_epik_Metal_State_Penalty>
2.43056

> <b_epik_Metal_Only>
0

> <s_lp_Force_Field>
OPLS_2005

> <r_lp_Energy>
52.4092

> <b_lp_Chiralities_Consistent>
1

> <s_lp_Variant>
AV-unprocessed.smi:1088-5

> <Gold.Version>
5.8.1

> <Gold.Id.Protein>
6NUR|6NUR_protein|mol2

> <Gold.PLP.Fitness>
49.4805

> <Gold.PLP.PLP>
-49.2003

> <Gold.PLP.part.hbond>
-1.0000

> <Gold.PLP.part.metal>
0.0000

> <Gold.PLP.part.buried>
-1.9493

> <Gold.PLP.part.nonpolar>
-45.3560

> <Gold.PLP.part.repulsive>
0.3177

> <Gold.PLP.ligand.clash>
0.0000

> <Gold.PLP.ligand.torsion>
1.2915

> <Gold.PLP.Chemscore.Hbond>
0.9280

> <Gold.PLP.Chemscore.CHOScore>
0.0000

> <Gold.PLP.Chemscore.Metal>
0.0000

> <Gold.Chemscore.Hbonds>
donor molecule, donor type, donor heavy atom, donor atom, acceptor molecule, acceptor atom, score
      L1  H    11    40       P1  8028  0.93

> <Gold.PLP.Chemscore.Internal.Correction>
0.0793

> <Gold.Rescore>
     Score         DG    S(hbond)    S(metal)    S(lipo)     H(rot)  DE(clash)    DE(int)     intcor
     11.60     -14.66       1.63        0.00      86.51       2.49       0.20       2.86       ----

> <Gold.Chemscore.Fitness>
11.6050

> <Gold.Chemscore.DG>
-14.6594

> <Gold.Chemscore.ZeroCoef>
-5.4800

> <Gold.Chemscore.Hbond>
1.6294

> <Gold.Chemscore.Metal>
0.0000

> <Gold.Chemscore.Lipo>
86.5061

> <Gold.Chemscore.Internal_Hbond>
0.0000

> <Gold.Chemscore.DEClash>
0.1992

> <Gold.Chemscore.DEInternal>
2.8553

> <Gold.Chemscore.Rot>
2.4938

> <Gold.Chemscore.Internal.Correction>
   9.000000E+99

> <Gold.Chemscore.Hbonds>
donor molecule, donor type, donor heavy atom, donor atom, acceptor molecule, acceptor atom, score
      L1  H    11    40       P1  8028  0.81

> <Gold.Chemscore.Hbond.Weighted>
-5.4423

> <Gold.Chemscore.Metal.Weighted>
-0.0000

> <Gold.Chemscore.Lipo.Weighted>
-10.1212

> <Gold.Chemscore.Internal_Hbond.Weighted>
0.0000

> <Gold.Chemscore.DEClash.Weighted>
0.1992

> <Gold.Chemscore.DEInternal.Weighted>
2.8553

> <Gold.Chemscore.Rot.Weighted>
6.3841

> <Gold.Chemscore.Internal.Correction.Weighted>
   9.000000E+99

> <Gold.Protein.RotatedTorsions>
[ 6907 6896 6895 6894 ] final   65.36 input  -60.11 | X-H torsion
[ 7974 7965 7964 7962 ] final   13.71 input  175.53 | X-H torsion
[ 8008 7997 7996 7995 ] final  -53.79 input   59.86 | X-H torsion
[ 10167 10162 10161 10158 ] final  118.15 input  -65.29 | X-H torsion
[ 10718 10713 10712 10709 ] final   73.05 input   66.30 | X-H torsion
[ 10763 10752 10751 10750 ] final  155.00 input  -60.55 | X-H torsion
[ 11005 11000 10999 10996 ] final  128.75 input  -57.11 | X-H torsion

> <Gold.Protein.ActiveResidues>
 VAL166  LYS551  ARG553  GLY616  TRP617  ASP618  TYR619  PRO620  LYS621  CYS622 
 ASP623  PHE694  ASN695  SER759  ASP760  ASP761  ALA762  ILE779  LEU786  VAL792 
 PHE793  MET794  SER795  GLU796  ALA797  LYS798  CYS799  TRP800  GLU811  SER814 

> <Gold.Protein.RotatedAtoms>
  152.4402  134.5606  159.9892 H   0  0  0  0  0  0  0  0  0  0  0  0  # atno 6907 bound_to 6896
  151.5706  133.3385  159.2997 H   0  0  0  0  0  0  0  0  0  0  0  0  # atno 6908 bound_to 6896
  150.8307  134.7592  159.6915 H   0  0  0  0  0  0  0  0  0  0  0  0  # atno 6909 bound_to 6896
  146.2323  139.9148  142.8519 H   0  0  0  0  0  0  0  0  0  0  0  0  # atno 7974 bound_to 7965
  154.4143  140.1191  156.5211 H   0  0  0  0  0  0  0  0  0  0  0  0  # atno 8008 bound_to 7997
  155.6701  140.3496  155.4796 H   0  0  0  0  0  0  0  0  0  0  0  0  # atno 8009 bound_to 7997
  155.9640  140.1128  157.0861 H   0  0  0  0  0  0  0  0  0  0  0  0  # atno 8010 bound_to 7997
  139.6131  144.7086  151.2800 H   0  0  0  0  0  0  0  0  0  0  0  0  # atno 10167 bound_to 10162
  157.6530  130.9609  150.1015 H   0  0  0  0  0  0  0  0  0  0  0  0  # atno 10718 bound_to 10713
  154.1613  135.2809  155.3108 H   0  0  0  0  0  0  0  0  0  0  0  0  # atno 10763 bound_to 10752
  154.6145  135.5488  153.7511 H   0  0  0  0  0  0  0  0  0  0  0  0  # atno 10764 bound_to 10752
  153.0191  135.6423  154.1755 H   0  0  0  0  0  0  0  0  0  0  0  0  # atno 10765 bound_to 10752
  139.9577  134.9609  156.9047 H   0  0  0  0  0  0  0  0  0  0  0  0  # atno 11005 bound_to 11000
  145.2194  140.9929  143.4054 LP  0  0  0  0  0  0  0  0  0  0  0  0  # atno 17320 bound_to 7965
  144.9623  139.3967  143.6350 LP  0  0  0  0  0  0  0  0  0  0  0  0  # atno 17321 bound_to 7965
  140.7332  143.6800  150.8009 LP  0  0  0  0  0  0  0  0  0  0  0  0  # atno 17342 bound_to 10162
  140.0399  143.5357  152.2723 LP  0  0  0  0  0  0  0  0  0  0  0  0  # atno 17343 bound_to 10162
  156.1936  130.3656  149.8878 LP  0  0  0  0  0  0  0  0  0  0  0  0  # atno 17370 bound_to 10713
  156.6800  130.8854  151.3574 LP  0  0  0  0  0  0  0  0  0  0  0  0  # atno 17371 bound_to 10713
  140.5570  134.0571  155.7387 LP  0  0  0  0  0  0  0  0  0  0  0  0  # atno 17394 bound_to 11000
  141.1251  133.9396  157.2651 LP  0  0  0  0  0  0  0  0  0  0  0  0  # atno 17395 bound_to 11000

$$$$
