AV-unprocessed.smi:707|AV-procd|sdf|3453|dock2
  -GOLD-   22720 0433D 1   1.00000     0.00000
 Structure written by MMmdl.
 44 45  0  0  0  0  0  0  0  0  1 V2000
  150.1057  139.9651  154.8416 C   0  0  0  0  0  0  0  0  0  0  0  0
  151.2511  139.0054  154.8368 C   0  0  0  0  0  0  0  0  0  0  0  0
  152.5331  139.3765  154.7383 N   0  0  0  0  0  0  0  0  0  0  0  0
  153.2626  138.2043  154.7732 N   0  0  0  0  0  0  0  0  0  0  0  0
  152.3472  137.2428  154.8888 C   0  0  0  0  0  0  0  0  0  0  0  0
  151.0766  137.6717  154.9338 N   0  0  0  0  0  0  0  0  0  0  0  0
  149.8613  136.8890  155.0597 C   0  0  0  0  0  0  0  0  0  0  0  0
  150.1698  135.4007  155.2719 C   0  0  0  0  0  0  0  0  0  0  0  0
  149.7296  134.6174  154.1263 N   0  0  0  0  0  0  0  0  0  0  0  0
  149.7031  133.2774  154.0920 C   0  0  0  0  0  0  0  0  0  0  0  0
  150.0514  132.5679  155.0354 O   0  0  0  0  0  0  0  0  0  0  0  0
  149.2004  132.6371  152.8015 C   0  0  0  0  0  0  0  0  0  0  0  0
  147.9660  133.2476  152.4567 O   0  0  0  0  0  0  0  0  0  0  0  0
  146.8789  132.9244  153.3166 C   0  0  2  0  0  0  0  0  0  0  0  0
  146.7764  131.3901  153.3842 C   0  0  0  0  0  0  0  0  0  0  0  0
  146.3405  130.7862  152.0385 C   0  0  0  0  0  0  0  0  0  0  0  0
  145.0259  131.4086  151.5431 C   0  0  0  0  0  0  0  0  0  0  0  0
  145.1257  132.9431  151.4519 C   0  0  1  0  0  0  0  0  0  0  0  0
  143.8115  133.5635  150.9568 C   0  0  0  0  0  0  0  0  0  0  0  0
  145.5522  133.5332  152.8108 C   0  0  0  0  0  0  0  0  0  0  0  0
  150.4693  140.9926  154.8099 H   0  0  0  0  0  0  0  0  0  0  0  0
  149.5095  139.8377  155.7453 H   0  0  0  0  0  0  0  0  0  0  0  0
  149.4698  139.7959  153.9724 H   0  0  0  0  0  0  0  0  0  0  0  0
  152.6116  136.1967  154.9435 H   0  0  0  0  0  0  0  0  0  0  0  0
  149.2716  137.2830  155.8881 H   0  0  0  0  0  0  0  0  0  0  0  0
  149.2668  137.0281  154.1557 H   0  0  0  0  0  0  0  0  0  0  0  0
  151.2414  135.2602  155.4224 H   0  0  0  0  0  0  0  0  0  0  0  0
  149.6676  135.0325  156.1676 H   0  0  0  0  0  0  0  0  0  0  0  0
  149.4175  135.1237  153.3102 H   0  0  0  0  0  0  0  0  0  0  0  0
  149.9314  132.7727  152.0024 H   0  0  0  0  0  0  0  0  0  0  0  0
  149.0840  131.5660  152.9656 H   0  0  0  0  0  0  0  0  0  0  0  0
  147.0939  133.2952  154.3201 H   0  0  0  0  0  0  0  0  0  0  0  0
  147.7324  130.9650  153.6915 H   0  0  0  0  0  0  0  0  0  0  0  0
  146.0553  131.1102  154.1531 H   0  0  0  0  0  0  0  0  0  0  0  0
  147.1221  130.9449  151.2945 H   0  0  0  0  0  0  0  0  0  0  0  0
  146.2248  129.7065  152.1371 H   0  0  0  0  0  0  0  0  0  0  0  0
  144.7698  130.9919  150.5684 H   0  0  0  0  0  0  0  0  0  0  0  0
  144.2161  131.1313  152.2195 H   0  0  0  0  0  0  0  0  0  0  0  0
  145.8972  133.1880  150.7202 H   0  0  0  0  0  0  0  0  0  0  0  0
  142.9913  133.3570  151.6451 H   0  0  0  0  0  0  0  0  0  0  0  0
  143.5347  133.1673  149.9795 H   0  0  0  0  0  0  0  0  0  0  0  0
  143.9009  134.6457  150.8592 H   0  0  0  0  0  0  0  0  0  0  0  0
  144.7718  133.3366  153.5472 H   0  0  0  0  0  0  0  0  0  0  0  0
  145.6243  134.6180  152.7433 H   0  0  0  0  0  0  0  0  0  0  0  0
  1  2  1  0  0  0  0
  1 21  1  0  0  0  0
  1 22  1  0  0  0  0
  1 23  1  0  0  0  0
  2  6  1  0  0  0  0
  2  3  2  0  0  0  0
  3  4  1  0  0  0  0
  4  5  2  0  0  0  0
  5  6  1  0  0  0  0
  5 24  1  0  0  0  0
  6  7  1  0  0  0  0
  7  8  1  0  0  0  0
  7 25  1  0  0  0  0
  7 26  1  0  0  0  0
  8  9  1  0  0  0  0
  8 27  1  0  0  0  0
  8 28  1  0  0  0  0
  9 10  1  0  0  0  0
  9 29  1  0  0  0  0
 10 11  2  0  0  0  0
 10 12  1  0  0  0  0
 12 13  1  0  0  0  0
 12 30  1  0  0  0  0
 12 31  1  0  0  0  0
 13 14  1  0  0  0  0
 14 20  1  0  0  0  0
 14 15  1  0  0  0  0
 14 32  1  0  0  0  0
 15 16  1  0  0  0  0
 15 33  1  0  0  0  0
 15 34  1  0  0  0  0
 16 17  1  0  0  0  0
 16 35  1  0  0  0  0
 16 36  1  0  0  0  0
 17 18  1  0  0  0  0
 17 37  1  0  0  0  0
 17 38  1  0  0  0  0
 18 19  1  0  0  0  0
 18 20  1  0  0  0  0
 18 39  1  0  0  0  0
 19 40  1  0  0  0  0
 19 41  1  0  0  0  0
 19 42  1  0  0  0  0
 20 43  1  0  0  0  0
 20 44  1  0  0  0  0
M  END
> <s_m_source_file>
AV-unprocessed.smi

> <i_m_source_file_index>
707

> <i_lp_mmshare_version>
43012

> <i_f3d_flags>
0

> <s_epik_input>
W0NIM11jMW5uW2NIXW4xW0NIMl1bQ0gyXVtOSF1DKD1PKVtDSDJdT1tDQEBIXTJbQ0gyXVtDSDJdW0NIMl1bQ0BASF0oW0NIM10pW0NIMl0y

> <s_epik_cmdline>
J2VwaWtfcHl0aG9uJywgJy1waCcsICc3LjAnLCAnLXRuJywgJzgnLCAnLW1hJywgJzIwMCcsICctbWV0YWxfYmluZGluZycsICctaW1hZScsICc8aW5maWxlLm1hZT4nLCAnLW9tYWUnLCAnPG91dGZpbGUubWFlPic=

> <r_lp_tautomer_probability>
1

> <r_epik_Ionization_Penalty>
0.000271783

> <r_epik_Ionization_Penalty_Charging>
0

> <r_epik_Ionization_Penalty_Neutral>
0.000271783

> <r_epik_State_Penalty>
-0

> <r_epik_Charging_Adjusted_Penalty>
0

> <i_epik_Tot_Q>
0

> <i_epik_Tot_abs_Q>
0

> <r_epik_Metal_State_Penalty>
-0

> <b_epik_Metal_Only>
0

> <s_lp_Force_Field>
OPLS_2005

> <r_lp_Energy>
13.9065

> <b_lp_Chiralities_Consistent>
1

> <s_lp_Variant>
AV-unprocessed.smi:707-1

> <Gold.Version>
5.8.1

> <Gold.Id.Protein>
6NUR|6NUR_protein|mol2

> <Gold.PLP.Fitness>
39.3226

> <Gold.PLP.PLP>
-34.2383

> <Gold.PLP.part.hbond>
-1.8049

> <Gold.PLP.part.metal>
0.0000

> <Gold.PLP.part.buried>
-6.4966

> <Gold.PLP.part.nonpolar>
-25.2655

> <Gold.PLP.part.repulsive>
0.3175

> <Gold.PLP.ligand.clash>
0.0000

> <Gold.PLP.ligand.torsion>
0.5627

> <Gold.PLP.Chemscore.Hbond>
2.0000

> <Gold.PLP.Chemscore.CHOScore>
0.0000

> <Gold.PLP.Chemscore.Metal>
0.0000

> <Gold.Chemscore.Hbonds>
donor molecule, donor type, donor heavy atom, donor atom, acceptor molecule, acceptor atom, score
      L1  H     9    29       P1  7948  0.60
      P1  H  7989  7998       L1     3  0.05

> <Gold.PLP.Chemscore.Internal.Correction>
0.2097

> <Gold.Rescore>
     Score         DG    S(hbond)    S(metal)    S(lipo)     H(rot)  DE(clash)    DE(int)     intcor
     11.44     -12.05       1.59        0.00      63.67       2.42       0.01       0.60       ----

> <Gold.Chemscore.Fitness>
11.4421

> <Gold.Chemscore.DG>
-12.0544

> <Gold.Chemscore.ZeroCoef>
-5.4800

> <Gold.Chemscore.Hbond>
1.5922

> <Gold.Chemscore.Metal>
0.0000

> <Gold.Chemscore.Lipo>
63.6706

> <Gold.Chemscore.Internal_Hbond>
0.0000

> <Gold.Chemscore.DEClash>
0.0088

> <Gold.Chemscore.DEInternal>
0.6034

> <Gold.Chemscore.Rot>
2.4191

> <Gold.Chemscore.Internal.Correction>
   9.000000E+99

> <Gold.Chemscore.Hbonds>
donor molecule, donor type, donor heavy atom, donor atom, acceptor molecule, acceptor atom, score
      L1  H     9    29       P1  7948  0.04

> <Gold.Chemscore.Hbond.Weighted>
-5.3178

> <Gold.Chemscore.Metal.Weighted>
-0.0000

> <Gold.Chemscore.Lipo.Weighted>
-7.4495

> <Gold.Chemscore.Internal_Hbond.Weighted>
0.0000

> <Gold.Chemscore.DEClash.Weighted>
0.0088

> <Gold.Chemscore.DEInternal.Weighted>
0.6034

> <Gold.Chemscore.Rot.Weighted>
6.1929

> <Gold.Chemscore.Internal.Correction.Weighted>
   9.000000E+99

> <Gold.Protein.RotatedTorsions>
[ 6907 6896 6895 6894 ] final  -58.79 input  -60.11 | X-H torsion
[ 7974 7965 7964 7962 ] final  125.96 input  175.53 | X-H torsion
[ 8008 7997 7996 7995 ] final -166.55 input   59.86 | X-H torsion
[ 10167 10162 10161 10158 ] final -169.93 input  -65.29 | X-H torsion
[ 10718 10713 10712 10709 ] final   81.16 input   66.30 | X-H torsion
[ 10763 10752 10751 10750 ] final   97.62 input  -60.55 | X-H torsion
[ 11005 11000 10999 10996 ] final -123.95 input  -57.11 | X-H torsion

> <Gold.Protein.ActiveResidues>
 VAL166  LYS551  ARG553  GLY616  TRP617  ASP618  TYR619  PRO620  LYS621  CYS622 
 ASP623  PHE694  ASN695  SER759  ASP760  ASP761  ALA762  ILE779  LEU786  VAL792 
 PHE793  MET794  SER795  GLU796  ALA797  LYS798  CYS799  TRP800  GLU811  SER814 

> <Gold.Protein.RotatedAtoms>
  150.7980  134.7053  159.6572 H   0  0  0  0  0  0  0  0  0  0  0  0  # atno 6907 bound_to 6896
  152.4094  134.6148  160.0045 H   0  0  0  0  0  0  0  0  0  0  0  0  # atno 6908 bound_to 6896
  151.6395  133.3290  159.3163 H   0  0  0  0  0  0  0  0  0  0  0  0  # atno 6909 bound_to 6896
  145.0671  139.3759  143.4976 H   0  0  0  0  0  0  0  0  0  0  0  0  # atno 7974 bound_to 7965
  155.8654  140.0985  157.1586 H   0  0  0  0  0  0  0  0  0  0  0  0  # atno 8008 bound_to 7997
  154.3993  140.1357  156.4074 H   0  0  0  0  0  0  0  0  0  0  0  0  # atno 8009 bound_to 7997
  155.7810  140.3458  155.5300 H   0  0  0  0  0  0  0  0  0  0  0  0  # atno 8010 bound_to 7997
  139.5892  144.1250  152.1614 H   0  0  0  0  0  0  0  0  0  0  0  0  # atno 10167 bound_to 10162
  157.6826  130.9992  150.2186 H   0  0  0  0  0  0  0  0  0  0  0  0  # atno 10718 bound_to 10713
  153.2791  135.4177  155.1061 H   0  0  0  0  0  0  0  0  0  0  0  0  # atno 10763 bound_to 10752
  154.8483  135.3491  154.6137 H   0  0  0  0  0  0  0  0  0  0  0  0  # atno 10764 bound_to 10752
  153.6558  135.7050  153.5251 H   0  0  0  0  0  0  0  0  0  0  0  0  # atno 10765 bound_to 10752
  140.9879  134.0580  157.3689 H   0  0  0  0  0  0  0  0  0  0  0  0  # atno 11005 bound_to 11000
  146.3527  140.0398  142.8644 LP  0  0  0  0  0  0  0  0  0  0  0  0  # atno 17320 bound_to 7965
  145.1337  140.9532  143.4529 LP  0  0  0  0  0  0  0  0  0  0  0  0  # atno 17321 bound_to 7965
  140.0820  144.5692  150.7115 LP  0  0  0  0  0  0  0  0  0  0  0  0  # atno 17342 bound_to 10162
  140.7158  143.2544  151.4437 LP  0  0  0  0  0  0  0  0  0  0  0  0  # atno 17343 bound_to 10162
  156.2842  130.3737  149.7905 LP  0  0  0  0  0  0  0  0  0  0  0  0  # atno 17370 bound_to 10713
  156.5584  130.8372  151.3321 LP  0  0  0  0  0  0  0  0  0  0  0  0  # atno 17371 bound_to 10713
  139.8979  135.0152  156.7122 LP  0  0  0  0  0  0  0  0  0  0  0  0  # atno 17394 bound_to 11000
  140.7085  133.9244  155.8069 LP  0  0  0  0  0  0  0  0  0  0  0  0  # atno 17395 bound_to 11000

$$$$
