AV-unprocessed.smi:40|AV-procd|sdf|381|dock6
  -GOLD-   2262016233D 1   1.00000     0.00000
 Structure written by MMmdl.
 47 48  0  0  0  0  0  0  0  0  1 V2000
  152.0231  145.1827  160.4750 C   0  0  0  0  0  0  0  0  0  0  0  0
  152.0173  144.0100  161.4644 C   0  0  0  0  0  0  0  0  0  0  0  0
  152.9812  142.8734  161.0866 C   0  0  0  0  0  0  0  0  0  0  0  0
  152.7406  142.2975  159.6796 C   0  0  0  0  0  0  0  0  0  0  0  0
  153.3793  140.9165  159.4802 C   0  0  0  0  0  0  0  0  0  0  0  0
  152.9343  140.3671  158.2513 O   0  0  0  0  0  0  0  0  0  0  0  0
  151.6198  140.2684  157.9835 C   0  0  0  0  0  0  0  0  0  0  0  0
  150.7310  140.5913  158.7715 O   0  0  0  0  0  0  0  0  0  0  0  0
  151.3846  139.7691  156.6383 N   0  0  0  0  0  0  0  0  0  0  0  0
  150.2074  139.5353  156.0073 C   0  0  0  0  0  0  0  0  0  0  0  0
  149.2338  140.4316  155.9601 N   0  0  0  0  0  0  0  0  0  0  0  0
  148.0428  140.2353  155.3153 C   0  0  0  0  0  0  0  0  0  0  0  0
  147.1790  141.1116  155.3068 O   0  0  0  0  0  0  0  0  0  0  0  0
  147.8550  138.9965  154.6593 N   0  0  0  0  0  0  0  0  0  0  0  0
  146.5463  138.7588  153.9336 C   0  0  2  0  0  0  0  0  0  0  0  0
  146.0939  137.4614  154.2013 O   0  0  0  0  0  0  0  0  0  0  0  0
  146.1312  136.6735  153.0155 C   0  0  1  0  0  0  0  0  0  0  0  0
  145.0855  135.5555  153.0952 C   0  0  0  0  0  0  0  0  0  0  0  0
  145.8741  137.6977  151.9127 C   0  0  2  0  0  0  0  0  0  0  0  0
  146.2676  137.2408  150.6323 O   0  0  0  0  0  0  0  0  0  0  0  0
  146.6650  138.9080  152.3982 C   0  0  2  0  0  0  0  0  0  0  0  0
  148.0049  138.8964  151.9271 O   0  0  0  0  0  0  0  0  0  0  0  0
  148.8716  138.0522  154.6746 C   0  0  0  0  0  0  0  0  0  0  0  0
  150.0377  138.2735  155.3188 C   0  0  0  0  0  0  0  0  0  0  0  0
  151.0094  137.3443  155.3174 F   0  0  0  0  0  0  0  0  0  0  0  0
  145.8244  139.4469  154.3766 H   0  0  0  0  0  0  0  0  0  0  0  0
  147.1295  136.2473  152.9047 H   0  0  0  0  0  0  0  0  0  0  0  0
  144.8133  137.9518  151.8897 H   0  0  0  0  0  0  0  0  0  0  0  0
  146.2002  139.8435  152.0852 H   0  0  0  0  0  0  0  0  0  0  0  0
  151.2785  145.9278  160.7560 H   0  0  0  0  0  0  0  0  0  0  0  0
  151.7903  144.8468  159.4644 H   0  0  0  0  0  0  0  0  0  0  0  0
  152.9913  145.6824  160.4501 H   0  0  0  0  0  0  0  0  0  0  0  0
  152.2477  144.3722  162.4671 H   0  0  0  0  0  0  0  0  0  0  0  0
  151.0057  143.6062  161.5158 H   0  0  0  0  0  0  0  0  0  0  0  0
  153.9991  143.2605  161.1436 H   0  0  0  0  0  0  0  0  0  0  0  0
  152.9206  142.0763  161.8287 H   0  0  0  0  0  0  0  0  0  0  0  0
  151.6691  142.2104  159.5002 H   0  0  0  0  0  0  0  0  0  0  0  0
  153.1232  142.9862  158.9255 H   0  0  0  0  0  0  0  0  0  0  0  0
  154.4674  140.9948  159.4849 H   0  0  0  0  0  0  0  0  0  0  0  0
  153.0941  140.2546  160.2990 H   0  0  0  0  0  0  0  0  0  0  0  0
  152.2273  139.5518  156.1264 H   0  0  0  0  0  0  0  0  0  0  0  0
  145.0816  134.9577  152.1835 H   0  0  0  0  0  0  0  0  0  0  0  0
  144.0829  135.9606  153.2349 H   0  0  0  0  0  0  0  0  0  0  0  0
  145.2945  134.8873  153.9309 H   0  0  0  0  0  0  0  0  0  0  0  0
  145.6356  137.5445  149.9985 H   0  0  0  0  0  0  0  0  0  0  0  0
  148.3048  138.0006  151.9046 H   0  0  0  0  0  0  0  0  0  0  0  0
  148.7528  137.1107  154.1609 H   0  0  0  0  0  0  0  0  0  0  0  0
  1  2  1  0  0  0  0
  1 30  1  0  0  0  0
  1 31  1  0  0  0  0
  1 32  1  0  0  0  0
  2  3  1  0  0  0  0
  2 33  1  0  0  0  0
  2 34  1  0  0  0  0
  3  4  1  0  0  0  0
  3 35  1  0  0  0  0
  3 36  1  0  0  0  0
  4  5  1  0  0  0  0
  4 37  1  0  0  0  0
  4 38  1  0  0  0  0
  5  6  1  0  0  0  0
  5 39  1  0  0  0  0
  5 40  1  0  0  0  0
  6  7  1  0  0  0  0
  7  8  2  0  0  0  0
  7  9  1  0  0  0  0
  9 10  1  0  0  0  0
  9 41  1  0  0  0  0
 10 24  1  0  0  0  0
 10 11  2  0  0  0  0
 11 12  1  0  0  0  0
 12 13  2  0  0  0  0
 12 14  1  0  0  0  0
 14 15  1  0  0  0  0
 14 23  1  0  0  0  0
 15 26  1  0  0  0  0
 15 21  1  0  0  0  0
 15 16  1  0  0  0  0
 16 17  1  0  0  0  0
 17 27  1  0  0  0  0
 17 18  1  0  0  0  0
 17 19  1  0  0  0  0
 18 42  1  0  0  0  0
 18 43  1  0  0  0  0
 18 44  1  0  0  0  0
 19 28  1  0  0  0  0
 19 20  1  0  0  0  0
 19 21  1  0  0  0  0
 20 45  1  0  0  0  0
 21 29  1  0  0  0  0
 21 22  1  0  0  0  0
 22 46  1  0  0  0  0
 23 24  2  0  0  0  0
 23 47  1  0  0  0  0
 24 25  1  0  0  0  0
M  END
> <s_m_source_file>
AV-unprocessed.smi

> <i_m_source_file_index>
40

> <i_lp_mmshare_version>
43012

> <i_f3d_flags>
0

> <s_epik_input>
W0NIM11bQ0gyXVtDSDJdW0NIMl1bQ0gyXU9DKD1PKVtOSF1jMW5jKD1PKW4oW2NIXWMxRilbQ0BASF0yT1tDQEhdKFtDSDNdKVtDQEBIXShbT0hdKVtDQEhdMltPSF0=

> <s_epik_cmdline>
J2VwaWtfcHl0aG9uJywgJy1waCcsICc3LjAnLCAnLXRuJywgJzgnLCAnLW1hJywgJzIwMCcsICctbWV0YWxfYmluZGluZycsICctaW1hZScsICc8aW5maWxlLm1hZT4nLCAnLW9tYWUnLCAnPG91dGZpbGUubWFlPic=

> <r_lp_tautomer_probability>
1

> <r_epik_Ionization_Penalty>
2.29506e-06

> <r_epik_Ionization_Penalty_Charging>
8.26867e-09

> <r_epik_Ionization_Penalty_Neutral>
2.2868e-06

> <r_epik_State_Penalty>
-0

> <r_epik_Charging_Adjusted_Penalty>
8.26867e-09

> <i_epik_Tot_Q>
0

> <i_epik_Tot_abs_Q>
0

> <r_epik_Metal_State_Penalty>
-0

> <b_epik_Metal_Only>
0

> <s_epik_Chemistry_Notes>
This compound has an ester and may undergo hydrolysis at high or low pH. This compound contains an acetal/aminal-like group ( X-CH(R)-Y where X, Y are N, S, or O) that may be acid/base labile, releasing an aldehyde.

> <s_lp_Force_Field>
OPLS_2005

> <r_lp_Energy>
41.7027

> <b_lp_Chiralities_Consistent>
1

> <s_lp_Variant>
AV-unprocessed.smi:40-15

> <Gold.Version>
5.8.1

> <Gold.Id.Protein>
6NUR|6NUR_protein|mol2

> <Gold.PLP.Fitness>
44.2666

> <Gold.PLP.PLP>
-35.6763

> <Gold.PLP.part.hbond>
-4.2876

> <Gold.PLP.part.metal>
0.0000

> <Gold.PLP.part.buried>
0.7366

> <Gold.PLP.part.nonpolar>
-31.7192

> <Gold.PLP.part.repulsive>
0.3437

> <Gold.PLP.ligand.clash>
0.0000

> <Gold.PLP.ligand.torsion>
0.9873

> <Gold.PLP.Chemscore.Hbond>
2.4599

> <Gold.PLP.Chemscore.CHOScore>
1.0000

> <Gold.PLP.Chemscore.Metal>
0.0000

> <Gold.Chemscore.Hbonds>
donor molecule, donor type, donor heavy atom, donor atom, acceptor molecule, acceptor atom, score
      L1  H    20    45       P1 10171  0.86
      L1  H    22    46       P1  7948  1.00
      P1  H  7954  7966       L1    20  0.74
      L1  C    23    47       P1  7948  1.00

> <Gold.PLP.Chemscore.Internal.Correction>
0.1852

> <Gold.Rescore>
     Score         DG    S(hbond)    S(metal)    S(lipo)     H(rot)  DE(clash)    DE(int)     intcor
      7.82     -14.33       2.37        0.00      88.80       3.70       3.11       3.39       ----

> <Gold.Chemscore.Fitness>
7.8238

> <Gold.Chemscore.DG>
-14.3255

> <Gold.Chemscore.ZeroCoef>
-5.4800

> <Gold.Chemscore.Hbond>
2.3703

> <Gold.Chemscore.Metal>
0.0000

> <Gold.Chemscore.Lipo>
88.8011

> <Gold.Chemscore.Internal_Hbond>
0.0000

> <Gold.Chemscore.DEClash>
3.1084

> <Gold.Chemscore.DEInternal>
3.3933

> <Gold.Chemscore.Rot>
3.6957

> <Gold.Chemscore.Internal.Correction>
   9.000000E+99

> <Gold.Chemscore.Hbonds>
donor molecule, donor type, donor heavy atom, donor atom, acceptor molecule, acceptor atom, score
      L1  H    20    45       P1 10171  0.79
      L1  H    22    46       P1  7948  1.00
      P1  H  7954  7966       L1    20  0.34

> <Gold.Chemscore.Hbond.Weighted>
-7.9168

> <Gold.Chemscore.Metal.Weighted>
-0.0000

> <Gold.Chemscore.Lipo.Weighted>
-10.3897

> <Gold.Chemscore.Internal_Hbond.Weighted>
0.0000

> <Gold.Chemscore.DEClash.Weighted>
3.1084

> <Gold.Chemscore.DEInternal.Weighted>
3.3933

> <Gold.Chemscore.Rot.Weighted>
9.4610

> <Gold.Chemscore.Internal.Correction.Weighted>
   9.000000E+99

> <Gold.Protein.RotatedTorsions>
[ 6907 6896 6895 6894 ] final  -24.86 input  -60.11 | X-H torsion
[ 7974 7965 7964 7962 ] final   27.20 input  175.53 | X-H torsion
[ 8008 7997 7996 7995 ] final   91.67 input   59.86 | X-H torsion
[ 10167 10162 10161 10158 ] final   40.35 input  -65.29 | X-H torsion
[ 10718 10713 10712 10709 ] final -117.77 input   66.30 | X-H torsion
[ 10763 10752 10751 10750 ] final   51.59 input  -60.55 | X-H torsion
[ 11005 11000 10999 10996 ] final  -15.09 input  -57.11 | X-H torsion

> <Gold.Protein.ActiveResidues>
 VAL166  LYS551  ARG553  GLY616  TRP617  ASP618  TYR619  PRO620  LYS621  CYS622 
 ASP623  PHE694  ASN695  SER759  ASP760  ASP761  ALA762  ILE779  LEU786  VAL792 
 PHE793  MET794  SER795  GLU796  ALA797  LYS798  CYS799  TRP800  GLU811  SER814 

> <Gold.Protein.RotatedAtoms>
  151.1834  135.0371  159.8801 H   0  0  0  0  0  0  0  0  0  0  0  0  # atno 6907 bound_to 6896
  152.5443  134.1037  159.8339 H   0  0  0  0  0  0  0  0  0  0  0  0  # atno 6908 bound_to 6896
  151.1157  133.5093  159.2636 H   0  0  0  0  0  0  0  0  0  0  0  0  # atno 6909 bound_to 6896
  146.1797  139.7224  142.8909 H   0  0  0  0  0  0  0  0  0  0  0  0  # atno 7974 bound_to 7965
  156.0265  140.3335  155.7094 H   0  0  0  0  0  0  0  0  0  0  0  0  # atno 8008 bound_to 7997
  155.5947  140.0649  157.2767 H   0  0  0  0  0  0  0  0  0  0  0  0  # atno 8009 bound_to 7997
  154.4336  140.1821  156.1099 H   0  0  0  0  0  0  0  0  0  0  0  0  # atno 8010 bound_to 7997
  140.3750  144.2054  150.6132 H   0  0  0  0  0  0  0  0  0  0  0  0  # atno 10167 bound_to 10162
  156.1058  130.6209  150.9206 H   0  0  0  0  0  0  0  0  0  0  0  0  # atno 10718 bound_to 10713
  152.9786  135.5841  154.4440 H   0  0  0  0  0  0  0  0  0  0  0  0  # atno 10763 bound_to 10752
  154.4037  135.2769  155.2082 H   0  0  0  0  0  0  0  0  0  0  0  0  # atno 10764 bound_to 10752
  154.3902  135.6127  153.5893 H   0  0  0  0  0  0  0  0  0  0  0  0  # atno 10765 bound_to 10752
  140.7931  133.8272  155.9398 H   0  0  0  0  0  0  0  0  0  0  0  0  # atno 11005 bound_to 11000
  145.4111  141.0396  143.3016 LP  0  0  0  0  0  0  0  0  0  0  0  0  # atno 17320 bound_to 7965
  144.8294  139.5654  143.6950 LP  0  0  0  0  0  0  0  0  0  0  0  0  # atno 17321 bound_to 7965
  140.4995  143.2322  151.8700 LP  0  0  0  0  0  0  0  0  0  0  0  0  # atno 17342 bound_to 10162
  139.4800  144.5076  151.8977 LP  0  0  0  0  0  0  0  0  0  0  0  0  # atno 17343 bound_to 10162
  157.6234  131.0928  150.8579 LP  0  0  0  0  0  0  0  0  0  0  0  0  # atno 17370 bound_to 10713
  156.8699  130.5142  149.5297 LP  0  0  0  0  0  0  0  0  0  0  0  0  # atno 17371 bound_to 10713
  140.9370  134.1950  157.4825 LP  0  0  0  0  0  0  0  0  0  0  0  0  # atno 17394 bound_to 11000
  139.8729  134.9856  156.5289 LP  0  0  0  0  0  0  0  0  0  0  0  0  # atno 17395 bound_to 11000

$$$$
