#       Name:                AV-unprocessed.smi:1209
#       Creating user name   scv26
#       Creation time:       Fri Mar 27 04:11:13 2020


#       File generated by GOLD software.
#

@<TRIPOS>MOLECULE
AV-unprocessed.smi:1209
    55    57     1
SMALL
NO_CHARGES


@<TRIPOS>ATOM
      1 ****        -4.6752   6.2012   0.0126 C.3            1 S1                 0.0000
      2 ****        -4.6630   4.7302   0.2504 C.2            1 S1                 0.0000
      3 ****        -3.7689   3.7450  -0.0575 C.2            1 S1                 0.0000
      4 ****        -4.3765   2.5663   0.4576 C.2            1 S1                 0.0000
      5 ****        -3.8590   1.1522   0.4196 C.3            1 S1                 0.0000
      6 ****        -2.5024   1.0116   0.9525 N.3            1 S1                 0.0000
      7 ****        -2.4691   1.3090   2.3849 C.3            1 S1                 0.0000
      8 ****        -1.9774  -0.3264   0.6639 C.3            1 S1                 0.0000
      9 ****        -0.4641  -0.5194   0.8945 C.3            1 S1                 0.0000
     10 ****         0.2372   0.2383  -0.0727 O.3            1 S1                 0.0000
     11 ****        -0.0606  -2.0009   0.7662 C.3            1 S1                 0.0000
     12 ****         1.3591  -2.2142   0.9880 N.pl3          1 S1                 0.0000
     13 ****         1.9753  -2.4003   2.1711 C.2            1 S1                 0.0000
     14 ****         3.2930  -2.5789   2.1500 N.2            1 S1                 0.0000
     15 ****         3.5638  -2.4999   0.7946 C.ar           1 S1                 0.0000
     16 ****         4.7863  -2.6063   0.0956 C.ar           1 S1                 0.0000
     17 ****         4.8289  -2.4877  -1.3121 C.ar           1 S1                 0.0000
     18 ****         6.1652  -2.6071  -2.0235 C.3            1 S1                 0.0000
     19 ****         3.6350  -2.2594  -2.0424 C.ar           1 S1                 0.0000
     20 ****         3.6562  -2.1265  -3.5547 C.3            1 S1                 0.0000
     21 ****         2.4051  -2.1528  -1.3600 C.ar           1 S1                 0.0000
     22 ****         2.3756  -2.2724   0.0405 C.ar           1 S1                 0.0000
     23 ****        -5.5429   2.8247   1.0261 N.2            1 S1                 0.0000
     24 ****        -5.7343   4.2050   0.8989 O.3            1 S1                 0.0000
     25 ****        -3.6654   6.5760  -0.1549 H              1 S1                 0.0000
     26 ****        -5.0935   6.7307   0.8688 H              1 S1                 0.0000
     27 ****        -5.2763   6.4446  -0.8636 H              1 S1                 0.0000
     28 ****        -2.8241   3.8484  -0.5701 H              1 S1                 0.0000
     29 ****        -4.5355   0.4842   0.9555 H              1 S1                 0.0000
     30 ****        -3.8743   0.8180  -0.6185 H              1 S1                 0.0000
     31 ****        -1.4530   1.2898   2.7751 H              1 S1                 0.0000
     32 ****        -3.0651   0.5914   2.9501 H              1 S1                 0.0000
     33 ****        -2.8595   2.3058   2.5906 H              1 S1                 0.0000
     34 ****        -2.5269  -1.0564   1.2606 H              1 S1                 0.0000
     35 ****        -2.1875  -0.5826  -0.3758 H              1 S1                 0.0000
     36 ****        -0.1707  -0.1718   1.8839 H              1 S1                 0.0000
     37 ****         1.1642   0.1296   0.0759 H              1 S1                 0.0000
     38 ****        -0.6114  -2.6035   1.4897 H              1 S1                 0.0000
     39 ****        -0.3220  -2.3865  -0.2203 H              1 S1                 0.0000
     40 ****         1.4249  -2.4038   3.1007 H              1 S1                 0.0000
     41 ****         5.6956  -2.7792   0.6524 H              1 S1                 0.0000
     42 ****         6.1470  -3.4338  -2.7340 H              1 S1                 0.0000
     43 ****         6.9766  -2.7898  -1.3187 H              1 S1                 0.0000
     44 ****         6.3930  -1.6888  -2.5650 H              1 S1                 0.0000
     45 ****         2.6591  -1.9319  -3.9506 H              1 S1                 0.0000
     46 ****         4.0256  -3.0437  -4.0138 H              1 S1                 0.0000
     47 ****         4.3019  -1.3021  -3.8576 H              1 S1                 0.0000
     48 ****         1.4886  -1.9769  -1.9038 H              1 S1                 0.0000
     49 ****        -1.9102   1.6775   0.4987 LP             1 S1                 0.0000
     50 ****        -0.0072   1.2042   0.0132 LP             1 S1                 0.0000
     51 ****         0.0024  -0.0847  -0.9895 LP             1 S1                 0.0000
     52 ****         3.9224  -2.7303   2.9122 LP             1 S1                 0.0000
     53 ****        -6.1611   2.1681   1.4582 LP             1 S1                 0.0000
     54 ****        -6.5668   4.3833   0.3744 LP             1 S1                 0.0000
     55 ****        -5.8163   4.6192   1.8054 LP             1 S1                 0.0000
@<TRIPOS>BOND
    1    1    2 1     
    2    1   25 1     
    3    1   26 1     
    4    1   27 1     
    5    2   24 1     
    6    2    3 2     
    7    3    4 1     
    8    3   28 1     
    9    4    5 1     
   10    4   23 2     
   11    5    6 1     
   12    5   29 1     
   13    5   30 1     
   14    6    7 1     
   15    6    8 1     
   16    7   31 1     
   17    7   32 1     
   18    7   33 1     
   19    8    9 1     
   20    8   34 1     
   21    8   35 1     
   22    9   10 1     
   23    9   11 1     
   24    9   36 1     
   25   10   37 1     
   26   11   12 1     
   27   11   38 1     
   28   11   39 1     
   29   12   22 1     
   30   12   13 1     
   31   13   14 2     
   32   13   40 1     
   33   14   15 1     
   34   15   22 ar    
   35   15   16 ar    
   36   16   17 ar    
   37   16   41 1     
   38   17   18 1     
   39   17   19 ar    
   40   18   42 1     
   41   18   43 1     
   42   18   44 1     
   43   19   20 1     
   44   19   21 ar    
   45   20   45 1     
   46   20   46 1     
   47   20   47 1     
   48   21   22 ar    
   49   21   48 1     
   50   23   24 1     
   51    6   49 1     
   52   10   50 1     
   53   10   51 1     
   54   14   52 1     
   55   23   53 1     
   56   24   54 1     
   57   24   55 1     
@<TRIPOS>SUBSTRUCTURE
      1 S1             1
@<TRIPOS>SET
LONE_PAIRS      STATIC     ATOMS    <user>   **** ""
7 49 50 51 52 53 54 55
DONOR_HYDROGENS      STATIC     ATOMS    <user>   **** ""
1 37
ATOM$BLUE        STATIC     ATOMS    COLORGROUP SYSTEM
7 49 50 51 52 53 54 55
ATOM$RED        STATIC     ATOMS    COLORGROUP SYSTEM
1 37
