#       Name:                AV-unprocessed.smi:1211
#       Creating user name   scv26
#       Creation time:       Fri Mar 27 04:12:53 2020


#       File generated by GOLD software.
#

@<TRIPOS>MOLECULE
AV-unprocessed.smi:1211
    53    55     1
SMALL
NO_CHARGES


@<TRIPOS>ATOM
      1 ****        -4.3390   0.4319  -0.2511 C.3            1 S1                 0.0000
      2 ****        -4.1681   1.8972   0.1159 C.ar           1 S1                 0.0000
      3 ****        -5.3135   2.7021   0.2935 C.ar           1 S1                 0.0000
      4 ****        -5.1542   4.0564   0.6337 C.ar           1 S1                 0.0000
      5 ****        -3.8474   4.5510   0.7843 C.ar           1 S1                 0.0000
      6 ****        -2.7474   3.7892   0.6167 N.ar           1 S1                 0.0000
      7 ****        -2.8837   2.4801   0.2871 C.ar           1 S1                 0.0000
      8 ****        -1.7689   1.6174   0.0912 N.am           1 S1                 0.0000
      9 ****        -0.4597   1.9003   0.2098 C.2            1 S1                 0.0000
     10 ****         0.0113   2.9932   0.5258 O.2            1 S1                 0.0000
     11 ****         0.2912   0.8253  -0.0590 N.am           1 S1                 0.0000
     12 ****         1.7492   0.7941  -0.0017 C.3            1 S1                 0.0000
     13 ****         2.3234  -0.5616  -0.5254 C.3            1 S1                 0.0000
     14 ****         1.6884  -1.7062   0.1977 N.3            1 S1                 0.0000
     15 ****         1.9980  -3.0491  -0.3140 C.3            1 S1                 0.0000
     16 ****         1.2339  -4.1530   0.4380 C.3            1 S1                 0.0000
     17 ****         1.5146  -4.0732   1.8287 O.3            1 S1                 0.0000
     18 ****         1.1549  -2.8121   2.3764 C.3            1 S1                 0.0000
     19 ****         1.9210  -1.6954   1.6485 C.3            1 S1                 0.0000
     20 ****         2.0981  -0.6011  -2.0651 C.3            1 S1                 0.0000
     21 ****         3.0442   0.3975  -2.7416 C.3            1 S1                 0.0000
     22 ****         4.5545   0.4681  -1.7497 S.3            1 S1                 0.0000
     23 ****         3.8674  -0.5224  -0.3938 C.3            1 S1                 0.0000
     24 ****        -5.3924   0.1669  -0.3457 H              1 S1                 0.0000
     25 ****        -3.8998  -0.2074   0.5154 H              1 S1                 0.0000
     26 ****        -3.8526   0.2171  -1.2029 H              1 S1                 0.0000
     27 ****        -6.3042   2.2894   0.1713 H              1 S1                 0.0000
     28 ****        -6.0106   4.6987   0.7761 H              1 S1                 0.0000
     29 ****        -3.6804   5.5854   1.0457 H              1 S1                 0.0000
     30 ****        -1.9984   0.6700  -0.1698 H              1 S1                 0.0000
     31 ****        -0.1712  -0.0373  -0.3067 H              1 S1                 0.0000
     32 ****         2.1351   1.6394  -0.5710 H              1 S1                 0.0000
     33 ****         2.0672   0.9937   1.0215 H              1 S1                 0.0000
     34 ****         1.7220  -3.1432  -1.3614 H              1 S1                 0.0000
     35 ****         3.0658  -3.2519  -0.2423 H              1 S1                 0.0000
     36 ****         0.1595  -4.0621   0.2705 H              1 S1                 0.0000
     37 ****         1.5321  -5.1352   0.0713 H              1 S1                 0.0000
     38 ****         0.0778  -2.6609   2.2896 H              1 S1                 0.0000
     39 ****         1.3946  -2.8047   3.4397 H              1 S1                 0.0000
     40 ****         2.9863  -1.8023   1.8560 H              1 S1                 0.0000
     41 ****         1.6082  -0.7518   2.0898 H              1 S1                 0.0000
     42 ****         2.3660  -1.5702  -2.4793 H              1 S1                 0.0000
     43 ****         1.0595  -0.4237  -2.3456 H              1 S1                 0.0000
     44 ****         3.2711   0.1087  -3.7679 H              1 S1                 0.0000
     45 ****         2.5987   1.3917  -2.7773 H              1 S1                 0.0000
     46 ****         4.1968  -0.1260   0.5672 H              1 S1                 0.0000
     47 ****         4.3023  -1.5157  -0.4916 H              1 S1                 0.0000
     48 ****        -1.8373   4.1865   0.7346 LP             1 S1                 0.0000
     49 ****        -0.5972   3.7629   0.7192 LP             1 S1                 0.0000
     50 ****         1.0023   3.1112   0.5891 LP             1 S1                 0.0000
     51 ****         0.7216  -1.5347   0.0080 LP             1 S1                 0.0000
     52 ****         2.4941  -4.2176   1.9686 LP             1 S1                 0.0000
     53 ****         1.0012  -4.7886   2.3027 LP             1 S1                 0.0000
@<TRIPOS>BOND
    1    1    2 1     
    2    1   24 1     
    3    1   25 1     
    4    1   26 1     
    5    2    7 ar    
    6    2    3 ar    
    7    3    4 ar    
    8    3   27 1     
    9    4    5 ar    
   10    4   28 1     
   11    5    6 ar    
   12    5   29 1     
   13    6    7 ar    
   14    7    8 1     
   15    8    9 am    
   16    8   30 1     
   17    9   10 2     
   18    9   11 am    
   19   11   12 1     
   20   11   31 1     
   21   12   13 1     
   22   12   32 1     
   23   12   33 1     
   24   13   23 1     
   25   13   14 1     
   26   13   20 1     
   27   14   19 1     
   28   14   15 1     
   29   15   16 1     
   30   15   34 1     
   31   15   35 1     
   32   16   17 1     
   33   16   36 1     
   34   16   37 1     
   35   17   18 1     
   36   18   19 1     
   37   18   38 1     
   38   18   39 1     
   39   19   40 1     
   40   19   41 1     
   41   20   21 1     
   42   20   42 1     
   43   20   43 1     
   44   21   22 1     
   45   21   44 1     
   46   21   45 1     
   47   22   23 1     
   48   23   46 1     
   49   23   47 1     
   50    6   48 1     
   51   10   49 1     
   52   10   50 1     
   53   14   51 1     
   54   17   52 1     
   55   17   53 1     
@<TRIPOS>SUBSTRUCTURE
      1 S1             1
@<TRIPOS>SET
LONE_PAIRS      STATIC     ATOMS    <user>   **** ""
6 48 49 50 51 52 53
DONOR_HYDROGENS      STATIC     ATOMS    <user>   **** ""
2 30 31
ATOM$BLUE        STATIC     ATOMS    COLORGROUP SYSTEM
6 48 49 50 51 52 53
ATOM$RED        STATIC     ATOMS    COLORGROUP SYSTEM
2 30 31
