#       Name:                AV-unprocessed.smi:1075
#       Creating user name   scv26
#       Creation time:       Fri Mar 27 03:21:22 2020


#       File generated by GOLD software.
#

@<TRIPOS>MOLECULE
AV-unprocessed.smi:1075
    53    54     1
SMALL
NO_CHARGES


@<TRIPOS>ATOM
      1 ****        -1.7374   2.2734  -2.0172 C.3            1 S1                 0.0000
      2 ****        -1.9856   0.7931  -1.9576 C.2            1 S1                 0.0000
      3 ****        -3.2205   0.3508  -1.7947 N.2            1 S1                 0.0000
      4 ****        -3.1045  -0.9912  -1.7726 N.pl3          1 S1                 0.0000
      5 ****        -4.2940  -1.8033  -1.6031 C.3            1 S1                 0.0000
      6 ****        -1.7926  -1.3991  -1.9178 C.2            1 S1                 0.0000
      7 ****        -1.4140  -2.8467  -1.9095 C.3            1 S1                 0.0000
      8 ****        -1.0318  -0.2639  -2.0476 C.2            1 S1                 0.0000
      9 ****         0.4675  -0.1124  -2.2273 C.3            1 S1                 0.0000
     10 ****         0.9423  -0.7454  -3.5491 C.3            1 S1                 0.0000
     11 ****         1.2205  -0.6489  -0.9949 C.2            1 S1                 0.0000
     12 ****         2.2467  -1.3151  -1.1314 O.2            1 S1                 0.0000
     13 ****         0.6966  -0.3327   0.2040 N.am           1 S1                 0.0000
     14 ****         1.1691  -0.6943   1.5466 C.3            1 S1                 0.0000
     15 ****         1.1915  -2.2304   1.7025 C.3            1 S1                 0.0000
     16 ****         2.5711  -0.0960   1.8317 C.3            1 S1                 0.0000
     17 ****         2.5726   1.4438   1.8307 C.3            1 S1                 0.0000
     18 ****         1.5587   2.0103   2.8415 C.3            1 S1                 0.0000
     19 ****         1.5498   3.5452   2.8288 C.3            1 S1                 0.0000
     20 ****         0.1552   1.4363   2.5755 C.3            1 S1                 0.0000
     21 ****         0.1650  -0.1042   2.5655 C.3            1 S1                 0.0000
     22 ****        -1.0502   2.5831  -1.2294 H              1 S1                 0.0000
     23 ****        -2.6585   2.8448  -1.8958 H              1 S1                 0.0000
     24 ****        -1.2966   2.5554  -2.9736 H              1 S1                 0.0000
     25 ****        -4.3430  -2.5515  -2.3942 H              1 S1                 0.0000
     26 ****        -5.1925  -1.1862  -1.6484 H              1 S1                 0.0000
     27 ****        -4.2582  -2.3070  -0.6370 H              1 S1                 0.0000
     28 ****        -0.3414  -2.9794  -1.7740 H              1 S1                 0.0000
     29 ****        -1.6955  -3.3235  -2.8484 H              1 S1                 0.0000
     30 ****        -1.9119  -3.3763  -1.0971 H              1 S1                 0.0000
     31 ****         0.7246   0.9460  -2.2807 H              1 S1                 0.0000
     32 ****         0.7587  -1.8195  -3.5774 H              1 S1                 0.0000
     33 ****         2.0097  -0.5871  -3.7065 H              1 S1                 0.0000
     34 ****         0.4225  -0.3004  -4.3980 H              1 S1                 0.0000
     35 ****        -0.1468   0.2224   0.1835 H              1 S1                 0.0000
     36 ****         1.4329  -2.5185   2.7261 H              1 S1                 0.0000
     37 ****         1.9354  -2.6984   1.0583 H              1 S1                 0.0000
     38 ****         0.2223  -2.6678   1.4597 H              1 S1                 0.0000
     39 ****         2.9181  -0.4434   2.8059 H              1 S1                 0.0000
     40 ****         3.3052  -0.4621   1.1141 H              1 S1                 0.0000
     41 ****         3.5737   1.8046   2.0692 H              1 S1                 0.0000
     42 ****         2.3470   1.8138   0.8297 H              1 S1                 0.0000
     43 ****         1.8668   1.6919   3.8386 H              1 S1                 0.0000
     44 ****         1.2458   3.9321   1.8556 H              1 S1                 0.0000
     45 ****         2.5393   3.9451   3.0518 H              1 S1                 0.0000
     46 ****         0.8594   3.9399   3.5749 H              1 S1                 0.0000
     47 ****        -0.5394   1.7882   3.3390 H              1 S1                 0.0000
     48 ****        -0.2254   1.8115   1.6244 H              1 S1                 0.0000
     49 ****        -0.8410  -0.4723   2.3584 H              1 S1                 0.0000
     50 ****         0.4119  -0.4569   3.5680 H              1 S1                 0.0000
     51 ****        -4.0563   0.8928  -1.7072 LP             1 S1                 0.0000
     52 ****         2.5972  -1.5115  -2.0471 LP             1 S1                 0.0000
     53 ****         2.7298  -1.6598  -0.3266 LP             1 S1                 0.0000
@<TRIPOS>BOND
    1    1    2 1     
    2    1   22 1     
    3    1   23 1     
    4    1   24 1     
    5    2    8 1     
    6    2    3 2     
    7    3    4 1     
    8    4    5 1     
    9    4    6 1     
   10    5   25 1     
   11    5   26 1     
   12    5   27 1     
   13    6    7 1     
   14    6    8 2     
   15    7   28 1     
   16    7   29 1     
   17    7   30 1     
   18    8    9 1     
   19    9   10 1     
   20    9   11 1     
   21    9   31 1     
   22   10   32 1     
   23   10   33 1     
   24   10   34 1     
   25   11   12 2     
   26   11   13 am    
   27   13   14 1     
   28   13   35 1     
   29   14   21 1     
   30   14   15 1     
   31   14   16 1     
   32   15   36 1     
   33   15   37 1     
   34   15   38 1     
   35   16   17 1     
   36   16   39 1     
   37   16   40 1     
   38   17   18 1     
   39   17   41 1     
   40   17   42 1     
   41   18   19 1     
   42   18   20 1     
   43   18   43 1     
   44   19   44 1     
   45   19   45 1     
   46   19   46 1     
   47   20   21 1     
   48   20   47 1     
   49   20   48 1     
   50   21   49 1     
   51   21   50 1     
   52    3   51 1     
   53   12   52 1     
   54   12   53 1     
@<TRIPOS>SUBSTRUCTURE
      1 S1             1
@<TRIPOS>SET
LONE_PAIRS      STATIC     ATOMS    <user>   **** ""
3 51 52 53
DONOR_HYDROGENS      STATIC     ATOMS    <user>   **** ""
1 35
ATOM$BLUE        STATIC     ATOMS    COLORGROUP SYSTEM
3 51 52 53
ATOM$RED        STATIC     ATOMS    COLORGROUP SYSTEM
1 35
