AV-unprocessed.smi:148|AV-procd|sdf|1203|dock5
  -GOLD-   2262018363D 1   1.00000     0.00000
 Structure written by MMmdl.
 63 67  0  0  0  0  0  0  0  0  1 V2000
  147.0280  138.2385  150.6105 O   0  0  0  0  0  0  0  0  0  0  0  0
  146.6492  138.9646  151.7621 C   0  0  0  0  0  0  0  0  0  0  0  0
  147.8481  139.1769  152.7182 C   0  0  1  0  0  0  0  0  0  0  0  0
  147.5726  140.4168  153.6142 C   0  0  0  0  0  0  0  0  0  0  0  0
  148.7315  140.9587  154.3041 N   0  0  0  0  0  0  0  0  0  0  0  0
  149.8836  141.4375  153.7197 C   0  0  0  0  0  0  0  0  0  0  0  0
  150.8096  141.8323  154.5506 N   0  0  0  0  0  0  0  0  0  0  0  0
  150.2587  141.5931  155.8024 C   0  0  0  0  0  0  0  0  0  0  0  0
  150.7237  141.7677  157.1320 C   0  0  0  0  0  0  0  0  0  0  0  0
  151.9750  142.2065  157.3952 N   0  0  0  0  0  0  0  0  0  0  0  0
  152.9249  141.2757  156.7790 C   0  0  0  0  0  0  0  0  0  0  0  0
  154.3479  141.8386  156.7722 C   0  0  0  0  0  0  0  0  0  0  0  0
  154.7633  142.1965  158.1979 C   0  0  0  0  0  0  0  0  0  0  0  0
  153.7526  143.1809  158.7977 C   0  0  0  0  0  0  0  0  0  0  0  0
  152.2900  142.6502  158.7712 C   0  0  1  0  0  0  0  0  0  0  0  0
  151.3072  143.7426  159.3228 C   0  0  2  0  0  0  0  0  0  0  0  0
  151.3348  145.0718  158.5398 C   0  0  0  0  0  0  0  0  0  0  0  0
  150.8005  146.1242  159.5014 C   0  0  0  0  0  0  0  0  0  0  0  0
  151.4491  145.7358  160.8221 C   0  0  0  0  0  0  0  0  0  0  0  0
  151.5375  144.2013  160.7908 C   0  0  1  0  0  0  0  0  0  0  0  0
  150.5311  143.6818  161.6347 O   0  0  0  0  0  0  0  0  0  0  0  0
  149.9019  141.3957  158.1491 N   0  0  0  0  0  0  0  0  0  0  0  0
  148.6897  140.9016  157.8773 C   0  0  0  0  0  0  0  0  0  0  0  0
  148.1235  140.6809  156.6882 N   0  0  0  0  0  0  0  0  0  0  0  0
  148.9530  141.0446  155.6681 C   0  0  0  0  0  0  0  0  0  0  0  0
  148.1579  137.8899  153.5398 C   0  0  2  0  0  0  0  0  0  0  0  0
  149.4138  137.9558  154.4068 C   0  0  0  0  0  0  0  0  0  0  0  0
  149.9731  136.5307  154.4183 C   0  0  0  0  0  0  0  0  0  0  0  0
  149.0708  135.7624  153.6386 O   0  0  0  0  0  0  0  0  0  0  0  0
  148.4557  136.6370  152.7105 C   0  0  0  0  0  0  0  0  0  0  0  0
  147.9630  138.1029  150.6344 H   0  0  0  0  0  0  0  0  0  0  0  0
  146.2181  139.9202  151.4619 H   0  0  0  0  0  0  0  0  0  0  0  0
  145.8555  138.3897  152.2375 H   0  0  0  0  0  0  0  0  0  0  0  0
  148.7162  139.3869  152.0919 H   0  0  0  0  0  0  0  0  0  0  0  0
  147.1568  141.2307  153.0199 H   0  0  0  0  0  0  0  0  0  0  0  0
  146.8143  140.1698  154.3587 H   0  0  0  0  0  0  0  0  0  0  0  0
  150.0183  141.4842  152.6489 H   0  0  0  0  0  0  0  0  0  0  0  0
  152.9107  140.3294  157.3224 H   0  0  0  0  0  0  0  0  0  0  0  0
  152.6240  141.0558  155.7530 H   0  0  0  0  0  0  0  0  0  0  0  0
  155.0387  141.1091  156.3488 H   0  0  0  0  0  0  0  0  0  0  0  0
  154.3944  142.7233  156.1358 H   0  0  0  0  0  0  0  0  0  0  0  0
  154.8117  141.2950  158.8101 H   0  0  0  0  0  0  0  0  0  0  0  0
  155.7623  142.6333  158.2007 H   0  0  0  0  0  0  0  0  0  0  0  0
  154.0753  143.3970  159.8153 H   0  0  0  0  0  0  0  0  0  0  0  0
  153.8076  144.1228  158.2497 H   0  0  0  0  0  0  0  0  0  0  0  0
  152.2433  141.7778  159.4247 H   0  0  0  0  0  0  0  0  0  0  0  0
  150.2893  143.3587  159.2267 H   0  0  0  0  0  0  0  0  0  0  0  0
  152.3600  145.3348  158.2747 H   0  0  0  0  0  0  0  0  0  0  0  0
  150.7507  145.0295  157.6199 H   0  0  0  0  0  0  0  0  0  0  0  0
  151.0462  147.1410  159.1940 H   0  0  0  0  0  0  0  0  0  0  0  0
  149.7151  146.0448  159.5775 H   0  0  0  0  0  0  0  0  0  0  0  0
  152.4570  146.1516  160.8588 H   0  0  0  0  0  0  0  0  0  0  0  0
  150.9085  146.1278  161.6850 H   0  0  0  0  0  0  0  0  0  0  0  0
  152.5139  143.8967  161.1653 H   0  0  0  0  0  0  0  0  0  0  0  0
  150.9456  143.1975  162.3322 H   0  0  0  0  0  0  0  0  0  0  0  0
  148.0896  140.6380  158.7358 H   0  0  0  0  0  0  0  0  0  0  0  0
  147.3053  137.6614  154.1815 H   0  0  0  0  0  0  0  0  0  0  0  0
  150.1524  138.6288  153.9706 H   0  0  0  0  0  0  0  0  0  0  0  0
  149.1962  138.3036  155.4163 H   0  0  0  0  0  0  0  0  0  0  0  0
  150.9647  136.5034  153.9646 H   0  0  0  0  0  0  0  0  0  0  0  0
  150.0488  136.1227  155.4264 H   0  0  0  0  0  0  0  0  0  0  0  0
  147.5584  136.1811  152.2914 H   0  0  0  0  0  0  0  0  0  0  0  0
  149.1499  136.8534  151.8963 H   0  0  0  0  0  0  0  0  0  0  0  0
  1  2  1  0  0  0  0
  1 31  1  0  0  0  0
  2  3  1  0  0  0  0
  2 32  1  0  0  0  0
  2 33  1  0  0  0  0
  3  4  1  0  0  0  0
  3 26  1  0  0  0  0
  3 34  1  0  0  0  0
  4  5  1  0  0  0  0
  4 35  1  0  0  0  0
  4 36  1  0  0  0  0
  5 25  1  0  0  0  0
  5  6  1  0  0  0  0
  6  7  2  0  0  0  0
  6 37  1  0  0  0  0
  7  8  1  0  0  0  0
  8 25  2  0  0  0  0
  8  9  1  0  0  0  0
  9 10  1  0  0  0  0
  9 22  2  0  0  0  0
 10 15  1  0  0  0  0
 10 11  1  0  0  0  0
 11 12  1  0  0  0  0
 11 38  1  0  0  0  0
 11 39  1  0  0  0  0
 12 13  1  0  0  0  0
 12 40  1  0  0  0  0
 12 41  1  0  0  0  0
 13 14  1  0  0  0  0
 13 42  1  0  0  0  0
 13 43  1  0  0  0  0
 14 15  1  0  0  0  0
 14 44  1  0  0  0  0
 14 45  1  0  0  0  0
 15 16  1  0  0  0  0
 15 46  1  0  0  0  0
 16 20  1  0  0  0  0
 16 17  1  0  0  0  0
 16 47  1  0  0  0  0
 17 18  1  0  0  0  0
 17 48  1  0  0  0  0
 17 49  1  0  0  0  0
 18 19  1  0  0  0  0
 18 50  1  0  0  0  0
 18 51  1  0  0  0  0
 19 20  1  0  0  0  0
 19 52  1  0  0  0  0
 19 53  1  0  0  0  0
 20 21  1  0  0  0  0
 20 54  1  0  0  0  0
 21 55  1  0  0  0  0
 22 23  1  0  0  0  0
 23 24  2  0  0  0  0
 23 56  1  0  0  0  0
 24 25  1  0  0  0  0
 26 30  1  0  0  0  0
 26 27  1  0  0  0  0
 26 57  1  0  0  0  0
 27 28  1  0  0  0  0
 27 58  1  0  0  0  0
 27 59  1  0  0  0  0
 28 29  1  0  0  0  0
 28 60  1  0  0  0  0
 28 61  1  0  0  0  0
 29 30  1  0  0  0  0
 30 62  1  0  0  0  0
 30 63  1  0  0  0  0
M  END
> <s_m_source_file>
AV-unprocessed.smi

> <i_m_source_file_index>
148

> <i_lp_mmshare_version>
43012

> <i_f3d_flags>
0

> <s_epik_input>
W0NIMl0xT1tDSDJdW0NIMl1bQ0BIXTFbQ0BIXShbQ0gyXVtPSF0pW0NIMl1uKFtjSF1uMiljKGMyMyluW2NIXW5jM040W0NIMl1bQ0gyXVtDSDJdW0NIMl1bQ0BIXTRbQ0BASF01W0NIMl1bQ0gyXVtDSDJdW0NASF01W09IXQ==

> <s_epik_cmdline>
J2VwaWtfcHl0aG9uJywgJy1waCcsICc3LjAnLCAnLXRuJywgJzgnLCAnLW1hJywgJzIwMCcsICctbWV0YWxfYmluZGluZycsICctaW1hZScsICc8aW5maWxlLm1hZT4nLCAnLW9tYWUnLCAnPG91dGZpbGUubWFlPic=

> <r_lp_tautomer_probability>
1

> <r_epik_Ionization_Penalty>
0.00556303

> <r_epik_Ionization_Penalty_Charging>
0

> <r_epik_Ionization_Penalty_Neutral>
0.00556303

> <r_epik_State_Penalty>
0.00401767

> <r_epik_Charging_Adjusted_Penalty>
0.00401767

> <i_epik_Tot_Q>
0

> <i_epik_Tot_abs_Q>
0

> <r_epik_Metal_State_Penalty>
-0

> <b_epik_Metal_Only>
0

> <s_lp_Force_Field>
OPLS_2005

> <r_lp_Energy>
69.6021

> <b_lp_Chiralities_Consistent>
1

> <s_lp_Variant>
AV-unprocessed.smi:148-2

> <Gold.Version>
5.8.1

> <Gold.Id.Protein>
6NUR|6NUR_protein|mol2

> <Gold.PLP.Fitness>
54.8256

> <Gold.PLP.PLP>
-49.3549

> <Gold.PLP.part.hbond>
-5.9023

> <Gold.PLP.part.metal>
0.0000

> <Gold.PLP.part.buried>
0.4883

> <Gold.PLP.part.nonpolar>
-43.6512

> <Gold.PLP.part.repulsive>
0.2519

> <Gold.PLP.ligand.clash>
0.0000

> <Gold.PLP.ligand.torsion>
0.5222

> <Gold.PLP.Chemscore.Hbond>
1.0000

> <Gold.PLP.Chemscore.CHOScore>
1.0000

> <Gold.PLP.Chemscore.Metal>
0.0000

> <Gold.Chemscore.Hbonds>
donor molecule, donor type, donor heavy atom, donor atom, acceptor molecule, acceptor atom, score
      L1  H     1    31       P1  7948  0.06
      L1  C     6    37       P1  7957  1.00

> <Gold.PLP.Chemscore.Internal.Correction>
0.5151

> <Gold.Rescore>
     Score         DG    S(hbond)    S(metal)    S(lipo)     H(rot)  DE(clash)    DE(int)     intcor
     11.38     -14.21       1.00        0.00     118.85       3.32       0.60       2.23       ----

> <Gold.Chemscore.Fitness>
11.3824

> <Gold.Chemscore.DG>
-14.2142

> <Gold.Chemscore.ZeroCoef>
-5.4800

> <Gold.Chemscore.Hbond>
0.9967

> <Gold.Chemscore.Metal>
0.0000

> <Gold.Chemscore.Lipo>
118.8468

> <Gold.Chemscore.Internal_Hbond>
0.0000

> <Gold.Chemscore.DEClash>
0.6022

> <Gold.Chemscore.DEInternal>
2.2295

> <Gold.Chemscore.Rot>
3.3203

> <Gold.Chemscore.Internal.Correction>
   9.000000E+99

> <Gold.Chemscore.Hbonds>
donor molecule, donor type, donor heavy atom, donor atom, acceptor molecule, acceptor atom, score
      L1  H     1    31       P1  7948  0.05

> <Gold.Chemscore.Hbond.Weighted>
-3.3291

> <Gold.Chemscore.Metal.Weighted>
-0.0000

> <Gold.Chemscore.Lipo.Weighted>
-13.9051

> <Gold.Chemscore.Internal_Hbond.Weighted>
0.0000

> <Gold.Chemscore.DEClash.Weighted>
0.6022

> <Gold.Chemscore.DEInternal.Weighted>
2.2295

> <Gold.Chemscore.Rot.Weighted>
8.5000

> <Gold.Chemscore.Internal.Correction.Weighted>
   9.000000E+99

> <Gold.Protein.RotatedTorsions>
[ 6907 6896 6895 6894 ] final -136.08 input  -60.11 | X-H torsion
[ 7974 7965 7964 7962 ] final  -74.84 input  175.53 | X-H torsion
[ 8008 7997 7996 7995 ] final   87.02 input   59.86 | X-H torsion
[ 10167 10162 10161 10158 ] final  137.98 input  -65.29 | X-H torsion
[ 10718 10713 10712 10709 ] final   81.62 input   66.30 | X-H torsion
[ 10763 10752 10751 10750 ] final   59.30 input  -60.55 | X-H torsion
[ 11005 11000 10999 10996 ] final   86.34 input  -57.11 | X-H torsion

> <Gold.Protein.ActiveResidues>
 VAL166  LYS551  ARG553  GLY616  TRP617  ASP618  TYR619  PRO620  LYS621  CYS622 
 ASP623  PHE694  ASN695  SER759  ASP760  ASP761  ALA762  ILE779  LEU786  VAL792 
 PHE793  MET794  SER795  GLU796  ALA797  LYS798  CYS799  TRP800  GLU811  SER814 

> <Gold.Protein.RotatedAtoms>
  151.0057  133.6013  159.2688 H   0  0  0  0  0  0  0  0  0  0  0  0  # atno 6907 bound_to 6896
  151.3183  135.0811  159.9306 H   0  0  0  0  0  0  0  0  0  0  0  0  # atno 6908 bound_to 6896
  152.5286  133.9709  159.7816 H   0  0  0  0  0  0  0  0  0  0  0  0  # atno 6909 bound_to 6896
  145.6339  140.9330  143.1072 H   0  0  0  0  0  0  0  0  0  0  0  0  # atno 7974 bound_to 7965
  155.9702  140.3386  155.6569 H   0  0  0  0  0  0  0  0  0  0  0  0  # atno 8008 bound_to 7997
  155.6684  140.0724  157.2547 H   0  0  0  0  0  0  0  0  0  0  0  0  # atno 8009 bound_to 7997
  154.4164  140.1696  156.1840 H   0  0  0  0  0  0  0  0  0  0  0  0  # atno 8010 bound_to 7997
  139.5126  144.6379  151.5648 H   0  0  0  0  0  0  0  0  0  0  0  0  # atno 10167 bound_to 10162
  157.6837  131.0012  150.2253 H   0  0  0  0  0  0  0  0  0  0  0  0  # atno 10718 bound_to 10713
  152.9891  135.5576  154.5691 H   0  0  0  0  0  0  0  0  0  0  0  0  # atno 10763 bound_to 10752
  154.5095  135.2801  155.1356 H   0  0  0  0  0  0  0  0  0  0  0  0  # atno 10764 bound_to 10752
  154.2754  135.6355  153.5379 H   0  0  0  0  0  0  0  0  0  0  0  0  # atno 10765 bound_to 10752
  139.8947  134.8349  156.2707 H   0  0  0  0  0  0  0  0  0  0  0  0  # atno 11005 bound_to 11000
  144.7183  139.8119  143.7391 LP  0  0  0  0  0  0  0  0  0  0  0  0  # atno 17320 bound_to 7965
  146.1335  139.4375  143.0154 LP  0  0  0  0  0  0  0  0  0  0  0  0  # atno 17321 bound_to 7965
  140.6135  143.9392  150.6471 LP  0  0  0  0  0  0  0  0  0  0  0  0  # atno 17342 bound_to 10162
  140.2643  143.3501  152.1295 LP  0  0  0  0  0  0  0  0  0  0  0  0  # atno 17343 bound_to 10162
  156.2896  130.3744  149.7854 LP  0  0  0  0  0  0  0  0  0  0  0  0  # atno 17370 bound_to 10713
  156.5518  130.8345  151.3302 LP  0  0  0  0  0  0  0  0  0  0  0  0  # atno 17371 bound_to 10713
  141.0102  133.7100  156.1100 LP  0  0  0  0  0  0  0  0  0  0  0  0  # atno 17394 bound_to 11000
  140.7377  134.4184  157.5558 LP  0  0  0  0  0  0  0  0  0  0  0  0  # atno 17395 bound_to 11000

$$$$
