#       Name:                AV-unprocessed.smi:21
#       Creating user name   scv26
#       Creation time:       Thu Mar 26 15:37:17 2020


#       File generated by GOLD software.
#

@<TRIPOS>MOLECULE
AV-unprocessed.smi:21
    71    74     1
SMALL
NO_CHARGES


@<TRIPOS>ATOM
      1 ****        -3.7539  -3.0791  -3.1890 C.3            1 S1                 0.0000
      2 ****        -3.5462  -2.1421  -2.1434 O.3            1 S1                 0.0000
      3 ****        -3.2077  -2.7391  -0.8984 C.3            1 S1                 0.0000
      4 ****        -2.5865  -1.6727  -0.0049 C.3            1 S1                 0.0000
      5 ****        -3.7971  -0.9688   0.6146 C.3            1 S1                 0.0000
      6 ****        -3.4893  -0.2423   1.9400 C.3            1 S1                 0.0000
      7 ****        -2.6016   0.9084   1.7571 N.pl3          1 S1                 0.0000
      8 ****        -3.1666   2.1193   1.1749 C.3            1 S1                 0.0000
      9 ****        -1.2488   0.7402   1.7979 C.ar           1 S1                 0.0000
     10 ****        -0.7508  -0.2481   2.5887 N.ar           1 S1                 0.0000
     11 ****         0.5640  -0.4669   2.6692 C.ar           1 S1                 0.0000
     12 ****         1.5532   0.1723   2.0462 N.ar           1 S1                 0.0000
     13 ****         1.0706   1.1648   1.2470 C.ar           1 S1                 0.0000
     14 ****        -0.2988   1.5196   1.0666 C.ar           1 S1                 0.0000
     15 ****        -0.3825   2.5791   0.1674 N.2            1 S1                 0.0000
     16 ****         0.8548   2.8375  -0.1546 C.2            1 S1                 0.0000
     17 ****         1.7919   2.0259   0.4398 N.pl3          1 S1                 0.0000
     18 ****         3.2319   2.0754   0.2592 C.3            1 S1                 0.0000
     19 ****         3.7621   0.9122  -0.6187 C.3            1 S1                 0.0000
     20 ****         3.2330   1.0147  -2.0681 C.3            1 S1                 0.0000
     21 ****         3.4997  -0.1659  -2.7960 O.3            1 S1                 0.0000
     22 ****         5.3076   0.7600  -0.5750 C.3            1 S1                 0.0000
     23 ****         6.1201   1.9742  -1.0127 C.3            1 S1                 0.0000
     24 ****         7.4180   1.7881  -0.2399 C.3            1 S1                 0.0000
     25 ****         6.9639   1.3236   1.0201 O.3            1 S1                 0.0000
     26 ****         5.9016   0.4020   0.7997 C.3            1 S1                 0.0000
     27 ****        -4.8003  -2.0422   0.8012 N.4            1 S1                 1.0000
     28 ****        -6.2036  -1.5825   0.7110 C.3            1 S1                 0.0000
     29 ****        -4.4751  -3.1487  -0.1312 C.3            1 S1                 0.0000
     30 ****        -2.5186  -3.5728  -1.0438 H              1 S1                 0.0000
     31 ****        -4.1881  -0.2588  -0.1168 H              1 S1                 0.0000
     32 ****        -4.0298  -2.5506  -4.1014 H              1 S1                 0.0000
     33 ****        -4.5550  -3.7801  -2.9542 H              1 S1                 0.0000
     34 ****        -2.8447  -3.6461  -3.3933 H              1 S1                 0.0000
     35 ****        -1.9950  -2.1562   0.7739 H              1 S1                 0.0000
     36 ****        -1.9287  -0.9928  -0.5477 H              1 S1                 0.0000
     37 ****        -4.4192   0.1303   2.3704 H              1 S1                 0.0000
     38 ****        -3.1022  -0.9465   2.6767 H              1 S1                 0.0000
     39 ****        -2.6788   3.0085   1.5755 H              1 S1                 0.0000
     40 ****        -4.2299   2.1990   1.4031 H              1 S1                 0.0000
     41 ****        -3.0576   2.1129   0.0899 H              1 S1                 0.0000
     42 ****         0.8667  -1.2690   3.3264 H              1 S1                 0.0000
     43 ****         1.1177   3.6243  -0.8468 H              1 S1                 0.0000
     44 ****         3.4844   3.0390  -0.1832 H              1 S1                 0.0000
     45 ****         3.6843   2.0658   1.2500 H              1 S1                 0.0000
     46 ****         3.3562  -0.0102  -0.2000 H              1 S1                 0.0000
     47 ****         2.1535   1.1624  -2.0825 H              1 S1                 0.0000
     48 ****         3.6763   1.8664  -2.5847 H              1 S1                 0.0000
     49 ****         3.1647  -0.0610  -3.6737 H              1 S1                 0.0000
     50 ****         5.5853  -0.0607  -1.2379 H              1 S1                 0.0000
     51 ****         6.2738   2.0164  -2.0912 H              1 S1                 0.0000
     52 ****         5.6541   2.9082  -0.7023 H              1 S1                 0.0000
     53 ****         8.0488   1.0303  -0.7076 H              1 S1                 0.0000
     54 ****         7.9920   2.7104  -0.1477 H              1 S1                 0.0000
     55 ****         5.1839   0.4561   1.6175 H              1 S1                 0.0000
     56 ****         6.3007  -0.6130   0.7880 H              1 S1                 0.0000
     57 ****        -6.4246  -1.1886  -0.2821 H              1 S1                 0.0000
     58 ****        -6.4027  -0.7987   1.4422 H              1 S1                 0.0000
     59 ****        -6.8873  -2.4079   0.9117 H              1 S1                 0.0000
     60 ****        -5.3034  -3.3907  -0.7980 H              1 S1                 0.0000
     61 ****        -4.2772  -4.0374   0.4688 H              1 S1                 0.0000
     62 ****        -4.6613  -2.4092   1.7320 H              1 S1                 0.0000
     63 ****        -4.3864  -1.6136  -2.0218 LP             1 S1                 0.0000
     64 ****        -2.8030  -1.5293  -2.4119 LP             1 S1                 0.0000
     65 ****        -1.3786  -0.8192   3.1176 LP             1 S1                 0.0000
     66 ****         2.5230  -0.0476   2.1514 LP             1 S1                 0.0000
     67 ****        -1.2079   3.0397  -0.1591 LP             1 S1                 0.0000
     68 ****         3.0505  -0.9426  -2.3545 LP             1 S1                 0.0000
     69 ****         4.4862  -0.3259  -2.8288 LP             1 S1                 0.0000
     70 ****         6.6353   2.0942   1.5663 LP             1 S1                 0.0000
     71 ****         7.7122   0.8682   1.5024 LP             1 S1                 0.0000
@<TRIPOS>BOND
    1    1    2 1     
    2    1   32 1     
    3    1   33 1     
    4    1   34 1     
    5    2    3 1     
    6    3   30 1     
    7    3   29 1     
    8    3    4 1     
    9    4    5 1     
   10    4   35 1     
   11    4   36 1     
   12    5   31 1     
   13    5    6 1     
   14    5   27 1     
   15    6    7 1     
   16    6   37 1     
   17    6   38 1     
   18    7    8 1     
   19    7    9 1     
   20    8   39 1     
   21    8   40 1     
   22    8   41 1     
   23    9   14 ar    
   24    9   10 ar    
   25   10   11 ar    
   26   11   12 ar    
   27   11   42 1     
   28   12   13 ar    
   29   13   17 1     
   30   13   14 ar    
   31   14   15 1     
   32   15   16 2     
   33   16   17 1     
   34   16   43 1     
   35   17   18 1     
   36   18   19 1     
   37   18   44 1     
   38   18   45 1     
   39   19   20 1     
   40   19   22 1     
   41   19   46 1     
   42   20   21 1     
   43   20   47 1     
   44   20   48 1     
   45   21   49 1     
   46   22   26 1     
   47   22   23 1     
   48   22   50 1     
   49   23   24 1     
   50   23   51 1     
   51   23   52 1     
   52   24   25 1     
   53   24   53 1     
   54   24   54 1     
   55   25   26 1     
   56   26   55 1     
   57   26   56 1     
   58   27   28 1     
   59   27   29 1     
   60   27   62 1     
   61   28   57 1     
   62   28   58 1     
   63   28   59 1     
   64   29   60 1     
   65   29   61 1     
   66    2   63 1     
   67    2   64 1     
   68   10   65 1     
   69   12   66 1     
   70   15   67 1     
   71   21   68 1     
   72   21   69 1     
   73   25   70 1     
   74   25   71 1     
@<TRIPOS>SUBSTRUCTURE
      1 S1             1
@<TRIPOS>SET
LONE_PAIRS      STATIC     ATOMS    <user>   **** ""
9 63 64 65 66 67 68 69 70 71
DONOR_HYDROGENS      STATIC     ATOMS    <user>   **** ""
2 49 62
ATOM$BLUE        STATIC     ATOMS    COLORGROUP SYSTEM
9 63 64 65 66 67 68 69 70 71
ATOM$RED        STATIC     ATOMS    COLORGROUP SYSTEM
2 49 62
