AV-unprocessed.smi:145|AV-procd|sdf|1198|dock7
  -GOLD-   2262018353D 1   1.00000     0.00000
 Structure written by MMmdl.
 40 42  0  0  0  0  0  0  0  0  1 V2000
  152.9309  139.3505  156.1576 O   0  0  0  0  0  0  0  0  0  0  0  0
  151.8533  139.9063  155.9402 C   0  0  0  0  0  0  0  0  0  0  0  0
  151.0140  139.5283  154.7089 C   0  0  0  0  0  0  0  0  0  0  0  0
  150.1281  138.3642  154.9304 N   0  0  0  0  0  0  0  0  0  0  0  0
  148.7864  138.5924  155.3245 C   0  0  0  0  0  0  0  0  0  0  0  0
  148.3506  139.7346  155.4754 O   0  0  0  0  0  0  0  0  0  0  0  0
  147.9806  137.3956  155.5385 C   0  0  0  0  0  0  0  0  0  0  0  0
  146.6919  137.5172  155.8996 F   0  0  0  0  0  0  0  0  0  0  0  0
  148.5077  136.1643  155.3781 C   0  0  0  0  0  0  0  0  0  0  0  0
  149.8253  135.9559  155.0106 N   0  0  0  0  0  0  0  0  0  0  0  0
  150.4048  134.5672  154.8407 C   0  0  1  0  0  0  0  0  0  0  0  0
  150.2260  133.7429  156.1301 C   0  0  0  0  0  0  0  0  0  0  0  0
  149.5810  132.4674  155.6261 C   0  0  0  0  0  0  0  0  0  0  0  0
  148.8173  132.9615  154.4069 C   0  0  0  0  0  0  0  0  0  0  0  0
  149.7241  133.8880  153.8238 O   0  0  0  0  0  0  0  0  0  0  0  0
  150.6659  137.0648  154.7721 C   0  0  0  0  0  0  0  0  0  0  0  0
  151.8425  136.9006  154.4412 O   0  0  0  0  0  0  0  0  0  0  0  0
  151.3270  140.8734  156.7133 N   0  0  0  0  0  0  0  0  0  0  0  0
  151.8534  141.4344  157.9080 C   0  0  0  0  0  0  0  0  0  0  0  0
  152.5045  140.6702  158.9069 C   0  0  0  0  0  0  0  0  0  0  0  0
  152.9829  141.2928  160.0764 C   0  0  0  0  0  0  0  0  0  0  0  0
  152.8079  142.6770  160.2627 C   0  0  0  0  0  0  0  0  0  0  0  0
  152.1465  143.4389  159.2812 C   0  0  0  0  0  0  0  0  0  0  0  0
  151.8734  145.4932  159.5594 I   0  0  0  0  0  0  0  0  0  0  0  0
  151.6664  142.8176  158.1119 C   0  0  0  0  0  0  0  0  0  0  0  0
  150.4430  140.4058  154.4018 H   0  0  0  0  0  0  0  0  0  0  0  0
  151.6863  139.3457  153.8687 H   0  0  0  0  0  0  0  0  0  0  0  0
  147.8563  135.3210  155.5485 H   0  0  0  0  0  0  0  0  0  0  0  0
  151.4447  134.7155  154.5444 H   0  0  0  0  0  0  0  0  0  0  0  0
  151.1838  133.5753  156.6236 H   0  0  0  0  0  0  0  0  0  0  0  0
  149.5571  134.2597  156.8203 H   0  0  0  0  0  0  0  0  0  0  0  0
  150.3475  131.7531  155.3227 H   0  0  0  0  0  0  0  0  0  0  0  0
  148.9402  131.9899  156.3676 H   0  0  0  0  0  0  0  0  0  0  0  0
  148.5617  132.1594  153.7142 H   0  0  0  0  0  0  0  0  0  0  0  0
  147.8979  133.4686  154.7031 H   0  0  0  0  0  0  0  0  0  0  0  0
  150.4853  141.3083  156.3641 H   0  0  0  0  0  0  0  0  0  0  0  0
  152.6346  139.6038  158.8035 H   0  0  0  0  0  0  0  0  0  0  0  0
  153.4803  140.7056  160.8342 H   0  0  0  0  0  0  0  0  0  0  0  0
  153.1754  143.1516  161.1606 H   0  0  0  0  0  0  0  0  0  0  0  0
  151.1583  143.4112  157.3657 H   0  0  0  0  0  0  0  0  0  0  0  0
  1  2  2  0  0  0  0
  2  3  1  0  0  0  0
  2 18  1  0  0  0  0
  3  4  1  0  0  0  0
  3 26  1  0  0  0  0
  3 27  1  0  0  0  0
  4 16  1  0  0  0  0
  4  5  1  0  0  0  0
  5  6  2  0  0  0  0
  5  7  1  0  0  0  0
  7  8  1  0  0  0  0
  7  9  2  0  0  0  0
  9 10  1  0  0  0  0
  9 28  1  0  0  0  0
 10 11  1  0  0  0  0
 10 16  1  0  0  0  0
 11 15  1  0  0  0  0
 11 12  1  0  0  0  0
 11 29  1  0  0  0  0
 12 13  1  0  0  0  0
 12 30  1  0  0  0  0
 12 31  1  0  0  0  0
 13 14  1  0  0  0  0
 13 32  1  0  0  0  0
 13 33  1  0  0  0  0
 14 15  1  0  0  0  0
 14 34  1  0  0  0  0
 14 35  1  0  0  0  0
 16 17  2  0  0  0  0
 18 19  1  0  0  0  0
 18 36  1  0  0  0  0
 19 25  1  0  0  0  0
 19 20  2  0  0  0  0
 20 21  1  0  0  0  0
 20 37  1  0  0  0  0
 21 22  2  0  0  0  0
 21 38  1  0  0  0  0
 22 23  1  0  0  0  0
 22 39  1  0  0  0  0
 23 24  1  0  0  0  0
 23 25  2  0  0  0  0
 25 40  1  0  0  0  0
M  END
> <s_m_source_file>
AV-unprocessed.smi

> <i_m_source_file_index>
145

> <i_lp_mmshare_version>
43012

> <i_f3d_flags>
0

> <s_epik_input>
SWMoW2NIXTEpW2NIXVtjSF1bY0hdYzFbTkhdQyg9TylbQ0gyXW4yYyg9TyljKEYpW2NIXW4oYzI9TylbQ0BASF0zW0NIMl1bQ0gyXVtDSDJdTzM=

> <s_epik_cmdline>
J2VwaWtfcHl0aG9uJywgJy1waCcsICc3LjAnLCAnLXRuJywgJzgnLCAnLW1hJywgJzIwMCcsICctbWV0YWxfYmluZGluZycsICctaW1hZScsICc8aW5maWxlLm1hZT4nLCAnLW9tYWUnLCAnPG91dGZpbGUubWFlPic=

> <r_lp_tautomer_probability>
1

> <r_epik_Ionization_Penalty>
9.72367e-07

> <r_epik_Ionization_Penalty_Charging>
3.88729e-08

> <r_epik_Ionization_Penalty_Neutral>
9.33494e-07

> <r_epik_State_Penalty>
-0

> <r_epik_Charging_Adjusted_Penalty>
3.88729e-08

> <i_epik_Tot_Q>
0

> <i_epik_Tot_abs_Q>
0

> <r_epik_Metal_State_Penalty>
-0

> <b_epik_Metal_Only>
0

> <s_epik_Chemistry_Notes>
This compound contains an acetal/aminal-like group ( X-CH(R)-Y where X, Y are N, S, or O) that may be acid/base labile, releasing an aldehyde.

> <s_lp_Force_Field>
OPLS_2005

> <r_lp_Energy>
33.5039

> <b_lp_Chiralities_Consistent>
1

> <s_lp_Variant>
AV-unprocessed.smi:145-2

> <Gold.Version>
5.8.1

> <Gold.Id.Protein>
6NUR|6NUR_protein|mol2

> <Gold.PLP.Fitness>
47.0950

> <Gold.PLP.PLP>
-43.0962

> <Gold.PLP.part.hbond>
-2.0000

> <Gold.PLP.part.metal>
0.0000

> <Gold.PLP.part.buried>
-2.7800

> <Gold.PLP.part.nonpolar>
-37.7977

> <Gold.PLP.part.repulsive>
0.8030

> <Gold.PLP.ligand.clash>
0.0000

> <Gold.PLP.ligand.torsion>
1.0063

> <Gold.PLP.Chemscore.Hbond>
2.0000

> <Gold.PLP.Chemscore.CHOScore>
0.0000

> <Gold.PLP.Chemscore.Metal>
0.0000

> <Gold.Chemscore.Hbonds>
donor molecule, donor type, donor heavy atom, donor atom, acceptor molecule, acceptor atom, score
      P1  H  7997  8008       L1     1  1.00
      P1  H 10752 10765       L1    17  1.00

> <Gold.PLP.Chemscore.Internal.Correction>
0.0114

> <Gold.Rescore>
     Score         DG    S(hbond)    S(metal)    S(lipo)     H(rot)  DE(clash)    DE(int)     intcor
     17.81     -19.37       1.98        0.00      98.54       1.66       0.02       1.54       ----

> <Gold.Chemscore.Fitness>
17.8144

> <Gold.Chemscore.DG>
-19.3685

> <Gold.Chemscore.ZeroCoef>
-5.4800

> <Gold.Chemscore.Hbond>
1.9805

> <Gold.Chemscore.Metal>
0.0000

> <Gold.Chemscore.Lipo>
98.5363

> <Gold.Chemscore.Internal_Hbond>
0.0000

> <Gold.Chemscore.DEClash>
0.0190

> <Gold.Chemscore.DEInternal>
1.5351

> <Gold.Chemscore.Rot>
1.6621

> <Gold.Chemscore.Internal.Correction>
   9.000000E+99

> <Gold.Chemscore.Hbonds>
donor molecule, donor type, donor heavy atom, donor atom, acceptor molecule, acceptor atom, score
      P1  H  7997  8008       L1     1  0.99
      P1  H 10752 10765       L1    17  0.97

> <Gold.Chemscore.Hbond.Weighted>
-6.6148

> <Gold.Chemscore.Metal.Weighted>
-0.0000

> <Gold.Chemscore.Lipo.Weighted>
-11.5287

> <Gold.Chemscore.Internal_Hbond.Weighted>
0.0000

> <Gold.Chemscore.DEClash.Weighted>
0.0190

> <Gold.Chemscore.DEInternal.Weighted>
1.5351

> <Gold.Chemscore.Rot.Weighted>
4.2550

> <Gold.Chemscore.Internal.Correction.Weighted>
   9.000000E+99

> <Gold.Protein.RotatedTorsions>
[ 6907 6896 6895 6894 ] final   69.19 input  -60.11 | X-H torsion
[ 7974 7965 7964 7962 ] final   61.65 input  175.53 | X-H torsion
[ 8008 7997 7996 7995 ] final  -42.37 input   59.86 | X-H torsion
[ 10167 10162 10161 10158 ] final  132.03 input  -65.29 | X-H torsion
[ 10718 10713 10712 10709 ] final -111.94 input   66.30 | X-H torsion
[ 10763 10752 10751 10750 ] final  175.46 input  -60.55 | X-H torsion
[ 11005 11000 10999 10996 ] final  137.85 input  -57.11 | X-H torsion

> <Gold.Protein.ActiveResidues>
 VAL166  LYS551  ARG553  GLY616  TRP617  ASP618  TYR619  PRO620  LYS621  CYS622 
 ASP623  PHE694  ASN695  SER759  ASP760  ASP761  ALA762  ILE779  LEU786  VAL792 
 PHE793  MET794  SER795  GLU796  ALA797  LYS798  CYS799  TRP800  GLU811  SER814 

> <Gold.Protein.RotatedAtoms>
  152.4670  134.5052  159.9736 H   0  0  0  0  0  0  0  0  0  0  0  0  # atno 6907 bound_to 6896
  151.5088  133.3483  159.2889 H   0  0  0  0  0  0  0  0  0  0  0  0  # atno 6908 bound_to 6896
  150.8659  134.8051  159.7180 H   0  0  0  0  0  0  0  0  0  0  0  0  # atno 6909 bound_to 6896
  145.8823  139.3452  143.0699 H   0  0  0  0  0  0  0  0  0  0  0  0  # atno 7974 bound_to 7965
  154.3999  140.1475  156.3344 H   0  0  0  0  0  0  0  0  0  0  0  0  # atno 8008 bound_to 7997
  155.8413  140.3462  155.5613 H   0  0  0  0  0  0  0  0  0  0  0  0  # atno 8009 bound_to 7997
  155.8083  140.0880  157.1909 H   0  0  0  0  0  0  0  0  0  0  0  0  # atno 8010 bound_to 7997
  139.5357  144.6680  151.4793 H   0  0  0  0  0  0  0  0  0  0  0  0  # atno 10167 bound_to 10162
  156.0676  130.5894  150.8442 H   0  0  0  0  0  0  0  0  0  0  0  0  # atno 10718 bound_to 10713
  154.4679  135.2770  155.1664 H   0  0  0  0  0  0  0  0  0  0  0  0  # atno 10763 bound_to 10752
  154.3425  135.6167  153.5607 H   0  0  0  0  0  0  0  0  0  0  0  0  # atno 10764 bound_to 10752
  152.9861  135.5792  154.5054 H   0  0  0  0  0  0  0  0  0  0  0  0  # atno 10765 bound_to 10752
  140.0143  134.9425  157.0343 H   0  0  0  0  0  0  0  0  0  0  0  0  # atno 11005 bound_to 11000
  145.9009  140.9243  143.0503 LP  0  0  0  0  0  0  0  0  0  0  0  0  # atno 17320 bound_to 7965
  144.6727  140.1031  143.7459 LP  0  0  0  0  0  0  0  0  0  0  0  0  # atno 17321 bound_to 7965
  140.6562  143.8593  150.6838 LP  0  0  0  0  0  0  0  0  0  0  0  0  # atno 17342 bound_to 10162
  140.1974  143.3987  152.1818 LP  0  0  0  0  0  0  0  0  0  0  0  0  # atno 17343 bound_to 10162
  157.5728  131.0946  150.9391 LP  0  0  0  0  0  0  0  0  0  0  0  0  # atno 17370 bound_to 10713
  156.9604  130.5453  149.5285 LP  0  0  0  0  0  0  0  0  0  0  0  0  # atno 17371 bound_to 10713
  140.4499  134.1593  155.7180 LP  0  0  0  0  0  0  0  0  0  0  0  0  # atno 17394 bound_to 11000
  141.1732  133.8567  157.1505 LP  0  0  0  0  0  0  0  0  0  0  0  0  # atno 17395 bound_to 11000

$$$$
