AV-unprocessed.smi:3255|AV-procd|sdf|12464|dock2
  -GOLD-   2272018363D 1   1.00000     0.00000
 Structure written by MMmdl.
 38 39  0  0  0  0  0  0  0  0  1 V2000
  147.1012  140.5422  153.1935 C   0  0  0  0  0  0  0  0  0  0  0  0
  147.7354  139.2857  153.8153 C   0  0  1  0  0  0  0  0  0  0  0  0
  147.4410  138.1212  152.9842 N   0  0  0  0  0  0  0  0  0  0  0  0
  146.2298  137.5696  152.8256 C   0  0  0  0  0  0  0  0  0  0  0  0
  145.2000  138.0020  153.3438 O   0  0  0  0  0  0  0  0  0  0  0  0
  146.2761  136.4863  152.0383 N   0  0  0  0  0  0  0  0  0  0  0  0
  145.1253  135.6636  151.6854 C   0  0  0  0  0  0  0  0  0  0  0  0
  145.3519  134.1885  152.0544 C   0  0  0  0  0  0  0  0  0  0  0  0
  145.1841  133.3229  150.9053 N   0  0  0  0  0  0  0  0  0  0  0  0
  146.1698  132.5872  150.2613 C   0  0  0  0  0  0  0  0  0  0  0  0
  145.5489  131.9153  149.2326 C   0  0  0  0  0  0  0  0  0  0  0  0
  144.1896  132.2202  149.2262 N   0  0  0  0  0  0  0  0  0  0  0  0
  144.0485  133.0587  150.2449 C   0  0  0  0  0  0  0  0  0  0  0  0
  149.2623  139.4187  153.9705 C   0  0  1  0  0  0  0  0  0  0  0  0
  149.7153  140.4659  154.9899 C   0  0  0  0  0  0  0  0  0  0  0  0
  151.0780  139.9654  155.4442 C   0  0  0  0  0  0  0  0  0  0  0  0
  151.1395  138.5255  154.9288 C   0  0  0  0  0  0  0  0  0  0  0  0
  149.8156  138.2276  154.5100 O   0  0  0  0  0  0  0  0  0  0  0  0
  147.2729  141.4220  153.8137 H   0  0  0  0  0  0  0  0  0  0  0  0
  146.0217  140.4296  153.0875 H   0  0  0  0  0  0  0  0  0  0  0  0
  147.5129  140.7462  152.2047 H   0  0  0  0  0  0  0  0  0  0  0  0
  147.3041  139.1315  154.8062 H   0  0  0  0  0  0  0  0  0  0  0  0
  148.2253  137.6880  152.5192 H   0  0  0  0  0  0  0  0  0  0  0  0
  147.1702  136.2080  151.6610 H   0  0  0  0  0  0  0  0  0  0  0  0
  144.2281  136.0478  152.1742 H   0  0  0  0  0  0  0  0  0  0  0  0
  144.9585  135.7581  150.6121 H   0  0  0  0  0  0  0  0  0  0  0  0
  146.3558  134.0436  152.4560 H   0  0  0  0  0  0  0  0  0  0  0  0
  144.6514  133.8708  152.8280 H   0  0  0  0  0  0  0  0  0  0  0  0
  147.2018  132.6022  150.5802 H   0  0  0  0  0  0  0  0  0  0  0  0
  145.9724  131.2406  148.5034 H   0  0  0  0  0  0  0  0  0  0  0  0
  143.0963  133.4893  150.5183 H   0  0  0  0  0  0  0  0  0  0  0  0
  149.7297  139.6163  153.0036 H   0  0  0  0  0  0  0  0  0  0  0  0
  149.7541  141.4716  154.5704 H   0  0  0  0  0  0  0  0  0  0  0  0
  149.0337  140.4835  155.8414 H   0  0  0  0  0  0  0  0  0  0  0  0
  151.8870  140.5615  155.0209 H   0  0  0  0  0  0  0  0  0  0  0  0
  151.1621  140.0072  156.5307 H   0  0  0  0  0  0  0  0  0  0  0  0
  151.8110  138.4533  154.0720 H   0  0  0  0  0  0  0  0  0  0  0  0
  151.4796  137.8214  155.6886 H   0  0  0  0  0  0  0  0  0  0  0  0
  1  2  1  0  0  0  0
  1 19  1  0  0  0  0
  1 20  1  0  0  0  0
  1 21  1  0  0  0  0
  2  3  1  0  0  0  0
  2 14  1  0  0  0  0
  2 22  1  0  0  0  0
  3  4  1  0  0  0  0
  3 23  1  0  0  0  0
  4  5  2  0  0  0  0
  4  6  1  0  0  0  0
  6  7  1  0  0  0  0
  6 24  1  0  0  0  0
  7  8  1  0  0  0  0
  7 25  1  0  0  0  0
  7 26  1  0  0  0  0
  8  9  1  0  0  0  0
  8 27  1  0  0  0  0
  8 28  1  0  0  0  0
  9 13  1  0  0  0  0
  9 10  1  0  0  0  0
 10 11  2  0  0  0  0
 10 29  1  0  0  0  0
 11 12  1  0  0  0  0
 11 30  1  0  0  0  0
 12 13  2  0  0  0  0
 13 31  1  0  0  0  0
 14 18  1  0  0  0  0
 14 15  1  0  0  0  0
 14 32  1  0  0  0  0
 15 16  1  0  0  0  0
 15 33  1  0  0  0  0
 15 34  1  0  0  0  0
 16 17  1  0  0  0  0
 16 35  1  0  0  0  0
 16 36  1  0  0  0  0
 17 18  1  0  0  0  0
 17 37  1  0  0  0  0
 17 38  1  0  0  0  0
M  END
> <s_m_source_file>
AV-unprocessed.smi

> <i_m_source_file_index>
3255

> <i_lp_mmshare_version>
43012

> <i_f3d_flags>
0

> <s_epik_input>
TzFbQ0gyXVtDSDJdW0NIMl1bQ0BIXTFbQ0BIXShbQ0gzXSlbTkhdQyg9TylbTkhdW0NIMl1bQ0gyXW4yW2NIXVtjSF1uW2NIXTI=

> <s_epik_cmdline>
J2VwaWtfcHl0aG9uJywgJy1waCcsICc3LjAnLCAnLXRuJywgJzgnLCAnLW1hJywgJzIwMCcsICctbWV0YWxfYmluZGluZycsICctaW1hZScsICc8aW5maWxlLm1hZT4nLCAnLW9tYWUnLCAnPG91dGZpbGUubWFlPic=

> <r_lp_tautomer_probability>
1

> <r_epik_Ionization_Penalty>
0.620274

> <r_epik_Ionization_Penalty_Charging>
0.620225

> <r_epik_Ionization_Penalty_Neutral>
4.91362e-05

> <r_epik_State_Penalty>
0.636186

> <r_epik_Charging_Adjusted_Penalty>
1.25641

> <i_epik_Tot_Q>
0

> <i_epik_Tot_abs_Q>
0

> <r_epik_Metal_State_Penalty>
0.306491

> <b_epik_Metal_Only>
0

> <s_lp_Force_Field>
OPLS_2005

> <r_lp_Energy>
17.3194

> <b_lp_Chiralities_Consistent>
1

> <s_lp_Variant>
AV-unprocessed.smi:3255-8

> <Gold.Version>
5.8.1

> <Gold.Id.Protein>
6NUR|6NUR_protein|mol2

> <Gold.PLP.Fitness>
43.8033

> <Gold.PLP.PLP>
-32.6262

> <Gold.PLP.part.hbond>
-2.7193

> <Gold.PLP.part.metal>
0.0000

> <Gold.PLP.part.buried>
-3.0224

> <Gold.PLP.part.nonpolar>
-29.6377

> <Gold.PLP.part.repulsive>
1.3109

> <Gold.PLP.ligand.clash>
0.0000

> <Gold.PLP.ligand.torsion>
0.5773

> <Gold.PLP.Chemscore.Hbond>
2.1172

> <Gold.PLP.Chemscore.CHOScore>
1.9740

> <Gold.PLP.Chemscore.Metal>
0.0000

> <Gold.Chemscore.Hbonds>
donor molecule, donor type, donor heavy atom, donor atom, acceptor molecule, acceptor atom, score
      L1  H     3    23       P1  7948  0.99
      L1  H     6    24       P1  7948  0.96
      P1  H 10785 10796       L1    12  0.14
      L1  C    10    29       P1 10747  0.98
      L1  C    13    31       P1 10186  1.00

> <Gold.PLP.Chemscore.Internal.Correction>
0.0582

> <Gold.Rescore>
     Score         DG    S(hbond)    S(metal)    S(lipo)     H(rot)  DE(clash)    DE(int)     intcor
     14.80     -15.44       2.32        0.00      66.67       2.18       0.06       0.58       ----

> <Gold.Chemscore.Fitness>
14.8033

> <Gold.Chemscore.DG>
-15.4399

> <Gold.Chemscore.ZeroCoef>
-5.4800

> <Gold.Chemscore.Hbond>
2.3198

> <Gold.Chemscore.Metal>
0.0000

> <Gold.Chemscore.Lipo>
66.6659

> <Gold.Chemscore.Internal_Hbond>
0.0000

> <Gold.Chemscore.DEClash>
0.0579

> <Gold.Chemscore.DEInternal>
0.5787

> <Gold.Chemscore.Rot>
2.1828

> <Gold.Chemscore.Internal.Correction>
   9.000000E+99

> <Gold.Chemscore.Hbonds>
donor molecule, donor type, donor heavy atom, donor atom, acceptor molecule, acceptor atom, score
      L1  H     3    23       P1  7948  0.94
      L1  H     6    24       P1  7948  0.92
      P1  H 10785 10796       L1    12  0.05

> <Gold.Chemscore.Hbond.Weighted>
-7.7481

> <Gold.Chemscore.Metal.Weighted>
-0.0000

> <Gold.Chemscore.Lipo.Weighted>
-7.7999

> <Gold.Chemscore.Internal_Hbond.Weighted>
0.0000

> <Gold.Chemscore.DEClash.Weighted>
0.0579

> <Gold.Chemscore.DEInternal.Weighted>
0.5787

> <Gold.Chemscore.Rot.Weighted>
5.5881

> <Gold.Chemscore.Internal.Correction.Weighted>
   9.000000E+99

> <Gold.Protein.RotatedTorsions>
[ 6907 6896 6895 6894 ] final  -32.77 input  -60.11 | X-H torsion
[ 7974 7965 7964 7962 ] final   74.93 input  175.53 | X-H torsion
[ 8008 7997 7996 7995 ] final  127.39 input   59.86 | X-H torsion
[ 10167 10162 10161 10158 ] final  -52.38 input  -65.29 | X-H torsion
[ 10718 10713 10712 10709 ] final -113.54 input   66.30 | X-H torsion
[ 10763 10752 10751 10750 ] final   43.43 input  -60.55 | X-H torsion
[ 11005 11000 10999 10996 ] final   41.78 input  -57.11 | X-H torsion

> <Gold.Protein.ActiveResidues>
 VAL166  LYS551  ARG553  GLY616  TRP617  ASP618  TYR619  PRO620  LYS621  CYS622 
 ASP623  PHE694  ASN695  SER759  ASP760  ASP761  ALA762  ILE779  LEU786  VAL792 
 PHE793  MET794  SER795  GLU796  ALA797  LYS798  CYS799  TRP800  GLU811  SER814 

> <Gold.Protein.RotatedAtoms>
  151.0744  134.9819  159.8324 H   0  0  0  0  0  0  0  0  0  0  0  0  # atno 6907 bound_to 6896
  152.5412  134.2259  159.8816 H   0  0  0  0  0  0  0  0  0  0  0  0  # atno 6908 bound_to 6896
  151.2286  133.4419  159.2636 H   0  0  0  0  0  0  0  0  0  0  0  0  # atno 6909 bound_to 6896
  145.7220  139.2652  143.1590 H   0  0  0  0  0  0  0  0  0  0  0  0  # atno 7974 bound_to 7965
  156.2889  140.2670  156.2266 H   0  0  0  0  0  0  0  0  0  0  0  0  # atno 8008 bound_to 7997
  155.0114  140.0387  157.2419 H   0  0  0  0  0  0  0  0  0  0  0  0  # atno 8009 bound_to 7997
  154.7514  140.2744  155.6294 H   0  0  0  0  0  0  0  0  0  0  0  0  # atno 8010 bound_to 7997
  140.6540  143.2586  151.4639 H   0  0  0  0  0  0  0  0  0  0  0  0  # atno 10167 bound_to 10162
  156.0773  130.5978  150.8656 H   0  0  0  0  0  0  0  0  0  0  0  0  # atno 10718 bound_to 10713
  152.9861  135.6102  154.3110 H   0  0  0  0  0  0  0  0  0  0  0  0  # atno 10763 bound_to 10752
  154.2825  135.2776  155.2692 H   0  0  0  0  0  0  0  0  0  0  0  0  # atno 10764 bound_to 10752
  154.5025  135.5863  153.6598 H   0  0  0  0  0  0  0  0  0  0  0  0  # atno 10765 bound_to 10752
  140.1801  134.4114  155.8205 H   0  0  0  0  0  0  0  0  0  0  0  0  # atno 11005 bound_to 11000
  146.0617  140.7964  142.9732 LP  0  0  0  0  0  0  0  0  0  0  0  0  # atno 17320 bound_to 7965
  144.6914  140.3206  143.7233 LP  0  0  0  0  0  0  0  0  0  0  0  0  # atno 17321 bound_to 7965
  139.5760  144.1819  152.1903 LP  0  0  0  0  0  0  0  0  0  0  0  0  # atno 17342 bound_to 10162
  140.1129  144.5441  150.6913 LP  0  0  0  0  0  0  0  0  0  0  0  0  # atno 17343 bound_to 10162
  157.5874  131.0945  150.9174 LP  0  0  0  0  0  0  0  0  0  0  0  0  # atno 17370 bound_to 10713
  156.9357  130.5366  149.5279 LP  0  0  0  0  0  0  0  0  0  0  0  0  # atno 17371 bound_to 10713
  141.2222  133.6996  156.7916 LP  0  0  0  0  0  0  0  0  0  0  0  0  # atno 17394 bound_to 11000
  140.2277  134.8709  157.3444 LP  0  0  0  0  0  0  0  0  0  0  0  0  # atno 17395 bound_to 11000

$$$$
